#------------------------------------------------------------------------------
#$Date: 2020-06-05 12:42:00 +0300 (Fri, 05 Jun 2020) $
#$Revision: 252681 $
#$URL: file:///home/coder/svn-repositories/cod/cif/7/12/64/7126486.cif $
#------------------------------------------------------------------------------
#
# This file is available in the Crystallography Open Database (COD),
# http://www.crystallography.net/
#
# All data on this site have been placed in the public domain by the
# contributors.
#
data_7126486
loop_
_publ_author_name
'Chen, Jing'
'Chao, Meng-Yao'
'Yan Liu, ?'
'Xu, Bo-Wei'
'Zhang, Wen-Hua'
'Young, David J.'
_publ_section_title
;
 An N,N'-diethylformamide solvent-induced conversion cascade within a
 metal-organic framework single crystal.
;
_journal_issue                   44
_journal_name_full
'Chemical communications (Cambridge, England)'
_journal_page_first              5877
_journal_page_last               5880
_journal_paper_doi               10.1039/d0cc02420a
_journal_volume                  56
_journal_year                    2020
_chemical_formula_moiety         'C69 H49 Cd3 N3 O14'
_chemical_formula_sum            'C69 H49 Cd3 N3 O14'
_chemical_formula_weight         1481.31
_space_group_crystal_system      triclinic
_space_group_IT_number           2
_space_group_name_Hall           '-P 1'
_space_group_name_H-M_alt        'P -1'
_atom_sites_solution_hydrogens   mixed
_audit_creation_method           SHELXL-2016/6
_audit_update_record
;
2020-01-17 deposited with the CCDC.	2020-04-28 downloaded from the CCDC.
;
_cell_angle_alpha                66.663(4)
_cell_angle_beta                 77.370(4)
_cell_angle_gamma                62.283(3)
_cell_formula_units_Z            2
_cell_length_a                   16.754(2)
_cell_length_b                   16.894(2)
_cell_length_c                   18.001(3)
_cell_measurement_reflns_used    9982
_cell_measurement_temperature    192(2)
_cell_measurement_theta_max      27.75
_cell_measurement_theta_min      2.28
_cell_volume                     4137.7(10)
_computing_cell_refinement       'Bruker ApexII'
_computing_data_collection       'Bruker ApexII'
_computing_data_reduction        'Bruker ApexII'
_computing_molecular_graphics    'SHELXL-2016/6 (Sheldrick, 2016)'
_computing_publication_material  'publCIF (Westrip, 2010)'
_computing_structure_refinement  'SHELXL-2016/6 (Sheldrick, 2016)'
_computing_structure_solution    'SHELXL-2016/6 (Sheldrick, 2016)'
_diffrn_ambient_temperature      192(2)
_diffrn_measured_fraction_theta_full 0.999
_diffrn_measured_fraction_theta_max 0.998
_diffrn_measurement_device_type  'Bruker Apex II'
_diffrn_measurement_method       'phi and omega scans'
_diffrn_radiation_type           MoK\a
_diffrn_radiation_wavelength     0.71073
_diffrn_reflns_av_R_equivalents  0.1168
_diffrn_reflns_av_unetI/netI     0.0931
_diffrn_reflns_Laue_measured_fraction_full 0.999
_diffrn_reflns_Laue_measured_fraction_max 0.998
_diffrn_reflns_limit_h_max       22
_diffrn_reflns_limit_h_min       -22
_diffrn_reflns_limit_k_max       22
_diffrn_reflns_limit_k_min       -22
_diffrn_reflns_limit_l_max       24
_diffrn_reflns_limit_l_min       -24
_diffrn_reflns_number            141382
_diffrn_reflns_point_group_measured_fraction_full 0.999
_diffrn_reflns_point_group_measured_fraction_max 0.998
_diffrn_reflns_theta_full        25.242
_diffrn_reflns_theta_max         28.282
_diffrn_reflns_theta_min         2.199
_diffrn_standards_decay_%        0
_diffrn_standards_interval_count 0
_diffrn_standards_interval_time  0
_diffrn_standards_number         0
_exptl_absorpt_coefficient_mu    0.816
_exptl_absorpt_correction_T_max  0.922
_exptl_absorpt_correction_T_min  0.907
_exptl_absorpt_correction_type   multi-scan
_exptl_absorpt_process_details
;
 Sheldrick, G.M. SADABS (Program for Scaling and Correction of Area Detector
 Data), version 2008/1; University of G\"ottingen: G\"ottingen, Germany, 2008.
;
_exptl_crystal_colour            colourless
_exptl_crystal_density_diffrn    1.189
_exptl_crystal_description       block
_exptl_crystal_F_000             1480
_exptl_crystal_size_max          0.300
_exptl_crystal_size_mid          0.100
_exptl_crystal_size_min          0.100
_refine_diff_density_max         3.262
_refine_diff_density_min         -1.627
_refine_diff_density_rms         0.131
_refine_ls_extinction_method     none
_refine_ls_goodness_of_fit_ref   1.025
_refine_ls_hydrogen_treatment    constr
_refine_ls_matrix_type           full
_refine_ls_number_parameters     802
_refine_ls_number_reflns         20523
_refine_ls_number_restraints     0
_refine_ls_restrained_S_all      1.025
_refine_ls_R_factor_all          0.1287
_refine_ls_R_factor_gt           0.0727
_refine_ls_shift/su_max          0.002
_refine_ls_shift/su_mean         0.000
_refine_ls_structure_factor_coef Fsqd
_refine_ls_weighting_details
'w=1/[\s^2^(Fo^2^)+(0.0665P)^2^+25.1630P] where P=(Fo^2^+2Fc^2^)/3'
_refine_ls_weighting_scheme      calc
_refine_ls_wR_factor_gt          0.1710
_refine_ls_wR_factor_ref         0.1977
_reflns_Friedel_coverage         0.000
_reflns_number_gt                12287
_reflns_number_total             20523
_reflns_threshold_expression     'I > 2\s(I)'
_cod_data_source_file            d0cc02420a2.cif
_cod_data_source_block           CD3-BPEE-DMF-14mon
_cod_depositor_comments
'Adding full bibliography for 7126483--7126489.cif.'
_cod_original_cell_volume        4138.0(10)
_cod_database_code               7126486
_publcif_datablock.id            {bd087a71-6753-4a32-91ac-449bc87ca752}
_shelx_shelxl_version_number     2016/6
_shelx_space_group_comment
;
The symmetry employed for this shelxl refinement is uniquely defined
by the following loop, which should always be used as a source of
symmetry information in preference to the above space-group names.
They are only intended as comments.
;
_shelx_estimated_absorpt_t_min   0.792
_shelx_estimated_absorpt_t_max   0.923
_shelx_res_file
;
TITL CD3 14 MONTH in P-1
    CD3.res
    created by SHELXL-2016/6 at 10:01:00 on 20-Oct-2019
CELL 0.71073  16.75440  16.89410  18.00150  66.6633  77.3704  62.2831
ZERR   2.00   0.00240   0.00230   0.00260   0.0039   0.0041   0.0033
LATT  1
SFAC C H N O CD
UNIT 138 98 6 28 6
TEMP -81
SIZE 0.10 0.10 0.30

L.S. 30
BOND $H
ACTA
FMAP 2
PLAN 5
ABIN
WGHT    0.066500   25.163000
FVAR       0.06361
CD1   5    1.488379   -1.222805    0.905333    11.00000    0.02064    0.02250 =
         0.05257   -0.01571   -0.00079   -0.00662
CD2   5    1.328866   -1.025627    0.749533    11.00000    0.03715    0.01990 =
         0.05247   -0.00731   -0.01082   -0.01233
CD3   5    1.200283   -0.834162    0.564724    11.00000    0.02465    0.02598 =
         0.06238   -0.01696   -0.00619   -0.00347
O1    4    1.357408   -1.076684    0.884120    11.00000    0.04295    0.02126 =
         0.04741   -0.01195   -0.00339   -0.01038
O2    4    1.460281   -1.097970    0.954879    11.00000    0.03465    0.03148 =
         0.09041   -0.03077   -0.01457   -0.00247
O3    4    1.452225   -0.282051    0.831299    11.00000    0.02443    0.02529 =
         0.05079   -0.01165   -0.00010   -0.01365
O4    4    1.323815   -0.159387    0.776582    11.00000    0.04215    0.02440 =
         0.06210   -0.00984   -0.00584   -0.01548
O5    4    0.627780   -0.372264    0.947453    11.00000    0.02381    0.04059 =
         0.07373   -0.00876    0.00564   -0.01126
O6    4    0.631048   -0.235542    0.870414    11.00000    0.02130    0.03214 =
         0.07993   -0.01582    0.00255   -0.00573
O7    4    1.489603   -1.093828    0.742044    11.00000    0.02764    0.03438 =
         0.07279   -0.01781   -0.00048   -0.01286
O8    4    1.174943   -0.956000    0.758408    11.00000    0.04136    0.06969 =
         0.11700   -0.03554   -0.01341   -0.02051
AFIX   3
H1W   2    1.135780   -0.953527    0.795795    11.00000   -1.20000
H2W   2    1.151720   -0.946607    0.717685    11.00000   -1.20000
AFIX   0
O9    4    1.315420   -0.986718    0.611328    11.00000    0.04268    0.02382 =
         0.04624   -0.01009   -0.01093   -0.01092
O10   4    1.234382   -0.963075    0.517856    11.00000    0.04084    0.03160 =
         0.06461   -0.01779   -0.01464   -0.00457
O11   4    1.349666   -1.898077    0.719002    11.00000    0.04471    0.02231 =
         0.05398   -0.01103   -0.00253   -0.01630
O12   4    1.244820   -1.777636    0.632638    11.00000    0.03219    0.03518 =
         0.06802   -0.02010   -0.00680   -0.01580
O13   4    2.061203   -1.824191    0.609948    11.00000    0.02638    0.04124 =
         0.10391   -0.02060    0.01184   -0.00522
O14   4    2.059769   -1.687836    0.537423    11.00000    0.02347    0.06995 =
         0.09294   -0.00282   -0.00099   -0.01973
N1    3    1.426796   -1.307110    1.019543    11.00000    0.03087    0.03148 =
         0.04942   -0.01889    0.00502   -0.00827
N2    3    1.247403   -1.747221    1.442002    11.00000    0.03568    0.02994 =
         0.04421   -0.01462    0.00189   -0.01247
N3    3    1.561410   -1.000230    0.662483    11.00000    0.04139    0.03787 =
         0.05714   -0.01704    0.00882   -0.02219
C1    1    1.396167   -1.288261    1.087797    11.00000    0.06855    0.04177 =
         0.06928   -0.02694    0.00702   -0.03090
AFIX  43
H1A   2    1.398461   -1.235173    1.092239    11.00000   -1.20000
AFIX   0
C2    1    1.361115   -1.342537    1.152612    11.00000    0.09041    0.05395 =
         0.05519   -0.02810    0.02804   -0.04437
AFIX  43
H2A   2    1.338987   -1.325330    1.199841    11.00000   -1.20000
AFIX   0
C3    1    1.357589   -1.422132    1.150037    11.00000    0.03762    0.02868 =
         0.04978   -0.01498    0.00839   -0.01313
C4    1    1.388490   -1.440900    1.077632    11.00000    0.03804    0.03201 =
         0.05432   -0.01842    0.00475   -0.01585
AFIX  43
H4A   2    1.385877   -1.492620    1.070864    11.00000   -1.20000
AFIX   0
C5    1    1.422815   -1.383187    1.016207    11.00000    0.05660    0.03582 =
         0.04885   -0.02327    0.01038   -0.01790
AFIX  43
H5A   2    1.445299   -1.398247    0.968001    11.00000   -1.20000
AFIX   0
C6    1    1.322298   -1.481844    1.219470    11.00000    0.03931    0.05021 =
         0.04563   -0.02042    0.00890   -0.02151
AFIX  43
H6A   2    1.288946   -1.455981    1.260701    11.00000   -1.20000
AFIX   0
C7    1    1.332582   -1.569022    1.230229    11.00000    0.03451    0.03804 =
         0.04302   -0.01945    0.00298   -0.01166
AFIX  43
H7A   2    1.363330   -1.594059    1.188017    11.00000   -1.20000
AFIX   0
C8    1    1.300410   -1.629175    1.301656    11.00000    0.02758    0.03981 =
         0.04711   -0.01990    0.00076   -0.01412
C9    1    1.240785   -1.594005    1.359369    11.00000    0.04155    0.03054 =
         0.05584   -0.02091    0.00688   -0.01183
AFIX  43
H9A   2    1.216815   -1.528296    1.351918    11.00000   -1.20000
AFIX   0
C10   1    1.216075   -1.654754    1.428058    11.00000    0.03996    0.03331 =
         0.06007   -0.02264    0.01256   -0.01348
AFIX  43
H10A  2    1.174919   -1.629130    1.466878    11.00000   -1.20000
AFIX   0
C11   1    1.302595   -1.780254    1.384090    11.00000    0.05087    0.02862 =
         0.05812   -0.01912   -0.00017   -0.01316
AFIX  43
H11A  2    1.323293   -1.845582    1.391647    11.00000   -1.20000
AFIX   0
C12   1    1.330395   -1.725167    1.315261    11.00000    0.04664    0.03094 =
         0.05287   -0.01898    0.00718   -0.01056
AFIX  43
H12A  2    1.370172   -1.752397    1.276723    11.00000   -1.20000
AFIX   0
C13   1    1.389453   -1.044754    0.918256    11.00000    0.03056    0.02908 =
         0.05543   -0.02190    0.00789   -0.01532
C14   1    1.338995   -0.943818    0.914456    11.00000    0.03454    0.02634 =
         0.04396   -0.01370    0.00093   -0.01110
C15   1    1.381021   -0.899379    0.933370    11.00000    0.02698    0.03162 =
         0.07590   -0.02817   -0.01304   -0.00231
AFIX  43
H15A  2    1.440441   -0.935481    0.952682    11.00000   -1.20000
AFIX   0
C16   1    1.337548   -0.804806    0.924359    11.00000    0.02518    0.03067 =
         0.07773   -0.02549   -0.00759   -0.00922
AFIX  43
H16A  2    1.367067   -0.776249    0.937791    11.00000   -1.20000
AFIX   0
C17   1    1.249527   -0.749192    0.895403    11.00000    0.02427    0.02013 =
         0.05004   -0.01572    0.00067   -0.00980
C18   1    1.207208   -0.794804    0.880010    11.00000    0.02300    0.02649 =
         0.06838   -0.02509   -0.00680   -0.00493
AFIX  43
H18A  2    1.146841   -0.759567    0.862958    11.00000   -1.20000
AFIX   0
C19   1    1.251299   -0.890654    0.889037    11.00000    0.03157    0.03505 =
         0.06523   -0.02673   -0.00228   -0.01489
AFIX  43
H19A  2    1.221081   -0.919990    0.877690    11.00000   -1.20000
AFIX   0
C20   1    1.376713   -0.247268    0.802845    11.00000    0.03629    0.02616 =
         0.03241   -0.00655    0.00255   -0.01740
C21   1    1.340252   -0.314035    0.802262    11.00000    0.02902    0.02357 =
         0.04527   -0.00913   -0.00324   -0.01226
C22   1    1.383923   -0.411517    0.840014    11.00000    0.02697    0.02127 =
         0.06093   -0.01359   -0.00579   -0.00677
AFIX  43
H22A  2    1.442573   -0.438549    0.859422    11.00000   -1.20000
AFIX   0
C23   1    1.343100   -0.469718    0.849703    11.00000    0.02516    0.02569 =
         0.06238   -0.01664   -0.00092   -0.00722
AFIX  43
H23A  2    1.374423   -0.536359    0.875742    11.00000   -1.20000
AFIX   0
C24   1    1.257795   -0.433675    0.822532    11.00000    0.02396    0.02416 =
         0.05566   -0.01348   -0.00515   -0.00667
C25   1    1.217963   -0.334957    0.777243    11.00000    0.03444    0.03018 =
         0.06782   -0.00529   -0.01426   -0.01650
AFIX  43
H25A  2    1.162051   -0.308388    0.752965    11.00000   -1.20000
AFIX   0
C26   1    1.258729   -0.277043    0.767830    11.00000    0.04393    0.02242 =
         0.05496   -0.00254   -0.01337   -0.01521
AFIX  43
H26A  2    1.230645   -0.211158    0.737448    11.00000   -1.20000
AFIX   0
C27   1    0.669625   -0.323890    0.907817    11.00000    0.01911    0.03858 =
         0.03546   -0.01798    0.00242   -0.01232
C28   1    0.772717   -0.371282    0.901289    11.00000    0.01734    0.03156 =
         0.04495   -0.01675    0.00058   -0.00745
C29   1    0.820506   -0.464152    0.946896    11.00000    0.02734    0.03365 =
         0.05804   -0.00791    0.00203   -0.01294
AFIX  43
H29A  2    0.788782   -0.499534    0.983334    11.00000   -1.20000
AFIX   0
C30   1    0.913194   -0.507531    0.941336    11.00000    0.02579    0.03503 =
         0.05478   -0.00741   -0.00087   -0.00447
AFIX  43
H30A  2    0.944496   -0.571778    0.974393    11.00000   -1.20000
AFIX   0
C31   1    0.961195   -0.458283    0.887941    11.00000    0.02150    0.02356 =
         0.04950   -0.01621    0.00028   -0.00898
C32   1    0.913601   -0.362872    0.841634    11.00000    0.02879    0.02614 =
         0.07752   -0.01273    0.00688   -0.01230
AFIX  43
H32A  2    0.945350   -0.327595    0.805059    11.00000   -1.20000
AFIX   0
C33   1    0.821414   -0.320319    0.848955    11.00000    0.03126    0.01419 =
         0.08221   -0.00962    0.00316   -0.01199
AFIX  43
H33A  2    0.789850   -0.255166    0.818081    11.00000   -1.20000
AFIX   0
C34   1    1.201936   -0.645392    0.881625    11.00000    0.02398    0.02685 =
         0.05378   -0.01988    0.00003   -0.01041
C35   1    1.250529   -0.589806    0.856014    11.00000    0.02029    0.02501 =
         0.06033   -0.02049   -0.00025   -0.00716
AFIX  43
H35A  2    1.314255   -0.618908    0.848146    11.00000   -1.20000
AFIX   0
C36   1    1.206248   -0.491719    0.841847    11.00000    0.01875    0.03629 =
         0.04878   -0.01447   -0.00286   -0.00979
C37   1    1.111735   -0.451571    0.852964    11.00000    0.02303    0.02560 =
         0.05906   -0.01963   -0.00272   -0.00613
AFIX  43
H37A  2    1.080782   -0.385145    0.843390    11.00000   -1.20000
AFIX   0
C38   1    1.061853   -0.504294    0.877164    11.00000    0.01961    0.02653 =
         0.04798   -0.01415    0.00290   -0.01036
C39   1    1.108764   -0.601755    0.891557    11.00000    0.02197    0.02721 =
         0.05488   -0.01909   -0.00278   -0.01096
AFIX  43
H39A  2    1.075864   -0.639507    0.908721    11.00000   -1.20000
AFIX   0
C40   1    1.543473   -1.059653    0.731491    11.00000    0.03342    0.03587 =
         0.06745   -0.02115    0.00714   -0.01532
AFIX  43
H40A  2    1.575560   -1.077400    0.777149    11.00000   -1.20000
AFIX   0
C41   1    1.512681   -0.964667    0.590127    11.00000    0.05335    0.07518 =
         0.05744   -0.02571    0.01026   -0.02648
AFIX  33
H41A  2    1.535024   -0.922127    0.545687    11.00000   -1.50000
H41B  2    1.522024   -1.018225    0.575081    11.00000   -1.50000
H41C  2    1.448140   -0.929671    0.600828    11.00000   -1.50000
AFIX   0
C42   1    1.632208   -0.970158    0.657065    11.00000    0.06337    0.06488 =
         0.08722   -0.03006    0.01915   -0.04841
AFIX  33
H42A  2    1.635963   -0.926728    0.602158    11.00000   -1.50000
H42B  2    1.617805   -0.937567    0.695987    11.00000   -1.50000
H42C  2    1.690226   -1.026056    0.669423    11.00000   -1.50000
AFIX   0
C43   1    1.294477   -1.018148    0.568275    11.00000    0.02259    0.02336 =
         0.03867   -0.00532    0.00185   -0.00687
C44   1    1.344804   -1.121101    0.575714    11.00000    0.02608    0.02716 =
         0.03091   -0.00752    0.00090   -0.01154
C45   1    1.427207   -1.177159    0.612986    11.00000    0.02837    0.02714 =
         0.05457   -0.01854   -0.00082   -0.01290
AFIX  43
H45A  2    1.452199   -1.149939    0.633416    11.00000   -1.20000
AFIX   0
C46   1    1.472812   -1.271973    0.620448    11.00000    0.02546    0.02791 =
         0.05230   -0.01391   -0.00468   -0.01085
AFIX  43
H46A  2    1.528929   -1.309196    0.646100    11.00000   -1.20000
AFIX   0
C47   1    1.438088   -1.314407    0.591006    11.00000    0.02301    0.02688 =
         0.04201   -0.01321    0.00164   -0.01098
C48   1    1.355757   -1.258533    0.554320    11.00000    0.03713    0.02898 =
         0.05661   -0.01723   -0.00537   -0.01320
AFIX  43
H48A  2    1.330466   -1.286128    0.534647    11.00000   -1.20000
AFIX   0
C49   1    1.309455   -1.162262    0.545862    11.00000    0.03329    0.02237 =
         0.05091   -0.00397   -0.01152   -0.01022
AFIX  43
H49A  2    1.253673   -1.124733    0.519664    11.00000   -1.20000
AFIX   0
C50   1    1.311016   -1.812465    0.675364    11.00000    0.03068    0.02012 =
         0.04892   -0.01737    0.00684   -0.01311
C51   1    1.348796   -1.746686    0.673586    11.00000    0.02875    0.02272 =
         0.04748   -0.01272    0.00102   -0.01245
C52   1    1.427244   -1.782889    0.714028    11.00000    0.03485    0.02527 =
         0.05414   -0.00544   -0.00763   -0.01353
AFIX  43
H52A  2    1.452094   -1.847440    0.748534    11.00000   -1.20000
AFIX   0
C53   1    1.468780   -1.725225    0.704040    11.00000    0.03637    0.02800 =
         0.06130   -0.00947   -0.01479   -0.01200
AFIX  43
H53A  2    1.522861   -1.751352    0.731032    11.00000   -1.20000
AFIX   0
C54   1    1.433832   -1.630594    0.655872    11.00000    0.02462    0.01751 =
         0.05690   -0.01022    0.00215   -0.01296
C55   1    1.351184   -1.593401    0.621585    11.00000    0.03666    0.02468 =
         0.07267   -0.00380   -0.00973   -0.01802
AFIX  43
H55A  2    1.323197   -1.527516    0.591172    11.00000   -1.20000
AFIX   0
C56   1    1.309564   -1.650902    0.631217    11.00000    0.02959    0.02044 =
         0.06886   -0.00408   -0.01137   -0.01368
AFIX  43
H56A  2    1.252831   -1.623761    0.608150    11.00000   -1.20000
AFIX   0
C57   1    2.020189   -1.736888    0.578342    11.00000    0.02417    0.05411 =
         0.04310   -0.01839    0.00246   -0.01218
C58   1    1.917709   -1.690728    0.587301    11.00000    0.02060    0.04587 =
         0.04684   -0.02113    0.00060   -0.00622
C59   1    1.872026   -1.742269    0.636410    11.00000    0.01882    0.05192 =
         0.08284   -0.02689    0.00075   -0.00655
AFIX  43
H59A  2    1.904991   -1.807701    0.665678    11.00000   -1.20000
AFIX   0
C60   1    1.777563   -1.701831    0.645264    11.00000    0.02118    0.03694 =
         0.06128   -0.01577    0.00055   -0.00947
AFIX  43
H60A  2    1.747189   -1.739194    0.680731    11.00000   -1.20000
AFIX   0
C61   1    1.728378   -1.605585    0.601177    11.00000    0.02426    0.03000 =
         0.04879   -0.01803    0.00304   -0.00798
C62   1    1.776534   -1.553891    0.551967    11.00000    0.02824    0.03165 =
         0.05841   -0.01653    0.00222   -0.01471
AFIX  43
H62A  2    1.744423   -1.488509    0.522010    11.00000   -1.20000
AFIX   0
C63   1    1.870667   -1.595023    0.545155    11.00000    0.02555    0.04529 =
         0.05202   -0.01757    0.00312   -0.01587
AFIX  43
H63A  2    1.902063   -1.557758    0.511979    11.00000   -1.20000
AFIX   0
C64   1    1.486724   -1.417627    0.602841    11.00000    0.02515    0.02318 =
         0.04631   -0.01140   -0.00009   -0.01265
C65   1    1.437958   -1.473657    0.624064    11.00000    0.01945    0.02587 =
         0.05010   -0.01298    0.00009   -0.00967
AFIX  43
H65A  2    1.373963   -1.444995    0.629564    11.00000   -1.20000
AFIX   0
C66   1    1.484093   -1.571409    0.636959    11.00000    0.02941    0.01679 =
         0.05245   -0.01029    0.00296   -0.01736
C67   1    1.576994   -1.612914    0.628629    11.00000    0.02754    0.02058 =
         0.05508   -0.01605    0.00026   -0.00551
AFIX  43
H67A  2    1.607651   -1.679004    0.636658    11.00000   -1.20000
AFIX   0
C68   1    1.627462   -1.558805    0.608336    11.00000    0.02248    0.02972 =
         0.04555   -0.01665    0.00211   -0.01144
C69   1    1.579789   -1.461767    0.595569    11.00000    0.02412    0.02406 =
         0.05632   -0.01527    0.00274   -0.01280
AFIX  43
H69A  2    1.612665   -1.424336    0.581250    11.00000   -1.20000

AFIX   0
HKLF 4

REM  CD3 14 MONTH in P-1
REM R1 =  0.0727 for   12287 Fo > 4sig(Fo)  and  0.1287 for all   20523 data
REM    802 parameters refined using      0 restraints

END

WGHT      0.0651     25.0692

REM Highest difference peak  3.262,  deepest hole -1.627,  1-sigma level  0.131
Q1    1   1.1804 -0.8474  0.5312  11.00000  0.05    3.26
Q2    1   1.3796 -0.5832  0.9097  11.00000  0.05    1.71
Q3    1   1.3023 -1.0395  0.7235  11.00000  0.05    1.61
Q4    1   1.1795 -0.8546  0.6111  11.00000  0.05    1.48
Q5    1   1.4942 -1.2404  0.9610  11.00000  0.05    1.42
;
_shelx_res_checksum              25297
_shelx_fab_file
;
    2    0    0     80.59      0.00
    3    0    0     48.90      0.00
    4    0    0     16.03      0.00
    5    0    0      1.63      0.00
    6    0    0     -0.76      0.00
    7    0    0      2.03      0.00
    8    0    0     -5.11      0.00
    9    0    0     -2.15      0.00
   10    0    0      3.46      0.00
   11    0    0     -0.74      0.00
   12    0    0      0.42      0.00
   13    0    0      3.82      0.00
   14    0    0     -0.06      0.00
   15    0    0     -0.55      0.00
   16    0    0      0.00      0.00
   17    0    0      1.63      0.00
   18    0    0      4.02      0.00
   19    0    0      2.87      0.00
  -19    1    0     -2.07      0.00
  -18    1    0     -1.70      0.00
  -17    1    0      0.44      0.00
  -16    1    0     -0.54      0.00
  -15    1    0     -2.43      0.00
  -14    1    0     -4.65      0.00
  -13    1    0     -5.67      0.00
  -12    1    0     -6.56      0.00
  -11    1    0     -7.13      0.00
  -10    1    0      0.08      0.00
   -9    1    0      3.99      0.00
   -8    1    0      1.23      0.00
   -7    1    0      2.13      0.00
   -6    1    0      6.75      0.00
   -5    1    0      2.13      0.00
   -4    1    0    -11.49      0.00
   -3    1    0    -15.49      0.00
   -2    1    0    -68.50      0.00
   -1    1    0    -67.13      0.00
    2    1    0      6.47      0.00
    3    1    0     19.30      0.00
    4    1    0      3.86      0.00
    5    1    0    -24.01      0.00
    6    1    0    -25.49      0.00
    7    1    0     -3.42      0.00
    8    1    0     -7.96      0.00
    9    1    0     -7.29      0.00
   10    1    0      3.75      0.00
   11    1    0      0.31      0.00
   12    1    0     -1.05      0.00
   13    1    0      4.44      0.00
   14    1    0     -0.16      0.00
   15    1    0     -0.15      0.00
   16    1    0      0.90      0.00
   17    1    0     -0.08      0.00
   18    1    0      1.14      0.00
   19    1    0      1.61      0.00
   20    1    0      1.55      0.00
  -18    2    0      1.42      0.00
  -17    2    0      2.68      0.00
  -16    2    0      0.09      0.00
  -15    2    0      2.08      0.00
  -14    2    0      3.51      0.00
  -13    2    0      2.09      0.00
  -12    2    0      0.73      0.00
  -11    2    0     -0.28      0.00
  -10    2    0      1.06      0.00
   -9    2    0      4.12      0.00
   -8    2    0      3.95      0.00
   -7    2    0      0.01      0.00
   -6    2    0      5.95      0.00
   -5    2    0     15.09      0.00
   -4    2    0     -0.82      0.00
   -3    2    0     -5.06      0.00
   -2    2    0     -6.20      0.00
   -1    2    0    -32.65      0.00
    0    2    0      4.98      0.00
    1    2    0      6.60      0.00
    2    2    0    -16.43      0.00
    3    2    0     25.88      0.00
    4    2    0     31.29      0.00
    5    2    0     -1.56      0.00
    6    2    0    -18.62      0.00
    7    2    0      4.23      0.00
    8    2    0      5.80      0.00
    9    2    0     -1.40      0.00
   10    2    0      8.53      0.00
   11    2    0      8.57      0.00
   12    2    0      3.14      0.00
   13    2    0      6.48      0.00
   14    2    0      2.91      0.00
   15    2    0     -1.52      0.00
   16    2    0     -1.57      0.00
   17    2    0     -3.97      0.00
   18    2    0     -4.20      0.00
   19    2    0     -3.54      0.00
   20    2    0     -2.04      0.00
  -18    3    0      2.97      0.00
  -17    3    0      3.98      0.00
  -16    3    0     -2.83      0.00
  -15    3    0     -3.59      0.00
  -14    3    0      0.21      0.00
  -13    3    0      3.02      0.00
  -12    3    0      0.83      0.00
  -11    3    0      3.62      0.00
  -10    3    0      1.74      0.00
   -9    3    0     -2.04      0.00
   -8    3    0     -0.34      0.00
   -7    3    0     -3.06      0.00
   -6    3    0    -10.92      0.00
   -5    3    0     -6.30      0.00
   -4    3    0    -16.73      0.00
   -3    3    0    -27.17      0.00
   -2    3    0     -9.24      0.00
   -1    3    0    -23.86      0.00
    0    3    0    -14.11      0.00
    1    3    0      1.93      0.00
    2    3    0    -15.34      0.00
    3    3    0      3.22      0.00
    4    3    0     10.17      0.00
    5    3    0      6.43      0.00
    6    3    0    -18.98      0.00
    7    3    0    -13.45      0.00
    8    3    0     -5.76      0.00
    9    3    0    -16.48      0.00
   10    3    0    -11.04      0.00
   11    3    0     -1.33      0.00
   12    3    0     -2.48      0.00
   13    3    0      0.91      0.00
   14    3    0      2.81      0.00
   15    3    0     -0.40      0.00
   16    3    0      0.08      0.00
   17    3    0     -1.93      0.00
   18    3    0     -3.12      0.00
   19    3    0     -2.98      0.00
   20    3    0     -0.34      0.00
  -17    4    0      4.92      0.00
  -16    4    0      5.01      0.00
  -15    4    0      3.31      0.00
  -14    4    0      0.71      0.00
  -13    4    0      1.29      0.00
  -12    4    0     -2.00      0.00
  -11    4    0      1.02      0.00
  -10    4    0      1.71      0.00
   -9    4    0     -1.02      0.00
   -8    4    0     -0.52      0.00
   -7    4    0      2.08      0.00
   -6    4    0     -2.40      0.00
   -5    4    0      1.03      0.00
   -4    4    0      0.56      0.00
   -3    4    0     -8.89      0.00
   -2    4    0      0.68      0.00
   -1    4    0     -5.16      0.00
    0    4    0     -9.16      0.00
    1    4    0      3.57      0.00
    2    4    0     16.94      0.00
    3    4    0     12.72      0.00
    4    4    0      3.62      0.00
    5    4    0     17.96      0.00
    6    4    0      5.76      0.00
    7    4    0     -2.02      0.00
    8    4    0      0.80      0.00
    9    4    0     -8.69      0.00
   10    4    0    -13.02      0.00
   11    4    0     -5.40      0.00
   12    4    0     -5.04      0.00
   13    4    0     -4.26      0.00
   14    4    0     -1.03      0.00
   15    4    0     -0.24      0.00
   16    4    0     -0.84      0.00
   17    4    0      0.42      0.00
   18    4    0     -0.54      0.00
   19    4    0     -0.88      0.00
   20    4    0      1.53      0.00
   21    4    0      3.39      0.00
  -16    5    0     -1.26      0.00
  -15    5    0      1.57      0.00
  -14    5    0      0.81      0.00
  -13    5    0     -0.01      0.00
  -12    5    0     -2.13      0.00
  -11    5    0     -0.09      0.00
  -10    5    0      1.54      0.00
   -9    5    0     -1.01      0.00
   -8    5    0     -0.81      0.00
   -7    5    0      2.92      0.00
   -6    5    0     -4.76      0.00
   -5    5    0     -6.93      0.00
   -4    5    0      4.83      0.00
   -3    5    0      5.48      0.00
   -2    5    0      6.35      0.00
   -1    5    0     13.88      0.00
    0    5    0     16.37      0.00
    1    5    0     15.54      0.00
    2    5    0     27.44      0.00
    3    5    0     15.73      0.00
    4    5    0     -2.98      0.00
    5    5    0      1.88      0.00
    6    5    0      7.99      0.00
    7    5    0      1.39      0.00
    8    5    0     -0.44      0.00
    9    5    0     -2.44      0.00
   10    5    0    -10.07      0.00
   11    5    0     -7.45      0.00
   12    5    0     -2.42      0.00
   13    5    0     -1.13      0.00
   14    5    0      0.50      0.00
   15    5    0      4.52      0.00
   16    5    0      0.89      0.00
   17    5    0      0.75      0.00
   18    5    0     -1.66      0.00
   19    5    0     -0.96      0.00
   20    5    0     -2.33      0.00
   21    5    0     -1.31      0.00
  -16    6    0     -3.04      0.00
  -15    6    0     -2.52      0.00
  -14    6    0     -1.55      0.00
  -13    6    0     -1.42      0.00
  -12    6    0     -3.51      0.00
  -11    6    0     -3.40      0.00
  -10    6    0     -0.23      0.00
   -9    6    0      0.69      0.00
   -8    6    0      3.24      0.00
   -7    6    0      6.92      0.00
   -6    6    0      1.02      0.00
   -5    6    0     -5.18      0.00
   -4    6    0      0.47      0.00
   -3    6    0      1.99      0.00
   -2    6    0     -6.40      0.00
   -1    6    0     -4.22      0.00
    0    6    0      6.79      0.00
    1    6    0      7.41      0.00
    2    6    0      8.08      0.00
    3    6    0      9.72      0.00
    4    6    0     -1.63      0.00
    5    6    0     -3.61      0.00
    6    6    0      8.17      0.00
    7    6    0      1.44      0.00
    8    6    0     -4.62      0.00
    9    6    0      1.54      0.00
   10    6    0     -1.41      0.00
   11    6    0     -8.69      0.00
   12    6    0     -5.56      0.00
   13    6    0     -2.93      0.00
   14    6    0     -5.37      0.00
   15    6    0     -3.18      0.00
   16    6    0     -4.49      0.00
   17    6    0     -3.26      0.00
   18    6    0     -2.92      0.00
   19    6    0      0.45      0.00
   20    6    0     -1.10      0.00
   21    6    0     -1.11      0.00
  -15    7    0     -0.61      0.00
  -14    7    0     -0.50      0.00
  -13    7    0     -0.59      0.00
  -12    7    0     -0.96      0.00
  -11    7    0      0.16      0.00
  -10    7    0     -1.15      0.00
   -9    7    0     -1.86      0.00
   -8    7    0      2.23      0.00
   -7    7    0      4.97      0.00
   -6    7    0      3.61      0.00
   -5    7    0      0.34      0.00
   -4    7    0      2.48      0.00
   -3    7    0      4.60      0.00
   -2    7    0     -6.84      0.00
   -1    7    0    -10.56      0.00
    0    7    0      2.44      0.00
    1    7    0      4.56      0.00
    2    7    0     -5.73      0.00
    3    7    0      1.18      0.00
    4    7    0     -4.70      0.00
    5    7    0     -8.55      0.00
    6    7    0      2.51      0.00
    7    7    0      2.56      0.00
    8    7    0     -7.86      0.00
    9    7    0     -4.18      0.00
   10    7    0      2.66      0.00
   11    7    0     -3.41      0.00
   12    7    0     -3.40      0.00
   13    7    0      2.85      0.00
   14    7    0      1.76      0.00
   15    7    0      0.00      0.00
   16    7    0      0.41      0.00
   17    7    0      2.48      0.00
   18    7    0      3.12      0.00
   19    7    0      3.99      0.00
   20    7    0      4.82      0.00
   21    7    0      2.59      0.00
  -14    8    0      0.49      0.00
  -13    8    0      2.40      0.00
  -12    8    0      1.65      0.00
  -11    8    0      3.40      0.00
  -10    8    0      1.72      0.00
   -9    8    0      0.25      0.00
   -8    8    0      0.56      0.00
   -7    8    0     -0.83      0.00
   -6    8    0     -0.01      0.00
   -5    8    0      0.66      0.00
   -4    8    0      4.29      0.00
   -3    8    0      6.39      0.00
   -2    8    0     -1.45      0.00
   -1    8    0     -9.18      0.00
    0    8    0     -2.63      0.00
    1    8    0      1.76      0.00
    2    8    0    -10.81      0.00
    3    8    0     -5.80      0.00
    4    8    0     -1.33      0.00
    5    8    0     -5.71      0.00
    6    8    0     -2.16      0.00
    7    8    0      2.91      0.00
    8    8    0     -2.94      0.00
    9    8    0     -6.49      0.00
   10    8    0     -1.29      0.00
   11    8    0     -1.73      0.00
   12    8    0     -5.36      0.00
   13    8    0      0.37      0.00
   14    8    0      2.03      0.00
   15    8    0     -2.47      0.00
   16    8    0     -2.08      0.00
   17    8    0      2.33      0.00
   18    8    0      1.27      0.00
   19    8    0     -2.09      0.00
   20    8    0      0.60      0.00
   21    8    0      1.34      0.00
  -13    9    0      1.82      0.00
  -12    9    0      1.02      0.00
  -11    9    0      2.29      0.00
  -10    9    0      0.59      0.00
   -9    9    0      0.98      0.00
   -8    9    0      3.97      0.00
   -7    9    0      2.02      0.00
   -6    9    0      0.07      0.00
   -5    9    0      3.22      0.00
   -4    9    0      6.75      0.00
   -3    9    0      3.92      0.00
   -2    9    0      5.46      0.00
   -1    9    0      3.50      0.00
    0    9    0      5.58      0.00
    1    9    0      8.72      0.00
    2    9    0     -0.87      0.00
    3    9    0     -0.42      0.00
    4    9    0      5.98      0.00
    5    9    0      1.01      0.00
    6    9    0     -1.70      0.00
    7    9    0     -0.69      0.00
    8    9    0      2.33      0.00
    9    9    0      0.85      0.00
   10    9    0      0.86      0.00
   11    9    0      2.07      0.00
   12    9    0     -3.25      0.00
   13    9    0     -0.47      0.00
   14    9    0      3.18      0.00
   15    9    0     -0.68      0.00
   16    9    0     -1.31      0.00
   17    9    0      3.26      0.00
   18    9    0      2.46      0.00
   19    9    0     -0.29      0.00
   20    9    0     -0.23      0.00
   21    9    0      1.53      0.00
  -12   10    0     -2.13      0.00
  -11   10    0      0.93      0.00
  -10   10    0      0.56      0.00
   -9   10    0     -2.53      0.00
   -8   10    0     -0.64      0.00
   -7   10    0      0.51      0.00
   -6   10    0     -2.30      0.00
   -5   10    0     -1.10      0.00
   -4   10    0      0.02      0.00
   -3   10    0     -5.99      0.00
   -2   10    0     -4.18      0.00
   -1   10    0     -1.27      0.00
    0   10    0      0.08      0.00
    1   10    0     -1.58      0.00
    2   10    0     -5.41      0.00
    3   10    0     -4.34      0.00
    4   10    0      3.19      0.00
    5   10    0      6.43      0.00
    6   10    0      6.50      0.00
    7   10    0      3.90      0.00
    8   10    0      5.50      0.00
    9   10    0      5.51      0.00
   10   10    0      3.60      0.00
   11   10    0      6.44      0.00
   12   10    0      6.26      0.00
   13   10    0      4.59      0.00
   14   10    0      5.23      0.00
   15   10    0      1.60      0.00
   16   10    0      0.56      0.00
   17   10    0      2.23      0.00
   18   10    0      0.86      0.00
   19   10    0     -1.14      0.00
   20   10    0     -0.62      0.00
   21   10    0      3.54      0.00
  -11   11    0     -3.75      0.00
  -10   11    0      1.05      0.00
   -9   11    0      1.54      0.00
   -8   11    0      0.05      0.00
   -7   11    0     -0.47      0.00
   -6   11    0      0.69      0.00
   -5   11    0      4.38      0.00
   -4   11    0      5.25      0.00
   -3   11    0     -0.52      0.00
   -2   11    0     -2.42      0.00
   -1   11    0      2.13      0.00
    0   11    0      0.18      0.00
    1   11    0     -3.03      0.00
    2   11    0      1.31      0.00
    3   11    0      0.96      0.00
    4   11    0     -1.30      0.00
    5   11    0     -1.41      0.00
    6   11    0     -1.08      0.00
    7   11    0     -1.15      0.00
    8   11    0      4.04      0.00
    9   11    0     11.11      0.00
   10   11    0      5.40      0.00
   11   11    0      0.71      0.00
   12   11    0      2.99      0.00
   13   11    0      0.46      0.00
   14   11    0      1.27      0.00
   15   11    0     -1.58      0.00
   16   11    0     -3.20      0.00
   17   11    0     -2.07      0.00
   18   11    0      0.13      0.00
   19   11    0     -0.65      0.00
   20   11    0     -0.66      0.00
   21   11    0      1.72      0.00
  -10   12    0      2.71      0.00
   -9   12    0      3.05      0.00
   -8   12    0      1.56      0.00
   -7   12    0     -1.06      0.00
   -6   12    0     -2.94      0.00
   -5   12    0     -0.68      0.00
   -4   12    0      1.20      0.00
   -3   12    0     -3.77      0.00
   -2   12    0     -6.79      0.00
   -1   12    0     -0.51      0.00
    0   12    0     -1.63      0.00
    1   12    0     -6.85      0.00
    2   12    0     -1.23      0.00
    3   12    0      5.32      0.00
    4   12    0      3.48      0.00
    5   12    0      3.42      0.00
    6   12    0      5.70      0.00
    7   12    0     -1.69      0.00
    8   12    0     -4.13      0.00
    9   12    0      4.44      0.00
   10   12    0      2.40      0.00
   11   12    0     -2.84      0.00
   12   12    0      0.32      0.00
   13   12    0     -0.77      0.00
   14   12    0      0.05      0.00
   15   12    0     -0.79      0.00
   16   12    0     -1.13      0.00
   17   12    0     -0.83      0.00
   18   12    0      1.96      0.00
   19   12    0      5.81      0.00
   20   12    0      5.46      0.00
   21   12    0      2.70      0.00
   -9   13    0      0.23      0.00
   -8   13    0     -0.60      0.00
   -7   13    0     -0.27      0.00
   -6   13    0     -2.87      0.00
   -5   13    0     -2.71      0.00
   -4   13    0     -0.23      0.00
   -3   13    0     -2.20      0.00
   -2   13    0     -3.77      0.00
   -1   13    0     -2.00      0.00
    0   13    0      1.65      0.00
    1   13    0     -3.50      0.00
    2   13    0     -4.68      0.00
    3   13    0      1.94      0.00
    4   13    0     -2.45      0.00
    5   13    0     -4.95      0.00
    6   13    0      2.66      0.00
    7   13    0     -0.70      0.00
    8   13    0     -5.00      0.00
    9   13    0     -1.47      0.00
   10   13    0     -1.21      0.00
   11   13    0     -4.80      0.00
   12   13    0     -2.85      0.00
   13   13    0     -0.73      0.00
   14   13    0     -0.45      0.00
   15   13    0     -0.84      0.00
   16   13    0     -1.14      0.00
   17   13    0     -2.10      0.00
   18   13    0     -3.23      0.00
   19   13    0      2.19      0.00
   20   13    0      2.87      0.00
   21   13    0      1.46      0.00
   -8   14    0     -1.55      0.00
   -7   14    0      1.23      0.00
   -6   14    0     -0.85      0.00
   -5   14    0     -1.78      0.00
   -4   14    0      0.45      0.00
   -3   14    0     -0.81      0.00
   -2   14    0     -0.19      0.00
   -1   14    0     -0.38      0.00
    0   14    0      6.28      0.00
    1   14    0      3.14      0.00
    2   14    0     -2.70      0.00
    3   14    0      0.63      0.00
    4   14    0     -2.89      0.00
    5   14    0     -7.84      0.00
    6   14    0     -2.81      0.00
    7   14    0     -1.14      0.00
    8   14    0     -4.55      0.00
    9   14    0     -3.81      0.00
   10   14    0     -1.24      0.00
   11   14    0     -1.12      0.00
   12   14    0     -1.19      0.00
   13   14    0      0.52      0.00
   14   14    0     -1.35      0.00
   15   14    0     -1.03      0.00
   16   14    0     -0.11      0.00
   17   14    0     -0.47      0.00
   18   14    0     -4.39      0.00
   19   14    0     -2.06      0.00
   20   14    0     -2.39      0.00
   -6   15    0      5.25      0.00
   -5   15    0      3.80      0.00
   -4   15    0      5.58      0.00
   -3   15    0      0.83      0.00
   -2   15    0     -2.32      0.00
   -1   15    0     -5.17      0.00
    0   15    0     -2.83      0.00
    1   15    0     -2.25      0.00
    2   15    0     -6.72      0.00
    3   15    0     -5.38      0.00
    4   15    0     -4.76      0.00
    5   15    0     -6.65      0.00
    6   15    0     -1.99      0.00
    7   15    0      5.92      0.00
    8   15    0      4.27      0.00
    9   15    0      1.94      0.00
   10   15    0      1.29      0.00
   11   15    0     -0.85      0.00
   12   15    0     -4.12      0.00
   13   15    0      0.25      0.00
   14   15    0      0.11      0.00
   15   15    0     -1.57      0.00
   16   15    0     -1.43      0.00
   17   15    0      1.00      0.00
   18   15    0     -1.85      0.00
   19   15    0     -1.07      0.00
   20   15    0      0.98      0.00
   -5   16    0     -5.79      0.00
   -4   16    0      1.10      0.00
   -3   16    0      0.98      0.00
   -2   16    0     -0.58      0.00
   -1   16    0     -1.94      0.00
    0   16    0     -3.50      0.00
    1   16    0      2.10      0.00
    2   16    0      3.56      0.00
    3   16    0      2.84      0.00
    4   16    0      1.85      0.00
    5   16    0     -0.36      0.00
    6   16    0     -1.81      0.00
    7   16    0      1.30      0.00
    8   16    0     -0.68      0.00
    9   16    0     -0.92      0.00
   10   16    0      4.77      0.00
   11   16    0      5.87      0.00
   12   16    0     -2.05      0.00
   13   16    0     -3.15      0.00
   14   16    0     -0.05      0.00
   15   16    0      1.40      0.00
   16   16    0     -2.74      0.00
   17   16    0     -2.88      0.00
   18   16    0     -3.95      0.00
   19   16    0     -4.05      0.00
   -3   17    0      1.68      0.00
   -2   17    0      4.38      0.00
   -1   17    0      7.64      0.00
    0   17    0      1.81      0.00
    1   17    0      1.41      0.00
    2   17    0      4.25      0.00
    3   17    0      2.64      0.00
    4   17    0      0.52      0.00
    5   17    0     -0.20      0.00
    6   17    0      0.25      0.00
    7   17    0      1.16      0.00
    8   17    0      0.29      0.00
    9   17    0     -2.41      0.00
   10   17    0     -2.30      0.00
   11   17    0      0.62      0.00
   12   17    0      2.65      0.00
   13   17    0      1.41      0.00
   14   17    0      0.23      0.00
   15   17    0      0.55      0.00
   16   17    0     -4.36      0.00
   17   17    0     -5.05      0.00
   18   17    0     -4.13      0.00
   -1   18    0      0.38      0.00
    0   18    0     -3.97      0.00
    1   18    0     -6.39      0.00
    2   18    0     -0.99      0.00
    3   18    0      0.87      0.00
    4   18    0      1.43      0.00
    5   18    0     -0.07      0.00
    6   18    0      1.75      0.00
    7   18    0     -0.78      0.00
    8   18    0      0.34      0.00
    9   18    0      1.07      0.00
   10   18    0     -1.58      0.00
   11   18    0     -2.39      0.00
   12   18    0      0.94      0.00
   13   18    0      5.02      0.00
   14   18    0      6.93      0.00
   15   18    0      4.38      0.00
   16   18    0     -2.82      0.00
   17   18    0     -2.84      0.00
    1   19    0     -5.13      0.00
    2   19    0     -3.35      0.00
    3   19    0     -3.36      0.00
    4   19    0     -1.27      0.00
    5   19    0     -0.91      0.00
    6   19    0      2.56      0.00
    7   19    0      1.93      0.00
    8   19    0      5.30      0.00
    9   19    0      5.69      0.00
   10   19    0      3.09      0.00
   11   19    0      2.49      0.00
   12   19    0      0.69      0.00
   13   19    0      0.40      0.00
   14   19    0      2.82      0.00
   15   19    0      6.23      0.00
   16   19    0      2.95      0.00
    4   20    0     -4.99      0.00
    5   20    0     -7.63      0.00
    6   20    0     -6.56      0.00
    7   20    0     -2.25      0.00
    8   20    0      3.10      0.00
    9   20    0      3.20      0.00
   10   20    0     -1.65      0.00
   11   20    0     -3.32      0.00
   12   20    0     -0.65      0.00
   13   20    0      1.74      0.00
  -12  -20    1      0.74      0.00
  -11  -20    1     -1.12      0.00
  -10  -20    1     -3.50      0.00
   -9  -20    1     -0.30      0.00
   -8  -20    1     -1.69      0.00
   -7  -20    1      0.16      0.00
   -6  -20    1      1.03      0.00
  -15  -19    1      1.59      0.00
  -14  -19    1      0.86      0.00
  -13  -19    1      1.51      0.00
  -12  -19    1      1.37      0.00
  -11  -19    1      2.07      0.00
  -10  -19    1      2.80      0.00
   -9  -19    1      3.05      0.00
   -8  -19    1     -0.48      0.00
   -7  -19    1      0.72      0.00
   -6  -19    1      1.94      0.00
   -5  -19    1      2.78      0.00
   -4  -19    1      4.32      0.00
   -3  -19    1      2.90      0.00
   -2  -19    1      2.80      0.00
  -17  -18    1     -0.01      0.00
  -16  -18    1      3.23      0.00
  -15  -18    1      3.36      0.00
  -14  -18    1     -0.76      0.00
  -13  -18    1     -1.78      0.00
  -12  -18    1     -2.92      0.00
  -11  -18    1      0.13      0.00
  -10  -18    1      2.20      0.00
   -9  -18    1      1.60      0.00
   -8  -18    1     -0.27      0.00
   -7  -18    1     -1.63      0.00
   -6  -18    1     -1.19      0.00
   -5  -18    1     -2.95      0.00
   -4  -18    1     -1.05      0.00
   -3  -18    1      0.46      0.00
   -2  -18    1      0.49      0.00
   -1  -18    1     -1.93      0.00
    0  -18    1      1.89      0.00
  -18  -17    1      3.00      0.00
  -17  -17    1      1.92      0.00
  -16  -17    1      2.27      0.00
  -15  -17    1      2.25      0.00
  -14  -17    1      0.36      0.00
  -13  -17    1     -0.04      0.00
  -12  -17    1     -0.14      0.00
  -11  -17    1      0.87      0.00
  -10  -17    1     -1.47      0.00
   -9  -17    1     -2.04      0.00
   -8  -17    1     -1.08      0.00
   -7  -17    1     -1.24      0.00
   -6  -17    1      0.41      0.00
   -5  -17    1     -1.22      0.00
   -4  -17    1     -0.10      0.00
   -3  -17    1      2.59      0.00
   -2  -17    1      1.72      0.00
   -1  -17    1     -1.96      0.00
    0  -17    1      0.04      0.00
    1  -17    1      2.24      0.00
    2  -17    1      0.06      0.00
    3  -17    1     -0.11      0.00
  -19  -16    1     -1.25      0.00
  -18  -16    1      1.42      0.00
  -17  -16    1      3.06      0.00
  -16  -16    1      2.51      0.00
  -15  -16    1      1.57      0.00
  -14  -16    1     -1.09      0.00
  -13  -16    1     -2.15      0.00
  -12  -16    1     -0.94      0.00
  -11  -16    1      1.49      0.00
  -10  -16    1      1.09      0.00
   -9  -16    1      2.76      0.00
   -8  -16    1      3.44      0.00
   -7  -16    1      0.37      0.00
   -6  -16    1     -4.29      0.00
   -5  -16    1     -4.66      0.00
   -4  -16    1     -2.61      0.00
   -3  -16    1      0.54      0.00
   -2  -16    1      1.60      0.00
   -1  -16    1      1.01      0.00
    0  -16    1     -1.13      0.00
    1  -16    1     -0.01      0.00
    2  -16    1      0.64      0.00
    3  -16    1      3.23      0.00
    4  -16    1      2.16      0.00
  -19  -15    1     -0.25      0.00
  -18  -15    1     -0.14      0.00
  -17  -15    1      0.49      0.00
  -16  -15    1     -1.54      0.00
  -15  -15    1     -1.73      0.00
  -14  -15    1     -3.21      0.00
  -13  -15    1     -1.30      0.00
  -12  -15    1      0.42      0.00
  -11  -15    1      1.88      0.00
  -10  -15    1     -1.08      0.00
   -9  -15    1     -0.85      0.00
   -8  -15    1      1.06      0.00
   -7  -15    1      1.82      0.00
   -6  -15    1     -2.60      0.00
   -5  -15    1     -2.14      0.00
   -4  -15    1     -1.69      0.00
   -3  -15    1     -2.03      0.00
   -2  -15    1     -0.30      0.00
   -1  -15    1      2.48      0.00
    0  -15    1     -1.50      0.00
    1  -15    1     -1.99      0.00
    2  -15    1     -1.51      0.00
    3  -15    1     -0.01      0.00
    4  -15    1     -0.77      0.00
    5  -15    1     -6.76      0.00
    6  -15    1     -3.48      0.00
  -20  -14    1     -0.87      0.00
  -19  -14    1     -3.50      0.00
  -18  -14    1     -2.27      0.00
  -17  -14    1      1.23      0.00
  -16  -14    1     -0.15      0.00
  -15  -14    1      0.47      0.00
  -14  -14    1     -1.59      0.00
  -13  -14    1     -1.74      0.00
  -12  -14    1     -1.53      0.00
  -11  -14    1      1.15      0.00
  -10  -14    1     -1.26      0.00
   -9  -14    1     -2.87      0.00
   -8  -14    1     -4.17      0.00
   -7  -14    1     -5.16      0.00
   -6  -14    1     -8.46      0.00
   -5  -14    1     -4.26      0.00
   -4  -14    1     -0.29      0.00
   -3  -14    1     -4.36      0.00
   -2  -14    1     -4.48      0.00
   -1  -14    1      0.98      0.00
    0  -14    1     -0.40      0.00
    1  -14    1     -1.17      0.00
    2  -14    1     -0.27      0.00
    3  -14    1     -1.01      0.00
    4  -14    1      0.08      0.00
    5  -14    1     -1.21      0.00
    6  -14    1      2.72      0.00
    7  -14    1      1.31      0.00
  -20  -13    1      1.17      0.00
  -19  -13    1     -0.05      0.00
  -18  -13    1     -1.40      0.00
  -17  -13    1     -0.07      0.00
  -16  -13    1     -1.92      0.00
  -15  -13    1     -0.75      0.00
  -14  -13    1     -0.57      0.00
  -13  -13    1     -1.37      0.00
  -12  -13    1     -2.02      0.00
  -11  -13    1      1.32      0.00
  -10  -13    1      2.23      0.00
   -9  -13    1     -1.82      0.00
   -8  -13    1     -2.29      0.00
   -7  -13    1      0.58      0.00
   -6  -13    1     -3.36      0.00
   -5  -13    1     -4.34      0.00
   -4  -13    1      0.79      0.00
   -3  -13    1     -1.13      0.00
   -2  -13    1     -4.93      0.00
   -1  -13    1      0.36      0.00
    0  -13    1      2.24      0.00
    1  -13    1     -0.71      0.00
    2  -13    1      2.87      0.00
    3  -13    1      4.69      0.00
    4  -13    1      4.02      0.00
    5  -13    1      0.87      0.00
    6  -13    1      1.58      0.00
    7  -13    1      1.83      0.00
    8  -13    1     -1.36      0.00
    9  -13    1     -2.66      0.00
  -21  -12    1     -3.48      0.00
  -20  -12    1     -2.81      0.00
  -19  -12    1     -1.94      0.00
  -18  -12    1     -2.86      0.00
  -17  -12    1     -1.22      0.00
  -16  -12    1     -2.32      0.00
  -15  -12    1     -2.27      0.00
  -14  -12    1     -1.60      0.00
  -13  -12    1     -3.27      0.00
  -12  -12    1     -5.36      0.00
  -11  -12    1     -2.64      0.00
  -10  -12    1      4.13      0.00
   -9  -12    1     -0.50      0.00
   -8  -12    1     -3.88      0.00
   -7  -12    1      2.14      0.00
   -6  -12    1      3.66      0.00
   -5  -12    1      0.30      0.00
   -4  -12    1      4.20      0.00
   -3  -12    1      5.06      0.00
   -2  -12    1     -2.90      0.00
   -1  -12    1     -0.23      0.00
    0  -12    1      2.13      0.00
    1  -12    1     -2.47      0.00
    2  -12    1     -0.92      0.00
    3  -12    1      2.21      0.00
    4  -12    1      2.96      0.00
    5  -12    1     -0.50      0.00
    6  -12    1     -2.76      0.00
    7  -12    1     -2.00      0.00
    8  -12    1     -0.47      0.00
    9  -12    1      1.46      0.00
   10  -12    1      0.46      0.00
  -21  -11    1     -1.66      0.00
  -20  -11    1     -0.75      0.00
  -19  -11    1      0.11      0.00
  -18  -11    1      0.19      0.00
  -17  -11    1      2.09      0.00
  -16  -11    1      0.60      0.00
  -15  -11    1     -0.53      0.00
  -14  -11    1      0.14      0.00
  -13  -11    1     -0.17      0.00
  -12  -11    1     -0.49      0.00
  -11  -11    1     -1.25      0.00
  -10  -11    1      5.29      0.00
   -9  -11    1      5.26      0.00
   -8  -11    1     -0.22      0.00
   -7  -11    1      3.28      0.00
   -6  -11    1      3.98      0.00
   -5  -11    1     -1.58      0.00
   -4  -11    1      0.81      0.00
   -3  -11    1      1.45      0.00
   -2  -11    1     -2.64      0.00
   -1  -11    1      0.89      0.00
    0  -11    1      2.77      0.00
    1  -11    1     -0.60      0.00
    2  -11    1     -2.63      0.00
    3  -11    1      1.78      0.00
    4  -11    1      3.19      0.00
    5  -11    1     -1.92      0.00
    6  -11    1     -1.39      0.00
    7  -11    1     -1.29      0.00
    8  -11    1     -2.04      0.00
    9  -11    1      0.74      0.00
   10  -11    1      2.64      0.00
   11  -11    1      0.98      0.00
  -21  -10    1     -0.83      0.00
  -20  -10    1     -0.49      0.00
  -19  -10    1     -0.11      0.00
  -18  -10    1      0.49      0.00
  -17  -10    1     -0.17      0.00
  -16  -10    1     -0.82      0.00
  -15  -10    1     -0.34      0.00
  -14  -10    1     -3.45      0.00
  -13  -10    1     -7.89      0.00
  -12  -10    1     -5.08      0.00
  -11  -10    1     -5.37      0.00
  -10  -10    1     -1.36      0.00
   -9  -10    1      2.61      0.00
   -8  -10    1     -2.08      0.00
   -7  -10    1     -0.11      0.00
   -6  -10    1      0.45      0.00
   -5  -10    1     -4.34      0.00
   -4  -10    1     -5.45      0.00
   -3  -10    1     -7.18      0.00
   -2  -10    1     -3.17      0.00
   -1  -10    1      0.22      0.00
    0  -10    1      2.14      0.00
    1  -10    1      1.59      0.00
    2  -10    1     -2.07      0.00
    3  -10    1      3.85      0.00
    4  -10    1      7.13      0.00
    5  -10    1      0.14      0.00
    6  -10    1      1.65      0.00
    7  -10    1      4.11      0.00
    8  -10    1      2.23      0.00
    9  -10    1      0.53      0.00
   10  -10    1      2.73      0.00
   11  -10    1      1.62      0.00
   12  -10    1      0.60      0.00
  -21   -9    1      3.22      0.00
  -20   -9    1     -2.44      0.00
  -19   -9    1     -3.94      0.00
  -18   -9    1     -0.62      0.00
  -17   -9    1     -0.82      0.00
  -16   -9    1     -0.40      0.00
  -15   -9    1      4.07      0.00
  -14   -9    1      3.26      0.00
  -13   -9    1     -3.93      0.00
  -12   -9    1     -2.37      0.00
  -11   -9    1     -2.76      0.00
  -10   -9    1     -4.93      0.00
   -9   -9    1     -1.86      0.00
   -8   -9    1     -0.52      0.00
   -7   -9    1      0.01      0.00
   -6   -9    1      2.67      0.00
   -5   -9    1      3.43      0.00
   -4   -9    1     -0.96      0.00
   -3   -9    1     -8.41      0.00
   -2   -9    1     -3.32      0.00
   -1   -9    1     -1.33      0.00
    0   -9    1     -3.82      0.00
    1   -9    1     -1.44      0.00
    2   -9    1      0.30      0.00
    3   -9    1      2.33      0.00
    4   -9    1      4.04      0.00
    5   -9    1     -0.43      0.00
    6   -9    1     -1.61      0.00
    7   -9    1      1.12      0.00
    8   -9    1      0.73      0.00
    9   -9    1     -3.14      0.00
   10   -9    1     -1.05      0.00
   11   -9    1      0.11      0.00
   12   -9    1      1.68      0.00
   13   -9    1      2.59      0.00
  -21   -8    1      5.84      0.00
  -20   -8    1      5.31      0.00
  -19   -8    1      2.45      0.00
  -18   -8    1      0.83      0.00
  -17   -8    1     -0.06      0.00
  -16   -8    1      1.21      0.00
  -15   -8    1      7.38      0.00
  -14   -8    1      8.58      0.00
  -13   -8    1     -0.95      0.00
  -12   -8    1     -3.95      0.00
  -11   -8    1     -0.02      0.00
  -10   -8    1     -3.89      0.00
   -9   -8    1     -6.40      0.00
   -8   -8    1     -1.38      0.00
   -7   -8    1     -2.58      0.00
   -6   -8    1     -5.56      0.00
   -5   -8    1     -4.47      0.00
   -4   -8    1     -3.34      0.00
   -3   -8    1     -6.83      0.00
   -2   -8    1      0.93      0.00
   -1   -8    1      6.17      0.00
    0   -8    1     -6.62      0.00
    1   -8    1     -5.90      0.00
    2   -8    1      4.54      0.00
    3   -8    1      7.13      0.00
    4   -8    1      7.32      0.00
    5   -8    1      5.05      0.00
    6   -8    1      1.49      0.00
    7   -8    1      1.86      0.00
    8   -8    1      1.51      0.00
    9   -8    1      0.15      0.00
   10   -8    1      2.03      0.00
   11   -8    1      0.35      0.00
   12   -8    1     -0.75      0.00
   13   -8    1      2.19      0.00
   14   -8    1      0.92      0.00
  -21   -7    1     -5.07      0.00
  -20   -7    1     -2.96      0.00
  -19   -7    1     -1.47      0.00
  -18   -7    1      0.27      0.00
  -17   -7    1      0.28      0.00
  -16   -7    1     -0.92      0.00
  -15   -7    1      2.94      0.00
  -14   -7    1      6.90      0.00
  -13   -7    1      4.25      0.00
  -12   -7    1      0.96      0.00
  -11   -7    1      7.16      0.00
  -10   -7    1      3.81      0.00
   -9   -7    1     -5.73      0.00
   -8   -7    1     -0.99      0.00
   -7   -7    1      8.29      0.00
   -6   -7    1      7.69      0.00
   -5   -7    1      9.35      0.00
   -4   -7    1     12.69      0.00
   -3   -7    1      6.62      0.00
   -2   -7    1      6.93      0.00
   -1   -7    1     11.94      0.00
    0   -7    1     -5.50      0.00
    1   -7    1    -11.32      0.00
    2   -7    1     -1.50      0.00
    3   -7    1      0.42      0.00
    4   -7    1     -1.70      0.00
    5   -7    1      0.27      0.00
    6   -7    1      2.52      0.00
    7   -7    1      1.77      0.00
    8   -7    1     -0.72      0.00
    9   -7    1     -1.81      0.00
   10   -7    1     -1.05      0.00
   11   -7    1     -0.90      0.00
   12   -7    1     -1.90      0.00
   13   -7    1     -0.43      0.00
   14   -7    1     -1.10      0.00
   15   -7    1     -2.04      0.00
  -21   -6    1     -0.46      0.00
  -20   -6    1      1.35      0.00
  -19   -6    1      0.71      0.00
  -18   -6    1      0.59      0.00
  -17   -6    1      0.26      0.00
  -16   -6    1     -0.76      0.00
  -15   -6    1     -0.64      0.00
  -14   -6    1     -0.70      0.00
  -13   -6    1     -0.30      0.00
  -12   -6    1     -3.55      0.00
  -11   -6    1      3.10      0.00
  -10   -6    1      8.91      0.00
   -9   -6    1      1.00      0.00
   -8   -6    1     -4.53      0.00
   -7   -6    1      0.56      0.00
   -6   -6    1     -3.37      0.00
   -5   -6    1     -4.38      0.00
   -4   -6    1      8.48      0.00
   -3   -6    1     12.74      0.00
   -2   -6    1      4.98      0.00
   -1   -6    1      9.75      0.00
    0   -6    1      1.60      0.00
    1   -6    1     -8.00      0.00
    2   -6    1      0.42      0.00
    3   -6    1      0.48      0.00
    4   -6    1     -7.28      0.00
    5   -6    1     -4.63      0.00
    6   -6    1      5.11      0.00
    7   -6    1      4.57      0.00
    8   -6    1      2.64      0.00
    9   -6    1      2.69      0.00
   10   -6    1      0.21      0.00
   11   -6    1     -2.71      0.00
   12   -6    1     -3.08      0.00
   13   -6    1     -0.35      0.00
   14   -6    1      1.19      0.00
   15   -6    1      0.77      0.00
   16   -6    1     -0.95      0.00
  -21   -5    1      2.67      0.00
  -20   -5    1      1.80      0.00
  -19   -5    1      2.42      0.00
  -18   -5    1      0.16      0.00
  -17   -5    1     -1.34      0.00
  -16   -5    1     -1.22      0.00
  -15   -5    1      0.24      0.00
  -14   -5    1     -0.56      0.00
  -13   -5    1      2.81      0.00
  -12   -5    1      1.48      0.00
  -11   -5    1      0.56      0.00
  -10   -5    1      6.15      0.00
   -9   -5    1      7.35      0.00
   -8   -5    1      1.57      0.00
   -7   -5    1      3.90      0.00
   -6   -5    1      2.40      0.00
   -5   -5    1    -12.06      0.00
   -4   -5    1     -0.75      0.00
   -3   -5    1     12.87      0.00
   -2   -5    1     -0.76      0.00
   -1   -5    1     -1.05      0.00
    0   -5    1      1.77      0.00
    1   -5    1     -0.75      0.00
    2   -5    1      4.24      0.00
    3   -5    1      3.89      0.00
    4   -5    1     -4.76      0.00
    5   -5    1    -11.05      0.00
    6   -5    1     -3.20      0.00
    7   -5    1     -3.33      0.00
    8   -5    1     -3.99      0.00
    9   -5    1      0.25      0.00
   10   -5    1      1.36      0.00
   11   -5    1     -2.57      0.00
   12   -5    1     -1.83      0.00
   13   -5    1     -0.57      0.00
   14   -5    1     -1.52      0.00
   15   -5    1      0.10      0.00
   16   -5    1     -0.69      0.00
  -21   -4    1     -0.99      0.00
  -20   -4    1     -4.18      0.00
  -19   -4    1     -2.02      0.00
  -18   -4    1     -1.35      0.00
  -17   -4    1     -0.88      0.00
  -16   -4    1     -1.57      0.00
  -15   -4    1      2.04      0.00
  -14   -4    1      2.00      0.00
  -13   -4    1      3.85      0.00
  -12   -4    1      6.12      0.00
  -11   -4    1      4.66      0.00
  -10   -4    1      4.58      0.00
   -9   -4    1     10.20      0.00
   -8   -4    1      5.96      0.00
   -7   -4    1      3.35      0.00
   -6   -4    1      8.11      0.00
   -5   -4    1     -8.83      0.00
   -4   -4    1    -14.37      0.00
   -3   -4    1     -6.92      0.00
   -2   -4    1    -14.50      0.00
   -1   -4    1    -17.30      0.00
    0   -4    1     -6.89      0.00
    1   -4    1      9.50      0.00
    2   -4    1      8.43      0.00
    3   -4    1     10.66      0.00
    4   -4    1     11.36      0.00
    5   -4    1     -0.12      0.00
    6   -4    1      1.36      0.00
    7   -4    1     -1.74      0.00
    8   -4    1     -9.10      0.00
    9   -4    1     -3.47      0.00
   10   -4    1      3.85      0.00
   11   -4    1      1.73      0.00
   12   -4    1      3.46      0.00
   13   -4    1      4.62      0.00
   14   -4    1      0.18      0.00
   15   -4    1      0.12      0.00
   16   -4    1      0.95      0.00
   17   -4    1      3.30      0.00
  -20   -3    1     -3.26      0.00
  -19   -3    1     -2.24      0.00
  -18   -3    1      0.11      0.00
  -17   -3    1     -0.04      0.00
  -16   -3    1     -3.66      0.00
  -15   -3    1     -2.88      0.00
  -14   -3    1     -0.46      0.00
  -13   -3    1      0.18      0.00
  -12   -3    1      1.70      0.00
  -11   -3    1      2.61      0.00
  -10   -3    1     -3.44      0.00
   -9   -3    1      0.28      0.00
   -8   -3    1     -2.10      0.00
   -7   -3    1    -14.20      0.00
   -6   -3    1     -5.80      0.00
   -5   -3    1     10.16      0.00
   -4   -3    1      5.58      0.00
   -3   -3    1      7.37      0.00
   -2   -3    1     -4.50      0.00
   -1   -3    1    -18.80      0.00
    0   -3    1    -24.78      0.00
    1   -3    1     -7.17      0.00
    2   -3    1     -6.38      0.00
    3   -3    1     -5.68      0.00
    4   -3    1      9.04      0.00
    5   -3    1      3.92      0.00
    6   -3    1     -2.12      0.00
    7   -3    1      0.83      0.00
    8   -3    1     -5.55      0.00
    9   -3    1     -5.07      0.00
   10   -3    1     -0.19      0.00
   11   -3    1      0.61      0.00
   12   -3    1      1.93      0.00
   13   -3    1      4.22      0.00
   14   -3    1     -0.22      0.00
   15   -3    1     -3.26      0.00
   16   -3    1     -1.82      0.00
   17   -3    1      1.45      0.00
   18   -3    1     -0.80      0.00
  -20   -2    1      1.40      0.00
  -19   -2    1      2.12      0.00
  -18   -2    1      2.84      0.00
  -17   -2    1      2.26      0.00
  -16   -2    1      2.59      0.00
  -15   -2    1      1.38      0.00
  -14   -2    1      2.75      0.00
  -13   -2    1      0.21      0.00
  -12   -2    1      1.02      0.00
  -11   -2    1      8.76      0.00
  -10   -2    1      3.50      0.00
   -9   -2    1      4.54      0.00
   -8   -2    1      8.49      0.00
   -7   -2    1    -12.44      0.00
   -6   -2    1    -22.36      0.00
   -5   -2    1      0.69      0.00
   -4   -2    1     -3.29      0.00
   -3   -2    1     13.48      0.00
   -2   -2    1     32.09      0.00
   -1   -2    1     63.07      0.00
    0   -2    1     27.17      0.00
    1   -2    1      4.52      0.00
    2   -2    1     21.23      0.00
    3   -2    1     -1.45      0.00
    4   -2    1      6.07      0.00
    5   -2    1      8.86      0.00
    6   -2    1     -4.86      0.00
    7   -2    1     -0.42      0.00
    8   -2    1     -1.48      0.00
    9   -2    1     -3.35      0.00
   10   -2    1     -2.67      0.00
   11   -2    1     -0.26      0.00
   12   -2    1      1.35      0.00
   13   -2    1      5.31      0.00
   14   -2    1      1.93      0.00
   15   -2    1     -3.83      0.00
   16   -2    1     -5.18      0.00
   17   -2    1     -3.54      0.00
   18   -2    1     -4.28      0.00
  -20   -1    1      0.58      0.00
  -19   -1    1      2.17      0.00
  -18   -1    1      0.94      0.00
  -17   -1    1     -1.98      0.00
  -16   -1    1     -3.01      0.00
  -15   -1    1     -4.29      0.00
  -14   -1    1      0.01      0.00
  -13   -1    1     -0.58      0.00
  -12   -1    1     -2.37      0.00
  -11   -1    1      5.88      0.00
  -10   -1    1      4.72      0.00
   -9   -1    1      4.62      0.00
   -8   -1    1     20.71      0.00
   -7   -1    1     13.61      0.00
   -6   -1    1     -3.12      0.00
   -5   -1    1      7.00      0.00
   -4   -1    1     -6.24      0.00
   -3   -1    1    -23.82      0.00
   -2   -1    1    -10.59      0.00
   -1   -1    1     87.01      0.00
    0   -1    1     43.62      0.00
    1   -1    1    -42.91      0.00
    2   -1    1      1.78      0.00
    3   -1    1      0.94      0.00
    4   -1    1     13.46      0.00
    5   -1    1     18.91      0.00
    6   -1    1      5.69      0.00
    7   -1    1      5.31      0.00
    8   -1    1      6.79      0.00
    9   -1    1      4.34      0.00
   10   -1    1     -0.17      0.00
   11   -1    1     -2.08      0.00
   12   -1    1     -1.18      0.00
   13   -1    1      1.01      0.00
   14   -1    1      0.10      0.00
   15   -1    1     -0.57      0.00
   16   -1    1     -1.02      0.00
   17   -1    1     -0.01      0.00
   18   -1    1     -2.50      0.00
   19   -1    1     -1.36      0.00
  -19    0    1      0.19      0.00
  -18    0    1      1.46      0.00
  -17    0    1      3.38      0.00
  -16    0    1      4.41      0.00
  -15    0    1      3.27      0.00
  -14    0    1      4.72      0.00
  -13    0    1      6.25      0.00
  -12    0    1      2.30      0.00
  -11    0    1      6.89      0.00
  -10    0    1      7.51      0.00
   -9    0    1     -4.26      0.00
   -8    0    1     -0.20      0.00
   -7    0    1      2.68      0.00
   -6    0    1     -6.98      0.00
   -5    0    1     -2.38      0.00
   -4    0    1     -2.50      0.00
   -3    0    1    -44.94      0.00
   -2    0    1    -74.43      0.00
    2    0    1    -12.64      0.00
    3    0    1      1.98      0.00
    4    0    1    -10.04      0.00
    5    0    1     -5.86      0.00
    6    0    1      0.57      0.00
    7    0    1     -2.91      0.00
    8    0    1     -1.95      0.00
    9    0    1      1.23      0.00
   10    0    1      0.02      0.00
   11    0    1     -2.25      0.00
   12    0    1      1.74      0.00
   13    0    1      1.31      0.00
   14    0    1     -0.54      0.00
   15    0    1     -0.40      0.00
   16    0    1     -3.57      0.00
   17    0    1     -3.20      0.00
   18    0    1     -4.32      0.00
   19    0    1     -2.32      0.00
  -19    1    1     -1.23      0.00
  -18    1    1     -0.06      0.00
  -17    1    1     -2.03      0.00
  -16    1    1     -1.33      0.00
  -15    1    1      1.56      0.00
  -14    1    1      3.07      0.00
  -13    1    1      4.81      0.00
  -12    1    1      0.27      0.00
  -11    1    1      1.57      0.00
  -10    1    1      7.11      0.00
   -9    1    1      1.87      0.00
   -8    1    1     -3.66      0.00
   -7    1    1     -4.36      0.00
   -6    1    1     -7.41      0.00
   -5    1    1     -8.20      0.00
   -4    1    1     -7.37      0.00
   -3    1    1    -20.33      0.00
   -2    1    1    -42.82      0.00
   -1    1    1     10.78      0.00
    2    1    1     24.29      0.00
    3    1    1     63.99      0.00
    4    1    1     14.68      0.00
    5    1    1     -4.46      0.00
    6    1    1      3.71      0.00
    7    1    1     -0.79      0.00
    8    1    1     -9.53      0.00
    9    1    1     -6.92      0.00
   10    1    1     -5.04      0.00
   11    1    1     -6.48      0.00
   12    1    1      3.45      0.00
   13    1    1      6.04      0.00
   14    1    1      3.77      0.00
   15    1    1      6.23      0.00
   16    1    1      3.86      0.00
   17    1    1      2.53      0.00
   18    1    1      2.69      0.00
   19    1    1      1.73      0.00
   20    1    1      0.04      0.00
  -18    2    1      4.69      0.00
  -17    2    1      0.73      0.00
  -16    2    1     -3.12      0.00
  -15    2    1     -1.55      0.00
  -14    2    1      1.06      0.00
  -13    2    1      0.60      0.00
  -12    2    1     -2.25      0.00
  -11    2    1     -4.35      0.00
  -10    2    1     -3.45      0.00
   -9    2    1      0.44      0.00
   -8    2    1      1.95      0.00
   -7    2    1      4.11      0.00
   -6    2    1      7.26      0.00
   -5    2    1      7.31      0.00
   -4    2    1     -2.40      0.00
   -3    2    1      0.30      0.00
   -2    2    1    -34.78      0.00
   -1    2    1    -56.67      0.00
    0    2    1    -39.65      0.00
    1    2    1   -110.22      0.00
    2    2    1    -62.13      0.00
    3    2    1      8.93      0.00
    4    2    1    -14.07      0.00
    5    2    1    -31.37      0.00
    6    2    1    -17.80      0.00
    7    2    1      0.13      0.00
    8    2    1    -10.73      0.00
    9    2    1     -8.03      0.00
   10    2    1     -1.86      0.00
   11    2    1     -9.39      0.00
   12    2    1     -4.50      0.00
   13    2    1      1.12      0.00
   14    2    1     -2.49      0.00
   15    2    1      0.87      0.00
   16    2    1      2.25      0.00
   17    2    1     -0.43      0.00
   18    2    1      0.95      0.00
   19    2    1      0.49      0.00
   20    2    1     -0.26      0.00
  -18    3    1      3.62      0.00
  -17    3    1      3.05      0.00
  -16    3    1     -2.39      0.00
  -15    3    1     -3.21      0.00
  -14    3    1      0.60      0.00
  -13    3    1      2.37      0.00
  -12    3    1      5.17      0.00
  -11    3    1      7.04      0.00
  -10    3    1      6.29      0.00
   -9    3    1      5.47      0.00
   -8    3    1      2.06      0.00
   -7    3    1      1.31      0.00
   -6    3    1      5.85      0.00
   -5    3    1      8.60      0.00
   -4    3    1     -4.83      0.00
   -3    3    1     11.19      0.00
   -2    3    1     14.40      0.00
   -1    3    1      6.90      0.00
    0    3    1     24.87      0.00
    1    3    1     -1.95      0.00
    2    3    1      1.44      0.00
    3    3    1     35.54      0.00
    4    3    1     30.96      0.00
    5    3    1      1.14      0.00
    6    3    1     -7.33      0.00
    7    3    1      9.99      0.00
    8    3    1     -4.46      0.00
    9    3    1     -7.21      0.00
   10    3    1      5.40      0.00
   11    3    1      0.21      0.00
   12    3    1     -2.63      0.00
   13    3    1      4.54      0.00
   14    3    1      3.46      0.00
   15    3    1      3.00      0.00
   16    3    1      4.58      0.00
   17    3    1      1.84      0.00
   18    3    1      1.40      0.00
   19    3    1      1.97      0.00
   20    3    1      3.35      0.00
  -17    4    1      0.64      0.00
  -16    4    1     -3.00      0.00
  -15    4    1     -4.14      0.00
  -14    4    1     -4.04      0.00
  -13    4    1     -2.50      0.00
  -12    4    1      0.13      0.00
  -11    4    1      4.25      0.00
  -10    4    1      3.86      0.00
   -9    4    1      2.06      0.00
   -8    4    1      3.25      0.00
   -7    4    1     -1.25      0.00
   -6    4    1     -5.35      0.00
   -5    4    1     -0.54      0.00
   -4    4    1     -7.67      0.00
   -3    4    1     -4.23      0.00
   -2    4    1      5.73      0.00
   -1    4    1     -6.15      0.00
    0    4    1     -5.53      0.00
    1    4    1      3.03      0.00
    2    4    1     -7.55      0.00
    3    4    1      3.47      0.00
    4    4    1     22.40      0.00
    5    4    1     16.33      0.00
    6    4    1      5.78      0.00
    7    4    1     12.30      0.00
    8    4    1      3.05      0.00
    9    4    1    -10.45      0.00
   10    4    1     -3.58      0.00
   11    4    1     -2.03      0.00
   12    4    1     -8.49      0.00
   13    4    1     -4.22      0.00
   14    4    1      1.60      0.00
   15    4    1      1.09      0.00
   16    4    1      1.19      0.00
   17    4    1      0.46      0.00
   18    4    1      0.70      0.00
   19    4    1      2.14      0.00
   20    4    1      2.69      0.00
   21    4    1      1.11      0.00
  -16    5    1      0.87      0.00
  -15    5    1      1.61      0.00
  -14    5    1      0.69      0.00
  -13    5    1      1.84      0.00
  -12    5    1      1.04      0.00
  -11    5    1      4.78      0.00
  -10    5    1      3.36      0.00
   -9    5    1      0.43      0.00
   -8    5    1      5.14      0.00
   -7    5    1      2.47      0.00
   -6    5    1     -3.76      0.00
   -5    5    1      0.22      0.00
   -4    5    1      1.54      0.00
   -3    5    1     -3.68      0.00
   -2    5    1      4.51      0.00
   -1    5    1     -1.64      0.00
    0    5    1     -5.28      0.00
    1    5    1      3.05      0.00
    2    5    1     -1.94      0.00
    3    5    1     -7.48      0.00
    4    5    1      2.41      0.00
    5    5    1     17.23      0.00
    6    5    1     13.25      0.00
    7    5    1     13.11      0.00
    8    5    1     18.32      0.00
    9    5    1      7.33      0.00
   10    5    1      2.99      0.00
   11    5    1      6.16      0.00
   12    5    1      0.41      0.00
   13    5    1     -4.91      0.00
   14    5    1     -1.97      0.00
   15    5    1     -0.06      0.00
   16    5    1      0.33      0.00
   17    5    1      0.84      0.00
   18    5    1     -0.19      0.00
   19    5    1      0.01      0.00
   20    5    1     -0.81      0.00
   21    5    1     -0.39      0.00
  -16    6    1     -0.42      0.00
  -15    6    1     -0.35      0.00
  -14    6    1     -0.96      0.00
  -13    6    1     -0.68      0.00
  -12    6    1     -2.20      0.00
  -11    6    1     -0.55      0.00
  -10    6    1     -2.86      0.00
   -9    6    1     -3.63      0.00
   -8    6    1      0.74      0.00
   -7    6    1      0.65      0.00
   -6    6    1     -6.34      0.00
   -5    6    1     -7.44      0.00
   -4    6    1     -2.28      0.00
   -3    6    1     -9.42      0.00
   -2    6    1     -8.05      0.00
   -1    6    1     -0.84      0.00
    0    6    1      2.28      0.00
    1    6    1     -1.25      0.00
    2    6    1      4.62      0.00
    3    6    1     -1.24      0.00
    4    6    1     -4.12      0.00
    5    6    1     11.68      0.00
    6    6    1      7.10      0.00
    7    6    1     -7.14      0.00
    8    6    1     -3.38      0.00
    9    6    1      1.76      0.00
   10    6    1     -2.01      0.00
   11    6    1     -0.77      0.00
   12    6    1      1.05      0.00
   13    6    1     -1.70      0.00
   14    6    1     -1.14      0.00
   15    6    1      1.26      0.00
   16    6    1      0.06      0.00
   17    6    1      2.24      0.00
   18    6    1      0.33      0.00
   19    6    1     -1.18      0.00
   20    6    1     -3.98      0.00
   21    6    1     -3.22      0.00
  -15    7    1      1.94      0.00
  -14    7    1      3.33      0.00
  -13    7    1      2.26      0.00
  -12    7    1     -0.03      0.00
  -11    7    1     -0.78      0.00
  -10    7    1     -2.75      0.00
   -9    7    1     -2.09      0.00
   -8    7    1     -0.40      0.00
   -7    7    1      2.58      0.00
   -6    7    1      0.44      0.00
   -5    7    1      2.00      0.00
   -4    7    1      7.27      0.00
   -3    7    1     -1.75      0.00
   -2    7    1    -12.77      0.00
   -1    7    1     -5.70      0.00
    0    7    1      1.01      0.00
    1    7    1     -9.08      0.00
    2    7    1     -7.22      0.00
    3    7    1     -2.56      0.00
    4    7    1     -6.39      0.00
    5    7    1      3.77      0.00
    6    7    1      8.21      0.00
    7    7    1     -8.05      0.00
    8    7    1    -16.61      0.00
    9    7    1     -7.19      0.00
   10    7    1     -3.39      0.00
   11    7    1     -4.12      0.00
   12    7    1     -1.18      0.00
   13    7    1     -3.27      0.00
   14    7    1     -7.14      0.00
   15    7    1     -4.56      0.00
   16    7    1     -3.17      0.00
   17    7    1      1.17      0.00
   18    7    1      0.75      0.00
   19    7    1      0.67      0.00
   20    7    1     -2.89      0.00
   21    7    1     -2.72      0.00
  -14    8    1     -0.11      0.00
  -13    8    1     -0.10      0.00
  -12    8    1      0.86      0.00
  -11    8    1      1.87      0.00
  -10    8    1     -0.24      0.00
   -9    8    1     -0.40      0.00
   -8    8    1     -1.29      0.00
   -7    8    1     -1.74      0.00
   -6    8    1     -1.54      0.00
   -5    8    1      1.92      0.00
   -4    8    1      3.70      0.00
   -3    8    1      1.64      0.00
   -2    8    1     -7.22      0.00
   -1    8    1     -6.48      0.00
    0    8    1     -0.40      0.00
    1    8    1     -7.91      0.00
    2    8    1    -12.12      0.00
    3    8    1      1.63      0.00
    4    8    1      2.17      0.00
    5    8    1      6.68      0.00
    6    8    1     16.95      0.00
    7    8    1     12.14      0.00
    8    8    1      2.88      0.00
    9    8    1      3.04      0.00
   10    8    1      4.27      0.00
   11    8    1     -0.95      0.00
   12    8    1      2.71      0.00
   13    8    1      5.65      0.00
   14    8    1      0.98      0.00
   15    8    1      1.21      0.00
   16    8    1      3.72      0.00
   17    8    1      4.94      0.00
   18    8    1      3.37      0.00
   19    8    1      4.15      0.00
   20    8    1      2.86      0.00
   21    8    1      0.59      0.00
  -13    9    1     -2.99      0.00
  -12    9    1     -2.31      0.00
  -11    9    1      0.51      0.00
  -10    9    1     -0.42      0.00
   -9    9    1      1.68      0.00
   -8    9    1      3.13      0.00
   -7    9    1     -2.39      0.00
   -6    9    1     -3.51      0.00
   -5    9    1      0.87      0.00
   -4    9    1      0.91      0.00
   -3    9    1     -0.14      0.00
   -2    9    1     -1.94      0.00
   -1    9    1     -0.53      0.00
    0    9    1      2.16      0.00
    1    9    1     -4.57      0.00
    2    9    1    -11.91      0.00
    3    9    1     -1.19      0.00
    4    9    1      1.35      0.00
    5    9    1     -1.01      0.00
    6    9    1      4.93      0.00
    7    9    1      7.74      0.00
    8    9    1      6.22      0.00
    9    9    1      7.01      0.00
   10    9    1      8.74      0.00
   11    9    1      2.36      0.00
   12    9    1     -0.97      0.00
   13    9    1      0.25      0.00
   14    9    1     -1.76      0.00
   15    9    1     -0.50      0.00
   16    9    1      4.47      0.00
   17    9    1      3.39      0.00
   18    9    1     -2.23      0.00
   19    9    1     -2.18      0.00
   20    9    1      5.02      0.00
   21    9    1      6.85      0.00
  -12   10    1      1.71      0.00
  -11   10    1      4.08      0.00
  -10   10    1      0.20      0.00
   -9   10    1     -3.33      0.00
   -8   10    1     -2.12      0.00
   -7   10    1     -3.13      0.00
   -6   10    1     -2.70      0.00
   -5   10    1     -0.41      0.00
   -4   10    1     -0.04      0.00
   -3   10    1     -4.24      0.00
   -2   10    1     -2.13      0.00
   -1   10    1      0.61      0.00
    0   10    1      1.84      0.00
    1   10    1      1.07      0.00
    2   10    1     -5.67      0.00
    3   10    1     -2.43      0.00
    4   10    1      3.07      0.00
    5   10    1      0.06      0.00
    6   10    1      4.58      0.00
    7   10    1      8.71      0.00
    8   10    1      8.29      0.00
    9   10    1      3.96      0.00
   10   10    1     -0.37      0.00
   11   10    1      0.74      0.00
   12   10    1     -0.70      0.00
   13   10    1     -0.24      0.00
   14   10    1     -3.25      0.00
   15   10    1     -7.10      0.00
   16   10    1     -2.05      0.00
   17   10    1      2.39      0.00
   18   10    1     -0.53      0.00
   19   10    1     -2.21      0.00
   20   10    1      1.21      0.00
   21   10    1      0.96      0.00
  -11   11    1      2.86      0.00
  -10   11    1      3.15      0.00
   -9   11    1      0.20      0.00
   -8   11    1     -2.55      0.00
   -7   11    1     -3.46      0.00
   -6   11    1     -2.06      0.00
   -5   11    1      0.27      0.00
   -4   11    1      0.08      0.00
   -3   11    1     -4.30      0.00
   -2   11    1      1.29      0.00
   -1   11    1      0.90      0.00
    0   11    1     -5.14      0.00
    1   11    1     -3.01      0.00
    2   11    1     -2.61      0.00
    3   11    1     -2.44      0.00
    4   11    1      0.08      0.00
    5   11    1     -0.70      0.00
    6   11    1     -1.06      0.00
    7   11    1     -1.07      0.00
    8   11    1      5.29      0.00
    9   11    1      6.14      0.00
   10   11    1     -0.43      0.00
   11   11    1      0.76      0.00
   12   11    1     -1.42      0.00
   13   11    1     -1.44      0.00
   14   11    1     -0.96      0.00
   15   11    1     -5.43      0.00
   16   11    1     -3.77      0.00
   17   11    1     -0.43      0.00
   18   11    1      0.27      0.00
   19   11    1      1.58      0.00
   20   11    1      2.67      0.00
   21   11    1      2.84      0.00
  -10   12    1      0.36      0.00
   -9   12    1      0.33      0.00
   -8   12    1     -0.34      0.00
   -7   12    1     -0.93      0.00
   -6   12    1     -0.20      0.00
   -5   12    1      2.73      0.00
   -4   12    1      1.49      0.00
   -3   12    1     -2.18      0.00
   -2   12    1      2.95      0.00
   -1   12    1      6.40      0.00
    0   12    1     -0.51      0.00
    1   12    1     -4.03      0.00
    2   12    1      0.60      0.00
    3   12    1     -1.64      0.00
    4   12    1     -4.20      0.00
    5   12    1      3.88      0.00
    6   12    1      6.17      0.00
    7   12    1      2.12      0.00
    8   12    1      5.36      0.00
    9   12    1      6.23      0.00
   10   12    1      1.34      0.00
   11   12    1      1.75      0.00
   12   12    1      2.51      0.00
   13   12    1      0.67      0.00
   14   12    1      1.98      0.00
   15   12    1     -1.25      0.00
   16   12    1     -1.70      0.00
   17   12    1     -0.79      0.00
   18   12    1      2.34      0.00
   19   12    1      2.41      0.00
   20   12    1      0.09      0.00
   21   12    1      1.24      0.00
   -9   13    1      1.44      0.00
   -8   13    1      3.23      0.00
   -7   13    1      3.35      0.00
   -6   13    1      0.45      0.00
   -5   13    1     -0.64      0.00
   -4   13    1     -2.43      0.00
   -3   13    1     -3.75      0.00
   -2   13    1     -2.08      0.00
   -1   13    1      3.31      0.00
    0   13    1      1.20      0.00
    1   13    1     -5.42      0.00
    2   13    1      0.73      0.00
    3   13    1     -0.30      0.00
    4   13    1     -5.98      0.00
    5   13    1      1.57      0.00
    6   13    1      7.54      0.00
    7   13    1      3.80      0.00
    8   13    1      3.82      0.00
    9   13    1      3.12      0.00
   10   13    1     -1.79      0.00
   11   13    1     -2.13      0.00
   12   13    1      2.23      0.00
   13   13    1     -0.51      0.00
   14   13    1      0.07      0.00
   15   13    1     -0.69      0.00
   16   13    1     -2.49      0.00
   17   13    1     -4.14      0.00
   18   13    1     -1.45      0.00
   19   13    1     -1.34      0.00
   20   13    1     -3.39      0.00
   21   13    1     -3.05      0.00
   -8   14    1     -1.24      0.00
   -7   14    1      1.49      0.00
   -6   14    1      1.02      0.00
   -5   14    1      1.32      0.00
   -4   14    1     -0.11      0.00
   -3   14    1     -2.35      0.00
   -2   14    1     -2.23      0.00
   -1   14    1      1.05      0.00
    0   14    1      4.68      0.00
    1   14    1      0.09      0.00
    2   14    1      2.77      0.00
    3   14    1      3.20      0.00
    4   14    1     -5.63      0.00
    5   14    1     -5.98      0.00
    6   14    1      1.23      0.00
    7   14    1     -1.65      0.00
    8   14    1     -0.39      0.00
    9   14    1      4.38      0.00
   10   14    1      1.94      0.00
   11   14    1     -0.93      0.00
   12   14    1      3.02      0.00
   13   14    1      2.40      0.00
   14   14    1      0.02      0.00
   15   14    1      0.94      0.00
   16   14    1      1.37      0.00
   17   14    1      0.09      0.00
   18   14    1     -0.69      0.00
   19   14    1      1.16      0.00
   20   14    1      0.05      0.00
   21   14    1     -0.41      0.00
   -7   15    1     -0.27      0.00
   -6   15    1     -0.95      0.00
   -5   15    1      4.25      0.00
   -4   15    1      6.92      0.00
   -3   15    1      2.18      0.00
   -2   15    1      0.25      0.00
   -1   15    1     -0.80      0.00
    0   15    1      4.46      0.00
    1   15    1      3.55      0.00
    2   15    1      3.06      0.00
    3   15    1      6.88      0.00
    4   15    1     -0.18      0.00
    5   15    1     -5.45      0.00
    6   15    1      0.04      0.00
    7   15    1     -1.99      0.00
    8   15    1     -5.43      0.00
    9   15    1      1.00      0.00
   10   15    1      4.46      0.00
   11   15    1      0.01      0.00
   12   15    1     -1.47      0.00
   13   15    1      1.08      0.00
   14   15    1     -0.83      0.00
   15   15    1     -1.70      0.00
   16   15    1     -2.06      0.00
   17   15    1     -1.47      0.00
   18   15    1     -3.50      0.00
   19   15    1     -1.39      0.00
   20   15    1     -3.68      0.00
   -5   16    1     -1.83      0.00
   -4   16    1      2.63      0.00
   -3   16    1      1.15      0.00
   -2   16    1      2.24      0.00
   -1   16    1     -1.15      0.00
    0   16    1     -2.85      0.00
    1   16    1     -1.75      0.00
    2   16    1     -3.24      0.00
    3   16    1      0.25      0.00
    4   16    1     -1.88      0.00
    5   16    1     -5.29      0.00
    6   16    1     -0.76      0.00
    7   16    1      3.37      0.00
    8   16    1     -0.83      0.00
    9   16    1      0.35      0.00
   10   16    1      4.25      0.00
   11   16    1      4.50      0.00
   12   16    1      2.01      0.00
   13   16    1      2.44      0.00
   14   16    1      0.87      0.00
   15   16    1     -0.61      0.00
   16   16    1     -1.96      0.00
   17   16    1     -2.28      0.00
   18   16    1     -3.75      0.00
   19   16    1      0.68      0.00
   20   16    1      0.59      0.00
   -4   17    1     -0.38      0.00
   -3   17    1     -3.83      0.00
   -2   17    1     -1.29      0.00
   -1   17    1      0.26      0.00
    0   17    1     -3.57      0.00
    1   17    1     -0.15      0.00
    2   17    1     -0.35      0.00
    3   17    1      0.25      0.00
    4   17    1      0.14      0.00
    5   17    1     -1.71      0.00
    6   17    1     -2.25      0.00
    7   17    1     -1.06      0.00
    8   17    1     -1.91      0.00
    9   17    1     -1.86      0.00
   10   17    1     -0.16      0.00
   11   17    1      0.41      0.00
   12   17    1     -0.06      0.00
   13   17    1      2.44      0.00
   14   17    1      2.38      0.00
   15   17    1      0.33      0.00
   16   17    1      1.01      0.00
   17   17    1      2.40      0.00
   18   17    1     -1.84      0.00
   19   17    1     -2.39      0.00
   -2   18    1      1.88      0.00
   -1   18    1      5.98      0.00
    0   18    1      2.32      0.00
    1   18    1      3.11      0.00
    2   18    1      1.63      0.00
    3   18    1     -1.62      0.00
    4   18    1     -1.60      0.00
    5   18    1     -1.87      0.00
    6   18    1     -1.46      0.00
    7   18    1     -0.69      0.00
    8   18    1      0.85      0.00
    9   18    1     -3.27      0.00
   10   18    1     -4.86      0.00
   11   18    1     -5.52      0.00
   12   18    1     -4.82      0.00
   13   18    1     -1.80      0.00
   14   18    1      0.50      0.00
   15   18    1     -1.31      0.00
   16   18    1     -3.07      0.00
   17   18    1      1.47      0.00
   18   18    1      1.81      0.00
    1   19    1     -0.68      0.00
    2   19    1      1.47      0.00
    3   19    1     -1.95      0.00
    4   19    1     -1.39      0.00
    5   19    1     -2.04      0.00
    6   19    1     -1.25      0.00
    7   19    1     -1.87      0.00
    8   19    1      1.56      0.00
    9   19    1     -0.44      0.00
   10   19    1     -2.74      0.00
   11   19    1     -1.80      0.00
   12   19    1      0.84      0.00
   13   19    1     -0.46      0.00
   14   19    1      0.00      0.00
   15   19    1      0.47      0.00
   16   19    1     -1.66      0.00
   17   19    1      1.84      0.00
    3   20    1      4.03      0.00
    4   20    1      5.09      0.00
    5   20    1      1.63      0.00
    6   20    1      0.78      0.00
    7   20    1     -2.05      0.00
    8   20    1     -0.06      0.00
    9   20    1      0.48      0.00
   10   20    1     -0.24      0.00
   11   20    1      3.26      0.00
   12   20    1      6.88      0.00
   13   20    1      6.56      0.00
   14   20    1      6.63      0.00
   15   20    1      5.37      0.00
    9   21    1     -0.12      0.00
  -14  -19    2     -6.88      0.00
  -13  -19    2     -6.77      0.00
  -12  -19    2     -3.21      0.00
  -11  -19    2      0.62      0.00
  -10  -19    2     -1.20      0.00
   -9  -19    2     -1.35      0.00
   -8  -19    2     -3.63      0.00
   -7  -19    2     -2.04      0.00
   -6  -19    2     -2.83      0.00
   -5  -19    2     -4.54      0.00
   -4  -19    2     -4.69      0.00
   -3  -19    2     -3.04      0.00
  -16  -18    2      3.68      0.00
  -15  -18    2      4.85      0.00
  -14  -18    2      2.19      0.00
  -13  -18    2     -1.58      0.00
  -12  -18    2     -1.54      0.00
  -11  -18    2      2.59      0.00
  -10  -18    2      5.19      0.00
   -9  -18    2      5.97      0.00
   -8  -18    2      0.30      0.00
   -7  -18    2      0.44      0.00
   -6  -18    2      0.31      0.00
   -5  -18    2     -1.99      0.00
   -4  -18    2      0.62      0.00
   -3  -18    2      0.05      0.00
   -2  -18    2     -3.10      0.00
   -1  -18    2     -4.43      0.00
    0  -18    2     -0.07      0.00
  -17  -17    2     -2.62      0.00
  -16  -17    2     -0.55      0.00
  -15  -17    2      1.28      0.00
  -14  -17    2      2.26      0.00
  -13  -17    2      3.63      0.00
  -12  -17    2      3.72      0.00
  -11  -17    2      2.82      0.00
  -10  -17    2      1.45      0.00
   -9  -17    2      1.44      0.00
   -8  -17    2      0.37      0.00
   -7  -17    2     -1.07      0.00
   -6  -17    2     -2.87      0.00
   -5  -17    2     -3.57      0.00
   -4  -17    2      0.52      0.00
   -3  -17    2      2.21      0.00
   -2  -17    2     -0.20      0.00
   -1  -17    2     -6.73      0.00
    0  -17    2     -7.86      0.00
    1  -17    2     -4.77      0.00
    2  -17    2     -2.71      0.00
  -18  -16    2      5.69      0.00
  -17  -16    2      1.14      0.00
  -16  -16    2     -1.69      0.00
  -15  -16    2     -3.79      0.00
  -14  -16    2     -2.84      0.00
  -13  -16    2     -1.87      0.00
  -12  -16    2     -0.86      0.00
  -11  -16    2      2.27      0.00
  -10  -16    2      1.44      0.00
   -9  -16    2      0.04      0.00
   -8  -16    2      1.59      0.00
   -7  -16    2      0.91      0.00
   -6  -16    2      0.49      0.00
   -5  -16    2      1.11      0.00
   -4  -16    2      1.37      0.00
   -3  -16    2      1.99      0.00
   -2  -16    2      1.48      0.00
   -1  -16    2      0.11      0.00
    0  -16    2     -0.34      0.00
    1  -16    2      1.23      0.00
    2  -16    2      2.40      0.00
    3  -16    2      4.35      0.00
    4  -16    2      0.76      0.00
  -19  -15    2     -5.07      0.00
  -18  -15    2      0.21      0.00
  -17  -15    2      2.08      0.00
  -16  -15    2      1.80      0.00
  -15  -15    2     -0.88      0.00
  -14  -15    2     -0.52      0.00
  -13  -15    2     -0.43      0.00
  -12  -15    2     -2.77      0.00
  -11  -15    2     -3.23      0.00
  -10  -15    2     -1.60      0.00
   -9  -15    2      2.52      0.00
   -8  -15    2      1.65      0.00
   -7  -15    2     -2.12      0.00
   -6  -15    2     -1.59      0.00
   -5  -15    2      2.33      0.00
   -4  -15    2      1.28      0.00
   -3  -15    2      2.05      0.00
   -2  -15    2      3.10      0.00
   -1  -15    2      3.76      0.00
    0  -15    2      1.68      0.00
    1  -15    2      0.92      0.00
    2  -15    2     -0.16      0.00
    3  -15    2      0.95      0.00
    4  -15    2     -0.65      0.00
    5  -15    2     -1.17      0.00
    6  -15    2      0.43      0.00
  -19  -14    2     -0.67      0.00
  -18  -14    2      0.24      0.00
  -17  -14    2      1.48      0.00
  -16  -14    2      1.53      0.00
  -15  -14    2      0.91      0.00
  -14  -14    2     -1.67      0.00
  -13  -14    2     -0.76      0.00
  -12  -14    2      0.15      0.00
  -11  -14    2     -2.60      0.00
  -10  -14    2     -6.24      0.00
   -9  -14    2     -0.56      0.00
   -8  -14    2      4.59      0.00
   -7  -14    2      5.33      0.00
   -6  -14    2      3.57      0.00
   -5  -14    2      4.64      0.00
   -4  -14    2      0.24      0.00
   -3  -14    2     -3.35      0.00
   -2  -14    2     -1.55      0.00
   -1  -14    2      1.57      0.00
    0  -14    2     -2.05      0.00
    1  -14    2     -1.41      0.00
    2  -14    2     -0.29      0.00
    3  -14    2     -0.69      0.00
    4  -14    2     -0.37      0.00
    5  -14    2     -0.26      0.00
    6  -14    2      4.01      0.00
    7  -14    2      0.37      0.00
  -20  -13    2     -0.20      0.00
  -19  -13    2     -0.48      0.00
  -18  -13    2      0.55      0.00
  -17  -13    2      1.88      0.00
  -16  -13    2      0.03      0.00
  -15  -13    2      2.32      0.00
  -14  -13    2      0.22      0.00
  -13  -13    2     -1.11      0.00
  -12  -13    2      0.12      0.00
  -11  -13    2      4.10      0.00
  -10  -13    2      2.70      0.00
   -9  -13    2      1.05      0.00
   -8  -13    2      0.89      0.00
   -7  -13    2      2.58      0.00
   -6  -13    2      2.14      0.00
   -5  -13    2      5.61      0.00
   -4  -13    2      6.20      0.00
   -3  -13    2     -0.79      0.00
   -2  -13    2     -1.37      0.00
   -1  -13    2      3.03      0.00
    0  -13    2     -1.17      0.00
    1  -13    2      0.18      0.00
    2  -13    2      1.12      0.00
    3  -13    2     -0.20      0.00
    4  -13    2      0.77      0.00
    5  -13    2     -1.81      0.00
    6  -13    2      0.08      0.00
    7  -13    2     -1.25      0.00
    8  -13    2     -1.37      0.00
  -20  -12    2      2.42      0.00
  -19  -12    2      1.50      0.00
  -18  -12    2      2.58      0.00
  -17  -12    2      2.89      0.00
  -16  -12    2     -0.12      0.00
  -15  -12    2      1.66      0.00
  -14  -12    2      0.65      0.00
  -13  -12    2     -1.61      0.00
  -12  -12    2     -2.23      0.00
  -11  -12    2      1.17      0.00
  -10  -12    2      3.12      0.00
   -9  -12    2      1.49      0.00
   -8  -12    2      2.60      0.00
   -7  -12    2      4.43      0.00
   -6  -12    2     -0.73      0.00
   -5  -12    2      0.79      0.00
   -4  -12    2      4.66      0.00
   -3  -12    2     -1.96      0.00
   -2  -12    2     -3.18      0.00
   -1  -12    2      1.28      0.00
    0  -12    2     -2.38      0.00
    1  -12    2     -2.13      0.00
    2  -12    2     -0.84      0.00
    3  -12    2      0.06      0.00
    4  -12    2     -0.08      0.00
    5  -12    2     -0.97      0.00
    6  -12    2     -0.51      0.00
    7  -12    2     -2.64      0.00
    8  -12    2     -3.74      0.00
    9  -12    2     -2.55      0.00
   10  -12    2     -1.39      0.00
  -21  -11    2      1.25      0.00
  -20  -11    2      2.39      0.00
  -19  -11    2      1.11      0.00
  -18  -11    2      3.02      0.00
  -17  -11    2      3.77      0.00
  -16  -11    2      2.41      0.00
  -15  -11    2      3.18      0.00
  -14  -11    2      1.17      0.00
  -13  -11    2     -3.46      0.00
  -12  -11    2     -5.30      0.00
  -11  -11    2     -3.80      0.00
  -10  -11    2     -0.62      0.00
   -9  -11    2     -5.75      0.00
   -8  -11    2     -3.70      0.00
   -7  -11    2      1.76      0.00
   -6  -11    2     -3.46      0.00
   -5  -11    2     -1.86      0.00
   -4  -11    2      4.34      0.00
   -3  -11    2      2.18      0.00
   -2  -11    2     -0.32      0.00
   -1  -11    2      2.55      0.00
    0  -11    2      0.07      0.00
    1  -11    2     -4.06      0.00
    2  -11    2     -2.18      0.00
    3  -11    2      0.40      0.00
    4  -11    2     -4.88      0.00
    5  -11    2     -5.89      0.00
    6  -11    2     -3.71      0.00
    7  -11    2     -3.59      0.00
    8  -11    2     -3.02      0.00
    9  -11    2     -0.99      0.00
   10  -11    2      0.47      0.00
   11  -11    2      1.98      0.00
  -21  -10    2     -3.13      0.00
  -20  -10    2     -4.71      0.00
  -19  -10    2     -4.88      0.00
  -18  -10    2     -2.89      0.00
  -17  -10    2      0.35      0.00
  -16  -10    2      2.00      0.00
  -15  -10    2      3.60      0.00
  -14  -10    2      1.65      0.00
  -13  -10    2     -1.69      0.00
  -12  -10    2     -3.45      0.00
  -11  -10    2     -4.17      0.00
  -10  -10    2      0.96      0.00
   -9  -10    2     -1.37      0.00
   -8  -10    2     -0.80      0.00
   -7  -10    2      4.31      0.00
   -6  -10    2      1.45      0.00
   -5  -10    2     -2.57      0.00
   -4  -10    2     -1.74      0.00
   -3  -10    2     -1.92      0.00
   -2  -10    2     -2.03      0.00
   -1  -10    2      0.89      0.00
    0  -10    2      0.04      0.00
    1  -10    2     -4.08      0.00
    2  -10    2     -0.90      0.00
    3  -10    2      3.62      0.00
    4  -10    2     -0.87      0.00
    5  -10    2     -4.71      0.00
    6  -10    2     -0.27      0.00
    7  -10    2      1.61      0.00
    8  -10    2     -0.25      0.00
    9  -10    2     -0.34      0.00
   10  -10    2     -0.71      0.00
   11  -10    2     -2.16      0.00
   12  -10    2     -1.50      0.00
  -21   -9    2      0.00      0.00
  -20   -9    2     -2.28      0.00
  -19   -9    2     -2.95      0.00
  -18   -9    2     -1.98      0.00
  -17   -9    2      0.17      0.00
  -16   -9    2      2.96      0.00
  -15   -9    2      7.12      0.00
  -14   -9    2      3.62      0.00
  -13   -9    2     -0.32      0.00
  -12   -9    2      0.62      0.00
  -11   -9    2     -1.97      0.00
  -10   -9    2     -3.02      0.00
   -9   -9    2     -3.18      0.00
   -8   -9    2     -4.60      0.00
   -7   -9    2      0.41      0.00
   -6   -9    2      5.96      0.00
   -5   -9    2      4.55      0.00
   -4   -9    2      3.20      0.00
   -3   -9    2     -0.42      0.00
   -2   -9    2     -0.86      0.00
   -1   -9    2     -6.03      0.00
    0   -9    2     -9.52      0.00
    1   -9    2     -6.41      0.00
    2   -9    2     -2.94      0.00
    3   -9    2      0.83      0.00
    4   -9    2      0.24      0.00
    5   -9    2     -5.99      0.00
    6   -9    2     -0.31      0.00
    7   -9    2      3.35      0.00
    8   -9    2      1.69      0.00
    9   -9    2      1.00      0.00
   10   -9    2      0.31      0.00
   11   -9    2     -3.09      0.00
   12   -9    2     -1.64      0.00
   13   -9    2     -1.53      0.00
  -21   -8    2     -0.51      0.00
  -20   -8    2     -2.39      0.00
  -19   -8    2     -3.59      0.00
  -18   -8    2     -1.08      0.00
  -17   -8    2     -2.93      0.00
  -16   -8    2     -3.12      0.00
  -15   -8    2      1.30      0.00
  -14   -8    2      1.36      0.00
  -13   -8    2     -0.41      0.00
  -12   -8    2      4.45      0.00
  -11   -8    2      2.87      0.00
  -10   -8    2     -3.17      0.00
   -9   -8    2     -2.17      0.00
   -8   -8    2     -2.34      0.00
   -7   -8    2     -0.87      0.00
   -6   -8    2      3.31      0.00
   -5   -8    2      3.79      0.00
   -4   -8    2      3.43      0.00
   -3   -8    2      5.79      0.00
   -2   -8    2     13.06      0.00
   -1   -8    2      2.18      0.00
    0   -8    2     -9.98      0.00
    1   -8    2     -4.42      0.00
    2   -8    2     -1.98      0.00
    3   -8    2     -0.09      0.00
    4   -8    2      0.94      0.00
    5   -8    2     -3.56      0.00
    6   -8    2     -0.23      0.00
    7   -8    2      1.07      0.00
    8   -8    2     -1.03      0.00
    9   -8    2     -1.93      0.00
   10   -8    2      0.48      0.00
   11   -8    2     -2.69      0.00
   12   -8    2     -1.12      0.00
   13   -8    2      0.91      0.00
   14   -8    2     -0.78      0.00
  -21   -7    2      2.30      0.00
  -20   -7    2      2.21      0.00
  -19   -7    2     -0.76      0.00
  -18   -7    2     -0.04      0.00
  -17   -7    2     -1.79      0.00
  -16   -7    2     -1.42      0.00
  -15   -7    2     -0.71      0.00
  -14   -7    2     -1.05      0.00
  -13   -7    2     -2.64      0.00
  -12   -7    2      5.35      0.00
  -11   -7    2      9.54      0.00
  -10   -7    2      2.76      0.00
   -9   -7    2     -0.62      0.00
   -8   -7    2      1.39      0.00
   -7   -7    2      0.05      0.00
   -6   -7    2     -0.89      0.00
   -5   -7    2     -0.02      0.00
   -4   -7    2     -3.97      0.00
   -3   -7    2     -5.28      0.00
   -2   -7    2      4.05      0.00
   -1   -7    2      0.26      0.00
    0   -7    2    -14.77      0.00
    1   -7    2     -6.91      0.00
    2   -7    2     -4.25      0.00
    3   -7    2     -8.57      0.00
    4   -7    2     -7.81      0.00
    5   -7    2     -3.86      0.00
    6   -7    2     -0.65      0.00
    7   -7    2      2.39      0.00
    8   -7    2      3.03      0.00
    9   -7    2     -0.02      0.00
   10   -7    2      1.68      0.00
   11   -7    2      0.20      0.00
   12   -7    2      1.17      0.00
   13   -7    2      3.41      0.00
   14   -7    2      2.16      0.00
   15   -7    2      0.06      0.00
  -21   -6    2      2.19      0.00
  -20   -6    2      5.04      0.00
  -19   -6    2      4.51      0.00
  -18   -6    2      2.36      0.00
  -17   -6    2      1.67      0.00
  -16   -6    2      2.72      0.00
  -15   -6    2      3.30      0.00
  -14   -6    2      2.96      0.00
  -13   -6    2      0.78      0.00
  -12   -6    2      5.29      0.00
  -11   -6    2     14.44      0.00
  -10   -6    2     13.88      0.00
   -9   -6    2      9.21      0.00
   -8   -6    2     12.71      0.00
   -7   -6    2      9.62      0.00
   -6   -6    2     -2.08      0.00
   -5   -6    2     -0.27      0.00
   -4   -6    2      6.40      0.00
   -3   -6    2     -0.48      0.00
   -2   -6    2      2.48      0.00
   -1   -6    2      5.81      0.00
    0   -6    2     -7.83      0.00
    1   -6    2     -0.07      0.00
    2   -6    2      5.58      0.00
    3   -6    2     -4.96      0.00
    4   -6    2    -11.52      0.00
    5   -6    2     -6.23      0.00
    6   -6    2     -3.36      0.00
    7   -6    2     -0.96      0.00
    8   -6    2      2.99      0.00
    9   -6    2      3.19      0.00
   10   -6    2      2.01      0.00
   11   -6    2      1.05      0.00
   12   -6    2      1.14      0.00
   13   -6    2     -1.42      0.00
   14   -6    2     -3.65      0.00
   15   -6    2     -4.49      0.00
   16   -6    2     -2.55      0.00
  -21   -5    2     -0.59      0.00
  -20   -5    2      1.67      0.00
  -19   -5    2      4.47      0.00
  -18   -5    2      3.04      0.00
  -17   -5    2      1.95      0.00
  -16   -5    2      0.34      0.00
  -15   -5    2      0.22      0.00
  -14   -5    2     -1.53      0.00
  -13   -5    2     -2.61      0.00
  -12   -5    2     -4.18      0.00
  -11   -5    2      2.62      0.00
  -10   -5    2      7.05      0.00
   -9   -5    2      4.68      0.00
   -8   -5    2      8.88      0.00
   -7   -5    2     12.32      0.00
   -6   -5    2     -5.83      0.00
   -5   -5    2    -15.46      0.00
   -4   -5    2     -3.09      0.00
   -3   -5    2     -6.59      0.00
   -2   -5    2     -8.40      0.00
   -1   -5    2      0.36      0.00
    0   -5    2      1.83      0.00
    1   -5    2      5.12      0.00
    2   -5    2     12.87      0.00
    3   -5    2      5.96      0.00
    4   -5    2     -3.24      0.00
    5   -5    2     -0.69      0.00
    6   -5    2      1.53      0.00
    7   -5    2     -2.12      0.00
    8   -5    2      2.39      0.00
    9   -5    2      9.00      0.00
   10   -5    2      5.44      0.00
   11   -5    2      1.96      0.00
   12   -5    2      2.09      0.00
   13   -5    2     -1.42      0.00
   14   -5    2     -3.31      0.00
   15   -5    2     -3.21      0.00
   16   -5    2     -2.39      0.00
  -20   -4    2     -3.46      0.00
  -19   -4    2     -0.49      0.00
  -18   -4    2      0.23      0.00
  -17   -4    2      0.70      0.00
  -16   -4    2      2.07      0.00
  -15   -4    2      3.74      0.00
  -14   -4    2      1.43      0.00
  -13   -4    2      1.04      0.00
  -12   -4    2     -2.29      0.00
  -11   -4    2     -1.86      0.00
  -10   -4    2      0.68      0.00
   -9   -4    2     -1.35      0.00
   -8   -4    2     -4.84      0.00
   -7   -4    2      2.63      0.00
   -6   -4    2      1.66      0.00
   -5   -4    2    -12.45      0.00
   -4   -4    2     -8.15      0.00
   -3   -4    2     -6.68      0.00
   -2   -4    2    -15.24      0.00
   -1   -4    2     -1.11      0.00
    0   -4    2     13.95      0.00
    1   -4    2     11.15      0.00
    2   -4    2     15.57      0.00
    3   -4    2     14.51      0.00
    4   -4    2      8.53      0.00
    5   -4    2      5.12      0.00
    6   -4    2      5.45      0.00
    7   -4    2     -5.12      0.00
    8   -4    2     -5.78      0.00
    9   -4    2      3.99      0.00
   10   -4    2      4.95      0.00
   11   -4    2      3.67      0.00
   12   -4    2      6.19      0.00
   13   -4    2      2.56      0.00
   14   -4    2     -3.38      0.00
   15   -4    2     -2.55      0.00
   16   -4    2     -1.45      0.00
   17   -4    2      0.02      0.00
  -20   -3    2     -2.08      0.00
  -19   -3    2      0.67      0.00
  -18   -3    2      0.53      0.00
  -17   -3    2     -0.46      0.00
  -16   -3    2      1.03      0.00
  -15   -3    2      2.15      0.00
  -14   -3    2     -0.77      0.00
  -13   -3    2     -3.36      0.00
  -12   -3    2     -3.21      0.00
  -11   -3    2     -4.25      0.00
  -10   -3    2     -2.07      0.00
   -9   -3    2      5.56      0.00
   -8   -3    2      0.98      0.00
   -7   -3    2      0.41      0.00
   -6   -3    2     14.12      0.00
   -5   -3    2      6.38      0.00
   -4   -3    2      5.00      0.00
   -3   -3    2      4.99      0.00
   -2   -3    2    -18.43      0.00
   -1   -3    2    -13.87      0.00
    0   -3    2    -10.69      0.00
    1   -3    2     -4.51      0.00
    2   -3    2     -7.27      0.00
    3   -3    2     -1.68      0.00
    4   -3    2      8.47      0.00
    5   -3    2      3.06      0.00
    6   -3    2      9.00      0.00
    7   -3    2      5.32      0.00
    8   -3    2     -2.59      0.00
    9   -3    2     -0.63      0.00
   10   -3    2      0.38      0.00
   11   -3    2     -1.79      0.00
   12   -3    2      2.77      0.00
   13   -3    2      4.64      0.00
   14   -3    2     -1.14      0.00
   15   -3    2     -1.39      0.00
   16   -3    2     -0.46      0.00
   17   -3    2      1.29      0.00
   18   -3    2     -1.52      0.00
  -20   -2    2     -0.53      0.00
  -19   -2    2      0.81      0.00
  -18   -2    2     -0.16      0.00
  -17   -2    2     -2.26      0.00
  -16   -2    2     -2.39      0.00
  -15   -2    2      0.31      0.00
  -14   -2    2      0.10      0.00
  -13   -2    2     -5.19      0.00
  -12   -2    2     -4.32      0.00
  -11   -2    2     -4.35      0.00
  -10   -2    2     -7.24      0.00
   -9   -2    2      3.20      0.00
   -8   -2    2      2.72      0.00
   -7   -2    2     -6.73      0.00
   -6   -2    2      6.40      0.00
   -5   -2    2      9.09      0.00
   -4   -2    2      1.08      0.00
   -3   -2    2      3.29      0.00
   -2   -2    2      0.14      0.00
   -1   -2    2     -1.97      0.00
    0   -2    2    -41.03      0.00
    1   -2    2    -28.84      0.00
    2   -2    2    -33.75      0.00
    3   -2    2    -29.50      0.00
    4   -2    2     -9.70      0.00
    5   -2    2    -18.46      0.00
    6   -2    2    -14.77      0.00
    7   -2    2     -4.50      0.00
    8   -2    2     -2.97      0.00
    9   -2    2     -0.65      0.00
   10   -2    2     -1.17      0.00
   11   -2    2     -4.54      0.00
   12   -2    2     -0.06      0.00
   13   -2    2      3.60      0.00
   14   -2    2      0.81      0.00
   15   -2    2      0.13      0.00
   16   -2    2     -1.07      0.00
   17   -2    2     -2.85      0.00
   18   -2    2     -4.49      0.00
  -19   -1    2      0.25      0.00
  -18   -1    2      0.09      0.00
  -17   -1    2     -0.05      0.00
  -16   -1    2     -1.39      0.00
  -15   -1    2     -0.18      0.00
  -14   -1    2      3.04      0.00
  -13   -1    2      0.74      0.00
  -12   -1    2      2.20      0.00
  -11   -1    2      7.85      0.00
  -10   -1    2      3.12      0.00
   -9   -1    2     11.79      0.00
   -8   -1    2     20.24      0.00
   -7   -1    2      9.67      0.00
   -6   -1    2     12.36      0.00
   -5   -1    2     20.76      0.00
   -4   -1    2     -7.78      0.00
   -3   -1    2    -19.88      0.00
   -2   -1    2     11.08      0.00
   -1   -1    2     46.38      0.00
    0   -1    2     -8.04      0.00
    1   -1    2     -8.76      0.00
    2   -1    2      5.69      0.00
    3   -1    2     -9.00      0.00
    4   -1    2      2.21      0.00
    5   -1    2      0.33      0.00
    6   -1    2     -4.54      0.00
    7   -1    2      1.24      0.00
    8   -1    2      0.06      0.00
    9   -1    2      2.20      0.00
   10   -1    2      4.66      0.00
   11   -1    2      2.18      0.00
   12   -1    2      3.04      0.00
   13   -1    2      4.93      0.00
   14   -1    2      2.77      0.00
   15   -1    2      0.98      0.00
   16   -1    2      3.14      0.00
   17   -1    2      1.42      0.00
   18   -1    2     -2.73      0.00
   19   -1    2      0.06      0.00
  -19    0    2     -2.76      0.00
  -18    0    2     -5.08      0.00
  -17    0    2     -4.40      0.00
  -16    0    2     -3.06      0.00
  -15    0    2     -3.72      0.00
  -14    0    2     -2.21      0.00
  -13    0    2     -5.24      0.00
  -12    0    2     -7.11      0.00
  -11    0    2     -0.52      0.00
  -10    0    2     -4.93      0.00
   -9    0    2     -4.26      0.00
   -8    0    2      5.02      0.00
   -7    0    2      0.33      0.00
   -6    0    2      2.18      0.00
   -5    0    2     16.45      0.00
   -4    0    2    -11.18      0.00
   -3    0    2    -41.20      0.00
   -2    0    2    -31.69      0.00
   -1    0    2     18.18      0.00
    0    0    2    -45.05      0.00
    1    0    2    -78.81      0.00
    2    0    2    -26.91      0.00
    3    0    2    -52.35      0.00
    4    0    2    -31.10      0.00
    5    0    2     -4.27      0.00
    6    0    2     -1.93      0.00
    7    0    2      9.58      0.00
    8    0    2     11.93      0.00
    9    0    2      6.59      0.00
   10    0    2      3.59      0.00
   11    0    2      2.66      0.00
   12    0    2     -1.05      0.00
   13    0    2     -4.83      0.00
   14    0    2     -4.20      0.00
   15    0    2     -2.47      0.00
   16    0    2      0.34      0.00
   17    0    2      2.73      0.00
   18    0    2      0.08      0.00
   19    0    2     -0.62      0.00
  -19    1    2     -0.87      0.00
  -18    1    2     -0.97      0.00
  -17    1    2     -1.05      0.00
  -16    1    2      1.06      0.00
  -15    1    2      2.20      0.00
  -14    1    2      4.39      0.00
  -13    1    2      2.70      0.00
  -12    1    2     -0.90      0.00
  -11    1    2      0.98      0.00
  -10    1    2     -0.12      0.00
   -9    1    2     -5.21      0.00
   -8    1    2     -3.86      0.00
   -7    1    2     -7.17      0.00
   -6    1    2     -4.14      0.00
   -5    1    2      7.26      0.00
   -4    1    2      3.13      0.00
   -3    1    2    -13.06      0.00
   -2    1    2    -12.70      0.00
   -1    1    2     62.77      0.00
    0    1    2     59.78      0.00
    1    1    2     69.01      0.00
    2    1    2    149.73      0.00
    3    1    2     58.75      0.00
    4    1    2     -1.87      0.00
    5    1    2      2.12      0.00
    6    1    2      7.91      0.00
    7    1    2      4.85      0.00
    8    1    2      6.86      0.00
    9    1    2      8.88      0.00
   10    1    2      1.66      0.00
   11    1    2     -0.11      0.00
   12    1    2      2.10      0.00
   13    1    2     -3.66      0.00
   14    1    2     -3.94      0.00
   15    1    2      1.17      0.00
   16    1    2      0.15      0.00
   17    1    2      2.57      0.00
   18    1    2      1.84      0.00
   19    1    2      1.22      0.00
   20    1    2     -0.06      0.00
  -18    2    2      1.98      0.00
  -17    2    2     -2.50      0.00
  -16    2    2     -2.38      0.00
  -15    2    2      0.03      0.00
  -14    2    2      0.09      0.00
  -13    2    2     -1.45      0.00
  -12    2    2     -3.72      0.00
  -11    2    2     -4.00      0.00
  -10    2    2     -2.56      0.00
   -9    2    2     -6.49      0.00
   -8    2    2     -4.35      0.00
   -7    2    2     -1.96      0.00
   -6    2    2      0.29      0.00
   -5    2    2     -0.70      0.00
   -4    2    2      2.67      0.00
   -3    2    2      1.92      0.00
   -2    2    2    -11.88      0.00
   -1    2    2     -3.07      0.00
    0    2    2    -52.97      0.00
    1    2    2    -70.92      0.00
    2    2    2     49.74      0.00
    3    2    2     60.67      0.00
    4    2    2      7.25      0.00
    5    2    2     -6.06      0.00
    6    2    2      7.44      0.00
    7    2    2     -5.16      0.00
    8    2    2    -10.56      0.00
    9    2    2      1.45      0.00
   10    2    2      1.08      0.00
   11    2    2     -2.55      0.00
   12    2    2      5.62      0.00
   13    2    2      2.52      0.00
   14    2    2     -0.13      0.00
   15    2    2      4.08      0.00
   16    2    2      2.31      0.00
   17    2    2      4.41      0.00
   18    2    2      4.91      0.00
   19    2    2      2.83      0.00
   20    2    2      0.30      0.00
  -18    3    2      6.96      0.00
  -17    3    2      2.12      0.00
  -16    3    2     -0.69      0.00
  -15    3    2      0.19      0.00
  -14    3    2     -0.19      0.00
  -13    3    2     -1.12      0.00
  -12    3    2     -1.98      0.00
  -11    3    2     -2.13      0.00
  -10    3    2     -2.66      0.00
   -9    3    2     -3.57      0.00
   -8    3    2     -0.58      0.00
   -7    3    2      5.31      0.00
   -6    3    2     12.61      0.00
   -5    3    2     15.28      0.00
   -4    3    2     21.97      0.00
   -3    3    2     36.89      0.00
   -2    3    2     28.05      0.00
   -1    3    2     21.59      0.00
    0    3    2     -1.88      0.00
    1    3    2    -61.54      0.00
    2    3    2    -34.85      0.00
    3    3    2     -1.83      0.00
    4    3    2    -20.47      0.00
    5    3    2    -11.59      0.00
    6    3    2     14.58      0.00
    7    3    2     11.12      0.00
    8    3    2     -2.61      0.00
    9    3    2      4.80      0.00
   10    3    2      8.20      0.00
   11    3    2     -1.07      0.00
   12    3    2      4.50      0.00
   13    3    2      4.26      0.00
   14    3    2      0.55      0.00
   15    3    2      2.75      0.00
   16    3    2      1.92      0.00
   17    3    2     -0.93      0.00
   18    3    2      0.33      0.00
   19    3    2     -0.62      0.00
   20    3    2     -1.74      0.00
  -17    4    2      1.43      0.00
  -16    4    2      1.49      0.00
  -15    4    2      1.22      0.00
  -14    4    2      0.25      0.00
  -13    4    2     -0.88      0.00
  -12    4    2      1.32      0.00
  -11    4    2      4.15      0.00
  -10    4    2      2.37      0.00
   -9    4    2      4.71      0.00
   -8    4    2      4.50      0.00
   -7    4    2      4.34      0.00
   -6    4    2      6.60      0.00
   -5    4    2      2.02      0.00
   -4    4    2     -5.87      0.00
   -3    4    2     12.38      0.00
   -2    4    2     15.26      0.00
   -1    4    2     12.64      0.00
    0    4    2     32.51      0.00
    1    4    2     16.27      0.00
    2    4    2     13.11      0.00
    3    4    2     18.57      0.00
    4    4    2     -2.38      0.00
    5    4    2     -6.67      0.00
    6    4    2      8.85      0.00
    7    4    2     17.63      0.00
    8    4    2     -1.84      0.00
    9    4    2     -2.96      0.00
   10    4    2      6.66      0.00
   11    4    2     -1.52      0.00
   12    4    2     -0.76      0.00
   13    4    2      4.26      0.00
   14    4    2      2.20      0.00
   15    4    2      0.93      0.00
   16    4    2      3.45      0.00
   17    4    2      1.69      0.00
   18    4    2      3.19      0.00
   19    4    2      3.01      0.00
   20    4    2      3.76      0.00
   21    4    2      1.30      0.00
  -16    5    2     -1.82      0.00
  -15    5    2     -0.05      0.00
  -14    5    2     -0.17      0.00
  -13    5    2     -4.24      0.00
  -12    5    2     -5.21      0.00
  -11    5    2     -3.75      0.00
  -10    5    2     -5.19      0.00
   -9    5    2      0.88      0.00
   -8    5    2      5.95      0.00
   -7    5    2      3.04      0.00
   -6    5    2      1.46      0.00
   -5    5    2      4.70      0.00
   -4    5    2     -1.54      0.00
   -3    5    2      0.58      0.00
   -2    5    2      0.18      0.00
   -1    5    2     -6.56      0.00
    0    5    2      2.48      0.00
    1    5    2      3.35      0.00
    2    5    2     -1.19      0.00
    3    5    2      2.70      0.00
    4    5    2     10.68      0.00
    5    5    2     -1.05      0.00
    6    5    2     -3.69      0.00
    7    5    2      9.03      0.00
    8    5    2      1.26      0.00
    9    5    2     -4.01      0.00
   10    5    2      4.66      0.00
   11    5    2      1.53      0.00
   12    5    2     -5.69      0.00
   13    5    2     -3.57      0.00
   14    5    2     -1.99      0.00
   15    5    2     -4.48      0.00
   16    5    2     -2.08      0.00
   17    5    2     -0.36      0.00
   18    5    2      0.85      0.00
   19    5    2      0.85      0.00
   20    5    2      0.02      0.00
   21    5    2     -0.15      0.00
  -16    6    2     -1.85      0.00
  -15    6    2     -0.78      0.00
  -14    6    2      2.84      0.00
  -13    6    2      3.26      0.00
  -12    6    2      1.00      0.00
  -11    6    2     -0.27      0.00
  -10    6    2     -3.45      0.00
   -9    6    2     -2.75      0.00
   -8    6    2      4.14      0.00
   -7    6    2      3.28      0.00
   -6    6    2      0.68      0.00
   -5    6    2      6.30      0.00
   -4    6    2      4.80      0.00
   -3    6    2      0.23      0.00
   -2    6    2      4.46      0.00
   -1    6    2      1.53      0.00
    0    6    2     -0.25      0.00
    1    6    2      5.67      0.00
    2    6    2      3.23      0.00
    3    6    2     -2.87      0.00
    4    6    2      7.89      0.00
    5    6    2      5.19      0.00
    6    6    2     -4.90      0.00
    7    6    2     -4.20      0.00
    8    6    2      2.03      0.00
    9    6    2      0.11      0.00
   10    6    2      2.04      0.00
   11    6    2      4.01      0.00
   12    6    2     -1.08      0.00
   13    6    2     -3.16      0.00
   14    6    2      0.62      0.00
   15    6    2      0.66      0.00
   16    6    2      2.21      0.00
   17    6    2      3.97      0.00
   18    6    2      1.50      0.00
   19    6    2     -0.81      0.00
   20    6    2     -4.49      0.00
   21    6    2     -2.84      0.00
  -15    7    2     -3.14      0.00
  -14    7    2     -2.01      0.00
  -13    7    2     -0.02      0.00
  -12    7    2     -0.05      0.00
  -11    7    2     -1.27      0.00
  -10    7    2     -4.08      0.00
   -9    7    2     -4.36      0.00
   -8    7    2     -0.31      0.00
   -7    7    2     -1.21      0.00
   -6    7    2     -1.16      0.00
   -5    7    2      5.19      0.00
   -4    7    2      6.45      0.00
   -3    7    2     -3.19      0.00
   -2    7    2     -3.51      0.00
   -1    7    2      0.25      0.00
    0    7    2     -6.06      0.00
    1    7    2    -11.00      0.00
    2    7    2     -5.66      0.00
    3    7    2     -5.26      0.00
    4    7    2     -2.36      0.00
    5    7    2      7.78      0.00
    6    7    2      2.43      0.00
    7    7    2     -3.39      0.00
    8    7    2      4.69      0.00
    9    7    2      5.44      0.00
   10    7    2      0.01      0.00
   11    7    2      0.25      0.00
   12    7    2      0.40      0.00
   13    7    2     -4.23      0.00
   14    7    2     -1.38      0.00
   15    7    2     -0.71      0.00
   16    7    2     -2.52      0.00
   17    7    2     -0.99      0.00
   18    7    2     -1.08      0.00
   19    7    2     -1.06      0.00
   20    7    2     -1.53      0.00
   21    7    2      1.09      0.00
  -14    8    2      0.67      0.00
  -13    8    2     -1.09      0.00
  -12    8    2     -1.20      0.00
  -11    8    2     -1.60      0.00
  -10    8    2     -2.91      0.00
   -9    8    2     -0.98      0.00
   -8    8    2     -1.77      0.00
   -7    8    2     -1.96      0.00
   -6    8    2      1.17      0.00
   -5    8    2      4.60      0.00
   -4    8    2      8.14      0.00
   -3    8    2      4.54      0.00
   -2    8    2      2.39      0.00
   -1    8    2      7.08      0.00
    0    8    2      0.17      0.00
    1    8    2    -11.77      0.00
    2    8    2     -8.32      0.00
    3    8    2     -3.96      0.00
    4    8    2     -7.49      0.00
    5    8    2      2.55      0.00
    6    8    2     -0.13      0.00
    7    8    2     -6.57      0.00
    8    8    2      0.55      0.00
    9    8    2      5.66      0.00
   10    8    2     -2.40      0.00
   11    8    2     -6.09      0.00
   12    8    2     -2.66      0.00
   13    8    2     -6.77      0.00
   14    8    2     -5.18      0.00
   15    8    2     -0.64      0.00
   16    8    2     -1.45      0.00
   17    8    2     -2.03      0.00
   18    8    2     -1.73      0.00
   19    8    2      1.84      0.00
   20    8    2      5.69      0.00
   21    8    2      8.19      0.00
   22    8    2      8.44      0.00
  -13    9    2     -1.25      0.00
  -12    9    2      0.08      0.00
  -11    9    2     -0.13      0.00
  -10    9    2     -2.79      0.00
   -9    9    2      0.72      0.00
   -8    9    2     -1.04      0.00
   -7    9    2     -4.06      0.00
   -6    9    2     -2.80      0.00
   -5    9    2     -0.81      0.00
   -4    9    2     -1.49      0.00
   -3    9    2     -2.39      0.00
   -2    9    2      3.05      0.00
   -1    9    2      9.78      0.00
    0    9    2      5.32      0.00
    1    9    2     -8.07      0.00
    2    9    2     -9.01      0.00
    3    9    2      0.27      0.00
    4    9    2     -4.37      0.00
    5    9    2      0.75      0.00
    6    9    2      3.48      0.00
    7    9    2     -5.26      0.00
    8    9    2     -4.85      0.00
    9    9    2     -0.10      0.00
   10    9    2     -1.99      0.00
   11    9    2     -5.53      0.00
   12    9    2     -3.49      0.00
   13    9    2     -6.70      0.00
   14    9    2    -10.64      0.00
   15    9    2     -5.10      0.00
   16    9    2     -0.02      0.00
   17    9    2     -0.28      0.00
   18    9    2     -1.58      0.00
   19    9    2      0.48      0.00
   20    9    2     -1.74      0.00
   21    9    2     -5.13      0.00
   22    9    2     -2.81      0.00
  -13   10    2     -0.24      0.00
  -12   10    2     -0.70      0.00
  -11   10    2      0.54      0.00
  -10   10    2     -1.69      0.00
   -9   10    2     -0.13      0.00
   -8   10    2      0.84      0.00
   -7   10    2     -0.29      0.00
   -6   10    2      0.63      0.00
   -5   10    2      3.62      0.00
   -4   10    2      1.36      0.00
   -3   10    2      0.45      0.00
   -2   10    2      5.27      0.00
   -1   10    2      7.93      0.00
    0   10    2     12.08      0.00
    1   10    2      6.34      0.00
    2   10    2      1.77      0.00
    3   10    2      7.28      0.00
    4   10    2      0.28      0.00
    5   10    2     -4.88      0.00
    6   10    2     -2.21      0.00
    7   10    2     -4.48      0.00
    8   10    2     -3.62      0.00
    9   10    2     -2.41      0.00
   10   10    2     -0.16      0.00
   11   10    2     -1.94      0.00
   12   10    2     -2.19      0.00
   13   10    2     -1.82      0.00
   14   10    2     -6.76      0.00
   15   10    2     -4.47      0.00
   16   10    2     -0.30      0.00
   17   10    2     -1.89      0.00
   18   10    2     -1.81      0.00
   19   10    2      3.11      0.00
   20   10    2      2.88      0.00
   21   10    2     -3.17      0.00
   22   10    2     -7.11      0.00
  -12   11    2     -2.51      0.00
  -11   11    2     -1.45      0.00
  -10   11    2     -0.67      0.00
   -9   11    2      0.10      0.00
   -8   11    2     -0.40      0.00
   -7   11    2     -1.64      0.00
   -6   11    2      0.06      0.00
   -5   11    2      1.90      0.00
   -4   11    2     -2.57      0.00
   -3   11    2     -3.26      0.00
   -2   11    2      2.76      0.00
   -1   11    2      0.32      0.00
    0   11    2     -1.02      0.00
    1   11    2      0.24      0.00
    2   11    2     -1.63      0.00
    3   11    2     -1.02      0.00
    4   11    2      1.07      0.00
    5   11    2      0.69      0.00
    6   11    2      2.74      0.00
    7   11    2      2.76      0.00
    8   11    2      0.59      0.00
    9   11    2     -1.71      0.00
   10   11    2      0.06      0.00
   11   11    2      4.84      0.00
   12   11    2      6.55      0.00
   13   11    2      7.25      0.00
   14   11    2      2.22      0.00
   15   11    2     -0.33      0.00
   16   11    2      1.30      0.00
   17   11    2      0.00      0.00
   18   11    2     -0.23      0.00
   19   11    2      2.34      0.00
   20   11    2      5.42      0.00
   21   11    2      2.11      0.00
   22   11    2     -3.11      0.00
  -11   12    2     -7.01      0.00
  -10   12    2     -7.03      0.00
   -9   12    2     -2.59      0.00
   -8   12    2      1.96      0.00
   -7   12    2      2.56      0.00
   -6   12    2      1.65      0.00
   -5   12    2      2.45      0.00
   -4   12    2      1.83      0.00
   -3   12    2      0.77      0.00
   -2   12    2      5.70      0.00
   -1   12    2      4.72      0.00
    0   12    2     -1.83      0.00
    1   12    2      2.13      0.00
    2   12    2      1.82      0.00
    3   12    2     -4.33      0.00
    4   12    2     -3.78      0.00
    5   12    2     -3.11      0.00
    6   12    2     -2.99      0.00
    7   12    2     -1.90      0.00
    8   12    2     -0.10      0.00
    9   12    2      0.42      0.00
   10   12    2      0.11      0.00
   11   12    2      5.46      0.00
   12   12    2      4.89      0.00
   13   12    2      4.82      0.00
   14   12    2      3.65      0.00
   15   12    2     -1.69      0.00
   16   12    2     -2.14      0.00
   17   12    2     -3.02      0.00
   18   12    2     -3.93      0.00
   19   12    2     -3.97      0.00
   20   12    2     -1.49      0.00
   21   12    2     -1.14      0.00
   -9   13    2     -2.35      0.00
   -8   13    2      0.16      0.00
   -7   13    2      3.80      0.00
   -6   13    2      3.20      0.00
   -5   13    2     -0.95      0.00
   -4   13    2     -3.21      0.00
   -3   13    2     -3.03      0.00
   -2   13    2      0.32      0.00
   -1   13    2      1.45      0.00
    0   13    2     -2.54      0.00
    1   13    2      1.11      0.00
    2   13    2      3.94      0.00
    3   13    2     -3.63      0.00
    4   13    2     -5.83      0.00
    5   13    2      1.05      0.00
    6   13    2      1.15      0.00
    7   13    2     -1.32      0.00
    8   13    2      1.55      0.00
    9   13    2     -1.29      0.00
   10   13    2     -2.46      0.00
   11   13    2      4.23      0.00
   12   13    2      4.44      0.00
   13   13    2      2.04      0.00
   14   13    2      3.61      0.00
   15   13    2      1.67      0.00
   16   13    2      3.10      0.00
   17   13    2      1.93      0.00
   18   13    2      0.94      0.00
   19   13    2      1.26      0.00
   20   13    2      2.61      0.00
   21   13    2      4.37      0.00
   -8   14    2      1.83      0.00
   -7   14    2      3.08      0.00
   -6   14    2      4.22      0.00
   -5   14    2      2.50      0.00
   -4   14    2     -1.76      0.00
   -3   14    2     -3.31      0.00
   -2   14    2     -2.11      0.00
   -1   14    2      0.54      0.00
    0   14    2      0.96      0.00
    1   14    2      0.26      0.00
    2   14    2      7.76      0.00
    3   14    2      2.75      0.00
    4   14    2     -3.85      0.00
    5   14    2      3.64      0.00
    6   14    2      4.31      0.00
    7   14    2     -1.01      0.00
    8   14    2      2.69      0.00
    9   14    2     -0.76      0.00
   10   14    2     -5.86      0.00
   11   14    2     -4.61      0.00
   12   14    2     -1.43      0.00
   13   14    2     -3.18      0.00
   14   14    2     -2.27      0.00
   15   14    2     -1.50      0.00
   16   14    2      1.16      0.00
   17   14    2     -0.05      0.00
   18   14    2     -2.69      0.00
   19   14    2     -5.02      0.00
   20   14    2     -3.51      0.00
   21   14    2      2.89      0.00
   -7   15    2     -4.01      0.00
   -6   15    2     -4.51      0.00
   -5   15    2     -0.80      0.00
   -4   15    2     -0.64      0.00
   -3   15    2     -1.42      0.00
   -2   15    2     -1.56      0.00
   -1   15    2     -1.64      0.00
    0   15    2      2.11      0.00
    1   15    2      1.22      0.00
    2   15    2      8.22      0.00
    3   15    2      6.40      0.00
    4   15    2     -3.24      0.00
    5   15    2     -2.02      0.00
    6   15    2      0.73      0.00
    7   15    2     -4.24      0.00
    8   15    2     -1.33      0.00
    9   15    2      1.59      0.00
   10   15    2     -1.09      0.00
   11   15    2     -2.73      0.00
   12   15    2     -0.42      0.00
   13   15    2     -1.53      0.00
   14   15    2     -1.59      0.00
   15   15    2      0.44      0.00
   16   15    2      1.59      0.00
   17   15    2      1.94      0.00
   18   15    2      1.18      0.00
   19   15    2     -1.86      0.00
   20   15    2     -3.51      0.00
   -5   16    2      3.80      0.00
   -4   16    2      0.94      0.00
   -3   16    2     -2.46      0.00
   -2   16    2      0.55      0.00
   -1   16    2     -1.40      0.00
    0   16    2     -1.00      0.00
    1   16    2     -3.00      0.00
    2   16    2     -1.98      0.00
    3   16    2      1.14      0.00
    4   16    2     -4.33      0.00
    5   16    2     -4.42      0.00
    6   16    2      0.20      0.00
    7   16    2     -1.89      0.00
    8   16    2     -0.73      0.00
    9   16    2      4.35      0.00
   10   16    2      0.63      0.00
   11   16    2     -4.56      0.00
   12   16    2     -3.50      0.00
   13   16    2     -2.31      0.00
   14   16    2     -2.19      0.00
   15   16    2      1.52      0.00
   16   16    2      1.36      0.00
   17   16    2      0.01      0.00
   18   16    2      0.11      0.00
   19   16    2      1.42      0.00
   20   16    2     -0.47      0.00
   -4   17    2     -5.29      0.00
   -3   17    2     -7.33      0.00
   -2   17    2     -0.46      0.00
   -1   17    2     -0.84      0.00
    0   17    2     -3.09      0.00
    1   17    2     -3.00      0.00
    2   17    2     -5.08      0.00
    3   17    2     -1.12      0.00
    4   17    2     -4.02      0.00
    5   17    2     -4.44      0.00
    6   17    2     -0.90      0.00
    7   17    2     -2.09      0.00
    8   17    2     -6.95      0.00
    9   17    2     -3.35      0.00
   10   17    2     -1.05      0.00
   11   17    2     -1.91      0.00
   12   17    2      0.04      0.00
   13   17    2     -0.26      0.00
   14   17    2     -3.38      0.00
   15   17    2     -1.09      0.00
   16   17    2      2.48      0.00
   17   17    2      1.12      0.00
   18   17    2     -2.83      0.00
   19   17    2     -0.89      0.00
   -2   18    2      2.82      0.00
   -1   18    2      4.02      0.00
    0   18    2      0.21      0.00
    1   18    2      1.67      0.00
    2   18    2     -1.87      0.00
    3   18    2     -0.15      0.00
    4   18    2      0.09      0.00
    5   18    2     -2.55      0.00
    6   18    2     -2.12      0.00
    7   18    2      0.07      0.00
    8   18    2     -1.66      0.00
    9   18    2     -2.61      0.00
   10   18    2     -2.22      0.00
   11   18    2     -3.53      0.00
   12   18    2     -3.31      0.00
   13   18    2     -1.67      0.00
   14   18    2     -1.52      0.00
   15   18    2     -4.76      0.00
   16   18    2     -2.68      0.00
   17   18    2     -1.21      0.00
   18   18    2     -4.71      0.00
    0   19    2     -3.10      0.00
    1   19    2     -0.23      0.00
    2   19    2      0.02      0.00
    3   19    2      0.95      0.00
    4   19    2      2.56      0.00
    5   19    2     -0.40      0.00
    6   19    2     -0.99      0.00
    7   19    2      0.31      0.00
    8   19    2      2.77      0.00
    9   19    2     -1.52      0.00
   10   19    2     -1.07      0.00
   11   19    2      0.65      0.00
   12   19    2     -1.03      0.00
   13   19    2     -1.64      0.00
   14   19    2      0.62      0.00
   15   19    2     -1.35      0.00
   16   19    2     -0.33      0.00
   17   19    2      0.80      0.00
    3   20    2     -0.03      0.00
    4   20    2      2.07      0.00
    5   20    2      0.77      0.00
    6   20    2      0.93      0.00
    7   20    2      1.45      0.00
    8   20    2      4.86      0.00
    9   20    2      0.03      0.00
   10   20    2     -0.82      0.00
   11   20    2      0.31      0.00
   12   20    2      0.74      0.00
   13   20    2     -0.48      0.00
   14   20    2     -1.62      0.00
   15   20    2     -3.16      0.00
    6   21    2     -7.64      0.00
    7   21    2     -5.86      0.00
    8   21    2     -0.39      0.00
    9   21    2      2.36      0.00
   10   21    2      3.38      0.00
   11   21    2      0.57      0.00
   12   21    2     -1.76      0.00
  -12  -19    3     -0.68      0.00
  -11  -19    3      0.35      0.00
  -10  -19    3      1.57      0.00
   -9  -19    3     -0.34      0.00
   -8  -19    3     -4.09      0.00
   -7  -19    3     -0.10      0.00
   -6  -19    3     -1.05      0.00
   -5  -19    3      1.88      0.00
  -15  -18    3     -3.74      0.00
  -14  -18    3     -2.74      0.00
  -13  -18    3     -0.36      0.00
  -12  -18    3      1.17      0.00
  -11  -18    3      1.70      0.00
  -10  -18    3      1.87      0.00
   -9  -18    3      0.97      0.00
   -8  -18    3     -2.59      0.00
   -7  -18    3     -2.69      0.00
   -6  -18    3     -4.00      0.00
   -5  -18    3     -0.67      0.00
   -4  -18    3      3.18      0.00
   -3  -18    3      4.72      0.00
   -2  -18    3      1.06      0.00
   -1  -18    3     -1.63      0.00
  -16  -17    3      4.65      0.00
  -15  -17    3      3.30      0.00
  -14  -17    3      0.11      0.00
  -13  -17    3     -5.58      0.00
  -12  -17    3     -5.01      0.00
  -11  -17    3     -1.76      0.00
  -10  -17    3     -1.10      0.00
   -9  -17    3      2.16      0.00
   -8  -17    3      2.68      0.00
   -7  -17    3      1.50      0.00
   -6  -17    3     -0.49      0.00
   -5  -17    3     -3.14      0.00
   -4  -17    3     -1.99      0.00
   -3  -17    3     -1.48      0.00
   -2  -17    3     -2.34      0.00
   -1  -17    3     -1.58      0.00
    0  -17    3      1.67      0.00
    1  -17    3      2.23      0.00
  -17  -16    3      0.50      0.00
  -16  -16    3      1.08      0.00
  -15  -16    3      0.02      0.00
  -14  -16    3      1.56      0.00
  -13  -16    3     -1.53      0.00
  -12  -16    3     -3.85      0.00
  -11  -16    3     -5.58      0.00
  -10  -16    3     -5.19      0.00
   -9  -16    3     -1.96      0.00
   -8  -16    3     -0.16      0.00
   -7  -16    3      1.01      0.00
   -6  -16    3      1.45      0.00
   -5  -16    3     -0.60      0.00
   -4  -16    3      0.67      0.00
   -3  -16    3     -0.23      0.00
   -2  -16    3     -1.96      0.00
   -1  -16    3     -1.23      0.00
    0  -16    3     -0.11      0.00
    1  -16    3      0.86      0.00
    2  -16    3     -0.30      0.00
    3  -16    3     -0.24      0.00
  -18  -15    3      2.94      0.00
  -17  -15    3      2.00      0.00
  -16  -15    3      3.72      0.00
  -15  -15    3      1.27      0.00
  -14  -15    3      0.05      0.00
  -13  -15    3     -0.50      0.00
  -12  -15    3     -2.13      0.00
  -11  -15    3     -6.95      0.00
  -10  -15    3     -6.44      0.00
   -9  -15    3     -2.01      0.00
   -8  -15    3      0.52      0.00
   -7  -15    3      0.08      0.00
   -6  -15    3     -0.44      0.00
   -5  -15    3     -2.55      0.00
   -4  -15    3     -4.46      0.00
   -3  -15    3     -2.88      0.00
   -2  -15    3     -1.02      0.00
   -1  -15    3     -0.41      0.00
    0  -15    3     -0.20      0.00
    1  -15    3      3.11      0.00
    2  -15    3      1.65      0.00
    3  -15    3      2.39      0.00
    4  -15    3      1.70      0.00
    5  -15    3      1.97      0.00
  -19  -14    3     -0.85      0.00
  -18  -14    3      2.62      0.00
  -17  -14    3     -0.16      0.00
  -16  -14    3      0.89      0.00
  -15  -14    3      2.85      0.00
  -14  -14    3      3.25      0.00
  -13  -14    3      2.56      0.00
  -12  -14    3      2.27      0.00
  -11  -14    3     -0.50      0.00
  -10  -14    3     -3.38      0.00
   -9  -14    3     -3.17      0.00
   -8  -14    3     -2.19      0.00
   -7  -14    3     -0.04      0.00
   -6  -14    3      4.38      0.00
   -5  -14    3      5.97      0.00
   -4  -14    3     -0.95      0.00
   -3  -14    3     -2.39      0.00
   -2  -14    3      1.01      0.00
   -1  -14    3     -0.24      0.00
    0  -14    3     -2.13      0.00
    1  -14    3      1.01      0.00
    2  -14    3     -0.91      0.00
    3  -14    3     -0.36      0.00
    4  -14    3     -1.74      0.00
    5  -14    3     -2.78      0.00
    6  -14    3     -4.78      0.00
    7  -14    3     -8.60      0.00
  -19  -13    3     -0.19      0.00
  -18  -13    3      2.40      0.00
  -17  -13    3      2.53      0.00
  -16  -13    3      3.54      0.00
  -15  -13    3      5.67      0.00
  -14  -13    3      4.12      0.00
  -13  -13    3      1.58      0.00
  -12  -13    3     -0.23      0.00
  -11  -13    3     -1.22      0.00
  -10  -13    3     -2.39      0.00
   -9  -13    3     -2.49      0.00
   -8  -13    3     -4.62      0.00
   -7  -13    3     -5.63      0.00
   -6  -13    3     -2.50      0.00
   -5  -13    3      3.51      0.00
   -4  -13    3     -0.33      0.00
   -3  -13    3     -3.23      0.00
   -2  -13    3     -1.04      0.00
   -1  -13    3     -3.92      0.00
    0  -13    3     -6.10      0.00
    1  -13    3     -2.07      0.00
    2  -13    3     -1.61      0.00
    3  -13    3     -1.44      0.00
    4  -13    3     -2.49      0.00
    5  -13    3     -2.30      0.00
    6  -13    3     -1.11      0.00
    7  -13    3     -4.51      0.00
    8  -13    3     -2.93      0.00
  -20  -12    3     -2.77      0.00
  -19  -12    3      0.53      0.00
  -18  -12    3      2.64      0.00
  -17  -12    3      1.70      0.00
  -16  -12    3      0.37      0.00
  -15  -12    3      3.52      0.00
  -14  -12    3      2.30      0.00
  -13  -12    3      2.06      0.00
  -12  -12    3      2.94      0.00
  -11  -12    3      3.91      0.00
  -10  -12    3      0.77      0.00
   -9  -12    3     -2.41      0.00
   -8  -12    3     -3.24      0.00
   -7  -12    3     -5.42      0.00
   -6  -12    3     -5.45      0.00
   -5  -12    3      1.27      0.00
   -4  -12    3      1.08      0.00
   -3  -12    3     -2.78      0.00
   -2  -12    3     -1.02      0.00
   -1  -12    3     -1.41      0.00
    0  -12    3     -5.97      0.00
    1  -12    3     -1.53      0.00
    2  -12    3      1.84      0.00
    3  -12    3      1.12      0.00
    4  -12    3      0.43      0.00
    5  -12    3     -0.53      0.00
    6  -12    3      0.33      0.00
    7  -12    3     -0.20      0.00
    8  -12    3     -0.58      0.00
    9  -12    3     -0.74      0.00
  -20  -11    3     -6.21      0.00
  -19  -11    3     -7.02      0.00
  -18  -11    3     -3.57      0.00
  -17  -11    3     -1.26      0.00
  -16  -11    3     -1.63      0.00
  -15  -11    3      2.32      0.00
  -14  -11    3      1.94      0.00
  -13  -11    3      0.89      0.00
  -12  -11    3      0.11      0.00
  -11  -11    3      0.82      0.00
  -10  -11    3     -3.08      0.00
   -9  -11    3     -7.85      0.00
   -8  -11    3     -5.57      0.00
   -7  -11    3     -5.53      0.00
   -6  -11    3     -7.96      0.00
   -5  -11    3     -2.28      0.00
   -4  -11    3      0.99      0.00
   -3  -11    3     -2.35      0.00
   -2  -11    3      2.64      0.00
   -1  -11    3      7.47      0.00
    0  -11    3     -1.21      0.00
    1  -11    3     -0.76      0.00
    2  -11    3      0.82      0.00
    3  -11    3     -0.90      0.00
    4  -11    3     -3.39      0.00
    5  -11    3     -2.56      0.00
    6  -11    3      0.85      0.00
    7  -11    3      1.99      0.00
    8  -11    3      0.67      0.00
    9  -11    3     -1.57      0.00
   10  -11    3     -3.35      0.00
   11  -11    3     -3.82      0.00
  -20  -10    3     -1.21      0.00
  -19  -10    3     -3.01      0.00
  -18  -10    3      0.36      0.00
  -17  -10    3      1.23      0.00
  -16  -10    3      1.70      0.00
  -15  -10    3      3.66      0.00
  -14  -10    3      1.48      0.00
  -13  -10    3      1.04      0.00
  -12  -10    3      3.34      0.00
  -11  -10    3      3.99      0.00
  -10  -10    3      0.02      0.00
   -9  -10    3     -7.33      0.00
   -8  -10    3     -5.61      0.00
   -7  -10    3     -1.85      0.00
   -6  -10    3     -5.42      0.00
   -5  -10    3     -1.46      0.00
   -4  -10    3      2.18      0.00
   -3  -10    3     -1.21      0.00
   -2  -10    3      3.11      0.00
   -1  -10    3      7.40      0.00
    0  -10    3      2.79      0.00
    1  -10    3      2.16      0.00
    2  -10    3      2.57      0.00
    3  -10    3      2.91      0.00
    4  -10    3     -3.93      0.00
    5  -10    3     -4.21      0.00
    6  -10    3     -0.95      0.00
    7  -10    3     -0.65      0.00
    8  -10    3      0.56      0.00
    9  -10    3      0.35      0.00
   10  -10    3     -1.11      0.00
   11  -10    3     -1.33      0.00
   12  -10    3     -0.17      0.00
  -20   -9    3     -1.63      0.00
  -19   -9    3     -2.37      0.00
  -18   -9    3     -0.14      0.00
  -17   -9    3     -3.01      0.00
  -16   -9    3     -3.86      0.00
  -15   -9    3     -1.58      0.00
  -14   -9    3     -2.90      0.00
  -13   -9    3     -4.75      0.00
  -12   -9    3     -3.69      0.00
  -11   -9    3     -2.68      0.00
  -10   -9    3      0.43      0.00
   -9   -9    3     -4.30      0.00
   -8   -9    3     -5.01      0.00
   -7   -9    3      0.07      0.00
   -6   -9    3     -1.71      0.00
   -5   -9    3     -0.70      0.00
   -4   -9    3      2.38      0.00
   -3   -9    3      2.79      0.00
   -2   -9    3      3.53      0.00
   -1   -9    3      0.03      0.00
    0   -9    3      0.92      0.00
    1   -9    3      2.07      0.00
    2   -9    3      4.84      0.00
    3   -9    3      6.94      0.00
    4   -9    3     -0.71      0.00
    5   -9    3     -0.17      0.00
    6   -9    3      3.42      0.00
    7   -9    3      0.51      0.00
    8   -9    3      0.97      0.00
    9   -9    3      3.56      0.00
   10   -9    3      2.41      0.00
   11   -9    3      0.69      0.00
   12   -9    3      0.40      0.00
   13   -9    3     -3.02      0.00
  -21   -8    3      4.82      0.00
  -20   -8    3      0.79      0.00
  -19   -8    3     -2.22      0.00
  -18   -8    3     -2.89      0.00
  -17   -8    3     -2.67      0.00
  -16   -8    3     -2.15      0.00
  -15   -8    3     -0.84      0.00
  -14   -8    3     -0.03      0.00
  -13   -8    3      4.88      0.00
  -12   -8    3      7.75      0.00
  -11   -8    3      1.43      0.00
  -10   -8    3     -0.79      0.00
   -9   -8    3     -4.12      0.00
   -8   -8    3     -6.74      0.00
   -7   -8    3     -3.25      0.00
   -6   -8    3     -1.27      0.00
   -5   -8    3     -4.91      0.00
   -4   -8    3     -2.89      0.00
   -3   -8    3      3.00      0.00
   -2   -8    3      2.80      0.00
   -1   -8    3     -8.62      0.00
    0   -8    3     -6.40      0.00
    1   -8    3     -1.27      0.00
    2   -8    3     -0.17      0.00
    3   -8    3      0.66      0.00
    4   -8    3     -2.83      0.00
    5   -8    3     -3.39      0.00
    6   -8    3      1.81      0.00
    7   -8    3     -0.12      0.00
    8   -8    3     -4.13      0.00
    9   -8    3     -2.18      0.00
   10   -8    3     -1.08      0.00
   11   -8    3     -2.07      0.00
   12   -8    3      1.94      0.00
   13   -8    3      1.58      0.00
   14   -8    3      0.42      0.00
  -21   -7    3      1.73      0.00
  -20   -7    3      4.16      0.00
  -19   -7    3      3.69      0.00
  -18   -7    3      1.26      0.00
  -17   -7    3     -1.91      0.00
  -16   -7    3     -1.17      0.00
  -15   -7    3      0.87      0.00
  -14   -7    3     -2.04      0.00
  -13   -7    3      0.00      0.00
  -12   -7    3      6.38      0.00
  -11   -7    3      3.08      0.00
  -10   -7    3     -1.48      0.00
   -9   -7    3     -1.26      0.00
   -8   -7    3     -5.68      0.00
   -7   -7    3    -10.24      0.00
   -6   -7    3     -8.63      0.00
   -5   -7    3     -9.76      0.00
   -4   -7    3     -9.97      0.00
   -3   -7    3     -1.86      0.00
   -2   -7    3      6.08      0.00
   -1   -7    3     -3.46      0.00
    0   -7    3     -0.65      0.00
    1   -7    3     11.21      0.00
    2   -7    3      4.96      0.00
    3   -7    3      0.05      0.00
    4   -7    3      1.36      0.00
    5   -7    3      0.56      0.00
    6   -7    3      3.85      0.00
    7   -7    3      2.84      0.00
    8   -7    3     -2.59      0.00
    9   -7    3     -2.50      0.00
   10   -7    3     -0.07      0.00
   11   -7    3     -2.80      0.00
   12   -7    3     -1.48      0.00
   13   -7    3     -1.46      0.00
   14   -7    3     -1.14      0.00
   15   -7    3      1.05      0.00
  -20   -6    3     -0.91      0.00
  -19   -6    3     -1.82      0.00
  -18   -6    3      1.63      0.00
  -17   -6    3      0.38      0.00
  -16   -6    3      0.35      0.00
  -15   -6    3     -0.09      0.00
  -14   -6    3     -2.74      0.00
  -13   -6    3     -3.98      0.00
  -12   -6    3      2.05      0.00
  -11   -6    3      3.37      0.00
  -10   -6    3     -0.37      0.00
   -9   -6    3      3.61      0.00
   -8   -6    3      5.21      0.00
   -7   -6    3     -4.11      0.00
   -6   -6    3     -9.58      0.00
   -5   -6    3     -2.20      0.00
   -4   -6    3      0.05      0.00
   -3   -6    3      2.89      0.00
   -2   -6    3      9.10      0.00
   -1   -6    3      1.28      0.00
    0   -6    3     -1.54      0.00
    1   -6    3     13.50      0.00
    2   -6    3      7.24      0.00
    3   -6    3     -3.08      0.00
    4   -6    3     -1.76      0.00
    5   -6    3     -0.15      0.00
    6   -6    3      0.58      0.00
    7   -6    3      1.09      0.00
    8   -6    3      0.10      0.00
    9   -6    3     -2.67      0.00
   10   -6    3     -1.52      0.00
   11   -6    3     -1.01      0.00
   12   -6    3      0.23      0.00
   13   -6    3     -1.33      0.00
   14   -6    3     -2.12      0.00
   15   -6    3     -1.46      0.00
  -20   -5    3      2.45      0.00
  -19   -5    3      2.79      0.00
  -18   -5    3      3.63      0.00
  -17   -5    3      3.60      0.00
  -16   -5    3      4.36      0.00
  -15   -5    3      1.34      0.00
  -14   -5    3     -1.54      0.00
  -13   -5    3     -5.78      0.00
  -12   -5    3     -3.98      0.00
  -11   -5    3     -1.84      0.00
  -10   -5    3     -3.93      0.00
   -9   -5    3     -1.68      0.00
   -8   -5    3      4.81      0.00
   -7   -5    3     -1.96      0.00
   -6   -5    3    -15.20      0.00
   -5   -5    3     -9.08      0.00
   -4   -5    3     -0.03      0.00
   -3   -5    3     -1.27      0.00
   -2   -5    3      7.31      0.00
   -1   -5    3     11.45      0.00
    0   -5    3      1.14      0.00
    1   -5    3     11.19      0.00
    2   -5    3     11.65      0.00
    3   -5    3      0.72      0.00
    4   -5    3      2.07      0.00
    5   -5    3      4.99      0.00
    6   -5    3      0.10      0.00
    7   -5    3     -2.15      0.00
    8   -5    3      3.50      0.00
    9   -5    3      2.43      0.00
   10   -5    3      0.82      0.00
   11   -5    3      2.71      0.00
   12   -5    3      3.39      0.00
   13   -5    3     -0.45      0.00
   14   -5    3      0.21      0.00
   15   -5    3      1.16      0.00
   16   -5    3      2.34      0.00
  -20   -4    3      0.11      0.00
  -19   -4    3      2.77      0.00
  -18   -4    3      1.03      0.00
  -17   -4    3      2.47      0.00
  -16   -4    3      2.35      0.00
  -15   -4    3      0.43      0.00
  -14   -4    3     -1.34      0.00
  -13   -4    3     -3.76      0.00
  -12   -4    3     -4.22      0.00
  -11   -4    3     -3.21      0.00
  -10   -4    3     -3.71      0.00
   -9   -4    3     -4.98      0.00
   -8   -4    3      0.39      0.00
   -7   -4    3      2.29      0.00
   -6   -4    3     -9.20      0.00
   -5   -4    3     -8.58      0.00
   -4   -4    3      6.19      0.00
   -3   -4    3     -8.45      0.00
   -2   -4    3     -6.29      0.00
   -1   -4    3      6.54      0.00
    0   -4    3     -1.26      0.00
    1   -4    3     -1.68      0.00
    2   -4    3      0.45      0.00
    3   -4    3     -2.65      0.00
    4   -4    3     -0.05      0.00
    5   -4    3      6.06      0.00
    6   -4    3      3.10      0.00
    7   -4    3     -5.18      0.00
    8   -4    3      0.10      0.00
    9   -4    3      3.10      0.00
   10   -4    3     -1.33      0.00
   11   -4    3     -1.41      0.00
   12   -4    3      1.65      0.00
   13   -4    3     -2.16      0.00
   14   -4    3     -1.86      0.00
   15   -4    3     -0.31      0.00
   16   -4    3      1.48      0.00
   17   -4    3      2.46      0.00
  -20   -3    3     -2.68      0.00
  -19   -3    3     -0.08      0.00
  -18   -3    3     -3.27      0.00
  -17   -3    3     -1.58      0.00
  -16   -3    3      0.37      0.00
  -15   -3    3      1.81      0.00
  -14   -3    3      0.55      0.00
  -13   -3    3      1.66      0.00
  -12   -3    3      2.47      0.00
  -11   -3    3      2.98      0.00
  -10   -3    3      4.30      0.00
   -9   -3    3      2.75      0.00
   -8   -3    3      0.66      0.00
   -7   -3    3      7.72      0.00
   -6   -3    3      4.20      0.00
   -5   -3    3     -5.50      0.00
   -4   -3    3      3.51      0.00
   -3   -3    3    -10.33      0.00
   -2   -3    3    -17.82      0.00
   -1   -3    3    -11.12      0.00
    0   -3    3     -6.81      0.00
    1   -3    3     -9.40      0.00
    2   -3    3     -7.32      0.00
    3   -3    3      2.28      0.00
    4   -3    3      1.41      0.00
    5   -3    3      3.54      0.00
    6   -3    3      6.23      0.00
    7   -3    3     -1.92      0.00
    8   -3    3     -4.00      0.00
    9   -3    3     -3.29      0.00
   10   -3    3     -8.02      0.00
   11   -3    3     -6.06      0.00
   12   -3    3      1.56      0.00
   13   -3    3      0.50      0.00
   14   -3    3      0.90      0.00
   15   -3    3      2.47      0.00
   16   -3    3      0.33      0.00
   17   -3    3     -0.41      0.00
  -20   -2    3     -2.17      0.00
  -19   -2    3      0.83      0.00
  -18   -2    3      0.00      0.00
  -17   -2    3     -1.73      0.00
  -16   -2    3     -1.31      0.00
  -15   -2    3     -0.99      0.00
  -14   -2    3     -2.81      0.00
  -13   -2    3     -1.49      0.00
  -12   -2    3      1.84      0.00
  -11   -2    3     -0.85      0.00
  -10   -2    3     -2.48      0.00
   -9   -2    3      2.26      0.00
   -8   -2    3     -3.48      0.00
   -7   -2    3     -0.11      0.00
   -6   -2    3     10.62      0.00
   -5   -2    3      2.78      0.00
   -4   -2    3      4.70      0.00
   -3   -2    3     16.78      0.00
   -2   -2    3     16.18      0.00
   -1   -2    3     11.33      0.00
    0   -2    3     -6.54      0.00
    1   -2    3    -15.34      0.00
    2   -2    3    -19.96      0.00
    3   -2    3     -5.77      0.00
    4   -2    3      1.03      0.00
    5   -2    3     -1.42      0.00
    6   -2    3      4.39      0.00
    7   -2    3      4.96      0.00
    8   -2    3      3.09      0.00
    9   -2    3      3.86      0.00
   10   -2    3     -5.21      0.00
   11   -2    3     -8.49      0.00
   12   -2    3     -0.95      0.00
   13   -2    3     -0.69      0.00
   14   -2    3     -3.10      0.00
   15   -2    3      2.18      0.00
   16   -2    3      3.45      0.00
   17   -2    3     -0.46      0.00
   18   -2    3     -2.28      0.00
  -19   -1    3     -2.29      0.00
  -18   -1    3     -1.69      0.00
  -17   -1    3     -1.30      0.00
  -16   -1    3      0.48      0.00
  -15   -1    3      2.25      0.00
  -14   -1    3      1.10      0.00
  -13   -1    3     -2.90      0.00
  -12   -1    3      0.55      0.00
  -11   -1    3     -0.91      0.00
  -10   -1    3     -5.87      0.00
   -9   -1    3      0.28      0.00
   -8   -1    3     -5.02      0.00
   -7   -1    3     -9.32      0.00
   -6   -1    3      3.32      0.00
   -5   -1    3     -8.41      0.00
   -4   -1    3    -25.60      0.00
   -3   -1    3     -6.21      0.00
   -2   -1    3     25.72      0.00
   -1   -1    3     57.40      0.00
    0   -1    3     33.50      0.00
    1   -1    3     41.51      0.00
    2   -1    3     14.31      0.00
    3   -1    3      0.30      0.00
    4   -1    3     10.84      0.00
    5   -1    3     -5.28      0.00
    6   -1    3     -2.37      0.00
    7   -1    3      2.20      0.00
    8   -1    3     -4.40      0.00
    9   -1    3     -0.76      0.00
   10   -1    3     -1.53      0.00
   11   -1    3     -6.39      0.00
   12   -1    3     -3.76      0.00
   13   -1    3     -1.02      0.00
   14   -1    3     -3.24      0.00
   15   -1    3     -0.91      0.00
   16   -1    3      0.78      0.00
   17   -1    3     -2.27      0.00
   18   -1    3     -3.22      0.00
   19   -1    3     -0.44      0.00
  -19    0    3     -4.87      0.00
  -18    0    3     -3.69      0.00
  -17    0    3     -1.27      0.00
  -16    0    3     -2.43      0.00
  -15    0    3     -2.39      0.00
  -14    0    3     -1.95      0.00
  -13    0    3     -3.71      0.00
  -12    0    3      0.84      0.00
  -11    0    3      4.01      0.00
  -10    0    3     -0.58      0.00
   -9    0    3      3.72      0.00
   -8    0    3      5.78      0.00
   -7    0    3      8.52      0.00
   -6    0    3     28.79      0.00
   -5    0    3     25.73      0.00
   -4    0    3     -1.70      0.00
   -3    0    3     -9.24      0.00
   -2    0    3     13.32      0.00
   -1    0    3     35.01      0.00
    0    0    3      9.52      0.00
    1    0    3     68.30      0.00
    2    0    3     51.44      0.00
    3    0    3      6.28      0.00
    4    0    3     24.45      0.00
    5    0    3     15.03      0.00
    6    0    3     10.85      0.00
    7    0    3     12.30      0.00
    8    0    3      6.75      0.00
    9    0    3      4.66      0.00
   10    0    3      6.36      0.00
   11    0    3      6.25      0.00
   12    0    3      3.90      0.00
   13    0    3      0.71      0.00
   14    0    3     -0.12      0.00
   15    0    3      1.45      0.00
   16    0    3      4.62      0.00
   17    0    3      3.91      0.00
   18    0    3      1.22      0.00
   19    0    3      2.48      0.00
  -19    1    3     -3.72      0.00
  -18    1    3     -4.64      0.00
  -17    1    3     -2.02      0.00
  -16    1    3     -0.41      0.00
  -15    1    3      0.81      0.00
  -14    1    3      0.09      0.00
  -13    1    3     -2.77      0.00
  -12    1    3     -2.49      0.00
  -11    1    3      2.33      0.00
  -10    1    3     -1.86      0.00
   -9    1    3     -2.88      0.00
   -8    1    3     -5.16      0.00
   -7    1    3    -11.39      0.00
   -6    1    3      1.61      0.00
   -5    1    3     12.69      0.00
   -4    1    3      3.66      0.00
   -3    1    3     -3.21      0.00
   -2    1    3     -0.22      0.00
   -1    1    3    -43.21      0.00
    0    1    3   -128.93      0.00
    1    1    3    -73.81      0.00
    2    1    3    -21.31      0.00
    3    1    3    -56.12      0.00
    4    1    3    -32.92      0.00
    5    1    3     -7.59      0.00
    6    1    3     -2.92      0.00
    7    1    3      0.68      0.00
    8    1    3      5.83      0.00
    9    1    3      3.13      0.00
   10    1    3      2.13      0.00
   11    1    3      5.67      0.00
   12    1    3      4.08      0.00
   13    1    3     -2.58      0.00
   14    1    3     -1.54      0.00
   15    1    3     -1.25      0.00
   16    1    3      0.07      0.00
   17    1    3      1.31      0.00
   18    1    3     -3.07      0.00
   19    1    3     -3.80      0.00
   20    1    3     -4.29      0.00
  -18    2    3      2.13      0.00
  -17    2    3     -0.10      0.00
  -16    2    3     -0.28      0.00
  -15    2    3     -0.25      0.00
  -14    2    3      2.46      0.00
  -13    2    3      3.68      0.00
  -12    2    3      3.74      0.00
  -11    2    3      6.58      0.00
  -10    2    3      3.31      0.00
   -9    2    3      1.99      0.00
   -8    2    3      1.64      0.00
   -7    2    3     -6.39      0.00
   -6    2    3     -9.06      0.00
   -5    2    3     -5.19      0.00
   -4    2    3     -0.69      0.00
   -3    2    3     12.59      0.00
   -2    2    3     40.39      0.00
   -1    2    3     54.27      0.00
    0    2    3      2.21      0.00
    1    2    3     13.91      0.00
    2    2    3     70.67      0.00
    3    2    3     18.65      0.00
    4    2    3     15.74      0.00
    5    2    3     37.65      0.00
    6    2    3     23.93      0.00
    7    2    3      7.43      0.00
    8    2    3      4.48      0.00
    9    2    3     -1.02      0.00
   10    2    3    -10.28      0.00
   11    2    3     -6.74      0.00
   12    2    3     -0.70      0.00
   13    2    3     -4.03      0.00
   14    2    3      0.17      0.00
   15    2    3      1.51      0.00
   16    2    3     -2.10      0.00
   17    2    3      0.56      0.00
   18    2    3      1.11      0.00
   19    2    3      1.52      0.00
   20    2    3     -0.06      0.00
  -18    3    3      5.58      0.00
  -17    3    3      3.16      0.00
  -16    3    3      3.77      0.00
  -15    3    3      0.21      0.00
  -14    3    3     -1.57      0.00
  -13    3    3     -0.75      0.00
  -12    3    3      1.13      0.00
  -11    3    3     -0.63      0.00
  -10    3    3     -3.90      0.00
   -9    3    3     -6.57      0.00
   -8    3    3     -3.40      0.00
   -7    3    3      1.86      0.00
   -6    3    3      0.52      0.00
   -5    3    3     -4.70      0.00
   -4    3    3      3.38      0.00
   -3    3    3     20.27      0.00
   -2    3    3     26.63      0.00
   -1    3    3     46.18      0.00
    0    3    3     14.80      0.00
    1    3    3     -4.14      0.00
    2    3    3     18.90      0.00
    3    3    3    -37.63      0.00
    4    3    3    -48.79      0.00
    5    3    3    -13.30      0.00
    6    3    3      0.15      0.00
    7    3    3    -13.56      0.00
    8    3    3    -15.27      0.00
    9    3    3     -4.55      0.00
   10    3    3    -11.11      0.00
   11    3    3    -13.30      0.00
   12    3    3     -4.61      0.00
   13    3    3     -7.23      0.00
   14    3    3     -5.21      0.00
   15    3    3     -1.01      0.00
   16    3    3     -2.86      0.00
   17    3    3     -0.29      0.00
   18    3    3      1.81      0.00
   19    3    3      3.42      0.00
   20    3    3      3.89      0.00
  -17    4    3     -1.89      0.00
  -16    4    3      1.50      0.00
  -15    4    3      2.09      0.00
  -14    4    3     -1.77      0.00
  -13    4    3     -3.65      0.00
  -12    4    3     -0.99      0.00
  -11    4    3     -2.05      0.00
  -10    4    3     -0.91      0.00
   -9    4    3      0.84      0.00
   -8    4    3      1.54      0.00
   -7    4    3      0.84      0.00
   -6    4    3      0.26      0.00
   -5    4    3     -0.26      0.00
   -4    4    3      8.62      0.00
   -3    4    3     22.18      0.00
   -2    4    3     18.63      0.00
   -1    4    3     35.23      0.00
    0    4    3     33.59      0.00
    1    4    3     22.80      0.00
    2    4    3     26.92      0.00
    3    4    3      0.90      0.00
    4    4    3    -26.48      0.00
    5    4    3    -14.62      0.00
    6    4    3     10.22      0.00
    7    4    3     -0.01      0.00
    8    4    3     -7.45      0.00
    9    4    3      6.74      0.00
   10    4    3      7.88      0.00
   11    4    3     -0.32      0.00
   12    4    3      3.14      0.00
   13    4    3     -1.14      0.00
   14    4    3     -3.22      0.00
   15    4    3     -0.27      0.00
   16    4    3      0.59      0.00
   17    4    3      0.29      0.00
   18    4    3      1.69      0.00
   19    4    3      0.67      0.00
   20    4    3      1.82      0.00
   21    4    3      1.95      0.00
  -16    5    3     -5.45      0.00
  -15    5    3     -2.53      0.00
  -14    5    3     -1.86      0.00
  -13    5    3     -2.66      0.00
  -12    5    3     -0.28      0.00
  -11    5    3      0.89      0.00
  -10    5    3      0.19      0.00
   -9    5    3      3.83      0.00
   -8    5    3      4.83      0.00
   -7    5    3     -0.49      0.00
   -6    5    3     -1.74      0.00
   -5    5    3     -5.89      0.00
   -4    5    3     -7.29      0.00
   -3    5    3     -1.92      0.00
   -2    5    3    -10.21      0.00
   -1    5    3     -8.05      0.00
    0    5    3      8.24      0.00
    1    5    3      6.88      0.00
    2    5    3      1.53      0.00
    3    5    3      4.20      0.00
    4    5    3    -11.03      0.00
    5    5    3    -10.28      0.00
    6    5    3      5.95      0.00
    7    5    3      3.78      0.00
    8    5    3     -2.66      0.00
    9    5    3      5.12      0.00
   10    5    3     10.09      0.00
   11    5    3      0.10      0.00
   12    5    3      0.20      0.00
   13    5    3     -0.82      0.00
   14    5    3     -3.87      0.00
   15    5    3     -3.77      0.00
   16    5    3     -0.04      0.00
   17    5    3     -1.84      0.00
   18    5    3      0.79      0.00
   19    5    3     -0.53      0.00
   20    5    3     -0.14      0.00
   21    5    3      0.05      0.00
  -16    6    3     -2.83      0.00
  -15    6    3     -2.32      0.00
  -14    6    3      0.15      0.00
  -13    6    3     -0.56      0.00
  -12    6    3      0.20      0.00
  -11    6    3      1.40      0.00
  -10    6    3     -0.52      0.00
   -9    6    3      4.76      0.00
   -8    6    3      4.82      0.00
   -7    6    3     -1.73      0.00
   -6    6    3      1.57      0.00
   -5    6    3      3.29      0.00
   -4    6    3     -0.47      0.00
   -3    6    3     -1.36      0.00
   -2    6    3     -4.48      0.00
   -1    6    3    -12.01      0.00
    0    6    3     -5.54      0.00
    1    6    3     -6.62      0.00
    2    6    3     -8.84      0.00
    3    6    3     -8.52      0.00
    4    6    3    -12.45      0.00
    5    6    3    -13.70      0.00
    6    6    3     -4.19      0.00
    7    6    3      7.19      0.00
    8    6    3      6.05      0.00
    9    6    3      8.43      0.00
   10    6    3     14.60      0.00
   11    6    3      8.22      0.00
   12    6    3      3.64      0.00
   13    6    3      3.53      0.00
   14    6    3     -1.46      0.00
   15    6    3     -9.48      0.00
   16    6    3     -7.18      0.00
   17    6    3     -5.93      0.00
   18    6    3     -3.25      0.00
   19    6    3     -2.59      0.00
   20    6    3     -0.46      0.00
   21    6    3      0.00      0.00
  -15    7    3     -0.10      0.00
  -14    7    3      2.36      0.00
  -13    7    3      0.88      0.00
  -12    7    3      0.33      0.00
  -11    7    3      0.62      0.00
  -10    7    3     -0.62      0.00
   -9    7    3      0.93      0.00
   -8    7    3     -0.57      0.00
   -7    7    3     -3.90      0.00
   -6    7    3     -2.22      0.00
   -5    7    3      2.50      0.00
   -4    7    3      0.44      0.00
   -3    7    3     -3.30      0.00
   -2    7    3      3.14      0.00
   -1    7    3      3.75      0.00
    0    7    3      4.28      0.00
    1    7    3      4.44      0.00
    2    7    3      6.46      0.00
    3    7    3      3.24      0.00
    4    7    3      6.74      0.00
    5    7    3     -1.99      0.00
    6    7    3    -10.32      0.00
    7    7    3     -2.23      0.00
    8    7    3     -0.39      0.00
    9    7    3     -4.17      0.00
   10    7    3     -0.34      0.00
   11    7    3      3.86      0.00
   12    7    3      0.73      0.00
   13    7    3      2.44      0.00
   14    7    3      6.09      0.00
   15    7    3      0.11      0.00
   16    7    3     -1.82      0.00
   17    7    3     -0.71      0.00
   18    7    3     -0.07      0.00
   19    7    3      1.45      0.00
   20    7    3      3.06      0.00
   21    7    3      5.16      0.00
   22    7    3      2.65      0.00
  -14    8    3     -0.14      0.00
  -13    8    3     -0.53      0.00
  -12    8    3     -0.87      0.00
  -11    8    3     -2.70      0.00
  -10    8    3     -0.39      0.00
   -9    8    3      2.11      0.00
   -8    8    3     -0.54      0.00
   -7    8    3     -3.03      0.00
   -6    8    3     -3.06      0.00
   -5    8    3      2.01      0.00
   -4    8    3      1.40      0.00
   -3    8    3      1.40      0.00
   -2    8    3      9.41      0.00
   -1    8    3     10.04      0.00
    0    8    3      3.99      0.00
    1    8    3      5.98      0.00
    2    8    3     10.41      0.00
    3    8    3      2.84      0.00
    4    8    3      2.08      0.00
    5    8    3      1.43      0.00
    6    8    3    -11.45      0.00
    7    8    3    -10.24      0.00
    8    8    3     -3.50      0.00
    9    8    3     -9.03      0.00
   10    8    3    -10.67      0.00
   11    8    3     -1.79      0.00
   12    8    3      1.34      0.00
   13    8    3     -1.51      0.00
   14    8    3      2.91      0.00
   15    8    3      1.08      0.00
   16    8    3     -3.68      0.00
   17    8    3     -5.18      0.00
   18    8    3     -3.80      0.00
   19    8    3     -1.78      0.00
   20    8    3     -2.12      0.00
   21    8    3      0.85      0.00
   22    8    3      0.41      0.00
  -13    9    3     -3.61      0.00
  -12    9    3     -0.95      0.00
  -11    9    3     -1.36      0.00
  -10    9    3     -0.16      0.00
   -9    9    3      2.55      0.00
   -8    9    3      0.69      0.00
   -7    9    3     -0.23      0.00
   -6    9    3      1.05      0.00
   -5    9    3      1.58      0.00
   -4    9    3     -2.94      0.00
   -3    9    3     -2.64      0.00
   -2    9    3      5.30      0.00
   -1    9    3     12.36      0.00
    0    9    3      4.67      0.00
    1    9    3      0.67      0.00
    2    9    3      8.86      0.00
    3    9    3      6.34      0.00
    4    9    3     -2.77      0.00
    5    9    3      1.44      0.00
    6    9    3     -4.77      0.00
    7    9    3     -4.65      0.00
    8    9    3      3.37      0.00
    9    9    3      0.87      0.00
   10    9    3     -4.37      0.00
   11    9    3     -1.00      0.00
   12    9    3      5.28      0.00
   13    9    3      0.63      0.00
   14    9    3      3.74      0.00
   15    9    3      5.52      0.00
   16    9    3      0.71      0.00
   17    9    3     -2.80      0.00
   18    9    3      0.08      0.00
   19    9    3      3.69      0.00
   20    9    3      4.31      0.00
   21    9    3      3.08      0.00
   22    9    3      2.61      0.00
  -13   10    3     -6.99      0.00
  -12   10    3     -6.40      0.00
  -11   10    3     -5.52      0.00
  -10   10    3     -3.90      0.00
   -9   10    3      0.70      0.00
   -8   10    3      0.17      0.00
   -7   10    3     -0.38      0.00
   -6   10    3      1.49      0.00
   -5   10    3     -1.19      0.00
   -4   10    3     -4.59      0.00
   -3   10    3     -3.94      0.00
   -2   10    3     -1.81      0.00
   -1   10    3      0.72      0.00
    0   10    3     -1.36      0.00
    1   10    3     -4.65      0.00
    2   10    3      0.58      0.00
    3   10    3      3.11      0.00
    4   10    3     -6.63      0.00
    5   10    3     -5.89      0.00
    6   10    3     -5.31      0.00
    7   10    3     -6.09      0.00
    8   10    3      0.46      0.00
    9   10    3      2.58      0.00
   10   10    3      1.68      0.00
   11   10    3      5.72      0.00
   12   10    3     10.32      0.00
   13   10    3      4.66      0.00
   14   10    3      3.10      0.00
   15   10    3      5.74      0.00
   16   10    3      3.06      0.00
   17   10    3     -1.70      0.00
   18   10    3     -2.11      0.00
   19   10    3      0.51      0.00
   20   10    3      1.68      0.00
   21   10    3      0.20      0.00
   22   10    3      3.93      0.00
  -12   11    3     -1.07      0.00
  -11   11    3     -1.34      0.00
  -10   11    3     -2.22      0.00
   -9   11    3      0.33      0.00
   -8   11    3     -0.32      0.00
   -7   11    3     -1.04      0.00
   -6   11    3      2.08      0.00
   -5   11    3      2.31      0.00
   -4   11    3      0.02      0.00
   -3   11    3      1.82      0.00
   -2   11    3      5.03      0.00
   -1   11    3     -1.19      0.00
    0   11    3     -1.50      0.00
    1   11    3     -1.53      0.00
    2   11    3     -1.22      0.00
    3   11    3      1.93      0.00
    4   11    3     -4.79      0.00
    5   11    3     -5.23      0.00
    6   11    3      0.12      0.00
    7   11    3     -1.85      0.00
    8   11    3      0.92      0.00
    9   11    3      0.09      0.00
   10   11    3     -2.19      0.00
   11   11    3     -0.20      0.00
   12   11    3      2.93      0.00
   13   11    3      5.52      0.00
   14   11    3      2.68      0.00
   15   11    3      3.22      0.00
   16   11    3      1.83      0.00
   17   11    3     -1.52      0.00
   18   11    3     -0.84      0.00
   19   11    3      2.26      0.00
   20   11    3      0.70      0.00
   21   11    3     -1.21      0.00
   22   11    3      1.60      0.00
  -11   12    3      2.79      0.00
  -10   12    3      0.78      0.00
   -9   12    3     -0.07      0.00
   -8   12    3     -0.21      0.00
   -7   12    3     -0.96      0.00
   -6   12    3     -3.26      0.00
   -5   12    3     -3.98      0.00
   -4   12    3     -5.25      0.00
   -3   12    3     -3.16      0.00
   -2   12    3      1.01      0.00
   -1   12    3     -5.33      0.00
    0   12    3     -4.97      0.00
    1   12    3     -3.09      0.00
    2   12    3     -6.18      0.00
    3   12    3     -5.76      0.00
    4   12    3     -5.09      0.00
    5   12    3     -2.29      0.00
    6   12    3      1.27      0.00
    7   12    3      0.08      0.00
    8   12    3     -3.11      0.00
    9   12    3     -5.51      0.00
   10   12    3     -2.61      0.00
   11   12    3     -1.37      0.00
   12   12    3     -4.14      0.00
   13   12    3     -0.27      0.00
   14   12    3      0.35      0.00
   15   12    3      3.76      0.00
   16   12    3      3.52      0.00
   17   12    3     -1.51      0.00
   18   12    3      0.10      0.00
   19   12    3      3.61      0.00
   20   12    3      3.56      0.00
   21   12    3      2.47      0.00
   22   12    3      0.20      0.00
  -10   13    3     -1.64      0.00
   -9   13    3     -3.51      0.00
   -8   13    3     -3.57      0.00
   -7   13    3     -0.82      0.00
   -6   13    3     -2.31      0.00
   -5   13    3     -3.64      0.00
   -4   13    3     -3.00      0.00
   -3   13    3     -0.07      0.00
   -2   13    3      3.34      0.00
   -1   13    3      1.61      0.00
    0   13    3      0.62      0.00
    1   13    3      5.65      0.00
    2   13    3      2.78      0.00
    3   13    3     -5.01      0.00
    4   13    3     -2.77      0.00
    5   13    3     -0.78      0.00
    6   13    3     -2.18      0.00
    7   13    3      2.30      0.00
    8   13    3      0.94      0.00
    9   13    3     -4.24      0.00
   10   13    3     -3.70      0.00
   11   13    3     -2.05      0.00
   12   13    3     -4.52      0.00
   13   13    3     -3.76      0.00
   14   13    3     -1.65      0.00
   15   13    3      2.86      0.00
   16   13    3      4.78      0.00
   17   13    3     -1.87      0.00
   18   13    3     -3.92      0.00
   19   13    3     -2.80      0.00
   20   13    3      1.13      0.00
   21   13    3      1.85      0.00
   -8   14    3      1.04      0.00
   -7   14    3      3.01      0.00
   -6   14    3      3.01      0.00
   -5   14    3      0.37      0.00
   -4   14    3     -1.20      0.00
   -3   14    3     -1.66      0.00
   -2   14    3     -1.96      0.00
   -1   14    3     -0.99      0.00
    0   14    3     -2.38      0.00
    1   14    3      1.50      0.00
    2   14    3      2.54      0.00
    3   14    3     -6.17      0.00
    4   14    3     -3.46      0.00
    5   14    3      1.35      0.00
    6   14    3     -1.77      0.00
    7   14    3      1.08      0.00
    8   14    3      5.96      0.00
    9   14    3      1.79      0.00
   10   14    3     -1.16      0.00
   11   14    3     -1.63      0.00
   12   14    3     -3.81      0.00
   13   14    3     -4.06      0.00
   14   14    3     -0.34      0.00
   15   14    3      1.83      0.00
   16   14    3      4.87      0.00
   17   14    3      1.59      0.00
   18   14    3     -1.53      0.00
   19   14    3     -0.80      0.00
   20   14    3      2.92      0.00
   21   14    3      1.84      0.00
   -7   15    3      0.05      0.00
   -6   15    3      0.48      0.00
   -5   15    3     -1.36      0.00
   -4   15    3     -2.98      0.00
   -3   15    3     -1.23      0.00
   -2   15    3     -1.54      0.00
   -1   15    3     -2.52      0.00
    0   15    3     -2.24      0.00
    1   15    3     -0.33      0.00
    2   15    3      8.39      0.00
    3   15    3      3.99      0.00
    4   15    3      0.62      0.00
    5   15    3      3.12      0.00
    6   15    3     -1.49      0.00
    7   15    3     -2.19      0.00
    8   15    3      7.61      0.00
    9   15    3      5.62      0.00
   10   15    3      2.25      0.00
   11   15    3      2.13      0.00
   12   15    3     -0.73      0.00
   13   15    3     -4.56      0.00
   14   15    3     -0.89      0.00
   15   15    3      1.74      0.00
   16   15    3      4.21      0.00
   17   15    3      3.60      0.00
   18   15    3      0.51      0.00
   19   15    3      0.44      0.00
   20   15    3      2.62      0.00
   21   15    3      4.20      0.00
   -6   16    3     -4.81      0.00
   -5   16    3     -5.32      0.00
   -4   16    3     -6.93      0.00
   -3   16    3     -2.28      0.00
   -2   16    3      2.21      0.00
   -1   16    3      0.94      0.00
    0   16    3      0.79      0.00
    1   16    3     -2.85      0.00
    2   16    3      4.73      0.00
    3   16    3      6.24      0.00
    4   16    3      3.60      0.00
    5   16    3      5.46      0.00
    6   16    3     -1.26      0.00
    7   16    3     -9.36      0.00
    8   16    3     -2.62      0.00
    9   16    3      1.40      0.00
   10   16    3     -0.69      0.00
   11   16    3      2.07      0.00
   12   16    3      3.75      0.00
   13   16    3     -0.92      0.00
   14   16    3     -0.21      0.00
   15   16    3      2.54      0.00
   16   16    3      2.08      0.00
   17   16    3      0.02      0.00
   18   16    3     -1.12      0.00
   19   16    3     -1.76      0.00
   20   16    3     -3.05      0.00
   -4   17    3     -3.14      0.00
   -3   17    3     -0.53      0.00
   -2   17    3      4.97      0.00
   -1   17    3      2.34      0.00
    0   17    3      2.52      0.00
    1   17    3     -0.37      0.00
    2   17    3     -0.92      0.00
    3   17    3      1.12      0.00
    4   17    3     -2.20      0.00
    5   17    3      0.81      0.00
    6   17    3      2.85      0.00
    7   17    3     -1.72      0.00
    8   17    3     -0.98      0.00
    9   17    3      3.80      0.00
   10   17    3      0.10      0.00
   11   17    3      0.15      0.00
   12   17    3      3.60      0.00
   13   17    3      2.44      0.00
   14   17    3     -0.79      0.00
   15   17    3     -1.04      0.00
   16   17    3     -0.52      0.00
   17   17    3     -1.83      0.00
   18   17    3     -0.73      0.00
   19   17    3      0.87      0.00
   20   17    3      0.53      0.00
   -2   18    3      4.08      0.00
   -1   18    3     -4.55      0.00
    0   18    3     -7.04      0.00
    1   18    3     -3.16      0.00
    2   18    3     -2.40      0.00
    3   18    3      4.52      0.00
    4   18    3      2.52      0.00
    5   18    3      2.50      0.00
    6   18    3      4.27      0.00
    7   18    3      2.68      0.00
    8   18    3     -0.38      0.00
    9   18    3      2.42      0.00
   10   18    3      3.56      0.00
   11   18    3      1.48      0.00
   12   18    3      0.52      0.00
   13   18    3      1.33      0.00
   14   18    3      1.43      0.00
   15   18    3      2.39      0.00
   16   18    3      3.67      0.00
   17   18    3      1.12      0.00
   18   18    3      0.25      0.00
   19   18    3     -0.06      0.00
    0   19    3     -0.87      0.00
    1   19    3      3.00      0.00
    2   19    3      2.21      0.00
    3   19    3      5.76      0.00
    4   19    3      5.07      0.00
    5   19    3      4.37      0.00
    6   19    3      3.59      0.00
    7   19    3      2.56      0.00
    8   19    3     -1.65      0.00
    9   19    3     -3.04      0.00
   10   19    3      0.49      0.00
   11   19    3     -0.24      0.00
   12   19    3     -0.83      0.00
   13   19    3     -1.56      0.00
   14   19    3     -2.12      0.00
   15   19    3     -1.84      0.00
   16   19    3      0.96      0.00
   17   19    3     -1.00      0.00
   18   19    3     -2.66      0.00
    2   20    3      1.82      0.00
    3   20    3      0.84      0.00
    4   20    3     -1.24      0.00
    5   20    3     -2.28      0.00
    6   20    3      0.85      0.00
    7   20    3      2.93      0.00
    8   20    3      0.39      0.00
    9   20    3     -3.72      0.00
   10   20    3     -1.21      0.00
   11   20    3     -1.04      0.00
   12   20    3     -0.63      0.00
   13   20    3      0.84      0.00
   14   20    3      1.23      0.00
   15   20    3     -2.30      0.00
   16   20    3      0.00      0.00
    5   21    3      3.62      0.00
    6   21    3      5.48      0.00
    7   21    3      4.01      0.00
    8   21    3     -0.22      0.00
    9   21    3     -6.25      0.00
   10   21    3     -3.20      0.00
   11   21    3      0.80      0.00
   12   21    3      2.81      0.00
   13   21    3      3.89      0.00
   14   21    3      3.28      0.00
  -13  -18    4     -3.73      0.00
  -12  -18    4     -3.55      0.00
  -11  -18    4     -5.80      0.00
  -10  -18    4     -3.54      0.00
   -9  -18    4     -2.20      0.00
   -8  -18    4     -4.18      0.00
   -7  -18    4     -0.74      0.00
   -6  -18    4     -2.89      0.00
   -5  -18    4     -4.16      0.00
   -4  -18    4     -3.09      0.00
   -3  -18    4     -2.00      0.00
  -15  -17    4     -3.26      0.00
  -14  -17    4     -1.01      0.00
  -13  -17    4     -1.77      0.00
  -12  -17    4     -1.53      0.00
  -11  -17    4     -3.90      0.00
  -10  -17    4     -2.01      0.00
   -9  -17    4      1.00      0.00
   -8  -17    4      1.25      0.00
   -7  -17    4      2.19      0.00
   -6  -17    4      0.07      0.00
   -5  -17    4      1.69      0.00
   -4  -17    4      2.31      0.00
   -3  -17    4     -0.41      0.00
   -2  -17    4     -0.82      0.00
   -1  -17    4      1.00      0.00
    0  -17    4      3.84      0.00
  -16  -16    4     -0.43      0.00
  -15  -16    4     -3.93      0.00
  -14  -16    4      0.20      0.00
  -13  -16    4      1.43      0.00
  -12  -16    4      0.52      0.00
  -11  -16    4     -2.75      0.00
  -10  -16    4     -4.27      0.00
   -9  -16    4     -1.64      0.00
   -8  -16    4      2.47      0.00
   -7  -16    4      1.45      0.00
   -6  -16    4     -1.54      0.00
   -5  -16    4     -2.44      0.00
   -4  -16    4     -0.71      0.00
   -3  -16    4     -0.65      0.00
   -2  -16    4     -0.98      0.00
   -1  -16    4     -0.67      0.00
    0  -16    4      1.51      0.00
    1  -16    4      0.20      0.00
    2  -16    4     -0.95      0.00
    3  -16    4      2.58      0.00
  -17  -15    4      1.36      0.00
  -16  -15    4      3.05      0.00
  -15  -15    4     -1.65      0.00
  -14  -15    4     -1.05      0.00
  -13  -15    4      0.64      0.00
  -12  -15    4      3.68      0.00
  -11  -15    4      2.59      0.00
  -10  -15    4      1.03      0.00
   -9  -15    4     -0.27      0.00
   -8  -15    4     -1.26      0.00
   -7  -15    4     -2.07      0.00
   -6  -15    4      0.03      0.00
   -5  -15    4     -2.04      0.00
   -4  -15    4     -1.82      0.00
   -3  -15    4      0.04      0.00
   -2  -15    4     -1.37      0.00
   -1  -15    4     -2.82      0.00
    0  -15    4     -0.48      0.00
    1  -15    4      0.54      0.00
    2  -15    4     -0.71      0.00
    3  -15    4      1.68      0.00
    4  -15    4      0.96      0.00
  -18  -14    4      0.08      0.00
  -17  -14    4     -0.98      0.00
  -16  -14    4      3.04      0.00
  -15  -14    4      2.54      0.00
  -14  -14    4      1.58      0.00
  -13  -14    4      1.01      0.00
  -12  -14    4      1.73      0.00
  -11  -14    4     -1.16      0.00
  -10  -14    4     -0.32      0.00
   -9  -14    4     -1.45      0.00
   -8  -14    4     -4.42      0.00
   -7  -14    4     -4.33      0.00
   -6  -14    4     -0.47      0.00
   -5  -14    4     -1.34      0.00
   -4  -14    4     -2.27      0.00
   -3  -14    4      0.24      0.00
   -2  -14    4     -1.27      0.00
   -1  -14    4     -4.30      0.00
    0  -14    4     -3.49      0.00
    1  -14    4     -0.16      0.00
    2  -14    4      0.23      0.00
    3  -14    4      2.11      0.00
    4  -14    4      2.23      0.00
    5  -14    4      2.37      0.00
    6  -14    4     -0.12      0.00
  -19  -13    4      2.47      0.00
  -18  -13    4      1.19      0.00
  -17  -13    4     -2.82      0.00
  -16  -13    4     -1.74      0.00
  -15  -13    4     -0.57      0.00
  -14  -13    4     -1.44      0.00
  -13  -13    4      0.39      0.00
  -12  -13    4      2.00      0.00
  -11  -13    4     -0.73      0.00
  -10  -13    4     -2.02      0.00
   -9  -13    4     -4.07      0.00
   -8  -13    4     -4.79      0.00
   -7  -13    4      0.02      0.00
   -6  -13    4      6.01      0.00
   -5  -13    4      4.68      0.00
   -4  -13    4     -0.23      0.00
   -3  -13    4      1.51      0.00
   -2  -13    4      3.18      0.00
   -1  -13    4      0.16      0.00
    0  -13    4      1.09      0.00
    1  -13    4      4.03      0.00
    2  -13    4     -0.44      0.00
    3  -13    4     -1.03      0.00
    4  -13    4     -0.56      0.00
    5  -13    4      0.65      0.00
    6  -13    4      1.71      0.00
    7  -13    4      0.96      0.00
    8  -13    4      2.05      0.00
  -19  -12    4     -0.39      0.00
  -18  -12    4      0.64      0.00
  -17  -12    4     -1.62      0.00
  -16  -12    4     -1.43      0.00
  -15  -12    4      1.20      0.00
  -14  -12    4     -0.85      0.00
  -13  -12    4     -0.29      0.00
  -12  -12    4      2.41      0.00
  -11  -12    4      3.69      0.00
  -10  -12    4      2.61      0.00
   -9  -12    4      1.10      0.00
   -8  -12    4     -2.75      0.00
   -7  -12    4     -5.23      0.00
   -6  -12    4     -2.85      0.00
   -5  -12    4      0.55      0.00
   -4  -12    4     -1.96      0.00
   -3  -12    4      0.74      0.00
   -2  -12    4      6.18      0.00
   -1  -12    4     -0.73      0.00
    0  -12    4     -2.21      0.00
    1  -12    4      2.96      0.00
    2  -12    4     -1.09      0.00
    3  -12    4     -2.71      0.00
    4  -12    4     -5.00      0.00
    5  -12    4     -4.02      0.00
    6  -12    4     -1.16      0.00
    7  -12    4     -1.80      0.00
    8  -12    4     -0.85      0.00
    9  -12    4     -0.24      0.00
  -20  -11    4     -1.96      0.00
  -19  -11    4      0.03      0.00
  -18  -11    4      0.91      0.00
  -17  -11    4     -1.66      0.00
  -16  -11    4     -2.76      0.00
  -15  -11    4     -0.43      0.00
  -14  -11    4     -1.32      0.00
  -13  -11    4      0.56      0.00
  -12  -11    4      4.82      0.00
  -11  -11    4      7.15      0.00
  -10  -11    4      4.51      0.00
   -9  -11    4      3.54      0.00
   -8  -11    4      4.81      0.00
   -7  -11    4      1.30      0.00
   -6  -11    4     -0.84      0.00
   -5  -11    4      2.21      0.00
   -4  -11    4     -3.80      0.00
   -3  -11    4     -4.27      0.00
   -2  -11    4      4.31      0.00
   -1  -11    4      2.02      0.00
    0  -11    4      0.11      0.00
    1  -11    4      4.66      0.00
    2  -11    4      3.69      0.00
    3  -11    4      1.64      0.00
    4  -11    4     -2.55      0.00
    5  -11    4     -0.75      0.00
    6  -11    4      1.85      0.00
    7  -11    4      2.98      0.00
    8  -11    4      1.22      0.00
    9  -11    4     -0.99      0.00
   10  -11    4     -2.43      0.00
  -20  -10    4     -2.89      0.00
  -19  -10    4     -0.15      0.00
  -18  -10    4      0.82      0.00
  -17  -10    4     -1.20      0.00
  -16  -10    4     -1.07      0.00
  -15  -10    4      1.38      0.00
  -14  -10    4     -1.08      0.00
  -13  -10    4     -1.73      0.00
  -12  -10    4      0.48      0.00
  -11  -10    4      3.22      0.00
  -10  -10    4      0.40      0.00
   -9  -10    4     -3.46      0.00
   -8  -10    4      0.05      0.00
   -7  -10    4     -1.79      0.00
   -6  -10    4     -3.12      0.00
   -5  -10    4      2.21      0.00
   -4  -10    4     -0.91      0.00
   -3  -10    4     -1.86      0.00
   -2  -10    4      4.19      0.00
   -1  -10    4      5.54      0.00
    0  -10    4      2.46      0.00
    1  -10    4      7.08      0.00
    2  -10    4      9.88      0.00
    3  -10    4      4.95      0.00
    4  -10    4     -0.86      0.00
    5  -10    4      0.61      0.00
    6  -10    4     -0.18      0.00
    7  -10    4      1.69      0.00
    8  -10    4      2.09      0.00
    9  -10    4      0.73      0.00
   10  -10    4     -1.12      0.00
   11  -10    4     -1.93      0.00
  -20   -9    4     -5.26      0.00
  -19   -9    4     -4.01      0.00
  -18   -9    4     -0.63      0.00
  -17   -9    4     -1.19      0.00
  -16   -9    4     -0.88      0.00
  -15   -9    4      2.60      0.00
  -14   -9    4      2.58      0.00
  -13   -9    4      3.45      0.00
  -12   -9    4      2.99      0.00
  -11   -9    4      4.85      0.00
  -10   -9    4      5.14      0.00
   -9   -9    4      2.40      0.00
   -8   -9    4      4.74      0.00
   -7   -9    4      2.75      0.00
   -6   -9    4     -3.53      0.00
   -5   -9    4     -2.88      0.00
   -4   -9    4     -1.78      0.00
   -3   -9    4     -3.55      0.00
   -2   -9    4     -2.58      0.00
   -1   -9    4     -1.46      0.00
    0   -9    4     -2.59      0.00
    1   -9    4      2.46      0.00
    2   -9    4      8.41      0.00
    3   -9    4      6.44      0.00
    4   -9    4      1.09      0.00
    5   -9    4      1.43      0.00
    6   -9    4     -1.42      0.00
    7   -9    4     -4.01      0.00
    8   -9    4     -2.18      0.00
    9   -9    4     -0.09      0.00
   10   -9    4      0.51      0.00
   11   -9    4      1.01      0.00
   12   -9    4      0.15      0.00
  -20   -8    4     -2.01      0.00
  -19   -8    4     -2.88      0.00
  -18   -8    4     -0.43      0.00
  -17   -8    4     -1.71      0.00
  -16   -8    4     -0.92      0.00
  -15   -8    4     -0.71      0.00
  -14   -8    4     -2.19      0.00
  -13   -8    4      0.52      0.00
  -12   -8    4     -0.54      0.00
  -11   -8    4     -2.64      0.00
  -10   -8    4     -1.09      0.00
   -9   -8    4     -2.54      0.00
   -8   -8    4     -1.97      0.00
   -7   -8    4      2.22      0.00
   -6   -8    4     -1.95      0.00
   -5   -8    4     -4.53      0.00
   -4   -8    4      0.08      0.00
   -3   -8    4      1.40      0.00
   -2   -8    4     -2.02      0.00
   -1   -8    4     -6.60      0.00
    0   -8    4     -1.67      0.00
    1   -8    4     -0.54      0.00
    2   -8    4      0.12      0.00
    3   -8    4      2.41      0.00
    4   -8    4      0.02      0.00
    5   -8    4      2.86      0.00
    6   -8    4      3.05      0.00
    7   -8    4     -3.50      0.00
    8   -8    4     -1.70      0.00
    9   -8    4      2.59      0.00
   10   -8    4      2.23      0.00
   11   -8    4      1.79      0.00
   12   -8    4      0.24      0.00
   13   -8    4     -2.72      0.00
  -20   -7    4     -0.47      0.00
  -19   -7    4     -1.55      0.00
  -18   -7    4     -1.12      0.00
  -17   -7    4     -3.26      0.00
  -16   -7    4     -1.71      0.00
  -15   -7    4     -3.51      0.00
  -14   -7    4     -5.17      0.00
  -13   -7    4     -0.43      0.00
  -12   -7    4      2.92      0.00
  -11   -7    4      0.09      0.00
  -10   -7    4      3.97      0.00
   -9   -7    4      4.92      0.00
   -8   -7    4      0.89      0.00
   -7   -7    4      0.91      0.00
   -6   -7    4     -0.89      0.00
   -5   -7    4     -3.63      0.00
   -4   -7    4      0.38      0.00
   -3   -7    4      6.32      0.00
   -2   -7    4      2.83      0.00
   -1   -7    4     -4.49      0.00
    0   -7    4      5.68      0.00
    1   -7    4      4.38      0.00
    2   -7    4     -3.85      0.00
    3   -7    4     -2.03      0.00
    4   -7    4     -2.67      0.00
    5   -7    4      0.73      0.00
    6   -7    4      2.82      0.00
    7   -7    4     -4.35      0.00
    8   -7    4     -6.63      0.00
    9   -7    4     -3.86      0.00
   10   -7    4     -3.18      0.00
   11   -7    4     -1.89      0.00
   12   -7    4      0.26      0.00
   13   -7    4     -2.53      0.00
   14   -7    4     -0.18      0.00
  -20   -6    4      2.63      0.00
  -19   -6    4      3.56      0.00
  -18   -6    4      2.38      0.00
  -17   -6    4      0.05      0.00
  -16   -6    4      0.33      0.00
  -15   -6    4     -1.88      0.00
  -14   -6    4     -5.79      0.00
  -13   -6    4     -6.06      0.00
  -12   -6    4     -3.23      0.00
  -11   -6    4     -6.09      0.00
  -10   -6    4     -0.53      0.00
   -9   -6    4      6.81      0.00
   -8   -6    4      5.59      0.00
   -7   -6    4     -0.58      0.00
   -6   -6    4     -2.42      0.00
   -5   -6    4     -3.68      0.00
   -4   -6    4     -5.93      0.00
   -3   -6    4     -3.50      0.00
   -2   -6    4     -5.29      0.00
   -1   -6    4    -12.24      0.00
    0   -6    4      0.58      0.00
    1   -6    4      7.73      0.00
    2   -6    4     -5.05      0.00
    3   -6    4     -4.47      0.00
    4   -6    4     -2.02      0.00
    5   -6    4     -2.07      0.00
    6   -6    4     -0.52      0.00
    7   -6    4      0.23      0.00
    8   -6    4     -0.37      0.00
    9   -6    4      0.87      0.00
   10   -6    4      0.75      0.00
   11   -6    4     -1.46      0.00
   12   -6    4     -0.20      0.00
   13   -6    4     -0.75      0.00
   14   -6    4      2.67      0.00
   15   -6    4      4.41      0.00
  -20   -5    4      0.06      0.00
  -19   -5    4      0.04      0.00
  -18   -5    4      1.59      0.00
  -17   -5    4      1.21      0.00
  -16   -5    4      0.27      0.00
  -15   -5    4      0.50      0.00
  -14   -5    4     -1.04      0.00
  -13   -5    4     -1.38      0.00
  -12   -5    4      1.48      0.00
  -11   -5    4     -0.30      0.00
  -10   -5    4      2.18      0.00
   -9   -5    4     10.31      0.00
   -8   -5    4     13.09      0.00
   -7   -5    4      5.27      0.00
   -6   -5    4      3.20      0.00
   -5   -5    4      8.90      0.00
   -4   -5    4      1.33      0.00
   -3   -5    4     -2.35      0.00
   -2   -5    4      2.97      0.00
   -1   -5    4     -6.06      0.00
    0   -5    4     -2.99      0.00
    1   -5    4      7.59      0.00
    2   -5    4     -3.49      0.00
    3   -5    4     -2.58      0.00
    4   -5    4      6.05      0.00
    5   -5    4      2.36      0.00
    6   -5    4     -5.85      0.00
    7   -5    4     -5.76      0.00
    8   -5    4     -3.94      0.00
    9   -5    4     -2.88      0.00
   10   -5    4     -0.51      0.00
   11   -5    4      1.10      0.00
   12   -5    4      1.78      0.00
   13   -5    4     -0.81      0.00
   14   -5    4     -1.01      0.00
   15   -5    4     -0.37      0.00
   16   -5    4      1.90      0.00
  -20   -4    4      0.09      0.00
  -19   -4    4     -1.67      0.00
  -18   -4    4      0.12      0.00
  -17   -4    4      1.96      0.00
  -16   -4    4      0.74      0.00
  -15   -4    4     -1.31      0.00
  -14   -4    4     -1.84      0.00
  -13   -4    4     -0.36      0.00
  -12   -4    4      2.06      0.00
  -11   -4    4      0.14      0.00
  -10   -4    4     -1.77      0.00
   -9   -4    4      2.25      0.00
   -8   -4    4      7.70      0.00
   -7   -4    4      2.93      0.00
   -6   -4    4     -1.39      0.00
   -5   -4    4      7.46      0.00
   -4   -4    4     -1.93      0.00
   -3   -4    4    -16.65      0.00
   -2   -4    4     -6.78      0.00
   -1   -4    4     -4.17      0.00
    0   -4    4     -5.81      0.00
    1   -4    4      2.68      0.00
    2   -4    4      0.86      0.00
    3   -4    4     -4.93      0.00
    4   -4    4      4.34      0.00
    5   -4    4      6.45      0.00
    6   -4    4     -1.46      0.00
    7   -4    4     -4.31      0.00
    8   -4    4     -1.41      0.00
    9   -4    4     -2.47      0.00
   10   -4    4     -1.83      0.00
   11   -4    4      2.05      0.00
   12   -4    4      1.12      0.00
   13   -4    4     -1.74      0.00
   14   -4    4     -0.16      0.00
   15   -4    4     -0.79      0.00
   16   -4    4      1.44      0.00
   17   -4    4      1.46      0.00
  -20   -3    4      3.37      0.00
  -19   -3    4      2.86      0.00
  -18   -3    4     -1.31      0.00
  -17   -3    4     -0.77      0.00
  -16   -3    4      1.25      0.00
  -15   -3    4      1.39      0.00
  -14   -3    4      2.07      0.00
  -13   -3    4      2.13      0.00
  -12   -3    4      3.00      0.00
  -11   -3    4      1.61      0.00
  -10   -3    4      1.88      0.00
   -9   -3    4      1.91      0.00
   -8   -3    4      2.82      0.00
   -7   -3    4      0.55      0.00
   -6   -3    4     -6.15      0.00
   -5   -3    4     -1.63      0.00
   -4   -3    4      2.63      0.00
   -3   -3    4    -15.97      0.00
   -2   -3    4    -10.93      0.00
   -1   -3    4      2.09      0.00
    0   -3    4     -4.02      0.00
    1   -3    4     -1.82      0.00
    2   -3    4      3.49      0.00
    3   -3    4     -2.56      0.00
    4   -3    4      1.33      0.00
    5   -3    4      3.94      0.00
    6   -3    4      2.13      0.00
    7   -3    4     -1.45      0.00
    8   -3    4      2.02      0.00
    9   -3    4     -1.74      0.00
   10   -3    4     -4.55      0.00
   11   -3    4      1.71      0.00
   12   -3    4      1.77      0.00
   13   -3    4     -4.52      0.00
   14   -3    4     -2.83      0.00
   15   -3    4     -2.82      0.00
   16   -3    4     -3.53      0.00
   17   -3    4     -1.81      0.00
  -19   -2    4      3.46      0.00
  -18   -2    4      0.27      0.00
  -17   -2    4      0.51      0.00
  -16   -2    4      0.47      0.00
  -15   -2    4      0.49      0.00
  -14   -2    4      1.43      0.00
  -13   -2    4      1.89      0.00
  -12   -2    4      2.28      0.00
  -11   -2    4     -0.99      0.00
  -10   -2    4      2.40      0.00
   -9   -2    4      5.86      0.00
   -8   -2    4      6.99      0.00
   -7   -2    4     13.33      0.00
   -6   -2    4      7.79      0.00
   -5   -2    4     -3.38      0.00
   -4   -2    4      5.59      0.00
   -3   -2    4     -7.55      0.00
   -2   -2    4     -5.45      0.00
   -1   -2    4      3.11      0.00
    0   -2    4     -2.81      0.00
    1   -2    4      0.78      0.00
    2   -2    4      3.47      0.00
    3   -2    4     11.44      0.00
    4   -2    4      5.78      0.00
    5   -2    4      3.30      0.00
    6   -2    4      8.34      0.00
    7   -2    4      2.92      0.00
    8   -2    4      4.78      0.00
    9   -2    4      1.89      0.00
   10   -2    4     -5.76      0.00
   11   -2    4     -1.88      0.00
   12   -2    4      2.77      0.00
   13   -2    4     -4.95      0.00
   14   -2    4     -4.87      0.00
   15   -2    4     -0.72      0.00
   16   -2    4     -1.71      0.00
   17   -2    4     -1.34      0.00
   18   -2    4      0.45      0.00
  -19   -1    4     -0.19      0.00
  -18   -1    4     -0.78      0.00
  -17   -1    4     -0.47      0.00
  -16   -1    4     -1.27      0.00
  -15   -1    4     -2.12      0.00
  -14   -1    4     -2.57      0.00
  -13   -1    4      0.10      0.00
  -12   -1    4      2.46      0.00
  -11   -1    4     -3.27      0.00
  -10   -1    4     -5.10      0.00
   -9   -1    4     -2.34      0.00
   -8   -1    4     -4.45      0.00
   -7   -1    4      7.71      0.00
   -6   -1    4     11.89      0.00
   -5   -1    4     -4.35      0.00
   -4   -1    4     -1.72      0.00
   -3   -1    4      1.04      0.00
   -2   -1    4      2.20      0.00
   -1   -1    4     -4.63      0.00
    0   -1    4     -4.45      0.00
    1   -1    4      2.14      0.00
    2   -1    4    -14.67      0.00
    3   -1    4      4.24      0.00
    4   -1    4     -2.07      0.00
    5   -1    4    -10.57      0.00
    6   -1    4     -3.40      0.00
    7   -1    4     -3.63      0.00
    8   -1    4     -0.51      0.00
    9   -1    4      6.93      0.00
   10   -1    4      4.26      0.00
   11   -1    4      3.48      0.00
   12   -1    4      7.26      0.00
   13   -1    4      0.39      0.00
   14   -1    4     -2.93      0.00
   15   -1    4      1.95      0.00
   16   -1    4      3.69      0.00
   17   -1    4      0.91      0.00
   18   -1    4      1.07      0.00
   19   -1    4      0.54      0.00
  -19    0    4      0.09      0.00
  -18    0    4      2.80      0.00
  -17    0    4      3.26      0.00
  -16    0    4      3.53      0.00
  -15    0    4      3.46      0.00
  -14    0    4      1.06      0.00
  -13    0    4      1.64      0.00
  -12    0    4      6.16      0.00
  -11    0    4      3.95      0.00
  -10    0    4      1.29      0.00
   -9    0    4      5.36      0.00
   -8    0    4     -2.25      0.00
   -7    0    4      3.88      0.00
   -6    0    4     14.53      0.00
   -5    0    4     -0.38      0.00
   -4    0    4    -10.42      0.00
   -3    0    4      2.79      0.00
   -2    0    4     -5.01      0.00
   -1    0    4    -29.49      0.00
    0    0    4    -16.83      0.00
    1    0    4     34.51      0.00
    2    0    4     18.40      0.00
    3    0    4     19.77      0.00
    4    0    4     24.60      0.00
    5    0    4      8.70      0.00
    6    0    4      5.75      0.00
    7    0    4      4.13      0.00
    8    0    4     -7.48      0.00
    9    0    4     -5.45      0.00
   10    0    4     -1.06      0.00
   11    0    4      2.66      0.00
   12    0    4      5.64      0.00
   13    0    4      4.74      0.00
   14    0    4      2.95      0.00
   15    0    4      2.83      0.00
   16    0    4      2.83      0.00
   17    0    4     -0.38      0.00
   18    0    4      1.46      0.00
   19    0    4      1.67      0.00
  -18    1    4      2.65      0.00
  -17    1    4      0.34      0.00
  -16    1    4     -2.89      0.00
  -15    1    4     -1.89      0.00
  -14    1    4     -2.39      0.00
  -13    1    4     -4.00      0.00
  -12    1    4     -1.30      0.00
  -11    1    4     -2.93      0.00
  -10    1    4     -6.16      0.00
   -9    1    4     -0.07      0.00
   -8    1    4     -2.32      0.00
   -7    1    4      0.33      0.00
   -6    1    4     14.08      0.00
   -5    1    4     10.18      0.00
   -4    1    4      5.76      0.00
   -3    1    4     24.68      0.00
   -2    1    4     20.62      0.00
   -1    1    4    -26.18      0.00
    0    1    4    -61.55      0.00
    1    1    4     -5.51      0.00
    2    1    4    -21.96      0.00
    3    1    4    -41.46      0.00
    4    1    4     -3.77      0.00
    5    1    4     -7.85      0.00
    6    1    4     -6.08      0.00
    7    1    4      5.05      0.00
    8    1    4      1.81      0.00
    9    1    4     -1.29      0.00
   10    1    4     -2.21      0.00
   11    1    4      2.51      0.00
   12    1    4      2.87      0.00
   13    1    4      2.40      0.00
   14    1    4      1.88      0.00
   15    1    4     -0.19      0.00
   16    1    4      0.88      0.00
   17    1    4      1.29      0.00
   18    1    4      2.62      0.00
   19    1    4      3.06      0.00
   20    1    4     -0.18      0.00
  -18    2    4      3.83      0.00
  -17    2    4      3.71      0.00
  -16    2    4     -0.90      0.00
  -15    2    4     -1.41      0.00
  -14    2    4      1.47      0.00
  -13    2    4      4.54      0.00
  -12    2    4      6.72      0.00
  -11    2    4      5.03      0.00
  -10    2    4     -0.64      0.00
   -9    2    4     -0.07      0.00
   -8    2    4      0.96      0.00
   -7    2    4     -3.32      0.00
   -6    2    4     -2.54      0.00
   -5    2    4     -5.76      0.00
   -4    2    4     -0.53      0.00
   -3    2    4     12.89      0.00
   -2    2    4     23.60      0.00
   -1    2    4     -5.88      0.00
    0    2    4    -43.65      0.00
    1    2    4     16.90      0.00
    2    2    4      9.03      0.00
    3    2    4    -32.14      0.00
    4    2    4     -4.08      0.00
    5    2    4     -8.42      0.00
    6    2    4    -15.06      0.00
    7    2    4     -9.24      0.00
    8    2    4      2.52      0.00
    9    2    4      4.88      0.00
   10    2    4      2.66      0.00
   11    2    4      5.16      0.00
   12    2    4      0.65      0.00
   13    2    4     -1.57      0.00
   14    2    4      1.28      0.00
   15    2    4     -2.94      0.00
   16    2    4     -4.80      0.00
   17    2    4     -2.39      0.00
   18    2    4     -2.40      0.00
   19    2    4      0.69      0.00
   20    2    4     -0.45      0.00
  -17    3    4      0.08      0.00
  -16    3    4      0.60      0.00
  -15    3    4     -1.15      0.00
  -14    3    4     -1.07      0.00
  -13    3    4      1.17      0.00
  -12    3    4      2.89      0.00
  -11    3    4      5.01      0.00
  -10    3    4      2.72      0.00
   -9    3    4      1.34      0.00
   -8    3    4      0.61      0.00
   -7    3    4     -5.90      0.00
   -6    3    4    -10.97      0.00
   -5    3    4    -16.52      0.00
   -4    3    4    -13.87      0.00
   -3    3    4    -12.66      0.00
   -2    3    4     -0.33      0.00
   -1    3    4     -4.38      0.00
    0    3    4    -26.43      0.00
    1    3    4      2.83      0.00
    2    3    4      7.46      0.00
    3    3    4    -13.33      0.00
    4    3    4     20.77      0.00
    5    3    4     39.09      0.00
    6    3    4     15.29      0.00
    7    3    4     -3.51      0.00
    8    3    4      4.52      0.00
    9    3    4      5.54      0.00
   10    3    4      1.22      0.00
   11    3    4      4.97      0.00
   12    3    4      2.90      0.00
   13    3    4     -1.65      0.00
   14    3    4      4.91      0.00
   15    3    4      3.09      0.00
   16    3    4     -2.66      0.00
   17    3    4     -2.48      0.00
   18    3    4     -2.78      0.00
   19    3    4      1.49      0.00
   20    3    4      2.53      0.00
  -17    4    4     -0.25      0.00
  -16    4    4      2.10      0.00
  -15    4    4     -0.05      0.00
  -14    4    4     -0.54      0.00
  -13    4    4      0.21      0.00
  -12    4    4      0.57      0.00
  -11    4    4     -1.07      0.00
  -10    4    4     -4.29      0.00
   -9    4    4     -4.06      0.00
   -8    4    4     -4.45      0.00
   -7    4    4     -4.40      0.00
   -6    4    4     -6.29      0.00
   -5    4    4     -6.86      0.00
   -4    4    4      1.40      0.00
   -3    4    4      3.09      0.00
   -2    4    4      1.37      0.00
   -1    4    4      8.68      0.00
    0    4    4     -0.92      0.00
    1    4    4     -7.33      0.00
    2    4    4    -16.18      0.00
    3    4    4    -52.60      0.00
    4    4    4    -42.14      0.00
    5    4    4     -2.49      0.00
    6    4    4     -3.24      0.00
    7    4    4    -11.47      0.00
    8    4    4     -0.14      0.00
    9    4    4      9.26      0.00
   10    4    4      2.55      0.00
   11    4    4      2.29      0.00
   12    4    4      5.58      0.00
   13    4    4     -1.64      0.00
   14    4    4     -0.06      0.00
   15    4    4      1.55      0.00
   16    4    4      0.33      0.00
   17    4    4      1.18      0.00
   18    4    4     -0.34      0.00
   19    4    4     -1.85      0.00
   20    4    4     -0.26      0.00
   21    4    4      0.34      0.00
  -16    5    4      2.96      0.00
  -15    5    4      3.21      0.00
  -14    5    4      2.11      0.00
  -13    5    4      1.72      0.00
  -12    5    4      3.71      0.00
  -11    5    4      1.69      0.00
  -10    5    4      2.57      0.00
   -9    5    4      4.42      0.00
   -8    5    4     -0.47      0.00
   -7    5    4     -0.32      0.00
   -6    5    4     -0.74      0.00
   -5    5    4     -2.90      0.00
   -4    5    4     -2.89      0.00
   -3    5    4     -6.50      0.00
   -2    5    4    -14.61      0.00
   -1    5    4      2.18      0.00
    0    5    4      9.14      0.00
    1    5    4     10.41      0.00
    2    5    4     18.26      0.00
    3    5    4      1.60      0.00
    4    5    4     -7.68      0.00
    5    5    4      1.73      0.00
    6    5    4      0.55      0.00
    7    5    4     -9.20      0.00
    8    5    4     -3.92      0.00
    9    5    4     11.92      0.00
   10    5    4      8.11      0.00
   11    5    4      3.29      0.00
   12    5    4      9.54      0.00
   13    5    4      6.25      0.00
   14    5    4      3.13      0.00
   15    5    4      1.81      0.00
   16    5    4      0.47      0.00
   17    5    4      0.31      0.00
   18    5    4      2.78      0.00
   19    5    4      1.20      0.00
   20    5    4      2.43      0.00
   21    5    4      2.07      0.00
  -16    6    4     -1.70      0.00
  -15    6    4      0.70      0.00
  -14    6    4     -0.21      0.00
  -13    6    4     -2.44      0.00
  -12    6    4     -1.44      0.00
  -11    6    4     -3.33      0.00
  -10    6    4     -0.92      0.00
   -9    6    4      2.59      0.00
   -8    6    4      0.22      0.00
   -7    6    4     -0.51      0.00
   -6    6    4      2.96      0.00
   -5    6    4      2.93      0.00
   -4    6    4      0.25      0.00
   -3    6    4     -3.62      0.00
   -2    6    4    -13.29      0.00
   -1    6    4     -8.39      0.00
    0    6    4     -1.22      0.00
    1    6    4      2.04      0.00
    2    6    4      8.79      0.00
    3    6    4     13.35      0.00
    4    6    4      9.54      0.00
    5    6    4      4.11      0.00
    6    6    4      1.43      0.00
    7    6    4    -14.14      0.00
    8    6    4    -17.19      0.00
    9    6    4     -1.98      0.00
   10    6    4      3.61      0.00
   11    6    4     -1.00      0.00
   12    6    4      3.00      0.00
   13    6    4      4.92      0.00
   14    6    4      2.03      0.00
   15    6    4     -0.06      0.00
   16    6    4     -0.13      0.00
   17    6    4     -4.26      0.00
   18    6    4     -1.75      0.00
   19    6    4     -0.87      0.00
   20    6    4      2.50      0.00
   21    6    4      2.45      0.00
  -15    7    4     -0.37      0.00
  -14    7    4      0.26      0.00
  -13    7    4      0.20      0.00
  -12    7    4      2.58      0.00
  -11    7    4      2.65      0.00
  -10    7    4      2.48      0.00
   -9    7    4      1.95      0.00
   -8    7    4     -1.62      0.00
   -7    7    4     -3.56      0.00
   -6    7    4      5.34      0.00
   -5    7    4      7.12      0.00
   -4    7    4      4.09      0.00
   -3    7    4      5.92      0.00
   -2    7    4      5.54      0.00
   -1    7    4      1.97      0.00
    0    7    4      3.79      0.00
    1    7    4      1.89      0.00
    2    7    4      2.35      0.00
    3    7    4      8.29      0.00
    4    7    4      8.75      0.00
    5    7    4      1.20      0.00
    6    7    4      0.01      0.00
    7    7    4     -4.29      0.00
    8    7    4    -12.01      0.00
    9    7    4     -7.79      0.00
   10    7    4      3.10      0.00
   11    7    4      5.11      0.00
   12    7    4      6.71      0.00
   13    7    4     11.56      0.00
   14    7    4     10.82      0.00
   15    7    4      4.99      0.00
   16    7    4      4.63      0.00
   17    7    4      1.00      0.00
   18    7    4      0.40      0.00
   19    7    4     -2.43      0.00
   20    7    4      0.45      0.00
   21    7    4      1.77      0.00
   22    7    4      0.42      0.00
  -14    8    4     -2.84      0.00
  -13    8    4     -3.87      0.00
  -12    8    4     -0.53      0.00
  -11    8    4      2.21      0.00
  -10    8    4      3.53      0.00
   -9    8    4      2.89      0.00
   -8    8    4     -1.76      0.00
   -7    8    4     -5.12      0.00
   -6    8    4     -1.17      0.00
   -5    8    4     -1.82      0.00
   -4    8    4     -4.89      0.00
   -3    8    4     -1.78      0.00
   -2    8    4      3.10      0.00
   -1    8    4     -3.09      0.00
    0    8    4     -4.33      0.00
    1    8    4     -0.19      0.00
    2    8    4      2.09      0.00
    3    8    4      2.53      0.00
    4    8    4     10.76      0.00
    5    8    4      8.79      0.00
    6    8    4      3.09      0.00
    7    8    4      8.28      0.00
    8    8    4      1.85      0.00
    9    8    4     -3.34      0.00
   10    8    4      2.29      0.00
   11    8    4      8.33      0.00
   12    8    4      5.57      0.00
   13    8    4      7.44      0.00
   14    8    4     12.10      0.00
   15    8    4      7.31      0.00
   16    8    4      5.24      0.00
   17    8    4      2.52      0.00
   18    8    4      0.76      0.00
   19    8    4     -1.92      0.00
   20    8    4     -0.51      0.00
   21    8    4      1.07      0.00
   22    8    4      1.16      0.00
  -13    9    4     -2.42      0.00
  -12    9    4     -2.70      0.00
  -11    9    4     -3.58      0.00
  -10    9    4     -0.94      0.00
   -9    9    4      0.79      0.00
   -8    9    4     -1.10      0.00
   -7    9    4      0.41      0.00
   -6    9    4      0.47      0.00
   -5    9    4     -1.05      0.00
   -4    9    4     -5.07      0.00
   -3    9    4     -3.51      0.00
   -2    9    4      3.95      0.00
   -1    9    4     -0.69      0.00
    0    9    4     -7.03      0.00
    1    9    4      0.33      0.00
    2    9    4      5.97      0.00
    3    9    4     -0.86      0.00
    4    9    4      0.69      0.00
    5    9    4      4.08      0.00
    6    9    4     -1.67      0.00
    7    9    4      2.82      0.00
    8    9    4     -0.57      0.00
    9    9    4     -8.10      0.00
   10    9    4     -4.19      0.00
   11    9    4      4.66      0.00
   12    9    4      1.84      0.00
   13    9    4      0.38      0.00
   14    9    4      7.17      0.00
   15    9    4      5.28      0.00
   16    9    4      2.84      0.00
   17    9    4      0.16      0.00
   18    9    4     -1.58      0.00
   19    9    4     -2.66      0.00
   20    9    4     -2.99      0.00
   21    9    4      0.65      0.00
   22    9    4      4.42      0.00
  -13   10    4      1.36      0.00
  -12   10    4      1.68      0.00
  -11   10    4     -1.20      0.00
  -10   10    4     -0.27      0.00
   -9   10    4     -0.38      0.00
   -8   10    4     -3.81      0.00
   -7   10    4     -0.81      0.00
   -6   10    4     -0.12      0.00
   -5   10    4     -0.58      0.00
   -4   10    4     -3.92      0.00
   -3   10    4     -4.03      0.00
   -2   10    4     -2.15      0.00
   -1   10    4     -4.12      0.00
    0   10    4     -7.81      0.00
    1   10    4     -5.39      0.00
    2   10    4      0.73      0.00
    3   10    4     -4.87      0.00
    4   10    4     -6.45      0.00
    5   10    4      5.37      0.00
    6   10    4      4.56      0.00
    7   10    4      4.15      0.00
    8   10    4     -0.83      0.00
    9   10    4    -13.26      0.00
   10   10    4     -9.49      0.00
   11   10    4      1.17      0.00
   12   10    4      3.20      0.00
   13   10    4     -1.85      0.00
   14   10    4      0.70      0.00
   15   10    4      1.16      0.00
   16   10    4     -0.15      0.00
   17   10    4      0.08      0.00
   18   10    4      3.00      0.00
   19   10    4      2.61      0.00
   20   10    4     -1.38      0.00
   21   10    4     -2.39      0.00
   22   10    4     -0.85      0.00
  -12   11    4      1.94      0.00
  -11   11    4     -1.97      0.00
  -10   11    4     -2.17      0.00
   -9   11    4      0.20      0.00
   -8   11    4     -1.44      0.00
   -7   11    4     -1.32      0.00
   -6   11    4     -0.88      0.00
   -5   11    4     -0.78      0.00
   -4   11    4      0.22      0.00
   -3   11    4      4.37      0.00
   -2   11    4      2.17      0.00
   -1   11    4     -2.20      0.00
    0   11    4     -2.58      0.00
    1   11    4     -1.69      0.00
    2   11    4      5.98      0.00
    3   11    4      2.71      0.00
    4   11    4     -2.71      0.00
    5   11    4      5.70      0.00
    6   11    4      6.75      0.00
    7   11    4      2.66      0.00
    8   11    4      0.42      0.00
    9   11    4     -5.74      0.00
   10   11    4     -5.41      0.00
   11   11    4     -2.50      0.00
   12   11    4     -0.09      0.00
   13   11    4     -2.83      0.00
   14   11    4      0.40      0.00
   15   11    4      4.30      0.00
   16   11    4      0.79      0.00
   17   11    4     -1.05      0.00
   18   11    4      0.69      0.00
   19   11    4     -0.98      0.00
   20   11    4     -2.45      0.00
   21   11    4     -3.15      0.00
   22   11    4     -0.90      0.00
  -11   12    4      0.29      0.00
  -10   12    4     -1.75      0.00
   -9   12    4     -0.67      0.00
   -8   12    4      0.50      0.00
   -7   12    4      0.01      0.00
   -6   12    4     -1.54      0.00
   -5   12    4     -2.49      0.00
   -4   12    4     -1.92      0.00
   -3   12    4      1.12      0.00
   -2   12    4     -0.37      0.00
   -1   12    4     -3.02      0.00
    0   12    4      1.13      0.00
    1   12    4      0.31      0.00
    2   12    4     -0.44      0.00
    3   12    4     -0.37      0.00
    4   12    4     -2.78      0.00
    5   12    4      1.67      0.00
    6   12    4      9.28      0.00
    7   12    4      6.66      0.00
    8   12    4      1.79      0.00
    9   12    4     -2.01      0.00
   10   12    4     -4.44      0.00
   11   12    4     -3.87      0.00
   12   12    4     -3.06      0.00
   13   12    4     -2.36      0.00
   14   12    4     -0.43      0.00
   15   12    4      3.74      0.00
   16   12    4      1.02      0.00
   17   12    4      1.20      0.00
   18   12    4      4.48      0.00
   19   12    4      3.57      0.00
   20   12    4      1.08      0.00
   21   12    4     -1.27      0.00
   22   12    4      0.51      0.00
  -10   13    4     -1.23      0.00
   -9   13    4     -1.95      0.00
   -8   13    4      0.54      0.00
   -7   13    4      2.53      0.00
   -6   13    4     -1.07      0.00
   -5   13    4     -2.91      0.00
   -4   13    4     -1.21      0.00
   -3   13    4      2.07      0.00
   -2   13    4      0.34      0.00
   -1   13    4     -5.04      0.00
    0   13    4     -0.98      0.00
    1   13    4      2.52      0.00
    2   13    4     -2.44      0.00
    3   13    4     -2.16      0.00
    4   13    4     -2.62      0.00
    5   13    4     -5.77      0.00
    6   13    4     -4.28      0.00
    7   13    4     -1.85      0.00
    8   13    4     -1.90      0.00
    9   13    4     -1.81      0.00
   10   13    4     -1.82      0.00
   11   13    4     -3.14      0.00
   12   13    4     -5.94      0.00
   13   13    4     -2.77      0.00
   14   13    4     -1.37      0.00
   15   13    4      2.33      0.00
   16   13    4     -0.03      0.00
   17   13    4     -3.47      0.00
   18   13    4     -0.88      0.00
   19   13    4     -0.69      0.00
   20   13    4     -5.20      0.00
   21   13    4     -6.56      0.00
   22   13    4     -4.42      0.00
   -8   14    4     -3.09      0.00
   -7   14    4     -1.39      0.00
   -6   14    4     -3.35      0.00
   -5   14    4     -3.47      0.00
   -4   14    4     -0.46      0.00
   -3   14    4      2.74      0.00
   -2   14    4      3.44      0.00
   -1   14    4      1.39      0.00
    0   14    4      1.07      0.00
    1   14    4      5.88      0.00
    2   14    4      3.75      0.00
    3   14    4     -0.24      0.00
    4   14    4      1.64      0.00
    5   14    4     -2.76      0.00
    6   14    4     -7.47      0.00
    7   14    4      0.09      0.00
    8   14    4      1.64      0.00
    9   14    4     -1.16      0.00
   10   14    4      2.23      0.00
   11   14    4      1.98      0.00
   12   14    4     -1.06      0.00
   13   14    4     -0.17      0.00
   14   14    4     -0.77      0.00
   15   14    4      1.95      0.00
   16   14    4      4.20      0.00
   17   14    4      1.04      0.00
   18   14    4      2.50      0.00
   19   14    4      2.29      0.00
   20   14    4     -0.20      0.00
   21   14    4     -0.54      0.00
   -7   15    4      2.71      0.00
   -6   15    4      2.23      0.00
   -5   15    4      2.28      0.00
   -4   15    4      5.38      0.00
   -3   15    4      6.59      0.00
   -2   15    4      4.33      0.00
   -1   15    4      1.69      0.00
    0   15    4     -2.23      0.00
    1   15    4      1.27      0.00
    2   15    4      5.35      0.00
    3   15    4      0.34      0.00
    4   15    4      5.05      0.00
    5   15    4      2.20      0.00
    6   15    4     -4.86      0.00
    7   15    4      4.30      0.00
    8   15    4     11.58      0.00
    9   15    4      5.04      0.00
   10   15    4      3.23      0.00
   11   15    4      1.87      0.00
   12   15    4     -1.20      0.00
   13   15    4     -2.00      0.00
   14   15    4     -0.38      0.00
   15   15    4     -1.20      0.00
   16   15    4     -1.53      0.00
   17   15    4     -3.15      0.00
   18   15    4     -0.92      0.00
   19   15    4     -1.25      0.00
   20   15    4     -2.23      0.00
   21   15    4     -2.71      0.00
   -6   16    4     -5.36      0.00
   -5   16    4     -8.43      0.00
   -4   16    4     -5.86      0.00
   -3   16    4      1.60      0.00
   -2   16    4      4.04      0.00
   -1   16    4      1.08      0.00
    0   16    4     -2.87      0.00
    1   16    4     -3.95      0.00
    2   16    4      4.51      0.00
    3   16    4      2.78      0.00
    4   16    4      4.92      0.00
    5   16    4      5.32      0.00
    6   16    4     -2.26      0.00
    7   16    4     -3.07      0.00
    8   16    4      6.11      0.00
    9   16    4      3.75      0.00
   10   16    4      2.75      0.00
   11   16    4      6.66      0.00
   12   16    4      5.88      0.00
   13   16    4      1.04      0.00
   14   16    4      0.58      0.00
   15   16    4      0.26      0.00
   16   16    4     -0.12      0.00
   17   16    4     -1.19      0.00
   18   16    4     -0.60      0.00
   19   16    4      1.05      0.00
   20   16    4      0.84      0.00
   -4   17    4     -3.25      0.00
   -3   17    4      0.66      0.00
   -2   17    4      1.63      0.00
   -1   17    4      0.55      0.00
    0   17    4      3.61      0.00
    1   17    4     -1.05      0.00
    2   17    4      3.46      0.00
    3   17    4      3.64      0.00
    4   17    4      1.65      0.00
    5   17    4      5.65      0.00
    6   17    4      2.70      0.00
    7   17    4     -3.15      0.00
    8   17    4     -0.16      0.00
    9   17    4      0.60      0.00
   10   17    4     -1.99      0.00
   11   17    4     -1.63      0.00
   12   17    4     -1.78      0.00
   13   17    4     -2.16      0.00
   14   17    4      0.31      0.00
   15   17    4      1.04      0.00
   16   17    4      0.13      0.00
   17   17    4     -0.52      0.00
   18   17    4     -0.77      0.00
   19   17    4      0.96      0.00
   20   17    4      1.20      0.00
   -3   18    4      1.90      0.00
   -2   18    4      1.58      0.00
   -1   18    4     -1.65      0.00
    0   18    4      1.77      0.00
    1   18    4     -1.38      0.00
    2   18    4     -1.11      0.00
    3   18    4      0.79      0.00
    4   18    4     -3.29      0.00
    5   18    4     -3.12      0.00
    6   18    4     -3.84      0.00
    7   18    4     -5.47      0.00
    8   18    4     -5.99      0.00
    9   18    4     -1.46      0.00
   10   18    4     -0.22      0.00
   11   18    4      2.10      0.00
   12   18    4      1.59      0.00
   13   18    4     -0.89      0.00
   14   18    4     -0.01      0.00
   15   18    4      1.29      0.00
   16   18    4      2.16      0.00
   17   18    4      1.53      0.00
   18   18    4      2.61      0.00
   19   18    4      2.72      0.00
   -1   19    4     -0.77      0.00
    0   19    4      2.67      0.00
    1   19    4      2.20      0.00
    2   19    4     -3.94      0.00
    3   19    4     -2.97      0.00
    4   19    4     -2.69      0.00
    5   19    4      0.50      0.00
    6   19    4      1.68      0.00
    7   19    4     -1.44      0.00
    8   19    4     -6.16      0.00
    9   19    4     -2.61      0.00
   10   19    4      0.39      0.00
   11   19    4      2.59      0.00
   12   19    4      3.83      0.00
   13   19    4      3.32      0.00
   14   19    4      2.23      0.00
   15   19    4      2.94      0.00
   16   19    4      6.17      0.00
   17   19    4      3.58      0.00
   18   19    4      3.34      0.00
    1   20    4      7.82      0.00
    2   20    4      3.61      0.00
    3   20    4      2.25      0.00
    4   20    4     -0.11      0.00
    5   20    4      1.44      0.00
    6   20    4      3.14      0.00
    7   20    4      1.43      0.00
    8   20    4     -3.22      0.00
    9   20    4     -3.90      0.00
   10   20    4     -0.97      0.00
   11   20    4     -1.59      0.00
   12   20    4      1.04      0.00
   13   20    4      3.46      0.00
   14   20    4      0.78      0.00
   15   20    4     -1.20      0.00
   16   20    4      1.51      0.00
   17   20    4      0.32      0.00
    4   21    4     -3.78      0.00
    5   21    4     -1.16      0.00
    6   21    4      1.02      0.00
    7   21    4      1.59      0.00
    8   21    4      0.12      0.00
    9   21    4      0.77      0.00
   10   21    4      3.02      0.00
   11   21    4     -2.35      0.00
   12   21    4     -3.34      0.00
   13   21    4     -2.15      0.00
   14   21    4     -2.65      0.00
   15   21    4     -3.38      0.00
  -11  -18    5      0.35      0.00
  -10  -18    5      3.32      0.00
   -9  -18    5     -0.14      0.00
   -8  -18    5      0.60      0.00
   -7  -18    5      2.72      0.00
   -6  -18    5      2.97      0.00
   -5  -18    5      6.65      0.00
  -14  -17    5      0.56      0.00
  -13  -17    5      1.40      0.00
  -12  -17    5      3.98      0.00
  -11  -17    5      1.88      0.00
  -10  -17    5      1.13      0.00
   -9  -17    5      0.01      0.00
   -8  -17    5     -0.82      0.00
   -7  -17    5      0.04      0.00
   -6  -17    5      0.23      0.00
   -5  -17    5      2.30      0.00
   -4  -17    5      3.07      0.00
   -3  -17    5      0.87      0.00
   -2  -17    5     -0.97      0.00
   -1  -17    5      2.27      0.00
  -16  -16    5     -4.30      0.00
  -15  -16    5     -0.54      0.00
  -14  -16    5      2.30      0.00
  -13  -16    5      0.57      0.00
  -12  -16    5      1.06      0.00
  -11  -16    5     -0.87      0.00
  -10  -16    5      1.56      0.00
   -9  -16    5      3.53      0.00
   -8  -16    5      0.57      0.00
   -7  -16    5     -0.27      0.00
   -6  -16    5     -0.21      0.00
   -5  -16    5     -0.09      0.00
   -4  -16    5      0.71      0.00
   -3  -16    5     -4.45      0.00
   -2  -16    5     -8.62      0.00
   -1  -16    5     -3.69      0.00
    0  -16    5      2.80      0.00
    1  -16    5      2.11      0.00
    2  -16    5      0.45      0.00
  -17  -15    5     -3.17      0.00
  -16  -15    5     -4.06      0.00
  -15  -15    5     -2.68      0.00
  -14  -15    5      1.47      0.00
  -13  -15    5      2.86      0.00
  -12  -15    5      2.43      0.00
  -11  -15    5     -2.12      0.00
  -10  -15    5     -3.58      0.00
   -9  -15    5     -3.65      0.00
   -8  -15    5     -2.98      0.00
   -7  -15    5     -2.56      0.00
   -6  -15    5     -0.12      0.00
   -5  -15    5      0.27      0.00
   -4  -15    5      1.10      0.00
   -3  -15    5     -0.32      0.00
   -2  -15    5     -3.38      0.00
   -1  -15    5     -5.14      0.00
    0  -15    5     -1.26      0.00
    1  -15    5      1.22      0.00
    2  -15    5     -0.15      0.00
    3  -15    5      0.01      0.00
    4  -15    5     -2.95      0.00
  -18  -14    5     -0.72      0.00
  -17  -14    5     -2.27      0.00
  -16  -14    5     -2.34      0.00
  -15  -14    5     -3.90      0.00
  -14  -14    5     -1.39      0.00
  -13  -14    5     -1.48      0.00
  -12  -14    5     -1.77      0.00
  -11  -14    5     -0.51      0.00
  -10  -14    5      0.70      0.00
   -9  -14    5     -2.60      0.00
   -8  -14    5     -2.14      0.00
   -7  -14    5     -2.29      0.00
   -6  -14    5     -0.55      0.00
   -5  -14    5     -1.48      0.00
   -4  -14    5     -1.13      0.00
   -3  -14    5     -0.24      0.00
   -2  -14    5     -1.43      0.00
   -1  -14    5     -3.57      0.00
    0  -14    5     -1.21      0.00
    1  -14    5     -0.62      0.00
    2  -14    5     -1.72      0.00
    3  -14    5      0.89      0.00
    4  -14    5     -0.41      0.00
    5  -14    5      0.80      0.00
  -18  -13    5     -0.60      0.00
  -17  -13    5     -3.24      0.00
  -16  -13    5     -2.29      0.00
  -15  -13    5     -3.94      0.00
  -14  -13    5     -1.53      0.00
  -13  -13    5      0.79      0.00
  -12  -13    5      0.14      0.00
  -11  -13    5      0.56      0.00
  -10  -13    5      4.38      0.00
   -9  -13    5      0.50      0.00
   -8  -13    5     -1.99      0.00
   -7  -13    5     -0.65      0.00
   -6  -13    5      1.78      0.00
   -5  -13    5      0.77      0.00
   -4  -13    5      2.00      0.00
   -3  -13    5      2.87      0.00
   -2  -13    5     -3.26      0.00
   -1  -13    5     -7.27      0.00
    0  -13    5     -1.58      0.00
    1  -13    5     -0.71      0.00
    2  -13    5     -1.57      0.00
    3  -13    5     -1.01      0.00
    4  -13    5     -2.94      0.00
    5  -13    5     -0.48      0.00
    6  -13    5     -0.74      0.00
    7  -13    5     -1.73      0.00
  -19  -12    5      0.48      0.00
  -18  -12    5     -1.60      0.00
  -17  -12    5     -4.52      0.00
  -16  -12    5     -2.50      0.00
  -15  -12    5     -0.64      0.00
  -14  -12    5     -1.24      0.00
  -13  -12    5      0.68      0.00
  -12  -12    5      0.62      0.00
  -11  -12    5     -0.73      0.00
  -10  -12    5      2.12      0.00
   -9  -12    5      0.91      0.00
   -8  -12    5     -1.23      0.00
   -7  -12    5     -0.56      0.00
   -6  -12    5      0.18      0.00
   -5  -12    5     -2.91      0.00
   -4  -12    5     -2.26      0.00
   -3  -12    5      4.28      0.00
   -2  -12    5      2.75      0.00
   -1  -12    5     -1.55      0.00
    0  -12    5      2.79      0.00
    1  -12    5      2.66      0.00
    2  -12    5      1.09      0.00
    3  -12    5     -0.53      0.00
    4  -12    5     -4.21      0.00
    5  -12    5     -3.81      0.00
    6  -12    5     -1.72      0.00
    7  -12    5     -0.67      0.00
    8  -12    5     -0.98      0.00
  -19  -11    5      3.20      0.00
  -18  -11    5      3.63      0.00
  -17  -11    5      2.54      0.00
  -16  -11    5      1.12      0.00
  -15  -11    5      2.05      0.00
  -14  -11    5     -0.65      0.00
  -13  -11    5      0.70      0.00
  -12  -11    5      1.40      0.00
  -11  -11    5      1.05      0.00
  -10  -11    5      1.79      0.00
   -9  -11    5      3.89      0.00
   -8  -11    5      2.84      0.00
   -7  -11    5      0.72      0.00
   -6  -11    5      1.68      0.00
   -5  -11    5     -0.67      0.00
   -4  -11    5     -3.67      0.00
   -3  -11    5      1.37      0.00
   -2  -11    5      2.50      0.00
   -1  -11    5     -4.33      0.00
    0  -11    5     -3.23      0.00
    1  -11    5      0.15      0.00
    2  -11    5     -1.34      0.00
    3  -11    5      0.11      0.00
    4  -11    5     -0.16      0.00
    5  -11    5     -1.71      0.00
    6  -11    5     -1.28      0.00
    7  -11    5     -0.38      0.00
    8  -11    5     -0.21      0.00
    9  -11    5     -0.10      0.00
   10  -11    5     -0.69      0.00
  -19  -10    5     -0.47      0.00
  -18  -10    5     -0.91      0.00
  -17  -10    5     -2.55      0.00
  -16  -10    5     -1.35      0.00
  -15  -10    5      1.19      0.00
  -14  -10    5     -0.57      0.00
  -13  -10    5      0.55      0.00
  -12  -10    5      2.15      0.00
  -11  -10    5      1.59      0.00
  -10  -10    5     -1.37      0.00
   -9  -10    5      1.69      0.00
   -8  -10    5      3.32      0.00
   -7  -10    5     -0.11      0.00
   -6  -10    5      0.25      0.00
   -5  -10    5      1.96      0.00
   -4  -10    5     -3.13      0.00
   -3  -10    5     -1.14      0.00
   -2  -10    5      2.95      0.00
   -1  -10    5     -3.47      0.00
    0  -10    5     -2.77      0.00
    1  -10    5      4.11      0.00
    2  -10    5     -0.26      0.00
    3  -10    5     -2.09      0.00
    4  -10    5     -2.49      0.00
    5  -10    5     -0.74      0.00
    6  -10    5      0.63      0.00
    7  -10    5      3.89      0.00
    8  -10    5      4.77      0.00
    9  -10    5      5.19      0.00
   10  -10    5      2.38      0.00
   11  -10    5     -1.12      0.00
  -20   -9    5     -0.85      0.00
  -19   -9    5      4.05      0.00
  -18   -9    5      5.39      0.00
  -17   -9    5      2.27      0.00
  -16   -9    5      2.65      0.00
  -15   -9    5      1.96      0.00
  -14   -9    5      0.20      0.00
  -13   -9    5     -0.18      0.00
  -12   -9    5      0.36      0.00
  -11   -9    5      1.28      0.00
  -10   -9    5     -1.14      0.00
   -9   -9    5     -2.51      0.00
   -8   -9    5      0.00      0.00
   -7   -9    5     -3.38      0.00
   -6   -9    5     -7.24      0.00
   -5   -9    5     -3.84      0.00
   -4   -9    5     -5.94      0.00
   -3   -9    5     -2.49      0.00
   -2   -9    5      1.51      0.00
   -1   -9    5     -3.03      0.00
    0   -9    5     -3.26      0.00
    1   -9    5      2.15      0.00
    2   -9    5      1.44      0.00
    3   -9    5     -2.68      0.00
    4   -9    5     -3.92      0.00
    5   -9    5      0.69      0.00
    6   -9    5     -2.85      0.00
    7   -9    5     -2.24      0.00
    8   -9    5     -0.90      0.00
    9   -9    5      1.22      0.00
   10   -9    5      3.40      0.00
   11   -9    5      2.92      0.00
   12   -9    5     -0.39      0.00
  -20   -8    5     -1.01      0.00
  -19   -8    5      3.07      0.00
  -18   -8    5      2.64      0.00
  -17   -8    5      0.27      0.00
  -16   -8    5      0.20      0.00
  -15   -8    5     -2.43      0.00
  -14   -8    5     -3.22      0.00
  -13   -8    5     -0.88      0.00
  -12   -8    5     -2.78      0.00
  -11   -8    5     -2.57      0.00
  -10   -8    5      0.84      0.00
   -9   -8    5      1.01      0.00
   -8   -8    5      4.37      0.00
   -7   -8    5      2.41      0.00
   -6   -8    5     -2.16      0.00
   -5   -8    5      0.36      0.00
   -4   -8    5      1.22      0.00
   -3   -8    5      1.22      0.00
   -2   -8    5     -0.76      0.00
   -1   -8    5     -1.65      0.00
    0   -8    5     -1.45      0.00
    1   -8    5     -2.70      0.00
    2   -8    5      0.06      0.00
    3   -8    5     -3.37      0.00
    4   -8    5     -2.78      0.00
    5   -8    5      3.47      0.00
    6   -8    5     -2.32      0.00
    7   -8    5     -5.34      0.00
    8   -8    5     -4.73      0.00
    9   -8    5     -4.07      0.00
   10   -8    5     -0.40      0.00
   11   -8    5      4.10      0.00
   12   -8    5      1.75      0.00
   13   -8    5      1.53      0.00
  -20   -7    5      2.91      0.00
  -19   -7    5      4.76      0.00
  -18   -7    5      2.96      0.00
  -17   -7    5      0.67      0.00
  -16   -7    5      2.14      0.00
  -15   -7    5      0.69      0.00
  -14   -7    5     -3.58      0.00
  -13   -7    5     -0.74      0.00
  -12   -7    5     -0.95      0.00
  -11   -7    5     -0.98      0.00
  -10   -7    5      1.28      0.00
   -9   -7    5      0.40      0.00
   -8   -7    5      2.45      0.00
   -7   -7    5      3.07      0.00
   -6   -7    5     -1.03      0.00
   -5   -7    5     -0.81      0.00
   -4   -7    5      4.02      0.00
   -3   -7    5      2.41      0.00
   -2   -7    5     -2.84      0.00
   -1   -7    5     -0.78      0.00
    0   -7    5      3.87      0.00
    1   -7    5     -4.07      0.00
    2   -7    5     -4.75      0.00
    3   -7    5     -5.33      0.00
    4   -7    5     -4.41      0.00
    5   -7    5      1.45      0.00
    6   -7    5      0.67      0.00
    7   -7    5     -1.97      0.00
    8   -7    5      0.57      0.00
    9   -7    5      0.05      0.00
   10   -7    5     -2.61      0.00
   11   -7    5     -0.51      0.00
   12   -7    5     -0.32      0.00
   13   -7    5      1.85      0.00
   14   -7    5      4.73      0.00
  -20   -6    5     -0.74      0.00
  -19   -6    5      2.57      0.00
  -18   -6    5      5.87      0.00
  -17   -6    5      1.59      0.00
  -16   -6    5      0.68      0.00
  -15   -6    5     -0.25      0.00
  -14   -6    5     -3.06      0.00
  -13   -6    5     -3.38      0.00
  -12   -6    5     -6.00      0.00
  -11   -6    5     -4.34      0.00
  -10   -6    5      3.71      0.00
   -9   -6    5      5.88      0.00
   -8   -6    5      3.58      0.00
   -7   -6    5      3.32      0.00
   -6   -6    5      0.73      0.00
   -5   -6    5     -1.34      0.00
   -4   -6    5      1.10      0.00
   -3   -6    5      1.59      0.00
   -2   -6    5     -5.38      0.00
   -1   -6    5     -3.86      0.00
    0   -6    5      9.22      0.00
    1   -6    5      2.86      0.00
    2   -6    5     -0.70      0.00
    3   -6    5      5.90      0.00
    4   -6    5      3.92      0.00
    5   -6    5      2.85      0.00
    6   -6    5      3.04      0.00
    7   -6    5     -1.38      0.00
    8   -6    5     -0.58      0.00
    9   -6    5      0.25      0.00
   10   -6    5     -2.43      0.00
   11   -6    5     -1.58      0.00
   12   -6    5     -1.54      0.00
   13   -6    5     -3.73      0.00
   14   -6    5     -0.29      0.00
   15   -6    5      0.24      0.00
  -20   -5    5     -5.83      0.00
  -19   -5    5     -6.92      0.00
  -18   -5    5     -0.51      0.00
  -17   -5    5      1.45      0.00
  -16   -5    5      2.28      0.00
  -15   -5    5     -0.88      0.00
  -14   -5    5     -0.80      0.00
  -13   -5    5     -0.82      0.00
  -12   -5    5     -4.78      0.00
  -11   -5    5     -9.82      0.00
  -10   -5    5     -3.01      0.00
   -9   -5    5      3.46      0.00
   -8   -5    5      3.71      0.00
   -7   -5    5      3.98      0.00
   -6   -5    5      6.56      0.00
   -5   -5    5      2.58      0.00
   -4   -5    5     -6.59      0.00
   -3   -5    5     -4.26      0.00
   -2   -5    5     -7.33      0.00
   -1   -5    5    -10.20      0.00
    0   -5    5      0.49      0.00
    1   -5    5     -0.94      0.00
    2   -5    5     -8.69      0.00
    3   -5    5      3.62      0.00
    4   -5    5      5.87      0.00
    5   -5    5      0.14      0.00
    6   -5    5     -0.52      0.00
    7   -5    5     -0.25      0.00
    8   -5    5      1.45      0.00
    9   -5    5      2.14      0.00
   10   -5    5      0.30      0.00
   11   -5    5     -0.46      0.00
   12   -5    5      0.74      0.00
   13   -5    5     -0.06      0.00
   14   -5    5      2.12      0.00
   15   -5    5      1.56      0.00
   16   -5    5      1.56      0.00
  -20   -4    5      2.55      0.00
  -19   -4    5     -0.52      0.00
  -18   -4    5     -0.18      0.00
  -17   -4    5      2.46      0.00
  -16   -4    5      3.76      0.00
  -15   -4    5      3.13      0.00
  -14   -4    5      3.46      0.00
  -13   -4    5      2.12      0.00
  -12   -4    5      0.06      0.00
  -11   -4    5     -6.26      0.00
  -10   -4    5     -3.24      0.00
   -9   -4    5      0.55      0.00
   -8   -4    5      1.50      0.00
   -7   -4    5     -0.61      0.00
   -6   -4    5      4.96      0.00
   -5   -4    5      7.23      0.00
   -4   -4    5     -7.26      0.00
   -3   -4    5     -9.60      0.00
   -2   -4    5     -0.93      0.00
   -1   -4    5     -4.65      0.00
    0   -4    5     -2.00      0.00
    1   -4    5      0.16      0.00
    2   -4    5    -13.43      0.00
    3   -4    5     -3.05      0.00
    4   -4    5      8.16      0.00
    5   -4    5      4.60      0.00
    6   -4    5      2.25      0.00
    7   -4    5      3.19      0.00
    8   -4    5      0.93      0.00
    9   -4    5     -1.72      0.00
   10   -4    5      0.22      0.00
   11   -4    5      0.80      0.00
   12   -4    5     -0.53      0.00
   13   -4    5     -0.75      0.00
   14   -4    5      0.77      0.00
   15   -4    5     -0.03      0.00
   16   -4    5      2.21      0.00
  -19   -3    5     -0.22      0.00
  -18   -3    5     -0.98      0.00
  -17   -3    5      1.65      0.00
  -16   -3    5      0.53      0.00
  -15   -3    5      1.30      0.00
  -14   -3    5      1.34      0.00
  -13   -3    5      0.93      0.00
  -12   -3    5     -1.01      0.00
  -11   -3    5     -5.71      0.00
  -10   -3    5     -3.78      0.00
   -9   -3    5     -3.32      0.00
   -8   -3    5     -1.94      0.00
   -7   -3    5     -3.77      0.00
   -6   -3    5     -2.15      0.00
   -5   -3    5      5.76      0.00
   -4   -3    5     -2.60      0.00
   -3   -3    5    -10.25      0.00
   -2   -3    5      3.04      0.00
   -1   -3    5     -6.51      0.00
    0   -3    5     -9.63      0.00
    1   -3    5     -4.01      0.00
    2   -3    5    -12.15      0.00
    3   -3    5    -13.36      0.00
    4   -3    5     -4.58      0.00
    5   -3    5     -2.03      0.00
    6   -3    5     -0.55      0.00
    7   -3    5      5.27      0.00
    8   -3    5      5.08      0.00
    9   -3    5     -2.59      0.00
   10   -3    5     -2.37      0.00
   11   -3    5      0.91      0.00
   12   -3    5     -3.09      0.00
   13   -3    5     -4.63      0.00
   14   -3    5     -1.27      0.00
   15   -3    5     -2.22      0.00
   16   -3    5      0.10      0.00
   17   -3    5      0.49      0.00
  -19   -2    5      0.17      0.00
  -18   -2    5     -2.16      0.00
  -17   -2    5     -1.13      0.00
  -16   -2    5     -0.56      0.00
  -15   -2    5      1.40      0.00
  -14   -2    5      2.60      0.00
  -13   -2    5      3.71      0.00
  -12   -2    5      1.69      0.00
  -11   -2    5     -1.70      0.00
  -10   -2    5      2.03      0.00
   -9   -2    5      2.25      0.00
   -8   -2    5      1.97      0.00
   -7   -2    5      1.63      0.00
   -6   -2    5     -3.58      0.00
   -5   -2    5     -0.50      0.00
   -4   -2    5     -3.15      0.00
   -3   -2    5    -13.83      0.00
   -2   -2    5     -1.69      0.00
   -1   -2    5     -3.13      0.00
    0   -2    5     -9.96      0.00
    1   -2    5    -10.57      0.00
    2   -2    5     -2.31      0.00
    3   -2    5     -5.57      0.00
    4   -2    5     -5.14      0.00
    5   -2    5     -1.84      0.00
    6   -2    5     -1.33      0.00
    7   -2    5      2.74      0.00
    8   -2    5      8.83      0.00
    9   -2    5      2.95      0.00
   10   -2    5     -2.10      0.00
   11   -2    5      2.52      0.00
   12   -2    5     -0.45      0.00
   13   -2    5     -4.27      0.00
   14   -2    5      1.43      0.00
   15   -2    5      2.03      0.00
   16   -2    5     -0.37      0.00
   17   -2    5     -1.12      0.00
   18   -2    5     -0.82      0.00
  -19   -1    5      1.62      0.00
  -18   -1    5      1.19      0.00
  -17   -1    5      1.32      0.00
  -16   -1    5      1.30      0.00
  -15   -1    5     -1.09      0.00
  -14   -1    5     -1.05      0.00
  -13   -1    5      0.62      0.00
  -12   -1    5      0.58      0.00
  -11   -1    5     -4.72      0.00
  -10   -1    5     -3.51      0.00
   -9   -1    5     -4.69      0.00
   -8   -1    5     -3.18      0.00
   -7   -1    5      8.12      0.00
   -6   -1    5      5.55      0.00
   -5   -1    5      3.00      0.00
   -4   -1    5     15.15      0.00
   -3   -1    5      9.90      0.00
   -2   -1    5      7.19      0.00
   -1   -1    5     12.61      0.00
    0   -1    5      9.35      0.00
    1   -1    5      0.52      0.00
    2   -1    5     -2.33      0.00
    3   -1    5      0.97      0.00
    4   -1    5     -0.79      0.00
    5   -1    5      2.87      0.00
    6   -1    5      9.07      0.00
    7   -1    5      5.19      0.00
    8   -1    5      9.20      0.00
    9   -1    5      9.38      0.00
   10   -1    5      2.14      0.00
   11   -1    5      2.49      0.00
   12   -1    5     -0.43      0.00
   13   -1    5     -6.48      0.00
   14   -1    5     -2.49      0.00
   15   -1    5      0.48      0.00
   16   -1    5     -0.89      0.00
   17   -1    5      0.22      0.00
   18   -1    5      0.81      0.00
  -19    0    5      1.10      0.00
  -18    0    5      0.15      0.00
  -17    0    5     -0.94      0.00
  -16    0    5      0.54      0.00
  -15    0    5      0.44      0.00
  -14    0    5      0.21      0.00
  -13    0    5      0.62      0.00
  -12    0    5      0.05      0.00
  -11    0    5     -5.91      0.00
  -10    0    5     -4.24      0.00
   -9    0    5     -6.14      0.00
   -8    0    5    -12.36      0.00
   -7    0    5     -2.40      0.00
   -6    0    5     -3.00      0.00
   -5    0    5    -13.86      0.00
   -4    0    5      1.02      0.00
   -3    0    5      6.76      0.00
   -2    0    5     -3.84      0.00
   -1    0    5     -6.11      0.00
    0    0    5     13.40      0.00
    1    0    5     26.50      0.00
    2    0    5     -2.05      0.00
    3    0    5      3.98      0.00
    4    0    5     -8.63      0.00
    5    0    5    -15.65      0.00
    6    0    5     -2.40      0.00
    7    0    5     -6.49      0.00
    8    0    5     -5.60      0.00
    9    0    5     -0.34      0.00
   10    0    5     -0.63      0.00
   11    0    5      1.45      0.00
   12    0    5     -0.37      0.00
   13    0    5     -6.82      0.00
   14    0    5     -3.91      0.00
   15    0    5      1.08      0.00
   16    0    5      0.09      0.00
   17    0    5     -1.12      0.00
   18    0    5      0.50      0.00
   19    0    5     -2.93      0.00
  -18    1    5      2.26      0.00
  -17    1    5      0.66      0.00
  -16    1    5      0.63      0.00
  -15    1    5      2.59      0.00
  -14    1    5      2.39      0.00
  -13    1    5      3.88      0.00
  -12    1    5      4.38      0.00
  -11    1    5      0.50      0.00
  -10    1    5      2.00      0.00
   -9    1    5      7.23      0.00
   -8    1    5      2.89      0.00
   -7    1    5      8.68      0.00
   -6    1    5     12.89      0.00
   -5    1    5      7.72      0.00
   -4    1    5     18.15      0.00
   -3    1    5     26.36      0.00
   -2    1    5      7.96      0.00
   -1    1    5    -20.41      0.00
    0    1    5      6.87      0.00
    1    1    5     40.30      0.00
    2    1    5      8.36      0.00
    3    1    5     27.38      0.00
    4    1    5     24.27      0.00
    5    1    5      7.99      0.00
    6    1    5     12.23      0.00
    7    1    5      7.48      0.00
    8    1    5     -0.22      0.00
    9    1    5      0.07      0.00
   10    1    5      1.04      0.00
   11    1    5      2.69      0.00
   12    1    5      4.03      0.00
   13    1    5      3.00      0.00
   14    1    5      0.90      0.00
   15    1    5     -0.41      0.00
   16    1    5      0.08      0.00
   17    1    5     -1.03      0.00
   18    1    5      2.67      0.00
   19    1    5      1.88      0.00
  -18    2    5      0.32      0.00
  -17    2    5     -2.11      0.00
  -16    2    5     -4.12      0.00
  -15    2    5     -2.87      0.00
  -14    2    5     -3.93      0.00
  -13    2    5     -3.26      0.00
  -12    2    5     -2.19      0.00
  -11    2    5     -3.98      0.00
  -10    2    5     -5.40      0.00
   -9    2    5      0.32      0.00
   -8    2    5     -2.63      0.00
   -7    2    5     -2.55      0.00
   -6    2    5     -2.94      0.00
   -5    2    5     -5.76      0.00
   -4    2    5      6.96      0.00
   -3    2    5     26.91      0.00
   -2    2    5     18.34      0.00
   -1    2    5    -22.87      0.00
    0    2    5    -28.32      0.00
    1    2    5    -26.97      0.00
    2    2    5    -76.59      0.00
    3    2    5    -63.53      0.00
    4    2    5    -26.40      0.00
    5    2    5    -30.94      0.00
    6    2    5    -25.64      0.00
    7    2    5     -6.08      0.00
    8    2    5     -3.29      0.00
    9    2    5     -1.96      0.00
   10    2    5      2.46      0.00
   11    2    5      5.03      0.00
   12    2    5      1.85      0.00
   13    2    5      4.90      0.00
   14    2    5      4.11      0.00
   15    2    5     -2.40      0.00
   16    2    5     -3.63      0.00
   17    2    5     -4.65      0.00
   18    2    5     -1.86      0.00
   19    2    5     -0.33      0.00
   20    2    5     -2.84      0.00
  -17    3    5     -0.50      0.00
  -16    3    5     -1.24      0.00
  -15    3    5     -0.21      0.00
  -14    3    5     -0.48      0.00
  -13    3    5      0.27      0.00
  -12    3    5      2.63      0.00
  -11    3    5      1.95      0.00
  -10    3    5      1.94      0.00
   -9    3    5      7.78      0.00
   -8    3    5      7.84      0.00
   -7    3    5      4.27      0.00
   -6    3    5     -3.28      0.00
   -5    3    5    -11.53      0.00
   -4    3    5     -9.73      0.00
   -3    3    5      0.85      0.00
   -2    3    5     12.29      0.00
   -1    3    5     14.25      0.00
    0    3    5     32.26      0.00
    1    3    5     57.43      0.00
    2    3    5     13.03      0.00
    3    3    5     -9.72      0.00
    4    3    5     30.56      0.00
    5    3    5     22.00      0.00
    6    3    5      6.27      0.00
    7    3    5     14.41      0.00
    8    3    5     15.77      0.00
    9    3    5      8.09      0.00
   10    3    5      1.14      0.00
   11    3    5      2.05      0.00
   12    3    5     -4.99      0.00
   13    3    5     -2.24      0.00
   14    3    5      2.39      0.00
   15    3    5     -0.13      0.00
   16    3    5     -0.07      0.00
   17    3    5     -1.06      0.00
   18    3    5     -3.32      0.00
   19    3    5      1.61      0.00
   20    3    5      2.97      0.00
  -17    4    5      1.18      0.00
  -16    4    5      1.74      0.00
  -15    4    5      2.51      0.00
  -14    4    5      1.89      0.00
  -13    4    5      0.05      0.00
  -12    4    5      0.24      0.00
  -11    4    5     -0.03      0.00
  -10    4    5     -0.85      0.00
   -9    4    5     -1.40      0.00
   -8    4    5     -0.13      0.00
   -7    4    5     -0.75      0.00
   -6    4    5     -3.55      0.00
   -5    4    5     -5.39      0.00
   -4    4    5    -10.26      0.00
   -3    4    5    -21.13      0.00
   -2    4    5    -14.97      0.00
   -1    4    5      0.53      0.00
    0    4    5     17.92      0.00
    1    4    5     54.79      0.00
    2    4    5     38.46      0.00
    3    4    5     12.88      0.00
    4    4    5     29.11      0.00
    5    4    5     20.79      0.00
    6    4    5      0.36      0.00
    7    4    5     -2.58      0.00
    8    4    5      5.67      0.00
    9    4    5      1.09      0.00
   10    4    5     -6.91      0.00
   11    4    5     -2.73      0.00
   12    4    5     -7.85      0.00
   13    4    5     -8.99      0.00
   14    4    5     -2.65      0.00
   15    4    5     -2.79      0.00
   16    4    5     -1.67      0.00
   17    4    5      2.31      0.00
   18    4    5     -0.48      0.00
   19    4    5      0.32      0.00
   20    4    5      1.91      0.00
   21    4    5      3.54      0.00
  -16    5    5      0.66      0.00
  -15    5    5      0.39      0.00
  -14    5    5      0.81      0.00
  -13    5    5     -0.02      0.00
  -12    5    5     -2.36      0.00
  -11    5    5     -3.16      0.00
  -10    5    5     -2.85      0.00
   -9    5    5     -4.03      0.00
   -8    5    5     -3.10      0.00
   -7    5    5     -0.31      0.00
   -6    5    5      0.91      0.00
   -5    5    5      4.05      0.00
   -4    5    5      9.12      0.00
   -3    5    5      4.16      0.00
   -2    5    5      4.07      0.00
   -1    5    5     12.14      0.00
    0    5    5     13.54      0.00
    1    5    5     29.01      0.00
    2    5    5     28.82      0.00
    3    5    5     18.86      0.00
    4    5    5     16.70      0.00
    5    5    5     12.73      0.00
    6    5    5    -10.74      0.00
    7    5    5    -17.39      0.00
    8    5    5     -0.05      0.00
    9    5    5      2.00      0.00
   10    5    5     -7.24      0.00
   11    5    5     -2.62      0.00
   12    5    5      0.29      0.00
   13    5    5     -5.77      0.00
   14    5    5     -3.75      0.00
   15    5    5     -1.60      0.00
   16    5    5     -1.18      0.00
   17    5    5      1.83      0.00
   18    5    5      1.98      0.00
   19    5    5     -0.97      0.00
   20    5    5     -1.44      0.00
   21    5    5     -0.87      0.00
  -16    6    5     -1.04      0.00
  -15    6    5     -0.89      0.00
  -14    6    5      0.35      0.00
  -13    6    5      2.79      0.00
  -12    6    5      1.92      0.00
  -11    6    5     -0.33      0.00
  -10    6    5      0.94      0.00
   -9    6    5      1.27      0.00
   -8    6    5     -2.50      0.00
   -7    6    5      1.76      0.00
   -6    6    5      5.93      0.00
   -5    6    5      4.20      0.00
   -4    6    5      5.19      0.00
   -3    6    5      0.98      0.00
   -2    6    5     -2.02      0.00
   -1    6    5      2.58      0.00
    0    6    5     -3.17      0.00
    1    6    5     -3.91      0.00
    2    6    5      6.18      0.00
    3    6    5      7.25      0.00
    4    6    5      5.50      0.00
    5    6    5     11.61      0.00
    6    6    5     -0.29      0.00
    7    6    5    -11.17      0.00
    8    6    5     -3.91      0.00
    9    6    5      4.65      0.00
   10    6    5     -2.67      0.00
   11    6    5     -4.59      0.00
   12    6    5      3.41      0.00
   13    6    5      2.43      0.00
   14    6    5      0.42      0.00
   15    6    5      1.07      0.00
   16    6    5      1.88      0.00
   17    6    5      2.53      0.00
   18    6    5      3.37      0.00
   19    6    5     -0.57      0.00
   20    6    5     -0.23      0.00
   21    6    5     -3.08      0.00
  -15    7    5     -1.52      0.00
  -14    7    5     -3.99      0.00
  -13    7    5     -2.79      0.00
  -12    7    5     -1.24      0.00
  -11    7    5     -3.34      0.00
  -10    7    5     -1.27      0.00
   -9    7    5      0.24      0.00
   -8    7    5     -3.25      0.00
   -7    7    5      0.69      0.00
   -6    7    5      3.94      0.00
   -5    7    5      1.39      0.00
   -4    7    5      4.12      0.00
   -3    7    5      4.52      0.00
   -2    7    5      0.54      0.00
   -1    7    5     -0.26      0.00
    0    7    5     -5.18      0.00
    1    7    5    -13.48      0.00
    2    7    5     -8.87      0.00
    3    7    5     -4.88      0.00
    4    7    5     -3.00      0.00
    5    7    5     -3.50      0.00
    6    7    5      1.54      0.00
    7    7    5      0.81      0.00
    8    7    5     -1.23      0.00
    9    7    5      4.12      0.00
   10    7    5      0.95      0.00
   11    7    5     -2.48      0.00
   12    7    5      1.64      0.00
   13    7    5      5.61      0.00
   14    7    5      1.84      0.00
   15    7    5     -2.25      0.00
   16    7    5     -4.20      0.00
   17    7    5     -5.72      0.00
   18    7    5     -2.77      0.00
   19    7    5     -2.74      0.00
   20    7    5      0.07      0.00
   21    7    5     -2.26      0.00
  -14    8    5      0.03      0.00
  -13    8    5      0.17      0.00
  -12    8    5      1.62      0.00
  -11    8    5     -0.33      0.00
  -10    8    5      1.99      0.00
   -9    8    5      2.68      0.00
   -8    8    5      0.49      0.00
   -7    8    5      0.92      0.00
   -6    8    5      1.87      0.00
   -5    8    5     -2.26      0.00
   -4    8    5     -3.42      0.00
   -3    8    5      3.82      0.00
   -2    8    5      4.93      0.00
   -1    8    5      0.29      0.00
    0    8    5      2.97      0.00
    1    8    5      2.14      0.00
    2    8    5     -0.22      0.00
    3    8    5      0.28      0.00
    4    8    5      5.50      0.00
    5    8    5     -0.25      0.00
    6    8    5      1.79      0.00
    7    8    5      0.90      0.00
    8    8    5     -6.20      0.00
    9    8    5     -4.08      0.00
   10    8    5     -1.91      0.00
   11    8    5     -3.49      0.00
   12    8    5     -4.24      0.00
   13    8    5      1.40      0.00
   14    8    5      0.16      0.00
   15    8    5     -1.14      0.00
   16    8    5      1.11      0.00
   17    8    5     -0.33      0.00
   18    8    5      0.96      0.00
   19    8    5     -0.07      0.00
   20    8    5      1.44      0.00
   21    8    5      0.84      0.00
   22    8    5     -0.79      0.00
  -13    9    5      1.17      0.00
  -12    9    5      2.89      0.00
  -11    9    5      1.16      0.00
  -10    9    5      0.82      0.00
   -9    9    5     -0.08      0.00
   -8    9    5      2.05      0.00
   -7    9    5      2.88      0.00
   -6    9    5      1.35      0.00
   -5    9    5     -3.46      0.00
   -4    9    5     -8.97      0.00
   -3    9    5     -2.95      0.00
   -2    9    5     -0.45      0.00
   -1    9    5     -4.53      0.00
    0    9    5     -1.58      0.00
    1    9    5      4.01      0.00
    2    9    5      2.38      0.00
    3    9    5      0.08      0.00
    4    9    5      6.34      0.00
    5    9    5      4.06      0.00
    6    9    5      2.78      0.00
    7    9    5      4.62      0.00
    8    9    5     -6.48      0.00
    9    9    5     -6.97      0.00
   10    9    5     -0.56      0.00
   11    9    5     -1.75      0.00
   12    9    5     -8.19      0.00
   13    9    5     -5.63      0.00
   14    9    5     -2.68      0.00
   15    9    5     -3.61      0.00
   16    9    5     -0.91      0.00
   17    9    5     -0.85      0.00
   18    9    5      0.47      0.00
   19    9    5     -1.44      0.00
   20    9    5     -1.55      0.00
   21    9    5     -4.16      0.00
   22    9    5     -6.72      0.00
  -12   10    5     -1.60      0.00
  -11   10    5     -1.13      0.00
  -10   10    5      1.43      0.00
   -9   10    5     -0.50      0.00
   -8   10    5     -0.23      0.00
   -7   10    5      3.37      0.00
   -6   10    5      4.69      0.00
   -5   10    5      4.41      0.00
   -4   10    5      1.60      0.00
   -3   10    5      2.33      0.00
   -2   10    5      0.80      0.00
   -1   10    5     -1.17      0.00
    0   10    5      2.68      0.00
    1   10    5     12.86      0.00
    2   10    5      9.21      0.00
    3   10    5     -0.61      0.00
    4   10    5      4.92      0.00
    5   10    5      7.89      0.00
    6   10    5      3.48      0.00
    7   10    5      6.90      0.00
    8   10    5      0.64      0.00
    9   10    5     -1.74      0.00
   10   10    5      2.78      0.00
   11   10    5      1.82      0.00
   12   10    5     -6.78      0.00
   13   10    5     -7.77      0.00
   14   10    5     -1.05      0.00
   15   10    5     -1.91      0.00
   16   10    5     -1.18      0.00
   17   10    5     -1.55      0.00
   18   10    5     -1.82      0.00
   19   10    5     -2.16      0.00
   20   10    5      0.82      0.00
   21   10    5      1.58      0.00
   22   10    5      1.60      0.00
  -12   11    5     -5.38      0.00
  -11   11    5     -6.66      0.00
  -10   11    5     -2.20      0.00
   -9   11    5      0.30      0.00
   -8   11    5      0.72      0.00
   -7   11    5      2.41      0.00
   -6   11    5      0.42      0.00
   -5   11    5     -0.89      0.00
   -4   11    5     -0.29      0.00
   -3   11    5      0.77      0.00
   -2   11    5      0.15      0.00
   -1   11    5     -1.93      0.00
    0   11    5     -2.80      0.00
    1   11    5      2.51      0.00
    2   11    5      3.72      0.00
    3   11    5     -5.58      0.00
    4   11    5     -4.26      0.00
    5   11    5      4.30      0.00
    6   11    5      0.77      0.00
    7   11    5     -1.65      0.00
    8   11    5     -1.87      0.00
    9   11    5     -3.65      0.00
   10   11    5      2.17      0.00
   11   11    5      4.23      0.00
   12   11    5     -0.50      0.00
   13   11    5     -1.57      0.00
   14   11    5      2.49      0.00
   15   11    5     -0.08      0.00
   16   11    5     -0.77      0.00
   17   11    5      0.97      0.00
   18   11    5      0.52      0.00
   19   11    5     -2.32      0.00
   20   11    5     -3.33      0.00
   21   11    5     -0.71      0.00
   22   11    5      2.70      0.00
  -11   12    5     -1.75      0.00
  -10   12    5     -1.91      0.00
   -9   12    5     -0.87      0.00
   -8   12    5      0.84      0.00
   -7   12    5      3.90      0.00
   -6   12    5      2.76      0.00
   -5   12    5      2.05      0.00
   -4   12    5      4.28      0.00
   -3   12    5      4.55      0.00
   -2   12    5      1.61      0.00
   -1   12    5      2.34      0.00
    0   12    5      5.15      0.00
    1   12    5      2.63      0.00
    2   12    5      4.56      0.00
    3   12    5     -0.74      0.00
    4   12    5     -3.72      0.00
    5   12    5      2.79      0.00
    6   12    5      1.52      0.00
    7   12    5     -1.51      0.00
    8   12    5      0.98      0.00
    9   12    5     -0.67      0.00
   10   12    5      1.46      0.00
   11   12    5     -0.59      0.00
   12   12    5     -3.12      0.00
   13   12    5     -1.90      0.00
   14   12    5      2.21      0.00
   15   12    5      2.50      0.00
   16   12    5     -1.48      0.00
   17   12    5      1.04      0.00
   18   12    5      3.11      0.00
   19   12    5     -2.59      0.00
   20   12    5     -7.11      0.00
   21   12    5     -5.10      0.00
   22   12    5     -2.28      0.00
  -10   13    5      1.99      0.00
   -9   13    5      0.77      0.00
   -8   13    5      0.42      0.00
   -7   13    5      1.94      0.00
   -6   13    5      1.22      0.00
   -5   13    5      2.03      0.00
   -4   13    5      2.11      0.00
   -3   13    5      1.07      0.00
   -2   13    5     -4.08      0.00
   -1   13    5     -5.29      0.00
    0   13    5     -0.96      0.00
    1   13    5     -1.82      0.00
    2   13    5     -0.89      0.00
    3   13    5     -1.20      0.00
    4   13    5     -3.87      0.00
    5   13    5     -3.72      0.00
    6   13    5     -0.93      0.00
    7   13    5     -0.26      0.00
    8   13    5     -1.08      0.00
    9   13    5      0.37      0.00
   10   13    5      0.31      0.00
   11   13    5     -2.49      0.00
   12   13    5     -3.63      0.00
   13   13    5     -5.21      0.00
   14   13    5     -4.03      0.00
   15   13    5      1.51      0.00
   16   13    5     -0.69      0.00
   17   13    5      1.78      0.00
   18   13    5      5.91      0.00
   19   13    5      3.92      0.00
   20   13    5      4.68      0.00
   21   13    5      4.55      0.00
   22   13    5      1.78      0.00
   -8   14    5      1.94      0.00
   -7   14    5      1.26      0.00
   -6   14    5     -1.72      0.00
   -5   14    5      2.76      0.00
   -4   14    5      5.07      0.00
   -3   14    5      5.15      0.00
   -2   14    5      1.47      0.00
   -1   14    5     -0.24      0.00
    0   14    5      1.83      0.00
    1   14    5      2.90      0.00
    2   14    5     -0.65      0.00
    3   14    5      3.15      0.00
    4   14    5      3.74      0.00
    5   14    5     -4.18      0.00
    6   14    5     -2.88      0.00
    7   14    5      1.18      0.00
    8   14    5     -3.22      0.00
    9   14    5     -2.09      0.00
   10   14    5     -0.81      0.00
   11   14    5     -1.89      0.00
   12   14    5     -1.60      0.00
   13   14    5     -0.61      0.00
   14   14    5     -1.32      0.00
   15   14    5      0.98      0.00
   16   14    5     -0.60      0.00
   17   14    5     -0.74      0.00
   18   14    5     -2.05      0.00
   19   14    5     -6.97      0.00
   20   14    5     -4.97      0.00
   21   14    5     -1.16      0.00
   -7   15    5     -0.44      0.00
   -6   15    5     -4.84      0.00
   -5   15    5     -2.66      0.00
   -4   15    5      1.30      0.00
   -3   15    5      2.86      0.00
   -2   15    5     -1.57      0.00
   -1   15    5     -4.93      0.00
    0   15    5     -5.09      0.00
    1   15    5     -0.39      0.00
    2   15    5     -3.02      0.00
    3   15    5     -3.40      0.00
    4   15    5      1.17      0.00
    5   15    5     -4.93      0.00
    6   15    5     -6.70      0.00
    7   15    5      2.47      0.00
    8   15    5      1.75      0.00
    9   15    5     -1.87      0.00
   10   15    5      2.94      0.00
   11   15    5      3.69      0.00
   12   15    5      0.52      0.00
   13   15    5     -0.13      0.00
   14   15    5      0.62      0.00
   15   15    5      1.68      0.00
   16   15    5      0.80      0.00
   17   15    5     -0.47      0.00
   18   15    5      1.65      0.00
   19   15    5      1.62      0.00
   20   15    5      1.30      0.00
   21   15    5      3.67      0.00
   -6   16    5      3.51      0.00
   -5   16    5     -0.36      0.00
   -4   16    5     -0.62      0.00
   -3   16    5      1.05      0.00
   -2   16    5      0.36      0.00
   -1   16    5     -0.08      0.00
    0   16    5     -5.11      0.00
    1   16    5     -4.55      0.00
    2   16    5     -0.97      0.00
    3   16    5     -3.97      0.00
    4   16    5      3.89      0.00
    5   16    5      2.22      0.00
    6   16    5     -5.12      0.00
    7   16    5     -1.49      0.00
    8   16    5      1.16      0.00
    9   16    5     -3.13      0.00
   10   16    5      1.20      0.00
   11   16    5      2.97      0.00
   12   16    5      0.62      0.00
   13   16    5     -2.36      0.00
   14   16    5     -3.89      0.00
   15   16    5     -4.31      0.00
   16   16    5     -1.50      0.00
   17   16    5     -1.79      0.00
   18   16    5     -0.15      0.00
   19   16    5      0.49      0.00
   20   16    5     -0.35      0.00
   21   16    5      2.99      0.00
   -4   17    5     -5.58      0.00
   -3   17    5     -4.39      0.00
   -2   17    5     -4.30      0.00
   -1   17    5     -1.18      0.00
    0   17    5     -1.32      0.00
    1   17    5     -3.98      0.00
    2   17    5     -1.11      0.00
    3   17    5     -6.43      0.00
    4   17    5     -1.59      0.00
    5   17    5      2.67      0.00
    6   17    5     -0.03      0.00
    7   17    5     -6.49      0.00
    8   17    5     -9.39      0.00
    9   17    5    -12.07      0.00
   10   17    5     -6.56      0.00
   11   17    5     -0.44      0.00
   12   17    5     -0.80      0.00
   13   17    5     -0.21      0.00
   14   17    5      1.49      0.00
   15   17    5     -0.47      0.00
   16   17    5     -0.54      0.00
   17   17    5     -0.94      0.00
   18   17    5      0.07      0.00
   19   17    5     -0.59      0.00
   20   17    5     -2.26      0.00
   -3   18    5      1.67      0.00
   -2   18    5      0.43      0.00
   -1   18    5      1.22      0.00
    0   18    5      5.30      0.00
    1   18    5      3.20      0.00
    2   18    5      6.64      0.00
    3   18    5      4.07      0.00
    4   18    5     -0.79      0.00
    5   18    5      1.24      0.00
    6   18    5      3.14      0.00
    7   18    5     -0.01      0.00
    8   18    5     -0.01      0.00
    9   18    5     -2.17      0.00
   10   18    5     -4.38      0.00
   11   18    5     -2.17      0.00
   12   18    5     -3.30      0.00
   13   18    5     -2.51      0.00
   14   18    5     -0.13      0.00
   15   18    5      0.58      0.00
   16   18    5     -1.27      0.00
   17   18    5     -2.99      0.00
   18   18    5     -0.63      0.00
   19   18    5      0.73      0.00
   -1   19    5     -0.53      0.00
    0   19    5      1.57      0.00
    1   19    5     -3.47      0.00
    2   19    5     -0.66      0.00
    3   19    5      3.21      0.00
    4   19    5     -0.08      0.00
    5   19    5      2.35      0.00
    6   19    5      2.68      0.00
    7   19    5      0.54      0.00
    8   19    5     -0.07      0.00
    9   19    5      2.89      0.00
   10   19    5      0.74      0.00
   11   19    5     -0.21      0.00
   12   19    5      1.70      0.00
   13   19    5      1.97      0.00
   14   19    5      0.81      0.00
   15   19    5      2.31      0.00
   16   19    5      2.78      0.00
   17   19    5      0.18      0.00
   18   19    5      0.21      0.00
    1   20    5      1.22      0.00
    2   20    5     -0.39      0.00
    3   20    5      0.84      0.00
    4   20    5      0.85      0.00
    5   20    5      4.05      0.00
    6   20    5      5.75      0.00
    7   20    5      4.25      0.00
    8   20    5     -2.22      0.00
    9   20    5     -1.42      0.00
   10   20    5     -3.65      0.00
   11   20    5     -5.90      0.00
   12   20    5     -1.09      0.00
   13   20    5      1.47      0.00
   14   20    5      0.70      0.00
   15   20    5     -0.29      0.00
   16   20    5      0.69      0.00
   17   20    5     -0.60      0.00
    4   21    5      1.77      0.00
    5   21    5     -0.98      0.00
    6   21    5     -1.13      0.00
    7   21    5      0.96      0.00
    8   21    5      0.76      0.00
    9   21    5      2.96      0.00
   10   21    5      0.83      0.00
   11   21    5     -3.56      0.00
   12   21    5     -1.79      0.00
   13   21    5     -0.18      0.00
   14   21    5      0.70      0.00
   15   21    5      0.41      0.00
    9   22    5      1.63      0.00
   10   22    5     -1.22      0.00
   11   22    5     -4.13      0.00
  -12  -17    6     -2.23      0.00
  -11  -17    6     -2.87      0.00
  -10  -17    6     -1.36      0.00
   -9  -17    6     -4.29      0.00
   -8  -17    6     -0.96      0.00
   -7  -17    6      0.77      0.00
   -6  -17    6     -1.46      0.00
   -5  -17    6      0.49      0.00
   -4  -17    6     -3.01      0.00
   -3  -17    6     -7.82      0.00
  -14  -16    6     -2.57      0.00
  -13  -16    6     -1.84      0.00
  -12  -16    6     -4.40      0.00
  -11  -16    6     -7.23      0.00
  -10  -16    6     -5.64      0.00
   -9  -16    6     -6.34      0.00
   -8  -16    6     -5.64      0.00
   -7  -16    6     -4.50      0.00
   -6  -16    6     -4.28      0.00
   -5  -16    6     -1.55      0.00
   -4  -16    6      0.35      0.00
   -3  -16    6     -2.86      0.00
   -2  -16    6     -4.23      0.00
   -1  -16    6      1.09      0.00
    0  -16    6      4.54      0.00
  -16  -15    6      0.71      0.00
  -15  -15    6      2.49      0.00
  -14  -15    6     -0.55      0.00
  -13  -15    6     -1.47      0.00
  -12  -15    6      0.29      0.00
  -11  -15    6     -2.07      0.00
  -10  -15    6     -3.60      0.00
   -9  -15    6     -3.06      0.00
   -8  -15    6     -4.14      0.00
   -7  -15    6     -2.51      0.00
   -6  -15    6      0.18      0.00
   -5  -15    6     -3.36      0.00
   -4  -15    6     -2.54      0.00
   -3  -15    6     -1.53      0.00
   -2  -15    6     -3.13      0.00
   -1  -15    6     -0.97      0.00
    0  -15    6      1.91      0.00
    1  -15    6     -0.41      0.00
    2  -15    6      1.00      0.00
    3  -15    6      1.96      0.00
  -17  -14    6     -2.01      0.00
  -16  -14    6     -0.42      0.00
  -15  -14    6      3.29      0.00
  -14  -14    6      2.54      0.00
  -13  -14    6     -1.66      0.00
  -12  -14    6      0.06      0.00
  -11  -14    6      3.90      0.00
  -10  -14    6      5.00      0.00
   -9  -14    6      1.49      0.00
   -8  -14    6     -2.35      0.00
   -7  -14    6     -2.54      0.00
   -6  -14    6      1.84      0.00
   -5  -14    6      0.11      0.00
   -4  -14    6     -0.95      0.00
   -3  -14    6     -2.77      0.00
   -2  -14    6     -4.74      0.00
   -1  -14    6     -2.53      0.00
    0  -14    6      0.80      0.00
    1  -14    6      0.00      0.00
    2  -14    6      0.39      0.00
    3  -14    6     -0.32      0.00
    4  -14    6     -1.62      0.00
    5  -14    6      0.18      0.00
  -17  -13    6     -0.22      0.00
  -16  -13    6      0.25      0.00
  -15  -13    6     -0.08      0.00
  -14  -13    6      0.95      0.00
  -13  -13    6     -1.30      0.00
  -12  -13    6     -3.09      0.00
  -11  -13    6      0.47      0.00
  -10  -13    6      3.46      0.00
   -9  -13    6      0.72      0.00
   -8  -13    6      1.48      0.00
   -7  -13    6     -1.41      0.00
   -6  -13    6     -2.37      0.00
   -5  -13    6     -1.65      0.00
   -4  -13    6      1.59      0.00
   -3  -13    6      1.01      0.00
   -2  -13    6     -2.51      0.00
   -1  -13    6     -3.70      0.00
    0  -13    6     -2.48      0.00
    1  -13    6     -2.34      0.00
    2  -13    6     -0.48      0.00
    3  -13    6      1.20      0.00
    4  -13    6      1.96      0.00
    5  -13    6      3.21      0.00
    6  -13    6      1.80      0.00
  -18  -12    6      1.66      0.00
  -17  -12    6     -1.04      0.00
  -16  -12    6     -0.69      0.00
  -15  -12    6     -1.45      0.00
  -14  -12    6     -1.42      0.00
  -13  -12    6     -1.92      0.00
  -12  -12    6     -3.13      0.00
  -11  -12    6     -0.59      0.00
  -10  -12    6     -0.60      0.00
   -9  -12    6     -5.17      0.00
   -8  -12    6     -0.34      0.00
   -7  -12    6      2.66      0.00
   -6  -12    6      0.63      0.00
   -5  -12    6     -1.52      0.00
   -4  -12    6      0.37      0.00
   -3  -12    6      0.34      0.00
   -2  -12    6     -1.82      0.00
   -1  -12    6     -1.71      0.00
    0  -12    6      1.67      0.00
    1  -12    6      0.17      0.00
    2  -12    6      1.16      0.00
    3  -12    6      1.08      0.00
    4  -12    6     -1.54      0.00
    5  -12    6      0.76      0.00
    6  -12    6      2.19      0.00
    7  -12    6      0.78      0.00
    8  -12    6     -0.24      0.00
  -19  -11    6     -3.46      0.00
  -18  -11    6     -2.61      0.00
  -17  -11    6     -4.01      0.00
  -16  -11    6     -1.59      0.00
  -15  -11    6      0.91      0.00
  -14  -11    6      0.83      0.00
  -13  -11    6      0.49      0.00
  -12  -11    6     -2.71      0.00
  -11  -11    6     -3.20      0.00
  -10  -11    6     -1.65      0.00
   -9  -11    6     -4.91      0.00
   -8  -11    6     -4.83      0.00
   -7  -11    6     -2.14      0.00
   -6  -11    6     -2.85      0.00
   -5  -11    6     -5.36      0.00
   -4  -11    6     -3.61      0.00
   -3  -11    6      0.26      0.00
   -2  -11    6     -1.72      0.00
   -1  -11    6     -2.70      0.00
    0  -11    6      2.28      0.00
    1  -11    6     -2.33      0.00
    2  -11    6     -1.33      0.00
    3  -11    6      1.10      0.00
    4  -11    6     -2.12      0.00
    5  -11    6     -1.36      0.00
    6  -11    6     -0.28      0.00
    7  -11    6     -1.14      0.00
    8  -11    6     -1.70      0.00
    9  -11    6     -1.52      0.00
  -19  -10    6      1.29      0.00
  -18  -10    6      0.99      0.00
  -17  -10    6      0.27      0.00
  -16  -10    6      0.12      0.00
  -15  -10    6      0.75      0.00
  -14  -10    6     -1.53      0.00
  -13  -10    6     -0.61      0.00
  -12  -10    6     -1.59      0.00
  -11  -10    6     -3.11      0.00
  -10  -10    6     -1.36      0.00
   -9  -10    6     -0.06      0.00
   -8  -10    6     -1.05      0.00
   -7  -10    6     -1.75      0.00
   -6  -10    6      0.05      0.00
   -5  -10    6     -0.89      0.00
   -4  -10    6     -0.72      0.00
   -3  -10    6      3.77      0.00
   -2  -10    6     -2.76      0.00
   -1  -10    6     -7.12      0.00
    0  -10    6      0.15      0.00
    1  -10    6     -0.09      0.00
    2  -10    6     -2.11      0.00
    3  -10    6     -0.52      0.00
    4  -10    6      0.89      0.00
    5  -10    6      1.22      0.00
    6  -10    6      0.73      0.00
    7  -10    6      0.61      0.00
    8  -10    6     -1.02      0.00
    9  -10    6      0.93      0.00
   10  -10    6      1.29      0.00
  -19   -9    6     -2.21      0.00
  -18   -9    6     -4.73      0.00
  -17   -9    6     -3.39      0.00
  -16   -9    6     -2.46      0.00
  -15   -9    6     -2.28      0.00
  -14   -9    6     -3.75      0.00
  -13   -9    6     -2.33      0.00
  -12   -9    6     -2.05      0.00
  -11   -9    6     -1.52      0.00
  -10   -9    6     -1.74      0.00
   -9   -9    6     -0.80      0.00
   -8   -9    6     -2.64      0.00
   -7   -9    6     -5.13      0.00
   -6   -9    6     -1.25      0.00
   -5   -9    6     -0.05      0.00
   -4   -9    6     -0.48      0.00
   -3   -9    6      5.24      0.00
   -2   -9    6      1.58      0.00
   -1   -9    6     -3.95      0.00
    0   -9    6     -0.59      0.00
    1   -9    6      3.97      0.00
    2   -9    6     -0.88      0.00
    3   -9    6     -1.55      0.00
    4   -9    6      3.07      0.00
    5   -9    6      1.90      0.00
    6   -9    6     -0.72      0.00
    7   -9    6      0.41      0.00
    8   -9    6     -2.85      0.00
    9   -9    6     -0.75      0.00
   10   -9    6      2.17      0.00
   11   -9    6      0.17      0.00
   12   -9    6     -2.24      0.00
  -19   -8    6     -1.21      0.00
  -18   -8    6     -4.30      0.00
  -17   -8    6     -2.56      0.00
  -16   -8    6      2.90      0.00
  -15   -8    6      1.66      0.00
  -14   -8    6      0.77      0.00
  -13   -8    6      2.64      0.00
  -12   -8    6      1.45      0.00
  -11   -8    6      0.86      0.00
  -10   -8    6     -0.48      0.00
   -9   -8    6      0.85      0.00
   -8   -8    6      0.13      0.00
   -7   -8    6     -4.36      0.00
   -6   -8    6     -4.15      0.00
   -5   -8    6     -0.57      0.00
   -4   -8    6     -2.79      0.00
   -3   -8    6     -1.92      0.00
   -2   -8    6     -1.77      0.00
   -1   -8    6     -3.05      0.00
    0   -8    6     -1.17      0.00
    1   -8    6      2.08      0.00
    2   -8    6     -2.85      0.00
    3   -8    6     -3.16      0.00
    4   -8    6      5.05      0.00
    5   -8    6      5.95      0.00
    6   -8    6     -0.64      0.00
    7   -8    6     -0.21      0.00
    8   -8    6     -2.87      0.00
    9   -8    6     -4.83      0.00
   10   -8    6     -2.42      0.00
   11   -8    6     -1.00      0.00
   12   -8    6     -0.64      0.00
   13   -8    6      1.74      0.00
  -19   -7    6     -0.44      0.00
  -18   -7    6     -3.81      0.00
  -17   -7    6     -5.21      0.00
  -16   -7    6      0.82      0.00
  -15   -7    6     -1.01      0.00
  -14   -7    6     -2.13      0.00
  -13   -7    6     -2.92      0.00
  -12   -7    6     -5.54      0.00
  -11   -7    6     -4.85      0.00
  -10   -7    6     -4.25      0.00
   -9   -7    6     -3.53      0.00
   -8   -7    6      0.39      0.00
   -7   -7    6     -0.84      0.00
   -6   -7    6     -2.39      0.00
   -5   -7    6      4.77      0.00
   -4   -7    6      5.15      0.00
   -3   -7    6      1.50      0.00
   -2   -7    6      0.10      0.00
   -1   -7    6      3.44      0.00
    0   -7    6      5.52      0.00
    1   -7    6      2.83      0.00
    2   -7    6      1.86      0.00
    3   -7    6     -2.16      0.00
    4   -7    6      2.73      0.00
    5   -7    6      8.83      0.00
    6   -7    6      1.97      0.00
    7   -7    6      0.74      0.00
    8   -7    6      2.71      0.00
    9   -7    6      0.28      0.00
   10   -7    6      0.00      0.00
   11   -7    6      1.62      0.00
   12   -7    6     -0.17      0.00
   13   -7    6      2.05      0.00
   14   -7    6      1.01      0.00
  -19   -6    6      1.25      0.00
  -18   -6    6     -0.81      0.00
  -17   -6    6     -2.90      0.00
  -16   -6    6     -0.04      0.00
  -15   -6    6      0.27      0.00
  -14   -6    6      1.35      0.00
  -13   -6    6      0.58      0.00
  -12   -6    6     -3.48      0.00
  -11   -6    6     -2.55      0.00
  -10   -6    6      0.86      0.00
   -9   -6    6     -0.71      0.00
   -8   -6    6      2.46      0.00
   -7   -6    6      2.45      0.00
   -6   -6    6     -0.73      0.00
   -5   -6    6      1.88      0.00
   -4   -6    6      4.77      0.00
   -3   -6    6      1.82      0.00
   -2   -6    6     -1.44      0.00
   -1   -6    6      5.07      0.00
    0   -6    6      6.88      0.00
    1   -6    6     -1.47      0.00
    2   -6    6      4.12      0.00
    3   -6    6      2.98      0.00
    4   -6    6     -0.29      0.00
    5   -6    6      3.34      0.00
    6   -6    6      0.29      0.00
    7   -6    6     -0.66      0.00
    8   -6    6      2.40      0.00
    9   -6    6     -0.34      0.00
   10   -6    6     -1.94      0.00
   11   -6    6      1.72      0.00
   12   -6    6      2.50      0.00
   13   -6    6      5.78      0.00
   14   -6    6      4.11      0.00
  -19   -5    6      2.44      0.00
  -18   -5    6      4.76      0.00
  -17   -5    6      1.52      0.00
  -16   -5    6     -0.19      0.00
  -15   -5    6      1.96      0.00
  -14   -5    6      3.24      0.00
  -13   -5    6      2.34      0.00
  -12   -5    6     -4.19      0.00
  -11   -5    6     -6.59      0.00
  -10   -5    6     -4.41      0.00
   -9   -5    6     -7.43      0.00
   -8   -5    6     -5.86      0.00
   -7   -5    6     -1.35      0.00
   -6   -5    6      1.56      0.00
   -5   -5    6      0.37      0.00
   -4   -5    6      0.35      0.00
   -3   -5    6     -0.33      0.00
   -2   -5    6     -6.12      0.00
   -1   -5    6     -2.95      0.00
    0   -5    6      1.04      0.00
    1   -5    6     -9.26      0.00
    2   -5    6     -3.70      0.00
    3   -5    6      6.74      0.00
    4   -5    6      2.59      0.00
    5   -5    6      2.22      0.00
    6   -5    6      3.02      0.00
    7   -5    6      2.31      0.00
    8   -5    6      4.49      0.00
    9   -5    6      3.75      0.00
   10   -5    6      0.47      0.00
   11   -5    6     -0.44      0.00
   12   -5    6     -1.56      0.00
   13   -5    6     -0.78      0.00
   14   -5    6      0.38      0.00
   15   -5    6     -0.15      0.00
  -19   -4    6     -4.35      0.00
  -18   -4    6      0.12      0.00
  -17   -4    6     -1.49      0.00
  -16   -4    6     -2.91      0.00
  -15   -4    6     -0.68      0.00
  -14   -4    6      2.82      0.00
  -13   -4    6      4.94      0.00
  -12   -4    6      1.44      0.00
  -11   -4    6      0.77      0.00
  -10   -4    6      2.82      0.00
   -9   -4    6     -3.05      0.00
   -8   -4    6     -7.23      0.00
   -7   -4    6     -4.33      0.00
   -6   -4    6      3.44      0.00
   -5   -4    6      3.87      0.00
   -4   -4    6      0.84      0.00
   -3   -4    6      7.87      0.00
   -2   -4    6      3.49      0.00
   -1   -4    6     -0.23      0.00
    0   -4    6      4.33      0.00
    1   -4    6     -6.85      0.00
    2   -4    6    -11.63      0.00
    3   -4    6      1.77      0.00
    4   -4    6      0.55      0.00
    5   -4    6     -1.48      0.00
    6   -4    6      2.40      0.00
    7   -4    6      0.22      0.00
    8   -4    6     -3.08      0.00
    9   -4    6     -2.70      0.00
   10   -4    6     -2.17      0.00
   11   -4    6     -1.90      0.00
   12   -4    6     -0.65      0.00
   13   -4    6      1.04      0.00
   14   -4    6      1.77      0.00
   15   -4    6     -0.32      0.00
   16   -4    6     -0.22      0.00
  -19   -3    6     -3.51      0.00
  -18   -3    6     -1.31      0.00
  -17   -3    6     -0.58      0.00
  -16   -3    6     -0.10      0.00
  -15   -3    6     -0.67      0.00
  -14   -3    6      0.55      0.00
  -13   -3    6      0.62      0.00
  -12   -3    6     -0.40      0.00
  -11   -3    6      0.38      0.00
  -10   -3    6      3.37      0.00
   -9   -3    6     -3.24      0.00
   -8   -3    6     -8.43      0.00
   -7   -3    6     -9.43      0.00
   -6   -3    6     -3.11      0.00
   -5   -3    6     -0.78      0.00
   -4   -3    6     -3.95      0.00
   -3   -3    6      8.87      0.00
   -2   -3    6     12.42      0.00
   -1   -3    6      2.55      0.00
    0   -3    6      2.55      0.00
    1   -3    6      0.39      0.00
    2   -3    6     -8.43      0.00
    3   -3    6     -2.09      0.00
    4   -3    6     -2.51      0.00
    5   -3    6     -8.62      0.00
    6   -3    6     -0.24      0.00
    7   -3    6      5.32      0.00
    8   -3    6      1.46      0.00
    9   -3    6     -3.14      0.00
   10   -3    6     -1.86      0.00
   11   -3    6     -1.30      0.00
   12   -3    6     -3.09      0.00
   13   -3    6     -0.13      0.00
   14   -3    6      2.92      0.00
   15   -3    6      1.66      0.00
   16   -3    6      2.26      0.00
   17   -3    6     -0.05      0.00
  -19   -2    6     -3.51      0.00
  -18   -2    6     -3.00      0.00
  -17   -2    6     -1.03      0.00
  -16   -2    6     -2.52      0.00
  -15   -2    6     -2.89      0.00
  -14   -2    6     -0.59      0.00
  -13   -2    6     -1.50      0.00
  -12   -2    6     -3.82      0.00
  -11   -2    6     -4.36      0.00
  -10   -2    6      0.99      0.00
   -9   -2    6     -3.55      0.00
   -8   -2    6     -4.84      0.00
   -7   -2    6     -7.87      0.00
   -6   -2    6     -9.18      0.00
   -5   -2    6     -5.59      0.00
   -4   -2    6     -3.80      0.00
   -3   -2    6      5.67      0.00
   -2   -2    6     22.37      0.00
   -1   -2    6     14.35      0.00
    0   -2    6      8.55      0.00
    1   -2    6      9.73      0.00
    2   -2    6     -0.27      0.00
    3   -2    6     -1.40      0.00
    4   -2    6     -1.43      0.00
    5   -2    6     -9.91      0.00
    6   -2    6     -8.16      0.00
    7   -2    6     -1.25      0.00
    8   -2    6      3.33      0.00
    9   -2    6     -0.06      0.00
   10   -2    6      2.08      0.00
   11   -2    6      3.13      0.00
   12   -2    6     -2.34      0.00
   13   -2    6     -1.80      0.00
   14   -2    6     -0.22      0.00
   15   -2    6     -3.27      0.00
   16   -2    6     -3.40      0.00
   17   -2    6     -4.26      0.00
   18   -2    6     -3.81      0.00
  -19   -1    6     -2.55      0.00
  -18   -1    6     -2.60      0.00
  -17   -1    6      1.91      0.00
  -16   -1    6      2.31      0.00
  -15   -1    6     -0.18      0.00
  -14   -1    6     -0.74      0.00
  -13   -1    6      0.88      0.00
  -12   -1    6      0.16      0.00
  -11   -1    6     -0.98      0.00
  -10   -1    6      5.16      0.00
   -9   -1    6      2.92      0.00
   -8   -1    6      6.04      0.00
   -7   -1    6      8.76      0.00
   -6   -1    6      1.58      0.00
   -5   -1    6      1.34      0.00
   -4   -1    6      1.97      0.00
   -3   -1    6     -4.12      0.00
   -2   -1    6      6.69      0.00
   -1   -1    6      3.61      0.00
    0   -1    6      6.84      0.00
    1   -1    6      9.01      0.00
    2   -1    6      7.03      0.00
    3   -1    6      4.31      0.00
    4   -1    6      0.61      0.00
    5   -1    6      1.66      0.00
    6   -1    6     -2.64      0.00
    7   -1    6     -4.65      0.00
    8   -1    6      0.43      0.00
    9   -1    6     -1.52      0.00
   10   -1    6      2.61      0.00
   11   -1    6      6.23      0.00
   12   -1    6     -0.38      0.00
   13   -1    6     -2.06      0.00
   14   -1    6      1.74      0.00
   15   -1    6     -1.02      0.00
   16   -1    6     -2.39      0.00
   17   -1    6     -1.51      0.00
   18   -1    6     -2.16      0.00
  -18    0    6     -0.52      0.00
  -17    0    6     -0.54      0.00
  -16    0    6      2.65      0.00
  -15    0    6      1.58      0.00
  -14    0    6     -1.01      0.00
  -13    0    6     -1.19      0.00
  -12    0    6     -1.47      0.00
  -11    0    6     -2.82      0.00
  -10    0    6      1.47      0.00
   -9    0    6     -1.99      0.00
   -8    0    6     -3.28      0.00
   -7    0    6      3.52      0.00
   -6    0    6     -0.60      0.00
   -5    0    6      4.29      0.00
   -4    0    6     14.12      0.00
   -3    0    6      6.70      0.00
   -2    0    6     -1.41      0.00
   -1    0    6     -5.06      0.00
    0    0    6     -1.22      0.00
    1    0    6    -10.94      0.00
    2    0    6     -8.01      0.00
    3    0    6     -3.99      0.00
    4    0    6    -11.40      0.00
    5    0    6     -2.49      0.00
    6    0    6     -2.78      0.00
    7    0    6     -6.65      0.00
    8    0    6     -0.37      0.00
    9    0    6      0.94      0.00
   10    0    6      2.28      0.00
   11    0    6      7.53      0.00
   12    0    6      3.75      0.00
   13    0    6     -0.72      0.00
   14    0    6      2.47      0.00
   15    0    6      0.94      0.00
   16    0    6      0.11      0.00
   17    0    6      3.18      0.00
   18    0    6      2.85      0.00
   19    0    6     -1.87      0.00
  -18    1    6      2.34      0.00
  -17    1    6     -0.03      0.00
  -16    1    6      1.62      0.00
  -15    1    6      1.77      0.00
  -14    1    6      2.75      0.00
  -13    1    6      3.71      0.00
  -12    1    6      2.80      0.00
  -11    1    6      0.13      0.00
  -10    1    6      4.69      0.00
   -9    1    6      3.68      0.00
   -8    1    6     -1.94      0.00
   -7    1    6     -2.50      0.00
   -6    1    6    -15.74      0.00
   -5    1    6    -16.92      0.00
   -4    1    6     -0.02      0.00
   -3    1    6      0.85      0.00
   -2    1    6    -15.34      0.00
   -1    1    6     -9.45      0.00
    0    1    6      5.16      0.00
    1    1    6     -4.51      0.00
    2    1    6     -7.05      0.00
    3    1    6     14.99      0.00
    4    1    6      7.56      0.00
    5    1    6      4.95      0.00
    6    1    6     10.74      0.00
    7    1    6     -0.96      0.00
    8    1    6     -7.16      0.00
    9    1    6     -6.88      0.00
   10    1    6     -8.47      0.00
   11    1    6     -3.37      0.00
   12    1    6     -0.66      0.00
   13    1    6      0.02      0.00
   14    1    6      2.84      0.00
   15    1    6      1.40      0.00
   16    1    6     -2.71      0.00
   17    1    6     -2.95      0.00
   18    1    6      0.58      0.00
   19    1    6     -2.80      0.00
  -18    2    6      1.24      0.00
  -17    2    6     -0.06      0.00
  -16    2    6      0.98      0.00
  -15    2    6      1.71      0.00
  -14    2    6      1.24      0.00
  -13    2    6      2.27      0.00
  -12    2    6      0.37      0.00
  -11    2    6     -2.99      0.00
  -10    2    6      0.88      0.00
   -9    2    6      2.76      0.00
   -8    2    6      1.09      0.00
   -7    2    6      4.70      0.00
   -6    2    6     -0.59      0.00
   -5    2    6     -3.15      0.00
   -4    2    6     12.11      0.00
   -3    2    6     18.71      0.00
   -2    2    6      8.70      0.00
   -1    2    6     15.90      0.00
    0    2    6     40.23      0.00
    1    2    6     24.76      0.00
    2    2    6    -11.55      0.00
    3    2    6     19.74      0.00
    4    2    6     21.44      0.00
    5    2    6      4.86      0.00
    6    2    6     16.48      0.00
    7    2    6     11.48      0.00
    8    2    6      3.79      0.00
    9    2    6      1.21      0.00
   10    2    6     -4.97      0.00
   11    2    6     -8.43      0.00
   12    2    6     -5.78      0.00
   13    2    6      2.35      0.00
   14    2    6      4.50      0.00
   15    2    6      4.09      0.00
   16    2    6      1.91      0.00
   17    2    6     -1.21      0.00
   18    2    6      3.33      0.00
   19    2    6      4.08      0.00
   20    2    6      3.15      0.00
  -17    3    6      0.11      0.00
  -16    3    6      0.32      0.00
  -15    3    6      0.66      0.00
  -14    3    6     -2.15      0.00
  -13    3    6      0.47      0.00
  -12    3    6      2.15      0.00
  -11    3    6      0.01      0.00
  -10    3    6     -1.19      0.00
   -9    3    6      1.09      0.00
   -8    3    6     -0.13      0.00
   -7    3    6      0.73      0.00
   -6    3    6      1.71      0.00
   -5    3    6     -0.56      0.00
   -4    3    6      2.92      0.00
   -3    3    6      4.74      0.00
   -2    3    6      3.18      0.00
   -1    3    6      2.76      0.00
    0    3    6     30.15      0.00
    1    3    6     18.84      0.00
    2    3    6    -29.14      0.00
    3    3    6     -8.64      0.00
    4    3    6     -2.94      0.00
    5    3    6    -26.51      0.00
    6    3    6    -22.04      0.00
    7    3    6    -12.84      0.00
    8    3    6    -11.20      0.00
    9    3    6     -4.77      0.00
   10    3    6      4.31      0.00
   11    3    6      2.10      0.00
   12    3    6     -4.16      0.00
   13    3    6      1.77      0.00
   14    3    6      1.21      0.00
   15    3    6      0.38      0.00
   16    3    6      3.00      0.00
   17    3    6     -0.22      0.00
   18    3    6     -2.17      0.00
   19    3    6     -1.63      0.00
   20    3    6     -2.50      0.00
  -17    4    6     -5.83      0.00
  -16    4    6     -4.85      0.00
  -15    4    6     -0.11      0.00
  -14    4    6      0.52      0.00
  -13    4    6      0.20      0.00
  -12    4    6      1.37      0.00
  -11    4    6      2.82      0.00
  -10    4    6      3.80      0.00
   -9    4    6      8.97      0.00
   -8    4    6      8.72      0.00
   -7    4    6      6.15      0.00
   -6    4    6      4.00      0.00
   -5    4    6      4.12      0.00
   -4    4    6      1.65      0.00
   -3    4    6     -6.96      0.00
   -2    4    6    -11.65      0.00
   -1    4    6    -17.11      0.00
    0    4    6      2.17      0.00
    1    4    6      4.76      0.00
    2    4    6    -17.49      0.00
    3    4    6      2.14      0.00
    4    4    6     30.88      0.00
    5    4    6     19.71      0.00
    6    4    6     11.81      0.00
    7    4    6     23.30      0.00
    8    4    6     15.39      0.00
    9    4    6      4.74      0.00
   10    4    6      7.66      0.00
   11    4    6      9.35      0.00
   12    4    6     -1.19      0.00
   13    4    6      0.36      0.00
   14    4    6      1.02      0.00
   15    4    6     -0.39      0.00
   16    4    6      2.98      0.00
   17    4    6      3.16      0.00
   18    4    6     -2.12      0.00
   19    4    6     -2.14      0.00
   20    4    6     -2.36      0.00
   21    4    6     -0.80      0.00
  -16    5    6     -4.41      0.00
  -15    5    6     -3.63      0.00
  -14    5    6      0.04      0.00
  -13    5    6      1.92      0.00
  -12    5    6      1.98      0.00
  -11    5    6      1.12      0.00
  -10    5    6      1.23      0.00
   -9    5    6      0.55      0.00
   -8    5    6     -1.47      0.00
   -7    5    6      0.23      0.00
   -6    5    6     -0.43      0.00
   -5    5    6      4.89      0.00
   -4    5    6      4.49      0.00
   -3    5    6     -1.22      0.00
   -2    5    6     -0.67      0.00
   -1    5    6     -5.01      0.00
    0    5    6     -8.50      0.00
    1    5    6     -5.46      0.00
    2    5    6    -20.93      0.00
    3    5    6    -25.75      0.00
    4    5    6     -7.02      0.00
    5    5    6    -12.32      0.00
    6    5    6    -18.46      0.00
    7    5    6      0.71      0.00
    8    5    6      7.71      0.00
    9    5    6     -1.56      0.00
   10    5    6     -6.52      0.00
   11    5    6      1.98      0.00
   12    5    6     -1.74      0.00
   13    5    6     -2.54      0.00
   14    5    6     -1.53      0.00
   15    5    6     -4.47      0.00
   16    5    6     -3.53      0.00
   17    5    6      1.48      0.00
   18    5    6     -1.06      0.00
   19    5    6     -1.71      0.00
   20    5    6     -3.07      0.00
   21    5    6     -2.83      0.00
  -15    6    6     -1.09      0.00
  -14    6    6     -1.71      0.00
  -13    6    6      0.17      0.00
  -12    6    6      0.50      0.00
  -11    6    6      0.20      0.00
  -10    6    6      1.38      0.00
   -9    6    6     -1.88      0.00
   -8    6    6     -3.21      0.00
   -7    6    6     -1.65      0.00
   -6    6    6     -4.19      0.00
   -5    6    6      1.21      0.00
   -4    6    6      3.95      0.00
   -3    6    6      2.33      0.00
   -2    6    6      7.50      0.00
   -1    6    6     11.56      0.00
    0    6    6      1.79      0.00
    1    6    6      4.85      0.00
    2    6    6     -1.18      0.00
    3    6    6     -6.88      0.00
    4    6    6     -2.50      0.00
    5    6    6     -5.27      0.00
    6    6    6    -11.77      0.00
    7    6    6     -6.93      0.00
    8    6    6      3.81      0.00
    9    6    6     -1.24      0.00
   10    6    6     -8.95      0.00
   11    6    6      0.55      0.00
   12    6    6      3.95      0.00
   13    6    6      1.07      0.00
   14    6    6      0.73      0.00
   15    6    6     -0.87      0.00
   16    6    6     -3.10      0.00
   17    6    6      0.44      0.00
   18    6    6      1.22      0.00
   19    6    6      0.79      0.00
   20    6    6      1.07      0.00
   21    6    6      0.59      0.00
  -15    7    6      1.28      0.00
  -14    7    6     -0.21      0.00
  -13    7    6     -0.06      0.00
  -12    7    6     -3.76      0.00
  -11    7    6     -3.56      0.00
  -10    7    6      1.02      0.00
   -9    7    6      0.28      0.00
   -8    7    6     -0.26      0.00
   -7    7    6      1.10      0.00
   -6    7    6     -1.37      0.00
   -5    7    6     -4.28      0.00
   -4    7    6     -0.65      0.00
   -3    7    6      0.92      0.00
   -2    7    6      1.71      0.00
   -1    7    6      4.52      0.00
    0    7    6     -2.04      0.00
    1    7    6     -2.56      0.00
    2    7    6     -2.41      0.00
    3    7    6     -2.89      0.00
    4    7    6     -2.44      0.00
    5    7    6      2.23      0.00
    6    7    6      1.86      0.00
    7    7    6     -4.67      0.00
    8    7    6     -2.33      0.00
    9    7    6     -4.49      0.00
   10    7    6     -9.64      0.00
   11    7    6     -4.26      0.00
   12    7    6      1.37      0.00
   13    7    6     -1.68      0.00
   14    7    6     -3.08      0.00
   15    7    6      0.68      0.00
   16    7    6      0.10      0.00
   17    7    6      0.36      0.00
   18    7    6      1.41      0.00
   19    7    6     -0.51      0.00
   20    7    6      1.22      0.00
   21    7    6     -0.30      0.00
  -14    8    6     -1.60      0.00
  -13    8    6      2.15      0.00
  -12    8    6      1.56      0.00
  -11    8    6      0.32      0.00
  -10    8    6      2.21      0.00
   -9    8    6      2.59      0.00
   -8    8    6      1.31      0.00
   -7    8    6      0.78      0.00
   -6    8    6      0.00      0.00
   -5    8    6     -5.35      0.00
   -4    8    6     -0.71      0.00
   -3    8    6      2.96      0.00
   -2    8    6      2.66      0.00
   -1    8    6      4.57      0.00
    0    8    6      4.03      0.00
    1    8    6      0.67      0.00
    2    8    6      0.41      0.00
    3    8    6     -2.02      0.00
    4    8    6     -5.33      0.00
    5    8    6     -5.62      0.00
    6    8    6      1.87      0.00
    7    8    6      0.61      0.00
    8    8    6     -0.67      0.00
    9    8    6      1.76      0.00
   10    8    6     -2.69      0.00
   11    8    6     -2.89      0.00
   12    8    6      0.20      0.00
   13    8    6      0.65      0.00
   14    8    6     -2.63      0.00
   15    8    6      0.63      0.00
   16    8    6      0.68      0.00
   17    8    6     -0.75      0.00
   18    8    6      0.55      0.00
   19    8    6      0.07      0.00
   20    8    6      0.87      0.00
   21    8    6     -3.72      0.00
   22    8    6     -0.86      0.00
  -13    9    6     -0.52      0.00
  -12    9    6      0.98      0.00
  -11    9    6      1.37      0.00
  -10    9    6      2.07      0.00
   -9    9    6      1.70      0.00
   -8    9    6      2.72      0.00
   -7    9    6      3.61      0.00
   -6    9    6      1.89      0.00
   -5    9    6     -3.76      0.00
   -4    9    6     -3.93      0.00
   -3    9    6     -1.88      0.00
   -2    9    6     -3.85      0.00
   -1    9    6     -3.49      0.00
    0    9    6      3.35      0.00
    1    9    6      3.12      0.00
    2    9    6     -1.06      0.00
    3    9    6     -0.80      0.00
    4    9    6      1.35      0.00
    5    9    6     -1.99      0.00
    6    9    6      6.61      0.00
    7    9    6      9.05      0.00
    8    9    6      5.48      0.00
    9    9    6      9.72      0.00
   10    9    6      6.29      0.00
   11    9    6      1.58      0.00
   12    9    6     -1.43      0.00
   13    9    6      1.80      0.00
   14    9    6     -2.69      0.00
   15    9    6     -2.10      0.00
   16    9    6     -0.20      0.00
   17    9    6     -1.59      0.00
   18    9    6     -0.97      0.00
   19    9    6      1.38      0.00
   20    9    6      2.59      0.00
   21    9    6     -2.00      0.00
   22    9    6     -2.30      0.00
  -12   10    6     -1.49      0.00
  -11   10    6     -1.89      0.00
  -10   10    6     -1.17      0.00
   -9   10    6     -1.48      0.00
   -8   10    6      1.58      0.00
   -7   10    6      3.42      0.00
   -6   10    6      1.45      0.00
   -5   10    6      0.59      0.00
   -4   10    6     -1.51      0.00
   -3   10    6      0.36      0.00
   -2   10    6     -3.69      0.00
   -1   10    6     -7.47      0.00
    0   10    6     -1.51      0.00
    1   10    6      2.59      0.00
    2   10    6     -2.72      0.00
    3   10    6     -2.61      0.00
    4   10    6      2.11      0.00
    5   10    6     -2.04      0.00
    6   10    6     -0.39      0.00
    7   10    6      4.53      0.00
    8   10    6      1.30      0.00
    9   10    6      4.79      0.00
   10   10    6      5.92      0.00
   11   10    6     -0.01      0.00
   12   10    6     -3.19      0.00
   13   10    6      3.71      0.00
   14   10    6      3.80      0.00
   15   10    6      3.30      0.00
   16   10    6      4.60      0.00
   17   10    6      1.64      0.00
   18   10    6     -0.44      0.00
   19   10    6     -0.62      0.00
   20   10    6      1.67      0.00
   21   10    6      1.27      0.00
   22   10    6     -1.32      0.00
  -12   11    6     -1.36      0.00
  -11   11    6     -1.36      0.00
  -10   11    6     -1.58      0.00
   -9   11    6     -3.48      0.00
   -8   11    6     -0.20      0.00
   -7   11    6      1.66      0.00
   -6   11    6     -1.30      0.00
   -5   11    6      0.97      0.00
   -4   11    6      1.64      0.00
   -3   11    6      2.81      0.00
   -2   11    6     -1.00      0.00
   -1   11    6     -2.91      0.00
    0   11    6     -1.05      0.00
    1   11    6      2.74      0.00
    2   11    6     -2.89      0.00
    3   11    6     -7.33      0.00
    4   11    6      0.30      0.00
    5   11    6      0.38      0.00
    6   11    6     -1.69      0.00
    7   11    6      4.80      0.00
    8   11    6      1.99      0.00
    9   11    6      0.44      0.00
   10   11    6      1.77      0.00
   11   11    6     -2.60      0.00
   12   11    6     -1.77      0.00
   13   11    6      3.01      0.00
   14   11    6      3.12      0.00
   15   11    6     -1.71      0.00
   16   11    6     -0.46      0.00
   17   11    6      2.37      0.00
   18   11    6      2.58      0.00
   19   11    6      0.36      0.00
   20   11    6      4.36      0.00
   21   11    6      5.84      0.00
   22   11    6      2.64      0.00
  -11   12    6      1.59      0.00
  -10   12    6      0.78      0.00
   -9   12    6     -2.66      0.00
   -8   12    6     -0.37      0.00
   -7   12    6      1.48      0.00
   -6   12    6     -2.37      0.00
   -5   12    6     -4.07      0.00
   -4   12    6     -2.81      0.00
   -3   12    6     -1.10      0.00
   -2   12    6     -1.96      0.00
   -1   12    6     -1.30      0.00
    0   12    6     -1.95      0.00
    1   12    6      0.31      0.00
    2   12    6     -1.11      0.00
    3   12    6     -6.60      0.00
    4   12    6     -1.56      0.00
    5   12    6     -0.85      0.00
    6   12    6     -4.14      0.00
    7   12    6     -0.16      0.00
    8   12    6      4.71      0.00
    9   12    6      4.88      0.00
   10   12    6      3.83      0.00
   11   12    6     -1.59      0.00
   12   12    6     -4.25      0.00
   13   12    6     -2.18      0.00
   14   12    6      3.33      0.00
   15   12    6      0.81      0.00
   16   12    6     -0.54      0.00
   17   12    6      2.31      0.00
   18   12    6      1.26      0.00
   19   12    6     -0.77      0.00
   20   12    6      3.52      0.00
   21   12    6      5.56      0.00
   22   12    6      5.42      0.00
  -10   13    6      1.41      0.00
   -9   13    6     -0.30      0.00
   -8   13    6     -0.40      0.00
   -7   13    6      0.54      0.00
   -6   13    6      2.36      0.00
   -5   13    6      3.19      0.00
   -4   13    6      2.45      0.00
   -3   13    6     -0.11      0.00
   -2   13    6     -2.32      0.00
   -1   13    6      0.28      0.00
    0   13    6      1.07      0.00
    1   13    6      0.07      0.00
    2   13    6      2.20      0.00
    3   13    6      0.86      0.00
    4   13    6      0.59      0.00
    5   13    6      1.88      0.00
    6   13    6      0.69      0.00
    7   13    6      0.38      0.00
    8   13    6      8.02      0.00
    9   13    6     10.77      0.00
   10   13    6      8.73      0.00
   11   13    6      5.04      0.00
   12   13    6      1.45      0.00
   13   13    6     -0.50      0.00
   14   13    6      0.56      0.00
   15   13    6     -0.20      0.00
   16   13    6     -1.33      0.00
   17   13    6      1.78      0.00
   18   13    6      0.28      0.00
   19   13    6      0.12      0.00
   20   13    6      4.79      0.00
   21   13    6      7.08      0.00
   22   13    6      5.67      0.00
   -8   14    6      3.60      0.00
   -7   14    6      1.91      0.00
   -6   14    6      1.31      0.00
   -5   14    6      3.46      0.00
   -4   14    6      2.67      0.00
   -3   14    6     -0.85      0.00
   -2   14    6     -5.40      0.00
   -1   14    6     -4.40      0.00
    0   14    6     -4.59      0.00
    1   14    6     -6.93      0.00
    2   14    6     -5.79      0.00
    3   14    6     -1.80      0.00
    4   14    6     -2.98      0.00
    5   14    6     -4.31      0.00
    6   14    6     -2.91      0.00
    7   14    6     -3.80      0.00
    8   14    6     -3.63      0.00
    9   14    6      3.42      0.00
   10   14    6      6.67      0.00
   11   14    6      4.18      0.00
   12   14    6      1.25      0.00
   13   14    6     -1.50      0.00
   14   14    6     -2.78      0.00
   15   14    6     -2.02      0.00
   16   14    6     -4.40      0.00
   17   14    6     -1.68      0.00
   18   14    6      0.01      0.00
   19   14    6      0.85      0.00
   20   14    6      6.08      0.00
   21   14    6      6.65      0.00
   -7   15    6     -1.86      0.00
   -6   15    6     -6.16      0.00
   -5   15    6     -3.34      0.00
   -4   15    6     -1.91      0.00
   -3   15    6     -0.62      0.00
   -2   15    6     -0.41      0.00
   -1   15    6      1.04      0.00
    0   15    6     -0.20      0.00
    1   15    6      0.60      0.00
    2   15    6     -2.82      0.00
    3   15    6      1.54      0.00
    4   15    6      2.13      0.00
    5   15    6     -5.75      0.00
    6   15    6     -3.35      0.00
    7   15    6      0.24      0.00
    8   15    6     -5.96      0.00
    9   15    6     -2.14      0.00
   10   15    6      2.66      0.00
   11   15    6      3.48      0.00
   12   15    6      4.69      0.00
   13   15    6      2.08      0.00
   14   15    6     -0.82      0.00
   15   15    6      0.92      0.00
   16   15    6      0.07      0.00
   17   15    6      0.57      0.00
   18   15    6      0.76      0.00
   19   15    6     -2.63      0.00
   20   15    6      1.21      0.00
   21   15    6      3.08      0.00
   -6   16    6     -3.36      0.00
   -5   16    6     -0.31      0.00
   -4   16    6      1.58      0.00
   -3   16    6      2.73      0.00
   -2   16    6      1.57      0.00
   -1   16    6     -0.11      0.00
    0   16    6     -4.28      0.00
    1   16    6     -3.32      0.00
    2   16    6     -6.54      0.00
    3   16    6     -3.21      0.00
    4   16    6      2.31      0.00
    5   16    6     -3.19      0.00
    6   16    6     -2.99      0.00
    7   16    6     -0.01      0.00
    8   16    6     -2.62      0.00
    9   16    6      0.11      0.00
   10   16    6      6.07      0.00
   11   16    6      2.53      0.00
   12   16    6      0.59      0.00
   13   16    6      1.81      0.00
   14   16    6      0.52      0.00
   15   16    6     -1.09      0.00
   16   16    6     -2.58      0.00
   17   16    6     -3.90      0.00
   18   16    6     -2.23      0.00
   19   16    6     -2.28      0.00
   20   16    6     -0.68      0.00
   21   16    6      0.48      0.00
   -5   17    6     -3.37      0.00
   -4   17    6     -2.02      0.00
   -3   17    6      1.98      0.00
   -2   17    6      3.33      0.00
   -1   17    6      5.12      0.00
    0   17    6      1.41      0.00
    1   17    6     -1.38      0.00
    2   17    6     -1.71      0.00
    3   17    6     -4.91      0.00
    4   17    6     -0.29      0.00
    5   17    6      0.42      0.00
    6   17    6      0.34      0.00
    7   17    6      2.39      0.00
    8   17    6      0.46      0.00
    9   17    6     -4.06      0.00
   10   17    6      3.27      0.00
   11   17    6      3.01      0.00
   12   17    6      0.11      0.00
   13   17    6      2.61      0.00
   14   17    6      3.13      0.00
   15   17    6     -0.93      0.00
   16   17    6     -3.30      0.00
   17   17    6     -4.62      0.00
   18   17    6     -3.22      0.00
   19   17    6     -2.10      0.00
   20   17    6     -2.41      0.00
   -3   18    6     -0.60      0.00
   -2   18    6     -3.52      0.00
   -1   18    6     -0.59      0.00
    0   18    6     -0.40      0.00
    1   18    6     -0.38      0.00
    2   18    6      4.64      0.00
    3   18    6     -1.71      0.00
    4   18    6      0.49      0.00
    5   18    6      3.38      0.00
    6   18    6      1.81      0.00
    7   18    6      2.14      0.00
    8   18    6      4.22      0.00
    9   18    6      0.11      0.00
   10   18    6      0.05      0.00
   11   18    6      0.67      0.00
   12   18    6     -2.83      0.00
   13   18    6     -3.61      0.00
   14   18    6      0.18      0.00
   15   18    6      1.83      0.00
   16   18    6      0.73      0.00
   17   18    6     -2.03      0.00
   18   18    6     -1.98      0.00
   19   18    6     -2.78      0.00
   20   18    6     -4.62      0.00
   -1   19    6      0.33      0.00
    0   19    6      0.49      0.00
    1   19    6     -0.78      0.00
    2   19    6      2.30      0.00
    3   19    6     -2.10      0.00
    4   19    6     -3.21      0.00
    5   19    6     -0.88      0.00
    6   19    6     -2.36      0.00
    7   19    6     -7.26      0.00
    8   19    6     -3.57      0.00
    9   19    6     -0.52      0.00
   10   19    6     -4.63      0.00
   11   19    6     -0.02      0.00
   12   19    6      4.12      0.00
   13   19    6      2.75      0.00
   14   19    6     -0.71      0.00
   15   19    6     -2.34      0.00
   16   19    6     -2.61      0.00
   17   19    6     -3.35      0.00
   18   19    6     -0.33      0.00
   19   19    6     -0.02      0.00
    1   20    6     -1.46      0.00
    2   20    6     -0.85      0.00
    3   20    6     -3.86      0.00
    4   20    6     -9.16      0.00
    5   20    6     -4.95      0.00
    6   20    6      0.24      0.00
    7   20    6     -2.72      0.00
    8   20    6     -2.25      0.00
    9   20    6      0.75      0.00
   10   20    6     -4.69      0.00
   11   20    6     -3.33      0.00
   12   20    6      3.14      0.00
   13   20    6      4.68      0.00
   14   20    6      1.27      0.00
   15   20    6      0.28      0.00
   16   20    6      0.36      0.00
   17   20    6     -0.74      0.00
    3   21    6      7.05      0.00
    4   21    6      3.75      0.00
    5   21    6      2.46      0.00
    6   21    6      3.67      0.00
    7   21    6      3.15      0.00
    8   21    6      1.16      0.00
    9   21    6      2.77      0.00
   10   21    6     -1.06      0.00
   11   21    6     -4.35      0.00
   12   21    6     -0.32      0.00
   13   21    6      0.54      0.00
   14   21    6     -0.04      0.00
   15   21    6      0.99      0.00
   16   21    6      1.47      0.00
    8   22    6      1.45      0.00
    9   22    6      5.24      0.00
   10   22    6      6.31      0.00
   11   22    6      4.33      0.00
   12   22    6      2.75      0.00
   13   22    6     -2.22      0.00
   -9  -17    7     -0.57      0.00
   -8  -17    7      2.29      0.00
   -7  -17    7     -0.91      0.00
   -6  -17    7     -0.11      0.00
  -13  -16    7      2.08      0.00
  -12  -16    7      0.80      0.00
  -11  -16    7      0.00      0.00
  -10  -16    7     -1.22      0.00
   -9  -16    7     -3.00      0.00
   -8  -16    7     -0.37      0.00
   -7  -16    7      2.62      0.00
   -6  -16    7      1.59      0.00
   -5  -16    7      1.03      0.00
   -4  -16    7     -0.35      0.00
   -3  -16    7     -3.35      0.00
   -2  -16    7     -0.71      0.00
   -1  -16    7      2.09      0.00
  -15  -15    7      1.04      0.00
  -14  -15    7     -1.20      0.00
  -13  -15    7      2.51      0.00
  -12  -15    7      3.79      0.00
  -11  -15    7      5.06      0.00
  -10  -15    7      5.32      0.00
   -9  -15    7      0.37      0.00
   -8  -15    7     -2.88      0.00
   -7  -15    7     -1.05      0.00
   -6  -15    7     -1.27      0.00
   -5  -15    7     -1.56      0.00
   -4  -15    7     -1.14      0.00
   -3  -15    7     -4.53      0.00
   -2  -15    7     -4.78      0.00
   -1  -15    7     -2.79      0.00
    0  -15    7     -2.29      0.00
    1  -15    7      0.77      0.00
  -16  -14    7     -1.78      0.00
  -15  -14    7     -1.52      0.00
  -14  -14    7     -1.77      0.00
  -13  -14    7      1.20      0.00
  -12  -14    7      2.77      0.00
  -11  -14    7      3.70      0.00
  -10  -14    7      2.78      0.00
   -9  -14    7      1.20      0.00
   -8  -14    7      0.21      0.00
   -7  -14    7      2.91      0.00
   -6  -14    7      6.08      0.00
   -5  -14    7      3.03      0.00
   -4  -14    7      2.65      0.00
   -3  -14    7      0.65      0.00
   -2  -14    7     -1.41      0.00
   -1  -14    7     -1.22      0.00
    0  -14    7     -2.17      0.00
    1  -14    7     -2.02      0.00
    2  -14    7      2.48      0.00
    3  -14    7      2.89      0.00
    4  -14    7     -0.02      0.00
  -17  -13    7     -0.44      0.00
  -16  -13    7     -0.99      0.00
  -15  -13    7     -2.53      0.00
  -14  -13    7     -4.58      0.00
  -13  -13    7     -4.39      0.00
  -12  -13    7     -1.06      0.00
  -11  -13    7      1.01      0.00
  -10  -13    7      0.08      0.00
   -9  -13    7      1.96      0.00
   -8  -13    7      2.66      0.00
   -7  -13    7     -0.47      0.00
   -6  -13    7     -0.48      0.00
   -5  -13    7     -3.52      0.00
   -4  -13    7     -1.54      0.00
   -3  -13    7      0.22      0.00
   -2  -13    7      0.62      0.00
   -1  -13    7      2.71      0.00
    0  -13    7      2.79      0.00
    1  -13    7     -1.55      0.00
    2  -13    7     -1.36      0.00
    3  -13    7     -2.36      0.00
    4  -13    7     -2.68      0.00
    5  -13    7     -0.36      0.00
    6  -13    7     -1.40      0.00
  -17  -12    7     -1.42      0.00
  -16  -12    7      1.27      0.00
  -15  -12    7      1.86      0.00
  -14  -12    7      0.19      0.00
  -13  -12    7     -2.86      0.00
  -12  -12    7     -1.76      0.00
  -11  -12    7      1.18      0.00
  -10  -12    7     -0.72      0.00
   -9  -12    7     -0.89      0.00
   -8  -12    7      3.90      0.00
   -7  -12    7      0.16      0.00
   -6  -12    7     -2.08      0.00
   -5  -12    7     -2.41      0.00
   -4  -12    7     -0.89      0.00
   -3  -12    7     -1.68      0.00
   -2  -12    7     -3.77      0.00
   -1  -12    7     -4.14      0.00
    0  -12    7     -4.37      0.00
    1  -12    7     -4.53      0.00
    2  -12    7      0.49      0.00
    3  -12    7     -0.58      0.00
    4  -12    7      1.04      0.00
    5  -12    7      3.50      0.00
    6  -12    7      2.57      0.00
    7  -12    7      1.01      0.00
  -18  -11    7     -2.37      0.00
  -17  -11    7     -4.69      0.00
  -16  -11    7     -2.29      0.00
  -15  -11    7     -1.14      0.00
  -14  -11    7     -1.41      0.00
  -13  -11    7     -2.25      0.00
  -12  -11    7     -3.35      0.00
  -11  -11    7     -0.24      0.00
  -10  -11    7     -1.10      0.00
   -9  -11    7     -3.45      0.00
   -8  -11    7      1.31      0.00
   -7  -11    7     -0.30      0.00
   -6  -11    7     -0.87      0.00
   -5  -11    7      2.10      0.00
   -4  -11    7      3.69      0.00
   -3  -11    7     -0.11      0.00
   -2  -11    7     -1.83      0.00
   -1  -11    7      2.49      0.00
    0  -11    7      4.70      0.00
    1  -11    7      3.54      0.00
    2  -11    7      6.34      0.00
    3  -11    7      3.30      0.00
    4  -11    7      1.77      0.00
    5  -11    7      1.30      0.00
    6  -11    7      1.45      0.00
    7  -11    7      1.13      0.00
    8  -11    7      2.06      0.00
    9  -11    7      1.68      0.00
  -18  -10    7      0.73      0.00
  -17  -10    7     -0.08      0.00
  -16  -10    7      2.74      0.00
  -15  -10    7      2.67      0.00
  -14  -10    7     -0.82      0.00
  -13  -10    7     -0.87      0.00
  -12  -10    7     -1.50      0.00
  -11  -10    7      0.69      0.00
  -10  -10    7      0.43      0.00
   -9  -10    7     -1.67      0.00
   -8  -10    7      0.91      0.00
   -7  -10    7      1.62      0.00
   -6  -10    7     -0.02      0.00
   -5  -10    7      1.33      0.00
   -4  -10    7      5.76      0.00
   -3  -10    7      4.10      0.00
   -2  -10    7     -1.28      0.00
   -1  -10    7      0.10      0.00
    0  -10    7      3.47      0.00
    1  -10    7     -0.73      0.00
    2  -10    7     -1.42      0.00
    3  -10    7      0.39      0.00
    4  -10    7      0.00      0.00
    5  -10    7      0.18      0.00
    6  -10    7      0.28      0.00
    7  -10    7     -2.82      0.00
    8  -10    7     -1.80      0.00
    9  -10    7      2.55      0.00
   10  -10    7      2.77      0.00
  -19   -9    7     -1.47      0.00
  -18   -9    7     -1.57      0.00
  -17   -9    7     -0.77      0.00
  -16   -9    7      1.03      0.00
  -15   -9    7      0.70      0.00
  -14   -9    7     -0.45      0.00
  -13   -9    7     -0.13      0.00
  -12   -9    7     -1.78      0.00
  -11   -9    7     -1.54      0.00
  -10   -9    7      0.70      0.00
   -9   -9    7     -0.01      0.00
   -8   -9    7     -0.19      0.00
   -7   -9    7      2.72      0.00
   -6   -9    7      3.56      0.00
   -5   -9    7      2.09      0.00
   -4   -9    7      4.14      0.00
   -3   -9    7      6.55      0.00
   -2   -9    7     -0.56      0.00
   -1   -9    7     -1.29      0.00
    0   -9    7      3.93      0.00
    1   -9    7     -1.39      0.00
    2   -9    7     -5.01      0.00
    3   -9    7     -0.53      0.00
    4   -9    7     -1.09      0.00
    5   -9    7     -2.17      0.00
    6   -9    7      0.52      0.00
    7   -9    7      1.63      0.00
    8   -9    7      0.30      0.00
    9   -9    7      4.51      0.00
   10   -9    7      5.82      0.00
   11   -9    7      4.12      0.00
  -19   -8    7     -1.60      0.00
  -18   -8    7     -5.01      0.00
  -17   -8    7     -0.89      0.00
  -16   -8    7      1.21      0.00
  -15   -8    7     -0.87      0.00
  -14   -8    7     -1.32      0.00
  -13   -8    7     -0.37      0.00
  -12   -8    7     -0.35      0.00
  -11   -8    7     -1.09      0.00
  -10   -8    7      0.28      0.00
   -9   -8    7      0.35      0.00
   -8   -8    7     -1.57      0.00
   -7   -8    7     -2.41      0.00
   -6   -8    7      0.64      0.00
   -5   -8    7     -1.80      0.00
   -4   -8    7     -4.60      0.00
   -3   -8    7      0.84      0.00
   -2   -8    7     -0.55      0.00
   -1   -8    7      3.16      0.00
    0   -8    7      6.84      0.00
    1   -8    7      0.77      0.00
    2   -8    7     -6.25      0.00
    3   -8    7     -1.83      0.00
    4   -8    7      3.02      0.00
    5   -8    7     -2.37      0.00
    6   -8    7     -4.23      0.00
    7   -8    7      1.26      0.00
    8   -8    7     -1.16      0.00
    9   -8    7     -0.89      0.00
   10   -8    7      0.00      0.00
   11   -8    7     -0.32      0.00
   12   -8    7      1.18      0.00
  -19   -7    7      2.99      0.00
  -18   -7    7     -2.33      0.00
  -17   -7    7     -1.71      0.00
  -16   -7    7     -0.90      0.00
  -15   -7    7     -0.27      0.00
  -14   -7    7      2.12      0.00
  -13   -7    7      2.15      0.00
  -12   -7    7      0.76      0.00
  -11   -7    7      1.44      0.00
  -10   -7    7      1.51      0.00
   -9   -7    7      3.40      0.00
   -8   -7    7      3.25      0.00
   -7   -7    7     -2.10      0.00
   -6   -7    7     -0.27      0.00
   -5   -7    7      1.00      0.00
   -4   -7    7     -3.01      0.00
   -3   -7    7     -3.42      0.00
   -2   -7    7     -3.06      0.00
   -1   -7    7      2.21      0.00
    0   -7    7      3.84      0.00
    1   -7    7      2.93      0.00
    2   -7    7     -2.95      0.00
    3   -7    7     -3.99      0.00
    4   -7    7      4.21      0.00
    5   -7    7      0.08      0.00
    6   -7    7     -5.10      0.00
    7   -7    7      0.19      0.00
    8   -7    7     -1.42      0.00
    9   -7    7     -3.52      0.00
   10   -7    7     -2.31      0.00
   11   -7    7     -1.67      0.00
   12   -7    7      2.55      0.00
   13   -7    7      6.13      0.00
  -19   -6    7      7.33      0.00
  -18   -6    7      5.23      0.00
  -17   -6    7      2.36      0.00
  -16   -6    7      1.93      0.00
  -15   -6    7      0.48      0.00
  -14   -6    7      3.06      0.00
  -13   -6    7      2.42      0.00
  -12   -6    7     -1.38      0.00
  -11   -6    7      0.82      0.00
  -10   -6    7     -1.11      0.00
   -9   -6    7     -1.78      0.00
   -8   -6    7      0.63      0.00
   -7   -6    7     -1.40      0.00
   -6   -6    7     -1.53      0.00
   -5   -6    7      1.43      0.00
   -4   -6    7     -0.94      0.00
   -3   -6    7     -3.17      0.00
   -2   -6    7      0.91      0.00
   -1   -6    7      6.30      0.00
    0   -6    7      3.13      0.00
    1   -6    7      0.89      0.00
    2   -6    7      1.44      0.00
    3   -6    7     -3.69      0.00
    4   -6    7     -1.61      0.00
    5   -6    7     -2.08      0.00
    6   -6    7     -4.71      0.00
    7   -6    7      1.16      0.00
    8   -6    7      4.63      0.00
    9   -6    7      1.40      0.00
   10   -6    7     -0.82      0.00
   11   -6    7     -2.56      0.00
   12   -6    7     -1.52      0.00
   13   -6    7      2.64      0.00
   14   -6    7      0.74      0.00
  -19   -5    7      3.98      0.00
  -18   -5    7      5.17      0.00
  -17   -5    7      2.66      0.00
  -16   -5    7      3.75      0.00
  -15   -5    7      0.44      0.00
  -14   -5    7      2.12      0.00
  -13   -5    7      1.32      0.00
  -12   -5    7     -1.12      0.00
  -11   -5    7      3.08      0.00
  -10   -5    7      2.96      0.00
   -9   -5    7     -0.60      0.00
   -8   -5    7      1.23      0.00
   -7   -5    7      1.51      0.00
   -6   -5    7      0.05      0.00
   -5   -5    7      1.04      0.00
   -4   -5    7      0.15      0.00
   -3   -5    7     -1.18      0.00
   -2   -5    7      1.23      0.00
   -1   -5    7      8.21      0.00
    0   -5    7      3.71      0.00
    1   -5    7     -2.93      0.00
    2   -5    7      5.69      0.00
    3   -5    7      4.81      0.00
    4   -5    7      0.30      0.00
    5   -5    7      0.98      0.00
    6   -5    7     -3.74      0.00
    7   -5    7     -4.68      0.00
    8   -5    7     -0.17      0.00
    9   -5    7     -1.63      0.00
   10   -5    7     -2.23      0.00
   11   -5    7     -0.98      0.00
   12   -5    7     -1.15      0.00
   13   -5    7      0.20      0.00
   14   -5    7     -2.05      0.00
   15   -5    7     -2.22      0.00
  -19   -4    7     -1.66      0.00
  -18   -4    7     -1.13      0.00
  -17   -4    7     -1.32      0.00
  -16   -4    7      1.79      0.00
  -15   -4    7      1.60      0.00
  -14   -4    7      1.12      0.00
  -13   -4    7     -0.50      0.00
  -12   -4    7     -0.26      0.00
  -11   -4    7      2.57      0.00
  -10   -4    7      0.93      0.00
   -9   -4    7     -6.14      0.00
   -8   -4    7     -3.26      0.00
   -7   -4    7      0.58      0.00
   -6   -4    7      0.71      0.00
   -5   -4    7     -2.82      0.00
   -4   -4    7     -2.09      0.00
   -3   -4    7     -0.55      0.00
   -2   -4    7     -3.93      0.00
   -1   -4    7      2.16      0.00
    0   -4    7      1.43      0.00
    1   -4    7     -7.70      0.00
    2   -4    7     -1.79      0.00
    3   -4    7      1.45      0.00
    4   -4    7     -7.87      0.00
    5   -4    7     -4.03      0.00
    6   -4    7     -2.36      0.00
    7   -4    7     -4.51      0.00
    8   -4    7     -1.01      0.00
    9   -4    7      1.22      0.00
   10   -4    7      2.87      0.00
   11   -4    7      1.60      0.00
   12   -4    7     -1.58      0.00
   13   -4    7     -0.82      0.00
   14   -4    7      0.23      0.00
   15   -4    7      1.88      0.00
   16   -4    7      4.22      0.00
  -19   -3    7     -1.22      0.00
  -18   -3    7      0.50      0.00
  -17   -3    7     -2.28      0.00
  -16   -3    7     -3.71      0.00
  -15   -3    7      0.06      0.00
  -14   -3    7     -0.67      0.00
  -13   -3    7     -3.03      0.00
  -12   -3    7     -2.54      0.00
  -11   -3    7      3.26      0.00
  -10   -3    7      6.11      0.00
   -9   -3    7      0.15      0.00
   -8   -3    7      2.31      0.00
   -7   -3    7      4.68      0.00
   -6   -3    7      4.92      0.00
   -5   -3    7     -1.34      0.00
   -4   -3    7     -0.46      0.00
   -3   -3    7      6.50      0.00
   -2   -3    7      0.63      0.00
   -1   -3    7     -0.91      0.00
    0   -3    7      5.44      0.00
    1   -3    7     -0.50      0.00
    2   -3    7     -1.12      0.00
    3   -3    7      4.89      0.00
    4   -3    7     -6.69      0.00
    5   -3    7     -5.58      0.00
    6   -3    7      0.05      0.00
    7   -3    7     -1.47      0.00
    8   -3    7     -3.21      0.00
    9   -3    7     -1.89      0.00
   10   -3    7      1.69      0.00
   11   -3    7      2.01      0.00
   12   -3    7      0.48      0.00
   13   -3    7     -0.85      0.00
   14   -3    7     -2.74      0.00
   15   -3    7     -1.59      0.00
   16   -3    7      1.09      0.00
   17   -3    7     -0.38      0.00
  -19   -2    7     -5.30      0.00
  -18   -2    7     -0.45      0.00
  -17   -2    7      1.00      0.00
  -16   -2    7     -2.24      0.00
  -15   -2    7     -2.35      0.00
  -14   -2    7     -2.77      0.00
  -13   -2    7     -2.85      0.00
  -12   -2    7     -3.81      0.00
  -11   -2    7      0.93      0.00
  -10   -2    7      4.17      0.00
   -9   -2    7     -0.78      0.00
   -8   -2    7      1.07      0.00
   -7   -2    7      0.80      0.00
   -6   -2    7      1.12      0.00
   -5   -2    7     -1.63      0.00
   -4   -2    7     -2.94      0.00
   -3   -2    7      5.56      0.00
   -2   -2    7      2.18      0.00
   -1   -2    7     -6.45      0.00
    0   -2    7      1.23      0.00
    1   -2    7      0.24      0.00
    2   -2    7     -1.44      0.00
    3   -2    7      1.67      0.00
    4   -2    7     -7.36      0.00
    5   -2    7    -11.38      0.00
    6   -2    7     -5.07      0.00
    7   -2    7     -1.94      0.00
    8   -2    7     -3.07      0.00
    9   -2    7     -1.52      0.00
   10   -2    7      1.55      0.00
   11   -2    7      0.98      0.00
   12   -2    7      0.68      0.00
   13   -2    7      2.61      0.00
   14   -2    7     -0.83      0.00
   15   -2    7     -3.32      0.00
   16   -2    7     -0.26      0.00
   17   -2    7      1.61      0.00
  -18   -1    7     -0.42      0.00
  -17   -1    7     -0.24      0.00
  -16   -1    7     -1.81      0.00
  -15   -1    7     -3.90      0.00
  -14   -1    7     -1.77      0.00
  -13   -1    7     -0.75      0.00
  -12   -1    7     -1.84      0.00
  -11   -1    7      0.90      0.00
  -10   -1    7      4.85      0.00
   -9   -1    7      1.09      0.00
   -8   -1    7      4.09      0.00
   -7   -1    7      0.53      0.00
   -6   -1    7     -4.73      0.00
   -5   -1    7     -5.59      0.00
   -4   -1    7     -9.89      0.00
   -3   -1    7    -11.37      0.00
   -2   -1    7    -13.35      0.00
   -1   -1    7    -18.10      0.00
    0   -1    7     -9.20      0.00
    1   -1    7     -1.49      0.00
    2   -1    7     -0.11      0.00
    3   -1    7      0.79      0.00
    4   -1    7      1.96      0.00
    5   -1    7     -4.76      0.00
    6   -1    7     -5.96      0.00
    7   -1    7     -5.48      0.00
    8   -1    7     -5.53      0.00
    9   -1    7     -3.97      0.00
   10   -1    7      2.72      0.00
   11   -1    7      2.48      0.00
   12   -1    7     -2.05      0.00
   13   -1    7      2.85      0.00
   14   -1    7      3.76      0.00
   15   -1    7     -0.27      0.00
   16   -1    7     -1.09      0.00
   17   -1    7     -1.38      0.00
   18   -1    7     -1.03      0.00
  -18    0    7      3.83      0.00
  -17    0    7      3.33      0.00
  -16    0    7      2.01      0.00
  -15    0    7     -1.89      0.00
  -14    0    7      0.85      0.00
  -13    0    7      1.24      0.00
  -12    0    7     -0.19      0.00
  -11    0    7     -0.23      0.00
  -10    0    7      3.64      0.00
   -9    0    7     -0.99      0.00
   -8    0    7      2.78      0.00
   -7    0    7      2.40      0.00
   -6    0    7     -0.92      0.00
   -5    0    7      6.36      0.00
   -4    0    7      7.94      0.00
   -3    0    7     -0.67      0.00
   -2    0    7      0.01      0.00
   -1    0    7     -2.09      0.00
    0    0    7     -2.89      0.00
    1    0    7      0.26      0.00
    2    0    7      0.67      0.00
    3    0    7      0.49      0.00
    4    0    7      3.94      0.00
    5    0    7      9.00      0.00
    6    0    7      6.99      0.00
    7    0    7      1.69      0.00
    8    0    7      1.35      0.00
    9    0    7     -4.34      0.00
   10    0    7      0.36      0.00
   11    0    7      1.82      0.00
   12    0    7     -3.82      0.00
   13    0    7     -1.06      0.00
   14    0    7      0.99      0.00
   15    0    7     -2.77      0.00
   16    0    7     -2.77      0.00
   17    0    7     -1.01      0.00
   18    0    7     -1.86      0.00
   19    0    7     -1.11      0.00
  -18    1    7      0.83      0.00
  -17    1    7     -0.46      0.00
  -16    1    7      0.93      0.00
  -15    1    7     -2.11      0.00
  -14    1    7     -0.98      0.00
  -13    1    7     -0.69      0.00
  -12    1    7     -2.12      0.00
  -11    1    7     -3.04      0.00
  -10    1    7      0.54      0.00
   -9    1    7     -3.33      0.00
   -8    1    7     -2.89      0.00
   -7    1    7     -5.96      0.00
   -6    1    7    -14.78      0.00
   -5    1    7     -5.54      0.00
   -4    1    7      3.29      0.00
   -3    1    7     -6.50      0.00
   -2    1    7     -4.75      0.00
   -1    1    7      5.72      0.00
    0    1    7      7.01      0.00
    1    1    7     -6.46      0.00
    2    1    7     -4.22      0.00
    3    1    7      0.19      0.00
    4    1    7    -16.14      0.00
    5    1    7    -10.64      0.00
    6    1    7    -10.70      0.00
    7    1    7    -12.32      0.00
    8    1    7     -3.73      0.00
    9    1    7     -6.77      0.00
   10    1    7     -4.26      0.00
   11    1    7     -0.87      0.00
   12    1    7     -1.32      0.00
   13    1    7     -0.69      0.00
   14    1    7      0.56      0.00
   15    1    7     -2.37      0.00
   16    1    7     -1.00      0.00
   17    1    7      3.22      0.00
   18    1    7      2.82      0.00
   19    1    7     -1.26      0.00
  -17    2    7     -1.65      0.00
  -16    2    7      0.99      0.00
  -15    2    7      0.35      0.00
  -14    2    7      1.48      0.00
  -13    2    7      4.28      0.00
  -12    2    7      3.70      0.00
  -11    2    7      2.30      0.00
  -10    2    7      5.79      0.00
   -9    2    7      5.78      0.00
   -8    2    7      6.38      0.00
   -7    2    7      8.21      0.00
   -6    2    7     -2.01      0.00
   -5    2    7     -1.27      0.00
   -4    2    7      4.98      0.00
   -3    2    7     -3.55      0.00
   -2    2    7    -10.72      0.00
   -1    2    7      5.44      0.00
    0    2    7     17.58      0.00
    1    2    7     -3.93      0.00
    2    2    7      5.99      0.00
    3    2    7     29.38      0.00
    4    2    7     14.16      0.00
    5    2    7     13.80      0.00
    6    2    7     11.00      0.00
    7    2    7      0.75      0.00
    8    2    7      1.98      0.00
    9    2    7      2.56      0.00
   10    2    7     -0.89      0.00
   11    2    7     -2.82      0.00
   12    2    7      0.16      0.00
   13    2    7      2.93      0.00
   14    2    7      3.69      0.00
   15    2    7      0.73      0.00
   16    2    7     -1.87      0.00
   17    2    7     -2.26      0.00
   18    2    7     -0.23      0.00
   19    2    7     -2.61      0.00
   20    2    7     -0.84      0.00
  -17    3    7     -2.68      0.00
  -16    3    7     -0.54      0.00
  -15    3    7     -0.01      0.00
  -14    3    7     -2.73      0.00
  -13    3    7     -2.04      0.00
  -12    3    7     -3.00      0.00
  -11    3    7     -5.52      0.00
  -10    3    7     -3.48      0.00
   -9    3    7     -2.72      0.00
   -8    3    7     -3.50      0.00
   -7    3    7      1.12      0.00
   -6    3    7      0.12      0.00
   -5    3    7      1.93      0.00
   -4    3    7      4.04      0.00
   -3    3    7     -0.29      0.00
   -2    3    7     -4.71      0.00
   -1    3    7      8.92      0.00
    0    3    7     14.64      0.00
    1    3    7    -20.74      0.00
    2    3    7    -30.19      0.00
    3    3    7     -8.12      0.00
    4    3    7    -18.80      0.00
    5    3    7    -26.77      0.00
    6    3    7    -10.76      0.00
    7    3    7    -11.25      0.00
    8    3    7    -10.27      0.00
    9    3    7      0.62      0.00
   10    3    7      0.46      0.00
   11    3    7     -3.92      0.00
   12    3    7     -1.49      0.00
   13    3    7      3.85      0.00
   14    3    7      2.03      0.00
   15    3    7      2.72      0.00
   16    3    7      3.37      0.00
   17    3    7      0.46      0.00
   18    3    7      0.90      0.00
   19    3    7     -0.92      0.00
   20    3    7     -1.24      0.00
  -16    4    7     -1.92      0.00
  -15    4    7      0.09      0.00
  -14    4    7     -1.23      0.00
  -13    4    7     -0.43      0.00
  -12    4    7     -0.19      0.00
  -11    4    7      0.07      0.00
  -10    4    7      1.18      0.00
   -9    4    7      0.88      0.00
   -8    4    7      2.14      0.00
   -7    4    7      5.19      0.00
   -6    4    7      7.25      0.00
   -5    4    7      7.62      0.00
   -4    4    7      2.02      0.00
   -3    4    7     -5.99      0.00
   -2    4    7     -8.52      0.00
   -1    4    7      1.36      0.00
    0    4    7     16.92      0.00
    1    4    7      1.65      0.00
    2    4    7    -10.63      0.00
    3    4    7     11.80      0.00
    4    4    7      0.14      0.00
    5    4    7    -24.96      0.00
    6    4    7     -9.14      0.00
    7    4    7     -5.25      0.00
    8    4    7     -9.53      0.00
    9    4    7     -1.27      0.00
   10    4    7      5.81      0.00
   11    4    7      2.85      0.00
   12    4    7      0.43      0.00
   13    4    7      6.46      0.00
   14    4    7      0.03      0.00
   15    4    7     -1.83      0.00
   16    4    7      1.56      0.00
   17    4    7      1.31      0.00
   18    4    7     -0.06      0.00
   19    4    7     -0.08      0.00
   20    4    7     -0.80      0.00
  -16    5    7     -1.86      0.00
  -15    5    7     -1.78      0.00
  -14    5    7     -0.77      0.00
  -13    5    7      0.29      0.00
  -12    5    7     -1.22      0.00
  -11    5    7     -0.03      0.00
  -10    5    7      1.91      0.00
   -9    5    7      1.83      0.00
   -8    5    7      0.73      0.00
   -7    5    7     -0.47      0.00
   -6    5    7      3.00      0.00
   -5    5    7      5.41      0.00
   -4    5    7     -0.83      0.00
   -3    5    7     -9.37      0.00
   -2    5    7    -16.41      0.00
   -1    5    7    -24.65      0.00
    0    5    7    -14.97      0.00
    1    5    7     -9.28      0.00
    2    5    7     -5.96      0.00
    3    5    7     25.30      0.00
    4    5    7     29.15      0.00
    5    5    7      9.56      0.00
    6    5    7     11.45      0.00
    7    5    7     16.13      0.00
    8    5    7      5.13      0.00
    9    5    7     -0.59      0.00
   10    5    7      8.60      0.00
   11    5    7      9.85      0.00
   12    5    7      0.89      0.00
   13    5    7      2.02      0.00
   14    5    7     -2.17      0.00
   15    5    7     -4.04      0.00
   16    5    7     -1.46      0.00
   17    5    7      0.41      0.00
   18    5    7     -1.41      0.00
   19    5    7      1.39      0.00
   20    5    7      1.01      0.00
   21    5    7      1.43      0.00
  -15    6    7     -0.13      0.00
  -14    6    7     -1.56      0.00
  -13    6    7     -2.70      0.00
  -12    6    7     -3.40      0.00
  -11    6    7     -0.76      0.00
  -10    6    7      0.54      0.00
   -9    6    7     -0.75      0.00
   -8    6    7     -4.02      0.00
   -7    6    7     -5.64      0.00
   -6    6    7     -5.12      0.00
   -5    6    7     -0.83      0.00
   -4    6    7     -0.55      0.00
   -3    6    7      1.37      0.00
   -2    6    7      7.82      0.00
   -1    6    7      1.14      0.00
    0    6    7     -6.23      0.00
    1    6    7     -6.39      0.00
    2    6    7     -7.74      0.00
    3    6    7      7.00      0.00
    4    6    7     15.61      0.00
    5    6    7      7.09      0.00
    6    6    7     -0.58      0.00
    7    6    7      4.86      0.00
    8    6    7     -2.35      0.00
    9    6    7    -11.77      0.00
   10    6    7     -5.20      0.00
   11    6    7      3.38      0.00
   12    6    7     -0.46      0.00
   13    6    7     -0.21      0.00
   14    6    7     -0.18      0.00
   15    6    7     -2.86      0.00
   16    6    7     -2.77      0.00
   17    6    7      1.28      0.00
   18    6    7     -1.56      0.00
   19    6    7      0.37      0.00
   20    6    7      1.51      0.00
   21    6    7      1.49      0.00
  -14    7    7      0.81      0.00
  -13    7    7      1.09      0.00
  -12    7    7     -0.35      0.00
  -11    7    7      1.39      0.00
  -10    7    7      2.98      0.00
   -9    7    7      1.43      0.00
   -8    7    7     -0.55      0.00
   -7    7    7     -0.57      0.00
   -6    7    7     -4.76      0.00
   -5    7    7     -2.34      0.00
   -4    7    7     -0.38      0.00
   -3    7    7     -0.51      0.00
   -2    7    7      7.18      0.00
   -1    7    7      9.27      0.00
    0    7    7      3.47      0.00
    1    7    7      4.92      0.00
    2    7    7      0.13      0.00
    3    7    7     -0.25      0.00
    4    7    7      6.18      0.00
    5    7    7      7.63      0.00
    6    7    7      7.01      0.00
    7    7    7      9.58      0.00
    8    7    7      6.45      0.00
    9    7    7     -4.19      0.00
   10    7    7     -4.00      0.00
   11    7    7      5.38      0.00
   12    7    7      3.13      0.00
   13    7    7      1.43      0.00
   14    7    7      5.59      0.00
   15    7    7      5.01      0.00
   16    7    7      0.10      0.00
   17    7    7      3.19      0.00
   18    7    7      3.37      0.00
   19    7    7      3.55      0.00
   20    7    7      1.22      0.00
   21    7    7     -0.50      0.00
  -14    8    7     -0.34      0.00
  -13    8    7      0.29      0.00
  -12    8    7     -3.50      0.00
  -11    8    7     -4.30      0.00
  -10    8    7     -3.31      0.00
   -9    8    7     -3.18      0.00
   -8    8    7     -0.53      0.00
   -7    8    7      1.71      0.00
   -6    8    7     -1.19      0.00
   -5    8    7     -1.88      0.00
   -4    8    7      0.50      0.00
   -3    8    7     -0.14      0.00
   -2    8    7      2.13      0.00
   -1    8    7      4.44      0.00
    0    8    7      1.75      0.00
    1    8    7      1.95      0.00
    2    8    7     -1.14      0.00
    3    8    7     -5.45      0.00
    4    8    7     -5.85      0.00
    5    8    7     -2.94      0.00
    6    8    7      2.88      0.00
    7    8    7      3.53      0.00
    8    8    7      9.07      0.00
    9    8    7      2.48      0.00
   10    8    7     -3.73      0.00
   11    8    7      0.26      0.00
   12    8    7      0.06      0.00
   13    8    7     -3.06      0.00
   14    8    7     -1.19      0.00
   15    8    7      3.77      0.00
   16    8    7     -1.49      0.00
   17    8    7     -3.55      0.00
   18    8    7     -1.81      0.00
   19    8    7      0.99      0.00
   20    8    7      0.47      0.00
   21    8    7     -1.06      0.00
   22    8    7      0.77      0.00
  -13    9    7      4.44      0.00
  -12    9    7      2.28      0.00
  -11    9    7     -0.11      0.00
  -10    9    7     -2.16      0.00
   -9    9    7     -2.02      0.00
   -8    9    7      1.91      0.00
   -7    9    7      1.72      0.00
   -6    9    7      0.64      0.00
   -5    9    7     -0.81      0.00
   -4    9    7      3.14      0.00
   -3    9    7      4.42      0.00
   -2    9    7      1.86      0.00
   -1    9    7      5.07      0.00
    0    9    7      7.43      0.00
    1    9    7      4.93      0.00
    2    9    7      3.12      0.00
    3    9    7      0.56      0.00
    4    9    7     -4.75      0.00
    5    9    7     -6.69      0.00
    6    9    7     -2.07      0.00
    7    9    7     -5.70      0.00
    8    9    7     -2.39      0.00
    9    9    7     -0.36      0.00
   10    9    7     -4.27      0.00
   11    9    7     -3.11      0.00
   12    9    7      0.41      0.00
   13    9    7      1.14      0.00
   14    9    7     -0.43      0.00
   15    9    7      4.86      0.00
   16    9    7      1.79      0.00
   17    9    7     -0.65      0.00
   18    9    7      0.81      0.00
   19    9    7      3.17      0.00
   20    9    7      3.69      0.00
   21    9    7      0.88      0.00
   22    9    7      3.00      0.00
  -12   10    7      0.93      0.00
  -11   10    7      0.92      0.00
  -10   10    7     -1.35      0.00
   -9   10    7     -2.51      0.00
   -8   10    7      0.54      0.00
   -7   10    7     -0.73      0.00
   -6   10    7     -0.67      0.00
   -5   10    7     -1.39      0.00
   -4   10    7     -0.46      0.00
   -3   10    7     -0.20      0.00
   -2   10    7     -5.15      0.00
   -1   10    7     -2.35      0.00
    0   10    7      3.05      0.00
    1   10    7      1.08      0.00
    2   10    7     -4.27      0.00
    3   10    7     -1.63      0.00
    4   10    7     -1.52      0.00
    5   10    7     -4.16      0.00
    6   10    7      0.99      0.00
    7   10    7     -1.65      0.00
    8   10    7     -4.13      0.00
    9   10    7      1.08      0.00
   10   10    7     -1.41      0.00
   11   10    7     -0.71      0.00
   12   10    7      2.25      0.00
   13   10    7      3.29      0.00
   14   10    7     -1.02      0.00
   15   10    7      2.52      0.00
   16   10    7      2.61      0.00
   17   10    7     -0.43      0.00
   18   10    7     -3.03      0.00
   19   10    7      0.02      0.00
   20   10    7      3.32      0.00
   21   10    7     -1.23      0.00
   22   10    7     -1.49      0.00
  -11   11    7     -0.11      0.00
  -10   11    7     -0.66      0.00
   -9   11    7     -0.69      0.00
   -8   11    7      2.00      0.00
   -7   11    7     -0.85      0.00
   -6   11    7     -2.88      0.00
   -5   11    7      0.47      0.00
   -4   11    7      3.05      0.00
   -3   11    7      3.34      0.00
   -2   11    7     -1.71      0.00
   -1   11    7     -1.82      0.00
    0   11    7      3.52      0.00
    1   11    7      6.66      0.00
    2   11    7      0.74      0.00
    3   11    7      3.20      0.00
    4   11    7      2.84      0.00
    5   11    7     -2.23      0.00
    6   11    7      1.12      0.00
    7   11    7      2.08      0.00
    8   11    7     -0.58      0.00
    9   11    7      3.74      0.00
   10   11    7      3.24      0.00
   11   11    7      0.03      0.00
   12   11    7      0.43      0.00
   13   11    7      3.41      0.00
   14   11    7     -0.87      0.00
   15   11    7     -1.65      0.00
   16   11    7      1.75      0.00
   17   11    7      2.05      0.00
   18   11    7     -2.62      0.00
   19   11    7     -2.43      0.00
   20   11    7      1.47      0.00
   21   11    7      1.45      0.00
   22   11    7      0.65      0.00
  -11   12    7     -2.29      0.00
  -10   12    7     -3.27      0.00
   -9   12    7     -3.80      0.00
   -8   12    7     -0.64      0.00
   -7   12    7     -0.11      0.00
   -6   12    7     -3.03      0.00
   -5   12    7     -2.66      0.00
   -4   12    7     -2.13      0.00
   -3   12    7     -2.65      0.00
   -2   12    7     -3.08      0.00
   -1   12    7     -1.64      0.00
    0   12    7      0.75      0.00
    1   12    7      3.85      0.00
    2   12    7      0.89      0.00
    3   12    7      1.77      0.00
    4   12    7      2.65      0.00
    5   12    7     -5.00      0.00
    6   12    7     -7.42      0.00
    7   12    7     -1.39      0.00
    8   12    7      0.17      0.00
    9   12    7      0.56      0.00
   10   12    7      4.23      0.00
   11   12    7      2.10      0.00
   12   12    7      3.03      0.00
   13   12    7      4.47      0.00
   14   12    7      1.68      0.00
   15   12    7     -2.76      0.00
   16   12    7     -3.14      0.00
   17   12    7     -3.11      0.00
   18   12    7     -4.56      0.00
   19   12    7     -3.20      0.00
   20   12    7      1.09      0.00
   21   12    7      1.88      0.00
   22   12    7     -1.29      0.00
  -10   13    7      0.98      0.00
   -9   13    7     -0.52      0.00
   -8   13    7      0.29      0.00
   -7   13    7      0.82      0.00
   -6   13    7      0.43      0.00
   -5   13    7      1.02      0.00
   -4   13    7      0.37      0.00
   -3   13    7     -1.89      0.00
   -2   13    7      0.13      0.00
   -1   13    7      2.63      0.00
    0   13    7      2.35      0.00
    1   13    7      4.24      0.00
    2   13    7      4.47      0.00
    3   13    7      3.05      0.00
    4   13    7      5.93      0.00
    5   13    7      1.24      0.00
    6   13    7     -4.22      0.00
    7   13    7     -3.06      0.00
    8   13    7     -0.23      0.00
    9   13    7     -0.74      0.00
   10   13    7     -0.72      0.00
   11   13    7     -2.46      0.00
   12   13    7     -0.42      0.00
   13   13    7     -0.67      0.00
   14   13    7      0.12      0.00
   15   13    7     -1.52      0.00
   16   13    7     -1.42      0.00
   17   13    7     -1.63      0.00
   18   13    7     -6.36      0.00
   19   13    7     -8.21      0.00
   20   13    7     -5.34      0.00
   21   13    7     -7.02      0.00
   22   13    7     -6.68      0.00
   -8   14    7     -2.76      0.00
   -7   14    7     -5.15      0.00
   -6   14    7     -2.29      0.00
   -5   14    7      3.27      0.00
   -4   14    7      4.68      0.00
   -3   14    7      2.77      0.00
   -2   14    7      1.71      0.00
   -1   14    7      2.00      0.00
    0   14    7      0.00      0.00
    1   14    7     -0.59      0.00
    2   14    7      1.98      0.00
    3   14    7      4.95      0.00
    4   14    7      3.99      0.00
    5   14    7      1.75      0.00
    6   14    7      1.73      0.00
    7   14    7     -1.21      0.00
    8   14    7      0.20      0.00
    9   14    7      1.79      0.00
   10   14    7     -0.74      0.00
   11   14    7      0.34      0.00
   12   14    7      0.71      0.00
   13   14    7     -1.26      0.00
   14   14    7      0.30      0.00
   15   14    7     -0.80      0.00
   16   14    7     -1.19      0.00
   17   14    7      1.57      0.00
   18   14    7     -1.65      0.00
   19   14    7     -0.21      0.00
   20   14    7      5.48      0.00
   21   14    7      1.71      0.00
   -7   15    7     -1.44      0.00
   -6   15    7     -1.51      0.00
   -5   15    7      0.91      0.00
   -4   15    7      2.55      0.00
   -3   15    7      5.16      0.00
   -2   15    7      2.32      0.00
   -1   15    7      0.73      0.00
    0   15    7     -1.80      0.00
    1   15    7     -2.24      0.00
    2   15    7     -1.08      0.00
    3   15    7      4.34      0.00
    4   15    7      0.63      0.00
    5   15    7     -0.65      0.00
    6   15    7      1.93      0.00
    7   15    7     -1.45      0.00
    8   15    7     -3.56      0.00
    9   15    7     -0.67      0.00
   10   15    7     -3.52      0.00
   11   15    7     -1.59      0.00
   12   15    7      1.38      0.00
   13   15    7      1.04      0.00
   14   15    7      2.97      0.00
   15   15    7      4.89      0.00
   16   15    7      2.39      0.00
   17   15    7      1.32      0.00
   18   15    7     -2.61      0.00
   19   15    7     -4.06      0.00
   20   15    7     -2.04      0.00
   21   15    7     -3.60      0.00
   -6   16    7     -7.14      0.00
   -5   16    7     -7.07      0.00
   -4   16    7     -5.32      0.00
   -3   16    7     -0.18      0.00
   -2   16    7      0.53      0.00
   -1   16    7      0.54      0.00
    0   16    7     -4.43      0.00
    1   16    7     -2.13      0.00
    2   16    7     -1.03      0.00
    3   16    7      3.35      0.00
    4   16    7      1.41      0.00
    5   16    7     -1.21      0.00
    6   16    7      3.21      0.00
    7   16    7      2.10      0.00
    8   16    7     -5.53      0.00
    9   16    7     -0.60      0.00
   10   16    7      0.16      0.00
   11   16    7     -3.09      0.00
   12   16    7      1.59      0.00
   13   16    7      3.34      0.00
   14   16    7      2.01      0.00
   15   16    7      4.40      0.00
   16   16    7      5.21      0.00
   17   16    7      4.14      0.00
   18   16    7      3.11      0.00
   19   16    7      0.04      0.00
   20   16    7     -0.44      0.00
   21   16    7     -1.02      0.00
   -5   17    7      2.09      0.00
   -4   17    7      0.60      0.00
   -3   17    7     -0.13      0.00
   -2   17    7      1.34      0.00
   -1   17    7      3.84      0.00
    0   17    7     -0.76      0.00
    1   17    7      0.39      0.00
    2   17    7     -2.93      0.00
    3   17    7     -2.28      0.00
    4   17    7      0.14      0.00
    5   17    7     -3.78      0.00
    6   17    7      1.10      0.00
    7   17    7      2.86      0.00
    8   17    7     -4.11      0.00
    9   17    7     -1.04      0.00
   10   17    7      5.01      0.00
   11   17    7     -0.77      0.00
   12   17    7     -2.03      0.00
   13   17    7      1.32      0.00
   14   17    7      0.52      0.00
   15   17    7     -1.96      0.00
   16   17    7     -3.22      0.00
   17   17    7     -2.58      0.00
   18   17    7      1.88      0.00
   19   17    7     -0.51      0.00
   20   17    7     -2.69      0.00
   -3   18    7     -1.69      0.00
   -2   18    7     -0.49      0.00
   -1   18    7      2.47      0.00
    0   18    7      0.41      0.00
    1   18    7      0.17      0.00
    2   18    7     -3.17      0.00
    3   18    7     -7.19      0.00
    4   18    7     -5.34      0.00
    5   18    7     -6.88      0.00
    6   18    7     -5.84      0.00
    7   18    7     -2.85      0.00
    8   18    7     -2.43      0.00
    9   18    7     -7.35      0.00
   10   18    7     -0.85      0.00
   11   18    7      2.65      0.00
   12   18    7      1.43      0.00
   13   18    7      3.02      0.00
   14   18    7      3.45      0.00
   15   18    7      3.70      0.00
   16   18    7      2.54      0.00
   17   18    7      0.78      0.00
   18   18    7      3.38      0.00
   19   18    7      2.57      0.00
   20   18    7      0.14      0.00
   -1   19    7      2.76      0.00
    0   19    7      2.65      0.00
    1   19    7      2.01      0.00
    2   19    7      2.69      0.00
    3   19    7     -2.48      0.00
    4   19    7      0.05      0.00
    5   19    7      4.07      0.00
    6   19    7     -0.77      0.00
    7   19    7     -0.38      0.00
    8   19    7      6.35      0.00
    9   19    7      0.34      0.00
   10   19    7     -2.37      0.00
   11   19    7      0.41      0.00
   12   19    7      0.26      0.00
   13   19    7     -1.42      0.00
   14   19    7     -3.16      0.00
   15   19    7     -2.34      0.00
   16   19    7     -1.52      0.00
   17   19    7     -0.46      0.00
   18   19    7      0.96      0.00
   19   19    7      0.63      0.00
    1   20    7      0.31      0.00
    2   20    7      2.89      0.00
    3   20    7     -1.87      0.00
    4   20    7     -1.41      0.00
    5   20    7      1.58      0.00
    6   20    7     -4.09      0.00
    7   20    7     -7.68      0.00
    8   20    7     -2.27      0.00
    9   20    7     -0.75      0.00
   10   20    7     -6.02      0.00
   11   20    7     -2.58      0.00
   12   20    7      0.31      0.00
   13   20    7     -1.95      0.00
   14   20    7     -1.05      0.00
   15   20    7     -0.50      0.00
   16   20    7     -3.26      0.00
   17   20    7     -4.73      0.00
   18   20    7     -3.31      0.00
    3   21    7     -1.90      0.00
    4   21    7     -3.40      0.00
    5   21    7     -2.46      0.00
    6   21    7     -1.48      0.00
    7   21    7     -5.72      0.00
    8   21    7     -4.96      0.00
    9   21    7     -0.24      0.00
   10   21    7     -3.53      0.00
   11   21    7      0.48      0.00
   12   21    7      2.40      0.00
   13   21    7     -2.61      0.00
   14   21    7     -1.55      0.00
   15   21    7      2.32      0.00
   16   21    7      3.79      0.00
    7   22    7     -2.09      0.00
    8   22    7     -2.04      0.00
    9   22    7      1.41      0.00
   10   22    7      0.67      0.00
   11   22    7      2.98      0.00
   12   22    7      3.81      0.00
   13   22    7     -0.17      0.00
  -11  -16    8     -1.59      0.00
  -10  -16    8     -3.42      0.00
   -9  -16    8     -1.11      0.00
   -8  -16    8      2.61      0.00
   -7  -16    8      2.50      0.00
   -6  -16    8      3.21      0.00
   -5  -16    8      2.68      0.00
   -4  -16    8      0.39      0.00
  -13  -15    8     -1.24      0.00
  -12  -15    8     -2.34      0.00
  -11  -15    8     -2.04      0.00
  -10  -15    8     -4.63      0.00
   -9  -15    8     -3.93      0.00
   -8  -15    8     -2.23      0.00
   -7  -15    8      0.32      0.00
   -6  -15    8      0.37      0.00
   -5  -15    8      0.16      0.00
   -4  -15    8      2.18      0.00
   -3  -15    8      3.72      0.00
   -2  -15    8      4.55      0.00
   -1  -15    8      1.08      0.00
    0  -15    8     -1.04      0.00
  -15  -14    8     -0.42      0.00
  -14  -14    8     -1.85      0.00
  -13  -14    8     -0.71      0.00
  -12  -14    8     -1.58      0.00
  -11  -14    8      1.00      0.00
  -10  -14    8      1.98      0.00
   -9  -14    8      0.43      0.00
   -8  -14    8     -2.48      0.00
   -7  -14    8      0.14      0.00
   -6  -14    8     -1.21      0.00
   -5  -14    8     -2.48      0.00
   -4  -14    8     -0.40      0.00
   -3  -14    8     -1.39      0.00
   -2  -14    8      0.42      0.00
   -1  -14    8      0.96      0.00
    0  -14    8     -2.47      0.00
    1  -14    8     -1.06      0.00
    2  -14    8     -0.12      0.00
    3  -14    8     -3.88      0.00
  -16  -13    8     -2.07      0.00
  -15  -13    8      0.67      0.00
  -14  -13    8      0.78      0.00
  -13  -13    8      0.20      0.00
  -12  -13    8     -3.07      0.00
  -11  -13    8     -2.12      0.00
  -10  -13    8      0.91      0.00
   -9  -13    8      3.29      0.00
   -8  -13    8      0.38      0.00
   -7  -13    8     -1.39      0.00
   -6  -13    8     -0.82      0.00
   -5  -13    8     -0.40      0.00
   -4  -13    8      1.47      0.00
   -3  -13    8     -2.29      0.00
   -2  -13    8     -5.01      0.00
   -1  -13    8     -4.14      0.00
    0  -13    8     -3.45      0.00
    1  -13    8      0.92      0.00
    2  -13    8      2.68      0.00
    3  -13    8     -1.65      0.00
    4  -13    8     -3.69      0.00
    5  -13    8     -4.33      0.00
  -16  -12    8     -0.64      0.00
  -15  -12    8     -0.85      0.00
  -14  -12    8     -1.17      0.00
  -13  -12    8     -1.42      0.00
  -12  -12    8     -1.12      0.00
  -11  -12    8     -1.04      0.00
  -10  -12    8     -2.66      0.00
   -9  -12    8      1.13      0.00
   -8  -12    8      1.46      0.00
   -7  -12    8     -3.84      0.00
   -6  -12    8     -2.23      0.00
   -5  -12    8     -1.48      0.00
   -4  -12    8      1.50      0.00
   -3  -12    8      2.56      0.00
   -2  -12    8      3.39      0.00
   -1  -12    8      2.73      0.00
    0  -12    8      0.01      0.00
    1  -12    8     -0.63      0.00
    2  -12    8      1.13      0.00
    3  -12    8      0.77      0.00
    4  -12    8      1.23      0.00
    5  -12    8      1.38      0.00
    6  -12    8      0.73      0.00
  -17  -11    8      0.42      0.00
  -16  -11    8      3.31      0.00
  -15  -11    8      2.03      0.00
  -14  -11    8      1.30      0.00
  -13  -11    8      0.63      0.00
  -12  -11    8      0.82      0.00
  -11  -11    8     -0.38      0.00
  -10  -11    8     -5.24      0.00
   -9  -11    8     -3.57      0.00
   -8  -11    8      0.31      0.00
   -7  -11    8     -1.62      0.00
   -6  -11    8      3.29      0.00
   -5  -11    8      5.19      0.00
   -4  -11    8      2.99      0.00
   -3  -11    8     -1.64      0.00
   -2  -11    8     -2.99      0.00
   -1  -11    8     -2.41      0.00
    0  -11    8     -2.34      0.00
    1  -11    8     -3.77      0.00
    2  -11    8     -0.30      0.00
    3  -11    8     -0.12      0.00
    4  -11    8      1.10      0.00
    5  -11    8      1.61      0.00
    6  -11    8      2.27      0.00
    7  -11    8      3.24      0.00
    8  -11    8      3.46      0.00
  -18  -10    8     -3.69      0.00
  -17  -10    8     -3.29      0.00
  -16  -10    8     -1.22      0.00
  -15  -10    8     -3.15      0.00
  -14  -10    8     -2.98      0.00
  -13  -10    8     -0.64      0.00
  -12  -10    8      0.23      0.00
  -11  -10    8      0.93      0.00
  -10  -10    8     -2.60      0.00
   -9  -10    8     -4.02      0.00
   -8  -10    8     -1.43      0.00
   -7  -10    8     -5.35      0.00
   -6  -10    8     -4.05      0.00
   -5  -10    8     -0.52      0.00
   -4  -10    8      0.82      0.00
   -3  -10    8     -1.31      0.00
   -2  -10    8     -2.49      0.00
   -1  -10    8     -0.04      0.00
    0  -10    8     -0.18      0.00
    1  -10    8     -2.60      0.00
    2  -10    8      1.75      0.00
    3  -10    8      0.93      0.00
    4  -10    8      1.38      0.00
    5  -10    8      0.57      0.00
    6  -10    8      0.27      0.00
    7  -10    8      0.68      0.00
    8  -10    8      2.25      0.00
    9  -10    8      1.70      0.00
  -18   -9    8      0.91      0.00
  -17   -9    8      5.11      0.00
  -16   -9    8      5.70      0.00
  -15   -9    8      1.20      0.00
  -14   -9    8     -1.90      0.00
  -13   -9    8      0.61      0.00
  -12   -9    8      0.03      0.00
  -11   -9    8      0.69      0.00
  -10   -9    8     -1.25      0.00
   -9   -9    8     -2.73      0.00
   -8   -9    8      0.72      0.00
   -7   -9    8     -0.49      0.00
   -6   -9    8     -2.93      0.00
   -5   -9    8     -4.09      0.00
   -4   -9    8     -0.72      0.00
   -3   -9    8     -0.22      0.00
   -2   -9    8     -1.22      0.00
   -1   -9    8      2.45      0.00
    0   -9    8     -1.12      0.00
    1   -9    8     -6.59      0.00
    2   -9    8     -3.23      0.00
    3   -9    8      0.32      0.00
    4   -9    8     -0.30      0.00
    5   -9    8     -2.21      0.00
    6   -9    8     -0.01      0.00
    7   -9    8     -1.46      0.00
    8   -9    8     -2.78      0.00
    9   -9    8     -2.26      0.00
   10   -9    8     -2.27      0.00
  -18   -8    8     -3.81      0.00
  -17   -8    8     -2.17      0.00
  -16   -8    8      0.34      0.00
  -15   -8    8      0.14      0.00
  -14   -8    8     -2.01      0.00
  -13   -8    8     -0.93      0.00
  -12   -8    8     -1.06      0.00
  -11   -8    8      0.14      0.00
  -10   -8    8     -0.27      0.00
   -9   -8    8     -2.53      0.00
   -8   -8    8     -2.88      0.00
   -7   -8    8     -1.24      0.00
   -6   -8    8     -1.09      0.00
   -5   -8    8     -3.89      0.00
   -4   -8    8     -2.58      0.00
   -3   -8    8     -2.28      0.00
   -2   -8    8     -2.55      0.00
   -1   -8    8      3.81      0.00
    0   -8    8      2.72      0.00
    1   -8    8     -4.66      0.00
    2   -8    8     -6.02      0.00
    3   -8    8      2.96      0.00
    4   -8    8      2.39      0.00
    5   -8    8     -2.26      0.00
    6   -8    8      0.69      0.00
    7   -8    8      0.36      0.00
    8   -8    8     -2.35      0.00
    9   -8    8     -1.48      0.00
   10   -8    8     -4.45      0.00
   11   -8    8     -4.01      0.00
   12   -8    8      0.30      0.00
  -18   -7    8     -0.69      0.00
  -17   -7    8     -0.97      0.00
  -16   -7    8     -0.76      0.00
  -15   -7    8      0.90      0.00
  -14   -7    8      3.35      0.00
  -13   -7    8      1.55      0.00
  -12   -7    8      1.17      0.00
  -11   -7    8      1.43      0.00
  -10   -7    8      0.69      0.00
   -9   -7    8     -1.53      0.00
   -8   -7    8     -4.43      0.00
   -7   -7    8     -5.37      0.00
   -6   -7    8     -4.24      0.00
   -5   -7    8     -6.23      0.00
   -4   -7    8     -7.26      0.00
   -3   -7    8     -4.73      0.00
   -2   -7    8     -4.64      0.00
   -1   -7    8      0.22      0.00
    0   -7    8      1.59      0.00
    1   -7    8     -2.32      0.00
    2   -7    8     -5.06      0.00
    3   -7    8      1.45      0.00
    4   -7    8      2.16      0.00
    5   -7    8     -2.01      0.00
    6   -7    8     -0.09      0.00
    7   -7    8      2.13      0.00
    8   -7    8     -1.22      0.00
    9   -7    8     -1.18      0.00
   10   -7    8     -5.50      0.00
   11   -7    8     -6.88      0.00
   12   -7    8     -1.10      0.00
   13   -7    8     -0.31      0.00
  -18   -6    8     -1.16      0.00
  -17   -6    8      1.55      0.00
  -16   -6    8     -0.99      0.00
  -15   -6    8     -1.79      0.00
  -14   -6    8      1.38      0.00
  -13   -6    8     -1.61      0.00
  -12   -6    8     -1.21      0.00
  -11   -6    8     -1.03      0.00
  -10   -6    8     -3.10      0.00
   -9   -6    8     -3.20      0.00
   -8   -6    8     -2.44      0.00
   -7   -6    8     -4.26      0.00
   -6   -6    8     -1.16      0.00
   -5   -6    8     -1.97      0.00
   -4   -6    8     -5.01      0.00
   -3   -6    8     -1.53      0.00
   -2   -6    8      0.03      0.00
   -1   -6    8      0.90      0.00
    0   -6    8     -2.97      0.00
    1   -6    8     -2.54      0.00
    2   -6    8     -0.30      0.00
    3   -6    8      0.07      0.00
    4   -6    8      1.51      0.00
    5   -6    8     -1.65      0.00
    6   -6    8     -0.86      0.00
    7   -6    8      4.16      0.00
    8   -6    8      0.67      0.00
    9   -6    8      0.19      0.00
   10   -6    8      0.92      0.00
   11   -6    8     -0.57      0.00
   12   -6    8      1.30      0.00
   13   -6    8      1.25      0.00
   14   -6    8     -3.79      0.00
  -18   -5    8     -0.62      0.00
  -17   -5    8      2.60      0.00
  -16   -5    8      1.48      0.00
  -15   -5    8      1.07      0.00
  -14   -5    8      2.70      0.00
  -13   -5    8      1.63      0.00
  -12   -5    8      3.39      0.00
  -11   -5    8      5.47      0.00
  -10   -5    8     -0.75      0.00
   -9   -5    8     -3.21      0.00
   -8   -5    8     -0.24      0.00
   -7   -5    8     -2.20      0.00
   -6   -5    8     -0.76      0.00
   -5   -5    8     -1.63      0.00
   -4   -5    8     -4.51      0.00
   -3   -5    8     -3.61      0.00
   -2   -5    8      1.17      0.00
   -1   -5    8      2.95      0.00
    0   -5    8     -5.16      0.00
    1   -5    8     -4.80      0.00
    2   -5    8      1.71      0.00
    3   -5    8     -0.42      0.00
    4   -5    8      1.06      0.00
    5   -5    8     -1.93      0.00
    6   -5    8     -5.05      0.00
    7   -5    8      0.54      0.00
    8   -5    8      0.78      0.00
    9   -5    8     -0.92      0.00
   10   -5    8      1.56      0.00
   11   -5    8      0.94      0.00
   12   -5    8      2.14      0.00
   13   -5    8      4.62      0.00
   14   -5    8      2.52      0.00
   15   -5    8      5.38      0.00
  -18   -4    8      2.05      0.00
  -17   -4    8      0.95      0.00
  -16   -4    8      1.23      0.00
  -15   -4    8     -1.16      0.00
  -14   -4    8     -1.93      0.00
  -13   -4    8     -1.58      0.00
  -12   -4    8     -0.27      0.00
  -11   -4    8      5.08      0.00
  -10   -4    8     -0.60      0.00
   -9   -4    8     -4.67      0.00
   -8   -4    8     -0.72      0.00
   -7   -4    8     -0.02      0.00
   -6   -4    8     -0.61      0.00
   -5   -4    8     -0.79      0.00
   -4   -4    8     -0.35      0.00
   -3   -4    8     -2.51      0.00
   -2   -4    8     -2.86      0.00
   -1   -4    8     -0.65      0.00
    0   -4    8     -6.47      0.00
    1   -4    8     -7.89      0.00
    2   -4    8      0.54      0.00
    3   -4    8     -1.56      0.00
    4   -4    8     -0.65      0.00
    5   -4    8      4.71      0.00
    6   -4    8      1.59      0.00
    7   -4    8      1.68      0.00
    8   -4    8      3.06      0.00
    9   -4    8      0.73      0.00
   10   -4    8      2.17      0.00
   11   -4    8      2.18      0.00
   12   -4    8      0.69      0.00
   13   -4    8     -1.80      0.00
   14   -4    8     -3.62      0.00
   15   -4    8     -0.66      0.00
  -18   -3    8      0.90      0.00
  -17   -3    8     -1.91      0.00
  -16   -3    8     -0.49      0.00
  -15   -3    8     -3.02      0.00
  -14   -3    8     -3.64      0.00
  -13   -3    8     -2.67      0.00
  -12   -3    8     -0.16      0.00
  -11   -3    8      6.38      0.00
  -10   -3    8      4.75      0.00
   -9   -3    8      1.21      0.00
   -8   -3    8      2.05      0.00
   -7   -3    8     -1.64      0.00
   -6   -3    8     -5.93      0.00
   -5   -3    8     -5.70      0.00
   -4   -3    8      0.89      0.00
   -3   -3    8      2.15      0.00
   -2   -3    8     -4.79      0.00
   -1   -3    8     -2.07      0.00
    0   -3    8     -3.08      0.00
    1   -3    8     -5.71      0.00
    2   -3    8      1.50      0.00
    3   -3    8     -1.59      0.00
    4   -3    8     -8.31      0.00
    5   -3    8      0.72      0.00
    6   -3    8      1.45      0.00
    7   -3    8     -1.54      0.00
    8   -3    8      0.31      0.00
    9   -3    8     -1.03      0.00
   10   -3    8     -1.26      0.00
   11   -3    8     -0.35      0.00
   12   -3    8      1.36      0.00
   13   -3    8      1.82      0.00
   14   -3    8      1.39      0.00
   15   -3    8      1.44      0.00
   16   -3    8      1.00      0.00
  -18   -2    8      1.65      0.00
  -17   -2    8      0.22      0.00
  -16   -2    8     -0.49      0.00
  -15   -2    8     -0.20      0.00
  -14   -2    8     -1.05      0.00
  -13   -2    8     -2.80      0.00
  -12   -2    8     -1.44      0.00
  -11   -2    8      1.73      0.00
  -10   -2    8      0.96      0.00
   -9   -2    8     -0.89      0.00
   -8   -2    8      4.05      0.00
   -7   -2    8      1.14      0.00
   -6   -2    8     -3.94      0.00
   -5   -2    8     -8.91      0.00
   -4   -2    8     -4.00      0.00
   -3   -2    8     -0.04      0.00
   -2   -2    8     -6.59      0.00
   -1   -2    8     -3.20      0.00
    0   -2    8      1.91      0.00
    1   -2    8     -0.20      0.00
    2   -2    8      4.98      0.00
    3   -2    8      9.64      0.00
    4   -2    8      0.29      0.00
    5   -2    8      3.32      0.00
    6   -2    8      4.04      0.00
    7   -2    8      1.03      0.00
    8   -2    8      3.08      0.00
    9   -2    8      3.39      0.00
   10   -2    8      0.92      0.00
   11   -2    8     -3.01      0.00
   12   -2    8     -1.75      0.00
   13   -2    8      1.11      0.00
   14   -2    8     -0.67      0.00
   15   -2    8     -1.31      0.00
   16   -2    8     -1.48      0.00
   17   -2    8     -2.61      0.00
  -18   -1    8      0.72      0.00
  -17   -1    8      1.66      0.00
  -16   -1    8     -1.15      0.00
  -15   -1    8      1.23      0.00
  -14   -1    8      1.10      0.00
  -13   -1    8     -0.55      0.00
  -12   -1    8     -1.11      0.00
  -11   -1    8     -0.26      0.00
  -10   -1    8     -1.63      0.00
   -9   -1    8     -5.24      0.00
   -8   -1    8     -1.22      0.00
   -7   -1    8     -3.79      0.00
   -6   -1    8     -3.20      0.00
   -5   -1    8     -5.85      0.00
   -4   -1    8     -5.28      0.00
   -3   -1    8     -0.02      0.00
   -2   -1    8      1.98      0.00
   -1   -1    8      4.50      0.00
    0   -1    8     14.44      0.00
    1   -1    8      9.58      0.00
    2   -1    8      5.03      0.00
    3   -1    8      9.32      0.00
    4   -1    8      5.20      0.00
    5   -1    8      5.32      0.00
    6   -1    8      1.89      0.00
    7   -1    8     -2.38      0.00
    8   -1    8     -3.01      0.00
    9   -1    8      0.46      0.00
   10   -1    8      2.13      0.00
   11   -1    8     -3.49      0.00
   12   -1    8     -3.26      0.00
   13   -1    8      1.40      0.00
   14   -1    8     -1.08      0.00
   15   -1    8     -1.69      0.00
   16   -1    8     -1.83      0.00
   17   -1    8     -3.26      0.00
   18   -1    8     -2.68      0.00
  -18    0    8     -1.39      0.00
  -17    0    8      0.02      0.00
  -16    0    8     -0.26      0.00
  -15    0    8      1.73      0.00
  -14    0    8      2.08      0.00
  -13    0    8     -0.37      0.00
  -12    0    8     -0.85      0.00
  -11    0    8      2.51      0.00
  -10    0    8      3.98      0.00
   -9    0    8      3.11      0.00
   -8    0    8      7.77      0.00
   -7    0    8      2.57      0.00
   -6    0    8      2.38      0.00
   -5    0    8      5.48      0.00
   -4    0    8     -1.20      0.00
   -3    0    8     -6.84      0.00
   -2    0    8     -5.77      0.00
   -1    0    8     -6.77      0.00
    0    0    8     -0.60      0.00
    1    0    8     -2.36      0.00
    2    0    8     -0.19      0.00
    3    0    8      1.95      0.00
    4    0    8      5.70      0.00
    5    0    8      9.04      0.00
    6    0    8      4.23      0.00
    7    0    8     -0.17      0.00
    8    0    8     -6.94      0.00
    9    0    8     -6.54      0.00
   10    0    8      0.00      0.00
   11    0    8     -1.00      0.00
   12    0    8     -0.68      0.00
   13    0    8      3.93      0.00
   14    0    8      1.86      0.00
   15    0    8      0.96      0.00
   16    0    8      2.39      0.00
   17    0    8      0.57      0.00
   18    0    8     -2.56      0.00
  -17    1    8     -1.19      0.00
  -16    1    8     -0.47      0.00
  -15    1    8     -0.39      0.00
  -14    1    8      4.26      0.00
  -13    1    8      0.33      0.00
  -12    1    8     -4.31      0.00
  -11    1    8     -2.62      0.00
  -10    1    8      0.56      0.00
   -9    1    8     -1.50      0.00
   -8    1    8      3.32      0.00
   -7    1    8      0.30      0.00
   -6    1    8     -1.56      0.00
   -5    1    8      9.88      0.00
   -4    1    8     10.64      0.00
   -3    1    8      5.81      0.00
   -2    1    8      9.27      0.00
   -1    1    8     11.39      0.00
    0    1    8      1.53      0.00
    1    1    8     -9.76      0.00
    2    1    8     -7.02      0.00
    3    1    8     -8.14      0.00
    4    1    8     -3.39      0.00
    5    1    8      3.72      0.00
    6    1    8      3.37      0.00
    7    1    8      5.25      0.00
    8    1    8      4.78      0.00
    9    1    8      0.44      0.00
   10    1    8      1.50      0.00
   11    1    8     -0.93      0.00
   12    1    8     -1.74      0.00
   13    1    8      2.55      0.00
   14    1    8      0.88      0.00
   15    1    8     -2.75      0.00
   16    1    8     -1.00      0.00
   17    1    8     -0.37      0.00
   18    1    8     -2.25      0.00
   19    1    8     -2.13      0.00
  -17    2    8      0.80      0.00
  -16    2    8      1.73      0.00
  -15    2    8     -4.28      0.00
  -14    2    8     -1.11      0.00
  -13    2    8      0.06      0.00
  -12    2    8     -1.88      0.00
  -11    2    8     -2.82      0.00
  -10    2    8      0.21      0.00
   -9    2    8     -2.30      0.00
   -8    2    8      0.95      0.00
   -7    2    8     -1.75      0.00
   -6    2    8     -8.94      0.00
   -5    2    8     -7.26      0.00
   -4    2    8    -12.52      0.00
   -3    2    8    -18.86      0.00
   -2    2    8     -9.92      0.00
   -1    2    8      3.03      0.00
    0    2    8     -6.12      0.00
    1    2    8    -15.61      0.00
    2    2    8     -6.90      0.00
    3    2    8     -5.52      0.00
    4    2    8    -13.55      0.00
    5    2    8     -3.81      0.00
    6    2    8     -1.08      0.00
    7    2    8     -3.52      0.00
    8    2    8      1.69      0.00
    9    2    8     -4.61      0.00
   10    2    8     -6.76      0.00
   11    2    8     -7.90      0.00
   12    2    8     -6.88      0.00
   13    2    8     -4.52      0.00
   14    2    8     -3.56      0.00
   15    2    8     -2.77      0.00
   16    2    8      0.54      0.00
   17    2    8      0.56      0.00
   18    2    8     -1.89      0.00
   19    2    8     -3.75      0.00
  -16    3    8      2.83      0.00
  -15    3    8      0.82      0.00
  -14    3    8      1.37      0.00
  -13    3    8      2.91      0.00
  -12    3    8      1.63      0.00
  -11    3    8     -0.27      0.00
  -10    3    8      0.34      0.00
   -9    3    8     -0.16      0.00
   -8    3    8      3.05      0.00
   -7    3    8      4.11      0.00
   -6    3    8      4.32      0.00
   -5    3    8      7.30      0.00
   -4    3    8      0.81      0.00
   -3    3    8    -11.97      0.00
   -2    3    8     -6.96      0.00
   -1    3    8      9.80      0.00
    0    3    8      9.02      0.00
    1    3    8     -0.74      0.00
    2    3    8     19.42      0.00
    3    3    8     31.71      0.00
    4    3    8     12.22      0.00
    5    3    8     22.14      0.00
    6    3    8     25.50      0.00
    7    3    8     13.06      0.00
    8    3    8     15.76      0.00
    9    3    8     10.89      0.00
   10    3    8      1.91      0.00
   11    3    8     -6.44      0.00
   12    3    8     -4.72      0.00
   13    3    8     -3.84      0.00
   14    3    8     -4.09      0.00
   15    3    8     -1.59      0.00
   16    3    8      1.78      0.00
   17    3    8      1.98      0.00
   18    3    8      1.51      0.00
   19    3    8      0.14      0.00
   20    3    8      2.90      0.00
  -16    4    8      1.99      0.00
  -15    4    8      1.10      0.00
  -14    4    8     -1.49      0.00
  -13    4    8     -1.53      0.00
  -12    4    8     -2.22      0.00
  -11    4    8     -1.56      0.00
  -10    4    8     -3.11      0.00
   -9    4    8     -6.80      0.00
   -8    4    8     -8.45      0.00
   -7    4    8     -4.92      0.00
   -6    4    8     -0.16      0.00
   -5    4    8      5.62      0.00
   -4    4    8      7.59      0.00
   -3    4    8     -0.73      0.00
   -2    4    8     -4.06      0.00
   -1    4    8      2.18      0.00
    0    4    8      2.68      0.00
    1    4    8    -14.05      0.00
    2    4    8      1.87      0.00
    3    4    8     11.48      0.00
    4    4    8    -14.04      0.00
    5    4    8    -12.59      0.00
    6    4    8     -2.46      0.00
    7    4    8    -13.08      0.00
    8    4    8    -15.33      0.00
    9    4    8     -6.96      0.00
   10    4    8     -3.83      0.00
   11    4    8     -5.83      0.00
   12    4    8     -1.87      0.00
   13    4    8     -1.93      0.00
   14    4    8     -5.54      0.00
   15    4    8     -2.88      0.00
   16    4    8      0.10      0.00
   17    4    8      0.49      0.00
   18    4    8      1.52      0.00
   19    4    8      0.54      0.00
   20    4    8     -0.33      0.00
  -15    5    8     -1.19      0.00
  -14    5    8     -0.67      0.00
  -13    5    8      0.48      0.00
  -12    5    8     -0.65      0.00
  -11    5    8      1.06      0.00
  -10    5    8      4.13      0.00
   -9    5    8      4.56      0.00
   -8    5    8      3.01      0.00
   -7    5    8      5.14      0.00
   -6    5    8      6.88      0.00
   -5    5    8      8.48      0.00
   -4    5    8     10.04      0.00
   -3    5    8     12.59      0.00
   -2    5    8     10.90      0.00
   -1    5    8      3.16      0.00
    0    5    8     -3.97      0.00
    1    5    8    -18.85      0.00
    2    5    8     -7.36      0.00
    3    5    8      9.28      0.00
    4    5    8     -0.73      0.00
    5    5    8     -2.08      0.00
    6    5    8     16.90      0.00
    7    5    8     13.17      0.00
    8    5    8      2.37      0.00
    9    5    8      5.35      0.00
   10    5    8      5.04      0.00
   11    5    8      1.33      0.00
   12    5    8      2.34      0.00
   13    5    8      3.46      0.00
   14    5    8     -3.53      0.00
   15    5    8     -2.82      0.00
   16    5    8      0.54      0.00
   17    5    8      1.06      0.00
   18    5    8      1.60      0.00
   19    5    8      4.34      0.00
   20    5    8      2.21      0.00
   21    5    8      1.94      0.00
  -15    6    8     -2.24      0.00
  -14    6    8     -1.74      0.00
  -13    6    8      0.43      0.00
  -12    6    8      1.70      0.00
  -11    6    8      2.35      0.00
  -10    6    8      2.02      0.00
   -9    6    8      2.17      0.00
   -8    6    8      3.70      0.00
   -7    6    8      2.87      0.00
   -6    6    8      1.70      0.00
   -5    6    8      2.45      0.00
   -4    6    8     -0.39      0.00
   -3    6    8      6.14      0.00
   -2    6    8     11.46      0.00
   -1    6    8      7.34      0.00
    0    6    8      3.81      0.00
    1    6    8     -6.25      0.00
    2    6    8    -12.63      0.00
    3    6    8     -3.37      0.00
    4    6    8     -8.35      0.00
    5    6    8     -9.54      0.00
    6    6    8     10.10      0.00
    7    6    8     14.62      0.00
    8    6    8      6.01      0.00
    9    6    8      4.35      0.00
   10    6    8      6.21      0.00
   11    6    8      0.62      0.00
   12    6    8     -3.63      0.00
   13    6    8      1.35      0.00
   14    6    8     -2.29      0.00
   15    6    8     -5.58      0.00
   16    6    8     -4.65      0.00
   17    6    8     -2.01      0.00
   18    6    8     -0.83      0.00
   19    6    8      4.01      0.00
   20    6    8      1.40      0.00
   21    6    8      0.77      0.00
  -14    7    8     -0.46      0.00
  -13    7    8     -3.63      0.00
  -12    7    8     -2.73      0.00
  -11    7    8      2.11      0.00
  -10    7    8      1.55      0.00
   -9    7    8     -1.10      0.00
   -8    7    8     -0.46      0.00
   -7    7    8     -1.73      0.00
   -6    7    8     -3.31      0.00
   -5    7    8     -3.52      0.00
   -4    7    8     -5.40      0.00
   -3    7    8      2.50      0.00
   -2    7    8     11.79      0.00
   -1    7    8     12.98      0.00
    0    7    8     16.61      0.00
    1    7    8     20.51      0.00
    2    7    8     11.97      0.00
    3    7    8     11.10      0.00
    4    7    8      1.79      0.00
    5    7    8     -3.92      0.00
    6    7    8      0.84      0.00
    7    7    8      5.78      0.00
    8    7    8      0.12      0.00
    9    7    8     -7.59      0.00
   10    7    8     -3.44      0.00
   11    7    8     -6.16      0.00
   12    7    8    -10.72      0.00
   13    7    8     -5.04      0.00
   14    7    8     -1.16      0.00
   15    7    8     -3.71      0.00
   16    7    8     -5.76      0.00
   17    7    8     -2.66      0.00
   18    7    8     -2.31      0.00
   19    7    8      1.00      0.00
   20    7    8     -0.05      0.00
   21    7    8      0.75      0.00
  -14    8    8      4.92      0.00
  -13    8    8      4.13      0.00
  -12    8    8      0.26      0.00
  -11    8    8     -0.19      0.00
  -10    8    8     -0.42      0.00
   -9    8    8      2.18      0.00
   -8    8    8      4.53      0.00
   -7    8    8      3.19      0.00
   -6    8    8      1.10      0.00
   -5    8    8      0.67      0.00
   -4    8    8      0.54      0.00
   -3    8    8     -0.62      0.00
   -2    8    8      5.05      0.00
   -1    8    8      7.30      0.00
    0    8    8      8.08      0.00
    1    8    8     14.07      0.00
    2    8    8     11.47      0.00
    3    8    8      8.85      0.00
    4    8    8      3.93      0.00
    5    8    8      1.68      0.00
    6    8    8      1.32      0.00
    7    8    8      3.25      0.00
    8    8    8      0.84      0.00
    9    8    8     -6.43      0.00
   10    8    8     -1.76      0.00
   11    8    8     -1.10      0.00
   12    8    8     -6.92      0.00
   13    8    8     -6.97      0.00
   14    8    8     -0.49      0.00
   15    8    8      0.45      0.00
   16    8    8     -2.01      0.00
   17    8    8      1.90      0.00
   18    8    8      1.42      0.00
   19    8    8      1.57      0.00
   20    8    8     -0.56      0.00
   21    8    8     -0.91      0.00
  -13    9    8      2.95      0.00
  -12    9    8      2.29      0.00
  -11    9    8      1.25      0.00
  -10    9    8     -2.27      0.00
   -9    9    8     -1.67      0.00
   -8    9    8      0.42      0.00
   -7    9    8      0.84      0.00
   -6    9    8     -0.31      0.00
   -5    9    8     -1.32      0.00
   -4    9    8      1.83      0.00
   -3    9    8     -2.38      0.00
   -2    9    8     -1.02      0.00
   -1    9    8      2.66      0.00
    0    9    8      4.66      0.00
    1    9    8      5.39      0.00
    2    9    8      3.64      0.00
    3    9    8      1.20      0.00
    4    9    8     -2.60      0.00
    5    9    8     -4.34      0.00
    6    9    8     -4.34      0.00
    7    9    8     -4.32      0.00
    8    9    8      0.76      0.00
    9    9    8     -2.66      0.00
   10    9    8     -0.40      0.00
   11    9    8      3.83      0.00
   12    9    8     -0.34      0.00
   13    9    8     -4.01      0.00
   14    9    8     -0.59      0.00
   15    9    8      2.65      0.00
   16    9    8     -2.03      0.00
   17    9    8     -1.94      0.00
   18    9    8     -1.58      0.00
   19    9    8      1.89      0.00
   20    9    8      0.37      0.00
   21    9    8     -0.04      0.00
   22    9    8      2.46      0.00
  -12   10    8     -1.63      0.00
  -11   10    8     -0.62      0.00
  -10   10    8     -0.63      0.00
   -9   10    8      1.34      0.00
   -8   10    8      1.39      0.00
   -7   10    8     -0.61      0.00
   -6   10    8      0.69      0.00
   -5   10    8      1.20      0.00
   -4   10    8      2.23      0.00
   -3   10    8     -1.44      0.00
   -2   10    8     -3.58      0.00
   -1   10    8      0.55      0.00
    0   10    8      5.03      0.00
    1   10    8      3.49      0.00
    2   10    8      4.43      0.00
    3   10    8      5.98      0.00
    4   10    8      1.70      0.00
    5   10    8      1.93      0.00
    6   10    8      1.62      0.00
    7   10    8     -3.23      0.00
    8   10    8      1.27      0.00
    9   10    8      1.42      0.00
   10   10    8      0.01      0.00
   11   10    8      3.40      0.00
   12   10    8      4.96      0.00
   13   10    8      2.80      0.00
   14   10    8     -0.18      0.00
   15   10    8      2.33      0.00
   16   10    8     -1.51      0.00
   17   10    8     -4.24      0.00
   18   10    8     -5.82      0.00
   19   10    8     -1.32      0.00
   20   10    8     -0.89      0.00
   21   10    8     -1.03      0.00
   22   10    8     -0.26      0.00
  -11   11    8     -2.14      0.00
  -10   11    8     -2.60      0.00
   -9   11    8     -0.74      0.00
   -8   11    8      1.36      0.00
   -7   11    8     -1.45      0.00
   -6   11    8     -1.86      0.00
   -5   11    8     -0.09      0.00
   -4   11    8     -1.27      0.00
   -3   11    8     -3.05      0.00
   -2   11    8     -6.85      0.00
   -1   11    8     -3.85      0.00
    0   11    8     -0.78      0.00
    1   11    8     -3.81      0.00
    2   11    8     -3.40      0.00
    3   11    8      4.16      0.00
    4   11    8      1.34      0.00
    5   11    8     -0.92      0.00
    6   11    8     -0.04      0.00
    7   11    8     -3.22      0.00
    8   11    8     -3.87      0.00
    9   11    8     -0.16      0.00
   10   11    8     -2.15      0.00
   11   11    8     -2.04      0.00
   12   11    8      1.56      0.00
   13   11    8      2.21      0.00
   14   11    8      1.17      0.00
   15   11    8      4.40      0.00
   16   11    8      3.52      0.00
   17   11    8      2.14      0.00
   18   11    8     -1.12      0.00
   19   11    8     -0.09      0.00
   20   11    8     -0.05      0.00
   21   11    8     -2.78      0.00
   22   11    8     -3.37      0.00
  -10   12    8     -1.42      0.00
   -9   12    8     -3.92      0.00
   -8   12    8     -2.96      0.00
   -7   12    8     -3.63      0.00
   -6   12    8     -1.83      0.00
   -5   12    8      1.84      0.00
   -4   12    8     -0.21      0.00
   -3   12    8     -0.31      0.00
   -2   12    8     -1.93      0.00
   -1   12    8     -1.43      0.00
    0   12    8      1.13      0.00
    1   12    8      2.20      0.00
    2   12    8     -0.77      0.00
    3   12    8      5.42      0.00
    4   12    8      5.19      0.00
    5   12    8      1.12      0.00
    6   12    8      2.87      0.00
    7   12    8      2.28      0.00
    8   12    8     -0.69      0.00
    9   12    8     -0.58      0.00
   10   12    8     -5.15      0.00
   11   12    8     -6.38      0.00
   12   12    8     -2.73      0.00
   13   12    8     -2.62      0.00
   14   12    8     -3.32      0.00
   15   12    8     -2.96      0.00
   16   12    8     -2.43      0.00
   17   12    8     -1.73      0.00
   18   12    8     -2.33      0.00
   19   12    8      0.86      0.00
   20   12    8      1.41      0.00
   21   12    8     -2.56      0.00
   22   12    8     -1.79      0.00
   -9   13    8     -0.10      0.00
   -8   13    8     -0.63      0.00
   -7   13    8     -3.17      0.00
   -6   13    8     -2.65      0.00
   -5   13    8     -2.36      0.00
   -4   13    8     -5.50      0.00
   -3   13    8     -6.56      0.00
   -2   13    8     -2.62      0.00
   -1   13    8     -0.75      0.00
    0   13    8     -1.11      0.00
    1   13    8      0.99      0.00
    2   13    8      1.37      0.00
    3   13    8      3.94      0.00
    4   13    8      1.97      0.00
    5   13    8     -3.01      0.00
    6   13    8     -3.36      0.00
    7   13    8     -3.38      0.00
    8   13    8     -2.65      0.00
    9   13    8     -4.07      0.00
   10   13    8     -5.44      0.00
   11   13    8     -7.88      0.00
   12   13    8     -7.58      0.00
   13   13    8     -6.72      0.00
   14   13    8     -4.07      0.00
   15   13    8     -1.09      0.00
   16   13    8      2.94      0.00
   17   13    8      0.80      0.00
   18   13    8     -2.92      0.00
   19   13    8      1.77      0.00
   20   13    8      3.20      0.00
   21   13    8     -0.15      0.00
   22   13    8      0.00      0.00
   -8   14    8      3.88      0.00
   -7   14    8      0.90      0.00
   -6   14    8      0.55      0.00
   -5   14    8      0.72      0.00
   -4   14    8      2.27      0.00
   -3   14    8     -1.38      0.00
   -2   14    8     -0.19      0.00
   -1   14    8      1.73      0.00
    0   14    8      0.22      0.00
    1   14    8     -0.09      0.00
    2   14    8      0.84      0.00
    3   14    8      1.41      0.00
    4   14    8      1.98      0.00
    5   14    8      1.65      0.00
    6   14    8      0.62      0.00
    7   14    8     -0.58      0.00
    8   14    8      0.32      0.00
    9   14    8     -1.85      0.00
   10   14    8     -0.37      0.00
   11   14    8     -0.01      0.00
   12   14    8     -1.61      0.00
   13   14    8     -1.90      0.00
   14   14    8      0.78      0.00
   15   14    8      0.89      0.00
   16   14    8      2.67      0.00
   17   14    8      1.37      0.00
   18   14    8     -2.06      0.00
   19   14    8     -0.11      0.00
   20   14    8     -1.05      0.00
   21   14    8     -4.20      0.00
   -7   15    8      0.34      0.00
   -6   15    8     -0.11      0.00
   -5   15    8     -0.63      0.00
   -4   15    8      2.69      0.00
   -3   15    8      2.23      0.00
   -2   15    8      1.17      0.00
   -1   15    8     -1.62      0.00
    0   15    8     -5.01      0.00
    1   15    8     -3.66      0.00
    2   15    8     -2.73      0.00
    3   15    8     -1.72      0.00
    4   15    8     -3.18      0.00
    5   15    8      0.39      0.00
    6   15    8      3.69      0.00
    7   15    8     -0.48      0.00
    8   15    8     -1.44      0.00
    9   15    8     -0.28      0.00
   10   15    8     -1.14      0.00
   11   15    8      3.79      0.00
   12   15    8      1.75      0.00
   13   15    8     -4.04      0.00
   14   15    8     -1.90      0.00
   15   15    8      0.24      0.00
   16   15    8      0.00      0.00
   17   15    8     -0.67      0.00
   18   15    8     -1.17      0.00
   19   15    8      3.75      0.00
   20   15    8      7.35      0.00
   21   15    8      2.61      0.00
   -6   16    8      4.00      0.00
   -5   16    8      1.16      0.00
   -4   16    8     -1.60      0.00
   -3   16    8     -0.36      0.00
   -2   16    8      0.95      0.00
   -1   16    8      1.63      0.00
    0   16    8      0.69      0.00
    1   16    8      1.99      0.00
    2   16    8      0.80      0.00
    3   16    8      3.96      0.00
    4   16    8     -2.28      0.00
    5   16    8      0.69      0.00
    6   16    8      6.83      0.00
    7   16    8      0.41      0.00
    8   16    8     -2.63      0.00
    9   16    8      1.26      0.00
   10   16    8     -4.15      0.00
   11   16    8     -1.61      0.00
   12   16    8      1.92      0.00
   13   16    8     -0.14      0.00
   14   16    8     -1.04      0.00
   15   16    8     -0.29      0.00
   16   16    8      0.68      0.00
   17   16    8      4.64      0.00
   18   16    8      3.05      0.00
   19   16    8     -1.71      0.00
   20   16    8     -2.97      0.00
   21   16    8     -5.29      0.00
   -5   17    8     -1.27      0.00
   -4   17    8     -1.79      0.00
   -3   17    8      0.37      0.00
   -2   17    8     -0.67      0.00
   -1   17    8     -0.51      0.00
    0   17    8     -2.15      0.00
    1   17    8     -0.39      0.00
    2   17    8     -1.00      0.00
    3   17    8      1.82      0.00
    4   17    8     -1.73      0.00
    5   17    8     -0.05      0.00
    6   17    8      4.12      0.00
    7   17    8      0.06      0.00
    8   17    8     -5.60      0.00
    9   17    8      0.97      0.00
   10   17    8      3.33      0.00
   11   17    8     -0.08      0.00
   12   17    8      0.71      0.00
   13   17    8      0.00      0.00
   14   17    8      0.04      0.00
   15   17    8      1.21      0.00
   16   17    8     -1.81      0.00
   17   17    8      1.11      0.00
   18   17    8      5.80      0.00
   19   17    8      2.87      0.00
   20   17    8     -0.28      0.00
   -3   18    8      0.08      0.00
   -2   18    8      2.29      0.00
   -1   18    8      5.70      0.00
    0   18    8      2.20      0.00
    1   18    8      2.12      0.00
    2   18    8     -1.18      0.00
    3   18    8     -3.90      0.00
    4   18    8     -2.32      0.00
    5   18    8     -4.12      0.00
    6   18    8     -1.53      0.00
    7   18    8      3.76      0.00
    8   18    8      0.12      0.00
    9   18    8      0.35      0.00
   10   18    8      2.68      0.00
   11   18    8     -0.89      0.00
   12   18    8      2.04      0.00
   13   18    8      2.00      0.00
   14   18    8     -0.40      0.00
   15   18    8     -0.05      0.00
   16   18    8     -3.16      0.00
   17   18    8     -4.35      0.00
   18   18    8      0.22      0.00
   19   18    8      0.33      0.00
   20   18    8      0.03      0.00
   -1   19    8     -1.05      0.00
    0   19    8     -2.38      0.00
    1   19    8      2.15      0.00
    2   19    8      0.88      0.00
    3   19    8     -2.60      0.00
    4   19    8      1.10      0.00
    5   19    8     -2.75      0.00
    6   19    8     -4.70      0.00
    7   19    8     -0.21      0.00
    8   19    8      1.07      0.00
    9   19    8     -1.97      0.00
   10   19    8     -0.63      0.00
   11   19    8      0.36      0.00
   12   19    8      0.85      0.00
   13   19    8      1.17      0.00
   14   19    8     -2.00      0.00
   15   19    8     -3.03      0.00
   16   19    8     -1.25      0.00
   17   19    8      0.61      0.00
   18   19    8      2.63      0.00
   19   19    8      0.22      0.00
    1   20    8      0.50      0.00
    2   20    8      0.69      0.00
    3   20    8     -1.01      0.00
    4   20    8      1.09      0.00
    5   20    8      1.08      0.00
    6   20    8     -3.87      0.00
    7   20    8     -4.58      0.00
    8   20    8     -0.50      0.00
    9   20    8     -5.84      0.00
   10   20    8     -6.61      0.00
   11   20    8     -1.72      0.00
   12   20    8     -2.91      0.00
   13   20    8     -0.06      0.00
   14   20    8      1.47      0.00
   15   20    8     -0.83      0.00
   16   20    8     -3.78      0.00
   17   20    8     -3.53      0.00
   18   20    8     -0.85      0.00
    3   21    8      1.60      0.00
    4   21    8     -1.07      0.00
    5   21    8     -0.73      0.00
    6   21    8     -3.63      0.00
    7   21    8     -2.48      0.00
    8   21    8      2.24      0.00
    9   21    8     -1.38      0.00
   10   21    8     -3.79      0.00
   11   21    8     -0.53      0.00
   12   21    8     -3.84      0.00
   13   21    8     -4.68      0.00
   14   21    8      0.60      0.00
   15   21    8      3.19      0.00
   16   21    8      1.05      0.00
    7   22    8      2.69      0.00
    8   22    8      4.59      0.00
    9   22    8      3.08      0.00
   10   22    8     -1.22      0.00
   11   22    8      0.67      0.00
   12   22    8     -1.79      0.00
   13   22    8     -6.98      0.00
   14   22    8     -2.91      0.00
  -11  -15    9      3.51      0.00
  -10  -15    9      0.85      0.00
   -9  -15    9      0.23      0.00
   -8  -15    9      0.23      0.00
   -7  -15    9      1.07      0.00
   -6  -15    9     -0.01      0.00
   -5  -15    9      1.27      0.00
   -4  -15    9      1.20      0.00
   -3  -15    9      1.46      0.00
   -2  -15    9      2.50      0.00
  -13  -14    9     -1.63      0.00
  -12  -14    9     -1.40      0.00
  -11  -14    9      4.24      0.00
  -10  -14    9      4.62      0.00
   -9  -14    9      2.13      0.00
   -8  -14    9     -3.01      0.00
   -7  -14    9     -4.40      0.00
   -6  -14    9     -6.60      0.00
   -5  -14    9     -5.42      0.00
   -4  -14    9     -3.09      0.00
   -3  -14    9     -2.12      0.00
   -2  -14    9     -1.00      0.00
   -1  -14    9     -1.59      0.00
    0  -14    9      0.10      0.00
    1  -14    9      2.77      0.00
  -15  -13    9      1.40      0.00
  -14  -13    9     -0.45      0.00
  -13  -13    9     -0.12      0.00
  -12  -13    9     -0.78      0.00
  -11  -13    9      0.09      0.00
  -10  -13    9     -1.48      0.00
   -9  -13    9     -1.14      0.00
   -8  -13    9     -4.12      0.00
   -7  -13    9     -0.20      0.00
   -6  -13    9      2.08      0.00
   -5  -13    9      2.75      0.00
   -4  -13    9      4.20      0.00
   -3  -13    9      2.25      0.00
   -2  -13    9      1.63      0.00
   -1  -13    9      0.40      0.00
    0  -13    9     -0.98      0.00
    1  -13    9      0.46      0.00
    2  -13    9      0.61      0.00
    3  -13    9      0.90      0.00
    4  -13    9      3.01      0.00
  -15  -12    9      2.60      0.00
  -14  -12    9      0.91      0.00
  -13  -12    9     -0.50      0.00
  -12  -12    9     -1.53      0.00
  -11  -12    9     -1.85      0.00
  -10  -12    9     -4.10      0.00
   -9  -12    9     -2.67      0.00
   -8  -12    9     -3.74      0.00
   -7  -12    9     -1.21      0.00
   -6  -12    9     -0.02      0.00
   -5  -12    9     -2.34      0.00
   -4  -12    9     -1.96      0.00
   -3  -12    9     -1.82      0.00
   -2  -12    9      1.20      0.00
   -1  -12    9      2.94      0.00
    0  -12    9      1.75      0.00
    1  -12    9      1.77      0.00
    2  -12    9      0.62      0.00
    3  -12    9     -2.42      0.00
    4  -12    9     -1.06      0.00
    5  -12    9     -0.49      0.00
  -16  -11    9      0.63      0.00
  -15  -11    9      0.32      0.00
  -14  -11    9      1.19      0.00
  -13  -11    9      1.77      0.00
  -12  -11    9      1.81      0.00
  -11  -11    9      1.27      0.00
  -10  -11    9     -1.56      0.00
   -9  -11    9     -0.40      0.00
   -8  -11    9     -2.06      0.00
   -7  -11    9     -3.58      0.00
   -6  -11    9      0.38      0.00
   -5  -11    9     -1.55      0.00
   -4  -11    9     -3.05      0.00
   -3  -11    9     -3.68      0.00
   -2  -11    9     -1.43      0.00
   -1  -11    9     -0.61      0.00
    0  -11    9     -1.58      0.00
    1  -11    9      0.15      0.00
    2  -11    9      2.03      0.00
    3  -11    9      0.83      0.00
    4  -11    9      2.36      0.00
    5  -11    9      2.83      0.00
    6  -11    9      6.60      0.00
    7  -11    9      5.94      0.00
  -17  -10    9      3.72      0.00
  -16  -10    9      2.40      0.00
  -15  -10    9     -1.32      0.00
  -14  -10    9     -1.64      0.00
  -13  -10    9     -1.05      0.00
  -12  -10    9     -0.47      0.00
  -11  -10    9     -0.19      0.00
  -10  -10    9     -2.78      0.00
   -9  -10    9      0.64      0.00
   -8  -10    9      1.58      0.00
   -7  -10    9     -1.82      0.00
   -6  -10    9      1.76      0.00
   -5  -10    9      1.21      0.00
   -4  -10    9      0.76      0.00
   -3  -10    9     -1.37      0.00
   -2  -10    9     -0.52      0.00
   -1  -10    9      0.23      0.00
    0  -10    9      0.01      0.00
    1  -10    9      0.94      0.00
    2  -10    9      2.97      0.00
    3  -10    9      1.11      0.00
    4  -10    9     -0.76      0.00
    5  -10    9     -1.45      0.00
    6  -10    9      2.92      0.00
    7  -10    9      3.63      0.00
    8  -10    9      3.01      0.00
    9  -10    9      1.65      0.00
  -17   -9    9      5.39      0.00
  -16   -9    9      5.31      0.00
  -15   -9    9      0.75      0.00
  -14   -9    9      0.24      0.00
  -13   -9    9      0.64      0.00
  -12   -9    9      0.23      0.00
  -11   -9    9      2.01      0.00
  -10   -9    9     -0.14      0.00
   -9   -9    9     -0.48      0.00
   -8   -9    9     -0.51      0.00
   -7   -9    9     -3.13      0.00
   -6   -9    9     -2.20      0.00
   -5   -9    9     -4.02      0.00
   -4   -9    9     -4.59      0.00
   -3   -9    9     -5.16      0.00
   -2   -9    9     -1.45      0.00
   -1   -9    9      2.67      0.00
    0   -9    9      1.71      0.00
    1   -9    9     -0.93      0.00
    2   -9    9      2.60      0.00
    3   -9    9      2.53      0.00
    4   -9    9     -0.57      0.00
    5   -9    9     -0.46      0.00
    6   -9    9      1.61      0.00
    7   -9    9     -0.53      0.00
    8   -9    9     -2.32      0.00
    9   -9    9     -4.83      0.00
   10   -9    9     -4.27      0.00
  -17   -8    9      3.71      0.00
  -16   -8    9      3.68      0.00
  -15   -8    9      1.15      0.00
  -14   -8    9      1.25      0.00
  -13   -8    9      2.13      0.00
  -12   -8    9     -0.51      0.00
  -11   -8    9     -1.73      0.00
  -10   -8    9     -3.40      0.00
   -9   -8    9     -3.57      0.00
   -8   -8    9     -1.31      0.00
   -7   -8    9     -1.81      0.00
   -6   -8    9      0.05      0.00
   -5   -8    9      0.66      0.00
   -4   -8    9      1.58      0.00
   -3   -8    9     -0.64      0.00
   -2   -8    9     -0.87      0.00
   -1   -8    9      3.61      0.00
    0   -8    9      0.81      0.00
    1   -8    9     -2.60      0.00
    2   -8    9      2.05      0.00
    3   -8    9      3.90      0.00
    4   -8    9      0.15      0.00
    5   -8    9     -1.13      0.00
    6   -8    9      0.40      0.00
    7   -8    9      0.22      0.00
    8   -8    9      1.87      0.00
    9   -8    9      0.50      0.00
   10   -8    9     -2.65      0.00
   11   -8    9      1.38      0.00
  -18   -7    9     -6.46      0.00
  -17   -7    9     -3.84      0.00
  -16   -7    9     -4.31      0.00
  -15   -7    9     -2.22      0.00
  -14   -7    9     -2.76      0.00
  -13   -7    9     -2.16      0.00
  -12   -7    9     -2.22      0.00
  -11   -7    9     -1.33      0.00
  -10   -7    9     -1.57      0.00
   -9   -7    9     -2.31      0.00
   -8   -7    9     -0.67      0.00
   -7   -7    9     -0.22      0.00
   -6   -7    9      1.05      0.00
   -5   -7    9     -1.29      0.00
   -4   -7    9     -0.03      0.00
   -3   -7    9     -0.82      0.00
   -2   -7    9     -0.36      0.00
   -1   -7    9      4.46      0.00
    0   -7    9      0.99      0.00
    1   -7    9     -0.18      0.00
    2   -7    9      1.05      0.00
    3   -7    9      2.28      0.00
    4   -7    9     -0.33      0.00
    5   -7    9     -1.19      0.00
    6   -7    9      0.68      0.00
    7   -7    9     -1.62      0.00
    8   -7    9      0.12      0.00
    9   -7    9      4.07      0.00
   10   -7    9     -0.55      0.00
   11   -7    9     -0.72      0.00
   12   -7    9      2.32      0.00
  -18   -6    9     -1.44      0.00
  -17   -6    9     -2.34      0.00
  -16   -6    9     -4.25      0.00
  -15   -6    9     -0.06      0.00
  -14   -6    9      1.97      0.00
  -13   -6    9      2.40      0.00
  -12   -6    9      1.77      0.00
  -11   -6    9      0.43      0.00
  -10   -6    9     -0.10      0.00
   -9   -6    9      1.67      0.00
   -8   -6    9      0.75      0.00
   -7   -6    9     -1.01      0.00
   -6   -6    9      0.14      0.00
   -5   -6    9     -1.54      0.00
   -4   -6    9      0.08      0.00
   -3   -6    9      0.13      0.00
   -2   -6    9     -1.46      0.00
   -1   -6    9     -3.59      0.00
    0   -6    9     -7.82      0.00
    1   -6    9     -3.03      0.00
    2   -6    9      1.71      0.00
    3   -6    9      3.89      0.00
    4   -6    9     -0.83      0.00
    5   -6    9     -3.17      0.00
    6   -6    9      1.92      0.00
    7   -6    9      0.69      0.00
    8   -6    9     -3.27      0.00
    9   -6    9      0.85      0.00
   10   -6    9      0.28      0.00
   11   -6    9      2.03      0.00
   12   -6    9      6.66      0.00
   13   -6    9      2.33      0.00
  -18   -5    9     -0.05      0.00
  -17   -5    9     -0.18      0.00
  -16   -5    9     -2.93      0.00
  -15   -5    9     -2.26      0.00
  -14   -5    9      0.85      0.00
  -13   -5    9      1.17      0.00
  -12   -5    9      4.12      0.00
  -11   -5    9      1.41      0.00
  -10   -5    9     -4.30      0.00
   -9   -5    9     -1.07      0.00
   -8   -5    9      1.36      0.00
   -7   -5    9      0.47      0.00
   -6   -5    9      1.34      0.00
   -5   -5    9     -0.10      0.00
   -4   -5    9      0.21      0.00
   -3   -5    9      3.50      0.00
   -2   -5    9      3.73      0.00
   -1   -5    9      0.00      0.00
    0   -5    9     -5.06      0.00
    1   -5    9     -2.62      0.00
    2   -5    9      1.04      0.00
    3   -5    9      1.72      0.00
    4   -5    9      0.40      0.00
    5   -5    9     -2.82      0.00
    6   -5    9     -0.38      0.00
    7   -5    9      3.45      0.00
    8   -5    9      0.00      0.00
    9   -5    9      0.71      0.00
   10   -5    9      0.44      0.00
   11   -5    9     -0.66      0.00
   12   -5    9     -0.42      0.00
   13   -5    9     -3.73      0.00
   14   -5    9     -4.42      0.00
  -18   -4    9     -2.03      0.00
  -17   -4    9     -0.38      0.00
  -16   -4    9     -1.95      0.00
  -15   -4    9     -1.91      0.00
  -14   -4    9      0.36      0.00
  -13   -4    9     -1.08      0.00
  -12   -4    9      4.62      0.00
  -11   -4    9      6.38      0.00
  -10   -4    9      1.12      0.00
   -9   -4    9      2.80      0.00
   -8   -4    9      4.60      0.00
   -7   -4    9      0.42      0.00
   -6   -4    9     -0.19      0.00
   -5   -4    9     -1.36      0.00
   -4   -4    9     -1.65      0.00
   -3   -4    9      1.02      0.00
   -2   -4    9      2.62      0.00
   -1   -4    9      2.88      0.00
    0   -4    9     -0.53      0.00
    1   -4    9      2.77      0.00
    2   -4    9      5.43      0.00
    3   -4    9      0.04      0.00
    4   -4    9      2.54      0.00
    5   -4    9      2.29      0.00
    6   -4    9     -1.83      0.00
    7   -4    9      0.76      0.00
    8   -4    9     -2.52      0.00
    9   -4    9     -4.95      0.00
   10   -4    9     -1.98      0.00
   11   -4    9     -1.60      0.00
   12   -4    9     -0.94      0.00
   13   -4    9      0.32      0.00
   14   -4    9      0.72      0.00
   15   -4    9      2.80      0.00
  -18   -3    9     -1.04      0.00
  -17   -3    9     -0.35      0.00
  -16   -3    9     -0.76      0.00
  -15   -3    9      0.16      0.00
  -14   -3    9     -0.38      0.00
  -13   -3    9     -2.23      0.00
  -12   -3    9     -0.75      0.00
  -11   -3    9      0.75      0.00
  -10   -3    9     -4.49      0.00
   -9   -3    9     -3.45      0.00
   -8   -3    9      0.68      0.00
   -7   -3    9     -3.78      0.00
   -6   -3    9     -6.25      0.00
   -5   -3    9     -5.52      0.00
   -4   -3    9     -1.30      0.00
   -3   -3    9     -1.40      0.00
   -2   -3    9     -1.46      0.00
   -1   -3    9      1.19      0.00
    0   -3    9     -1.95      0.00
    1   -3    9      1.44      0.00
    2   -3    9      5.94      0.00
    3   -3    9     -2.90      0.00
    4   -3    9     -3.35      0.00
    5   -3    9      1.10      0.00
    6   -3    9     -2.07      0.00
    7   -3    9      3.00      0.00
    8   -3    9      3.74      0.00
    9   -3    9     -0.72      0.00
   10   -3    9      0.84      0.00
   11   -3    9      1.57      0.00
   12   -3    9      1.96      0.00
   13   -3    9     -0.93      0.00
   14   -3    9     -2.92      0.00
   15   -3    9     -1.34      0.00
   16   -3    9     -2.08      0.00
  -18   -2    9      1.31      0.00
  -17   -2    9      0.21      0.00
  -16   -2    9      0.17      0.00
  -15   -2    9      0.29      0.00
  -14   -2    9     -1.16      0.00
  -13   -2    9      0.09      0.00
  -12   -2    9     -1.22      0.00
  -11   -2    9      0.96      0.00
  -10   -2    9     -1.47      0.00
   -9   -2    9      0.62      0.00
   -8   -2    9      5.93      0.00
   -7   -2    9      3.90      0.00
   -6   -2    9      0.12      0.00
   -5   -2    9     -1.38      0.00
   -4   -2    9      3.89      0.00
   -3   -2    9      3.26      0.00
   -2   -2    9      0.84      0.00
   -1   -2    9      4.70      0.00
    0   -2    9      2.69      0.00
    1   -2    9      1.45      0.00
    2   -2    9      9.35      0.00
    3   -2    9      5.72      0.00
    4   -2    9      2.00      0.00
    5   -2    9      5.18      0.00
    6   -2    9     -2.29      0.00
    7   -2    9     -2.60      0.00
    8   -2    9      0.83      0.00
    9   -2    9     -0.13      0.00
   10   -2    9     -2.22      0.00
   11   -2    9     -1.95      0.00
   12   -2    9      2.76      0.00
   13   -2    9      1.61      0.00
   14   -2    9     -1.41      0.00
   15   -2    9     -3.18      0.00
   16   -2    9     -4.82      0.00
   17   -2    9     -4.52      0.00
  -17   -1    9     -1.61      0.00
  -16   -1    9      1.13      0.00
  -15   -1    9      2.21      0.00
  -14   -1    9     -0.77      0.00
  -13   -1    9      0.06      0.00
  -12   -1    9      0.51      0.00
  -11   -1    9      1.60      0.00
  -10   -1    9     -1.10      0.00
   -9   -1    9     -0.06      0.00
   -8   -1    9      3.37      0.00
   -7   -1    9      3.07      0.00
   -6   -1    9      5.31      0.00
   -5   -1    9      5.08      0.00
   -4   -1    9      5.90      0.00
   -3   -1    9      2.79      0.00
   -2   -1    9     -3.34      0.00
   -1   -1    9     -0.58      0.00
    0   -1    9     -1.62      0.00
    1   -1    9     -8.54      0.00
    2   -1    9     -2.34      0.00
    3   -1    9      1.20      0.00
    4   -1    9      0.75      0.00
    5   -1    9      3.65      0.00
    6   -1    9     -1.51      0.00
    7   -1    9     -4.36      0.00
    8   -1    9     -1.50      0.00
    9   -1    9      1.90      0.00
   10   -1    9     -0.01      0.00
   11   -1    9     -0.80      0.00
   12   -1    9      3.66      0.00
   13   -1    9      5.40      0.00
   14   -1    9      3.19      0.00
   15   -1    9      2.27      0.00
   16   -1    9      0.23      0.00
   17   -1    9     -0.62      0.00
  -17    0    9     -2.55      0.00
  -16    0    9     -2.58      0.00
  -15    0    9      2.26      0.00
  -14    0    9      2.17      0.00
  -13    0    9     -1.27      0.00
  -12    0    9     -0.69      0.00
  -11    0    9     -0.01      0.00
  -10    0    9     -1.80      0.00
   -9    0    9     -1.65      0.00
   -8    0    9      0.44      0.00
   -7    0    9     -4.41      0.00
   -6    0    9     -1.16      0.00
   -5    0    9      0.12      0.00
   -4    0    9     -1.22      0.00
   -3    0    9     -2.63      0.00
   -2    0    9     -5.76      0.00
   -1    0    9     -5.77      0.00
    0    0    9     -6.02      0.00
    1    0    9    -12.01      0.00
    2    0    9     -9.79      0.00
    3    0    9     -3.71      0.00
    4    0    9     -0.16      0.00
    5    0    9      2.89      0.00
    6    0    9      0.30      0.00
    7    0    9     -2.70      0.00
    8    0    9     -3.41      0.00
    9    0    9     -0.80      0.00
   10    0    9     -1.86      0.00
   11    0    9     -4.56      0.00
   12    0    9     -1.12      0.00
   13    0    9      1.80      0.00
   14    0    9     -0.63      0.00
   15    0    9      3.20      0.00
   16    0    9      2.71      0.00
   17    0    9     -1.50      0.00
   18    0    9     -2.33      0.00
  -17    1    9      0.94      0.00
  -16    1    9     -1.59      0.00
  -15    1    9      0.43      0.00
  -14    1    9      3.13      0.00
  -13    1    9      0.03      0.00
  -12    1    9      0.18      0.00
  -11    1    9      0.90      0.00
  -10    1    9      0.91      0.00
   -9    1    9      1.64      0.00
   -8    1    9      5.39      0.00
   -7    1    9      0.47      0.00
   -6    1    9      5.04      0.00
   -5    1    9      8.94      0.00
   -4    1    9      5.36      0.00
   -3    1    9      4.07      0.00
   -2    1    9      5.60      0.00
   -1    1    9      0.86      0.00
    0    1    9     -4.55      0.00
    1    1    9    -11.08      0.00
    2    1    9     -9.81      0.00
    3    1    9     -6.35      0.00
    4    1    9     -0.86      0.00
    5    1    9      6.93      0.00
    6    1    9      5.45      0.00
    7    1    9      5.83      0.00
    8    1    9      1.26      0.00
    9    1    9     -1.01      0.00
   10    1    9     -1.73      0.00
   11    1    9     -7.11      0.00
   12    1    9     -3.83      0.00
   13    1    9      0.39      0.00
   14    1    9     -2.24      0.00
   15    1    9      0.19      0.00
   16    1    9      0.63      0.00
   17    1    9     -3.21      0.00
   18    1    9     -6.42      0.00
  -17    2    9     -1.07      0.00
  -16    2    9     -0.69      0.00
  -15    2    9     -0.52      0.00
  -14    2    9      2.77      0.00
  -13    2    9     -1.05      0.00
  -12    2    9     -2.99      0.00
  -11    2    9     -2.95      0.00
  -10    2    9     -3.03      0.00
   -9    2    9     -3.90      0.00
   -8    2    9     -1.71      0.00
   -7    2    9     -5.13      0.00
   -6    2    9     -2.05      0.00
   -5    2    9      3.43      0.00
   -4    2    9     -1.47      0.00
   -3    2    9     -0.32      0.00
   -2    2    9      9.39      0.00
   -1    2    9      8.92      0.00
    0    2    9      1.02      0.00
    1    2    9     -2.44      0.00
    2    2    9      2.60      0.00
    3    2    9     -7.10      0.00
    4    2    9    -11.42      0.00
    5    2    9     -6.35      0.00
    6    2    9    -12.82      0.00
    7    2    9     -5.24      0.00
    8    2    9      0.89      0.00
    9    2    9      1.58      0.00
   10    2    9      2.07      0.00
   11    2    9     -2.02      0.00
   12    2    9     -0.11      0.00
   13    2    9      0.30      0.00
   14    2    9     -2.49      0.00
   15    2    9     -1.90      0.00
   16    2    9      1.68      0.00
   17    2    9      1.82      0.00
   18    2    9      0.55      0.00
   19    2    9      0.98      0.00
  -16    3    9     -0.30      0.00
  -15    3    9     -3.21      0.00
  -14    3    9      1.12      0.00
  -13    3    9      1.07      0.00
  -12    3    9      0.65      0.00
  -11    3    9      1.46      0.00
  -10    3    9      1.81      0.00
   -9    3    9      0.45      0.00
   -8    3    9      3.43      0.00
   -7    3    9      3.33      0.00
   -6    3    9      4.05      0.00
   -5    3    9      7.99      0.00
   -4    3    9     -2.36      0.00
   -3    3    9     -8.74      0.00
   -2    3    9     -2.32      0.00
   -1    3    9     -1.65      0.00
    0    3    9    -14.36      0.00
    1    3    9    -13.13      0.00
    2    3    9      5.51      0.00
    3    3    9      0.13      0.00
    4    3    9     -1.74      0.00
    5    3    9     11.87      0.00
    6    3    9      4.76      0.00
    7    3    9     -1.01      0.00
    8    3    9      4.61      0.00
    9    3    9      5.30      0.00
   10    3    9      4.04      0.00
   11    3    9      1.87      0.00
   12    3    9      2.65      0.00
   13    3    9      0.13      0.00
   14    3    9     -2.21      0.00
   15    3    9     -2.74      0.00
   16    3    9      0.37      0.00
   17    3    9      0.29      0.00
   18    3    9      0.61      0.00
   19    3    9      0.25      0.00
  -16    4    9     -0.09      0.00
  -15    4    9     -1.41      0.00
  -14    4    9      2.40      0.00
  -13    4    9      2.66      0.00
  -12    4    9     -0.02      0.00
  -11    4    9      0.79      0.00
  -10    4    9      0.85      0.00
   -9    4    9     -2.53      0.00
   -8    4    9     -1.18      0.00
   -7    4    9     -0.99      0.00
   -6    4    9     -0.11      0.00
   -5    4    9      5.65      0.00
   -4    4    9      5.75      0.00
   -3    4    9      5.40      0.00
   -2    4    9     10.28      0.00
   -1    4    9     10.56      0.00
    0    4    9     -3.29      0.00
    1    4    9     -9.28      0.00
    2    4    9      4.74      0.00
    3    4    9     -1.52      0.00
    4    4    9    -12.22      0.00
    5    4    9      5.39      0.00
    6    4    9      9.58      0.00
    7    4    9     -0.41      0.00
    8    4    9      7.06      0.00
    9    4    9      7.25      0.00
   10    4    9      3.90      0.00
   11    4    9      2.32      0.00
   12    4    9      3.01      0.00
   13    4    9     -0.84      0.00
   14    4    9     -2.30      0.00
   15    4    9     -0.40      0.00
   16    4    9      1.31      0.00
   17    4    9      0.61      0.00
   18    4    9      2.78      0.00
   19    4    9      2.71      0.00
   20    4    9      3.05      0.00
  -15    5    9      0.01      0.00
  -14    5    9      1.86      0.00
  -13    5    9      3.90      0.00
  -12    5    9      1.59      0.00
  -11    5    9      1.72      0.00
  -10    5    9      0.82      0.00
   -9    5    9     -1.76      0.00
   -8    5    9     -3.67      0.00
   -7    5    9     -4.49      0.00
   -6    5    9     -2.42      0.00
   -5    5    9     -2.10      0.00
   -4    5    9      1.34      0.00
   -3    5    9      6.78      0.00
   -2    5    9     12.62      0.00
   -1    5    9     13.95      0.00
    0    5    9      8.50      0.00
    1    5    9      0.45      0.00
    2    5    9      9.31      0.00
    3    5    9      2.17      0.00
    4    5    9    -18.73      0.00
    5    5    9     -9.84      0.00
    6    5    9     -6.37      0.00
    7    5    9    -18.00      0.00
    8    5    9    -11.85      0.00
    9    5    9     -6.90      0.00
   10    5    9     -6.27      0.00
   11    5    9     -4.74      0.00
   12    5    9      1.46      0.00
   13    5    9     -0.72      0.00
   14    5    9     -4.83      0.00
   15    5    9     -2.96      0.00
   16    5    9     -1.83      0.00
   17    5    9     -1.25      0.00
   18    5    9      1.84      0.00
   19    5    9      1.55      0.00
   20    5    9     -0.88      0.00
  -15    6    9     -1.15      0.00
  -14    6    9     -3.00      0.00
  -13    6    9     -1.33      0.00
  -12    6    9      1.20      0.00
  -11    6    9      1.69      0.00
  -10    6    9     -0.50      0.00
   -9    6    9      1.70      0.00
   -8    6    9      2.80      0.00
   -7    6    9      3.10      0.00
   -6    6    9      2.90      0.00
   -5    6    9     -0.96      0.00
   -4    6    9      0.21      0.00
   -3    6    9      4.13      0.00
   -2    6    9      4.13      0.00
   -1    6    9     -1.45      0.00
    0    6    9     -5.43      0.00
    1    6    9    -13.01      0.00
    2    6    9     -5.34      0.00
    3    6    9     -0.96      0.00
    4    6    9     -7.36      0.00
    5    6    9      4.90      0.00
    6    6    9     12.85      0.00
    7    6    9      3.52      0.00
    8    6    9     -1.51      0.00
    9    6    9      3.16      0.00
   10    6    9      5.06      0.00
   11    6    9      4.21      0.00
   12    6    9      8.10      0.00
   13    6    9      4.99      0.00
   14    6    9     -2.80      0.00
   15    6    9     -3.58      0.00
   16    6    9     -2.28      0.00
   17    6    9     -1.57      0.00
   18    6    9     -0.66      0.00
   19    6    9      0.01      0.00
   20    6    9     -3.96      0.00
   21    6    9     -2.11      0.00
  -14    7    9      0.33      0.00
  -13    7    9     -2.83      0.00
  -12    7    9     -1.83      0.00
  -11    7    9     -0.83      0.00
  -10    7    9     -1.09      0.00
   -9    7    9      1.99      0.00
   -8    7    9      2.80      0.00
   -7    7    9      2.23      0.00
   -6    7    9      0.50      0.00
   -5    7    9     -1.16      0.00
   -4    7    9     -3.97      0.00
   -3    7    9     -1.69      0.00
   -2    7    9     -0.63      0.00
   -1    7    9     -4.05      0.00
    0    7    9     -2.55      0.00
    1    7    9     -8.02      0.00
    2    7    9    -13.80      0.00
    3    7    9    -14.08      0.00
    4    7    9    -17.96      0.00
    5    7    9     -9.05      0.00
    6    7    9      3.24      0.00
    7    7    9      2.91      0.00
    8    7    9     -2.85      0.00
    9    7    9      0.46      0.00
   10    7    9      2.37      0.00
   11    7    9     -1.67      0.00
   12    7    9      0.31      0.00
   13    7    9      4.16      0.00
   14    7    9      1.56      0.00
   15    7    9     -1.87      0.00
   16    7    9     -2.20      0.00
   17    7    9     -2.78      0.00
   18    7    9     -4.37      0.00
   19    7    9     -1.99      0.00
   20    7    9     -5.29      0.00
   21    7    9     -2.36      0.00
  -13    8    9     -0.39      0.00
  -12    8    9      1.66      0.00
  -11    8    9      1.23      0.00
  -10    8    9     -0.85      0.00
   -9    8    9      1.20      0.00
   -8    8    9      3.06      0.00
   -7    8    9      0.82      0.00
   -6    8    9     -2.62      0.00
   -5    8    9     -1.61      0.00
   -4    8    9     -4.06      0.00
   -3    8    9     -3.68      0.00
   -2    8    9     -3.13      0.00
   -1    8    9     -5.66      0.00
    0    8    9     -0.74      0.00
    1    8    9      1.22      0.00
    2    8    9     -3.64      0.00
    3    8    9     -3.33      0.00
    4    8    9     -7.18      0.00
    5    8    9     -4.31      0.00
    6    8    9      2.55      0.00
    7    8    9      5.87      0.00
    8    8    9      4.14      0.00
    9    8    9      4.33      0.00
   10    8    9      8.47      0.00
   11    8    9      2.33      0.00
   12    8    9      0.42      0.00
   13    8    9      4.83      0.00
   14    8    9      6.00      0.00
   15    8    9      1.81      0.00
   16    8    9      0.41      0.00
   17    8    9     -0.64      0.00
   18    8    9     -2.67      0.00
   19    8    9      0.59      0.00
   20    8    9     -0.72      0.00
   21    8    9      0.91      0.00
  -13    9    9     -1.13      0.00
  -12    9    9     -0.89      0.00
  -11    9    9     -0.98      0.00
  -10    9    9     -2.39      0.00
   -9    9    9     -0.97      0.00
   -8    9    9      0.87      0.00
   -7    9    9      0.77      0.00
   -6    9    9      1.17      0.00
   -5    9    9      2.66      0.00
   -4    9    9      1.98      0.00
   -3    9    9     -2.12      0.00
   -2    9    9     -3.41      0.00
   -1    9    9     -4.77      0.00
    0    9    9     -1.97      0.00
    1    9    9      0.86      0.00
    2    9    9     -0.38      0.00
    3    9    9     -1.96      0.00
    4    9    9     -3.67      0.00
    5    9    9     -1.75      0.00
    6    9    9     -1.52      0.00
    7    9    9      0.87      0.00
    8    9    9      2.31      0.00
    9    9    9      2.40      0.00
   10    9    9      9.15      0.00
   11    9    9      4.60      0.00
   12    9    9      0.99      0.00
   13    9    9      1.63      0.00
   14    9    9      4.20      0.00
   15    9    9      1.94      0.00
   16    9    9      0.54      0.00
   17    9    9      0.43      0.00
   18    9    9     -1.88      0.00
   19    9    9     -1.28      0.00
   20    9    9     -1.37      0.00
   21    9    9      0.40      0.00
  -12   10    9      0.50      0.00
  -11   10    9      0.56      0.00
  -10   10    9     -1.21      0.00
   -9   10    9     -0.99      0.00
   -8   10    9     -0.83      0.00
   -7   10    9     -1.10      0.00
   -6   10    9      0.75      0.00
   -5   10    9      0.46      0.00
   -4   10    9      2.52      0.00
   -3   10    9     -0.03      0.00
   -2   10    9      0.83      0.00
   -1   10    9      1.64      0.00
    0   10    9     -0.77      0.00
    1   10    9     -1.71      0.00
    2   10    9      2.13      0.00
    3   10    9      1.47      0.00
    4   10    9     -2.01      0.00
    5   10    9     -1.98      0.00
    6   10    9     -4.67      0.00
    7   10    9     -6.46      0.00
    8   10    9     -5.86      0.00
    9   10    9     -6.75      0.00
   10   10    9     -1.90      0.00
   11   10    9      1.24      0.00
   12   10    9      1.89      0.00
   13   10    9      2.16      0.00
   14   10    9      4.85      0.00
   15   10    9      4.96      0.00
   16   10    9      3.53      0.00
   17   10    9      3.74      0.00
   18   10    9      1.84      0.00
   19   10    9      2.91      0.00
   20   10    9      1.23      0.00
   21   10    9      1.01      0.00
  -11   11    9      1.00      0.00
  -10   11    9      0.00      0.00
   -9   11    9     -1.80      0.00
   -8   11    9     -4.67      0.00
   -7   11    9     -5.77      0.00
   -6   11    9     -1.81      0.00
   -5   11    9     -1.44      0.00
   -4   11    9      0.01      0.00
   -3   11    9     -0.48      0.00
   -2   11    9     -0.28      0.00
   -1   11    9      2.83      0.00
    0   11    9      1.17      0.00
    1   11    9     -3.95      0.00
    2   11    9     -1.14      0.00
    3   11    9      2.20      0.00
    4   11    9     -2.13      0.00
    5   11    9      0.86      0.00
    6   11    9      1.66      0.00
    7   11    9     -0.07      0.00
    8   11    9      1.18      0.00
    9   11    9     -1.85      0.00
   10   11    9     -4.62      0.00
   11   11    9     -2.01      0.00
   12   11    9     -1.43      0.00
   13   11    9     -0.93      0.00
   14   11    9     -0.46      0.00
   15   11    9     -0.63      0.00
   16   11    9     -0.70      0.00
   17   11    9      1.18      0.00
   18   11    9     -0.70      0.00
   19   11    9      0.96      0.00
   20   11    9     -2.26      0.00
   21   11    9     -2.27      0.00
   22   11    9     -1.28      0.00
  -10   12    9      4.21      0.00
   -9   12    9      4.11      0.00
   -8   12    9      0.88      0.00
   -7   12    9     -1.43      0.00
   -6   12    9      0.53      0.00
   -5   12    9      0.21      0.00
   -4   12    9     -1.66      0.00
   -3   12    9      0.34      0.00
   -2   12    9      1.23      0.00
   -1   12    9      2.08      0.00
    0   12    9      1.15      0.00
    1   12    9     -2.42      0.00
    2   12    9     -1.46      0.00
    3   12    9      2.87      0.00
    4   12    9     -2.54      0.00
    5   12    9     -0.31      0.00
    6   12    9      1.79      0.00
    7   12    9      2.72      0.00
    8   12    9      3.77      0.00
    9   12    9      2.17      0.00
   10   12    9     -1.01      0.00
   11   12    9     -1.21      0.00
   12   12    9     -3.09      0.00
   13   12    9     -5.00      0.00
   14   12    9     -2.20      0.00
   15   12    9      0.95      0.00
   16   12    9      1.06      0.00
   17   12    9      2.88      0.00
   18   12    9      5.22      0.00
   19   12    9      8.09      0.00
   20   12    9      1.67      0.00
   21   12    9     -0.53      0.00
   22   12    9     -0.52      0.00
   -9   13    9      2.32      0.00
   -8   13    9      1.51      0.00
   -7   13    9     -0.53      0.00
   -6   13    9      0.63      0.00
   -5   13    9      3.56      0.00
   -4   13    9     -0.24      0.00
   -3   13    9     -1.43      0.00
   -2   13    9      1.28      0.00
   -1   13    9      0.39      0.00
    0   13    9     -0.49      0.00
    1   13    9     -2.03      0.00
    2   13    9     -2.98      0.00
    3   13    9      1.65      0.00
    4   13    9      0.79      0.00
    5   13    9     -0.01      0.00
    6   13    9      0.55      0.00
    7   13    9      2.03      0.00
    8   13    9      3.46      0.00
    9   13    9      4.83      0.00
   10   13    9      4.50      0.00
   11   13    9      5.77      0.00
   12   13    9      7.44      0.00
   13   13    9      2.88      0.00
   14   13    9      1.61      0.00
   15   13    9      1.41      0.00
   16   13    9     -0.54      0.00
   17   13    9     -4.03      0.00
   18   13    9     -3.02      0.00
   19   13    9      1.79      0.00
   20   13    9      0.35      0.00
   21   13    9     -0.43      0.00
   -8   14    9      4.81      0.00
   -7   14    9      2.35      0.00
   -6   14    9     -0.62      0.00
   -5   14    9     -0.18      0.00
   -4   14    9     -2.22      0.00
   -3   14    9     -4.37      0.00
   -2   14    9     -1.48      0.00
   -1   14    9     -2.70      0.00
    0   14    9     -1.06      0.00
    1   14    9     -0.13      0.00
    2   14    9     -1.31      0.00
    3   14    9     -0.84      0.00
    4   14    9     -0.48      0.00
    5   14    9      0.88      0.00
    6   14    9      2.17      0.00
    7   14    9     -0.05      0.00
    8   14    9     -0.25      0.00
    9   14    9     -1.43      0.00
   10   14    9     -0.31      0.00
   11   14    9      0.40      0.00
   12   14    9     -0.34      0.00
   13   14    9     -0.74      0.00
   14   14    9      1.22      0.00
   15   14    9     -0.09      0.00
   16   14    9     -0.57      0.00
   17   14    9     -2.51      0.00
   18   14    9     -1.35      0.00
   19   14    9      0.84      0.00
   20   14    9     -4.44      0.00
   21   14    9     -7.33      0.00
   -7   15    9     -1.91      0.00
   -6   15    9     -3.01      0.00
   -5   15    9     -2.57      0.00
   -4   15    9      1.98      0.00
   -3   15    9      2.14      0.00
   -2   15    9      1.69      0.00
   -1   15    9     -1.15      0.00
    0   15    9     -2.12      0.00
    1   15    9     -1.62      0.00
    2   15    9      0.22      0.00
    3   15    9     -1.12      0.00
    4   15    9     -1.69      0.00
    5   15    9      4.74      0.00
    6   15    9      6.29      0.00
    7   15    9      3.84      0.00
    8   15    9      5.60      0.00
    9   15    9      1.58      0.00
   10   15    9      1.88      0.00
   11   15    9      4.14      0.00
   12   15    9     -0.50      0.00
   13   15    9     -1.60      0.00
   14   15    9      1.02      0.00
   15   15    9      0.86      0.00
   16   15    9      0.78      0.00
   17   15    9     -2.06      0.00
   18   15    9     -2.71      0.00
   19   15    9      0.11      0.00
   20   15    9     -4.17      0.00
   21   15    9     -5.53      0.00
   -6   16    9      0.51      0.00
   -5   16    9     -2.22      0.00
   -4   16    9      0.99      0.00
   -3   16    9      0.84      0.00
   -2   16    9      0.28      0.00
   -1   16    9     -0.73      0.00
    0   16    9     -3.75      0.00
    1   16    9     -0.82      0.00
    2   16    9      2.37      0.00
    3   16    9      1.10      0.00
    4   16    9     -2.40      0.00
    5   16    9      3.35      0.00
    6   16    9      4.36      0.00
    7   16    9      0.95      0.00
    8   16    9      3.07      0.00
    9   16    9      3.49      0.00
   10   16    9     -0.99      0.00
   11   16    9      0.05      0.00
   12   16    9     -2.54      0.00
   13   16    9     -3.09      0.00
   14   16    9     -1.26      0.00
   15   16    9     -3.32      0.00
   16   16    9     -3.74      0.00
   17   16    9     -2.14      0.00
   18   16    9     -2.65      0.00
   19   16    9     -1.80      0.00
   20   16    9     -2.38      0.00
   21   16    9     -1.95      0.00
   -4   17    9     -1.64      0.00
   -3   17    9     -2.76      0.00
   -2   17    9     -2.27      0.00
   -1   17    9     -2.29      0.00
    0   17    9     -4.97      0.00
    1   17    9     -0.30      0.00
    2   17    9      0.29      0.00
    3   17    9      2.75      0.00
    4   17    9     -0.36      0.00
    5   17    9      2.33      0.00
    6   17    9      6.00      0.00
    7   17    9      1.16      0.00
    8   17    9      0.28      0.00
    9   17    9      4.45      0.00
   10   17    9     -2.30      0.00
   11   17    9     -1.63      0.00
   12   17    9     -1.58      0.00
   13   17    9     -2.51      0.00
   14   17    9      0.51      0.00
   15   17    9     -1.49      0.00
   16   17    9     -4.42      0.00
   17   17    9      1.65      0.00
   18   17    9      4.15      0.00
   19   17    9      0.79      0.00
   20   17    9      0.80      0.00
   -3   18    9     -0.17      0.00
   -2   18    9     -0.10      0.00
   -1   18    9     -0.81      0.00
    0   18    9     -2.03      0.00
    1   18    9      0.59      0.00
    2   18    9     -1.30      0.00
    3   18    9      1.99      0.00
    4   18    9     -0.29      0.00
    5   18    9     -1.05      0.00
    6   18    9      1.64      0.00
    7   18    9     -1.13      0.00
    8   18    9     -1.24      0.00
    9   18    9      3.34      0.00
   10   18    9      1.38      0.00
   11   18    9      2.23      0.00
   12   18    9      3.49      0.00
   13   18    9     -0.83      0.00
   14   18    9     -2.19      0.00
   15   18    9     -1.32      0.00
   16   18    9     -4.52      0.00
   17   18    9     -0.35      0.00
   18   18    9      2.09      0.00
   19   18    9     -1.49      0.00
   20   18    9      0.42      0.00
   -1   19    9      3.35      0.00
    0   19    9      3.17      0.00
    1   19    9      1.19      0.00
    2   19    9     -3.21      0.00
    3   19    9     -3.63      0.00
    4   19    9     -1.60      0.00
    5   19    9     -2.52      0.00
    6   19    9     -3.08      0.00
    7   19    9      0.12      0.00
    8   19    9     -0.30      0.00
    9   19    9     -1.36      0.00
   10   19    9     -1.41      0.00
   11   19    9     -2.66      0.00
   12   19    9      2.84      0.00
   13   19    9      4.09      0.00
   14   19    9      1.84      0.00
   15   19    9      3.72      0.00
   16   19    9      1.80      0.00
   17   19    9      3.48      0.00
   18   19    9      3.07      0.00
   19   19    9     -1.54      0.00
    1   20    9      4.54      0.00
    2   20    9      2.40      0.00
    3   20    9     -1.48      0.00
    4   20    9      2.69      0.00
    5   20    9      3.67      0.00
    6   20    9      4.03      0.00
    7   20    9      9.03      0.00
    8   20    9      5.66      0.00
    9   20    9      3.06      0.00
   10   20    9      4.36      0.00
   11   20    9      1.83      0.00
   12   20    9      1.10      0.00
   13   20    9      1.02      0.00
   14   20    9     -0.91      0.00
   15   20    9      0.12      0.00
   16   20    9      0.91      0.00
   17   20    9      2.92      0.00
   18   20    9      3.10      0.00
    3   21    9     -1.37      0.00
    4   21    9      0.76      0.00
    5   21    9     -0.41      0.00
    6   21    9      0.31      0.00
    7   21    9      3.25      0.00
    8   21    9      0.83      0.00
    9   21    9     -0.80      0.00
   10   21    9      1.41      0.00
   11   21    9      2.11      0.00
   12   21    9     -4.40      0.00
   13   21    9     -2.76      0.00
   14   21    9      1.28      0.00
   15   21    9      1.95      0.00
   16   21    9      1.66      0.00
    6   22    9     -3.48      0.00
    7   22    9     -2.89      0.00
    8   22    9     -2.20      0.00
    9   22    9     -5.04      0.00
   10   22    9     -1.66      0.00
   11   22    9      6.05      0.00
   12   22    9      1.43      0.00
   13   22    9      0.39      0.00
   14   22    9      1.92      0.00
   -7  -15   10     -1.38      0.00
   -6  -15   10     -1.28      0.00
   -5  -15   10     -0.01      0.00
  -11  -14   10     -2.10      0.00
  -10  -14   10     -3.35      0.00
   -9  -14   10     -3.43      0.00
   -8  -14   10     -2.16      0.00
   -7  -14   10      3.89      0.00
   -6  -14   10      2.42      0.00
   -5  -14   10      3.05      0.00
   -4  -14   10      1.93      0.00
   -3  -14   10      2.58      0.00
   -2  -14   10      6.17      0.00
   -1  -14   10      6.32      0.00
    0  -14   10      4.79      0.00
  -13  -13   10     -4.03      0.00
  -12  -13   10     -3.99      0.00
  -11  -13   10     -1.23      0.00
  -10  -13   10     -0.64      0.00
   -9  -13   10     -0.28      0.00
   -8  -13   10     -1.65      0.00
   -7  -13   10      1.05      0.00
   -6  -13   10     -1.27      0.00
   -5  -13   10      1.47      0.00
   -4  -13   10      1.19      0.00
   -3  -13   10     -0.62      0.00
   -2  -13   10     -0.24      0.00
   -1  -13   10      1.11      0.00
    0  -13   10      1.94      0.00
    1  -13   10      2.05      0.00
    2  -13   10     -2.16      0.00
  -14  -12   10      2.53      0.00
  -13  -12   10      2.73      0.00
  -12  -12   10      0.79      0.00
  -11  -12   10     -0.90      0.00
  -10  -12   10     -3.37      0.00
   -9  -12   10     -0.57      0.00
   -8  -12   10     -1.24      0.00
   -7  -12   10      1.18      0.00
   -6  -12   10     -0.04      0.00
   -5  -12   10      0.30      0.00
   -4  -12   10      2.44      0.00
   -3  -12   10      1.16      0.00
   -2  -12   10     -2.62      0.00
   -1  -12   10     -5.45      0.00
    0  -12   10     -4.63      0.00
    1  -12   10      0.09      0.00
    2  -12   10      1.71      0.00
    3  -12   10      2.85      0.00
    4  -12   10      0.80      0.00
  -15  -11   10     -3.42      0.00
  -14  -11   10     -4.37      0.00
  -13  -11   10     -2.12      0.00
  -12  -11   10      0.50      0.00
  -11  -11   10      0.77      0.00
  -10  -11   10     -0.89      0.00
   -9  -11   10      2.59      0.00
   -8  -11   10      0.79      0.00
   -7  -11   10      2.22      0.00
   -6  -11   10      1.64      0.00
   -5  -11   10     -2.00      0.00
   -4  -11   10     -0.20      0.00
   -3  -11   10      1.30      0.00
   -2  -11   10      3.78      0.00
   -1  -11   10      4.52      0.00
    0  -11   10      4.02      0.00
    1  -11   10      1.72      0.00
    2  -11   10     -0.40      0.00
    3  -11   10     -1.54      0.00
    4  -11   10     -2.52      0.00
    5  -11   10     -1.62      0.00
    6  -11   10      0.20      0.00
  -16  -10   10      1.62      0.00
  -15  -10   10      0.35      0.00
  -14  -10   10      0.92      0.00
  -13  -10   10      1.21      0.00
  -12  -10   10      2.01      0.00
  -11  -10   10      1.13      0.00
  -10  -10   10     -2.28      0.00
   -9  -10   10     -1.39      0.00
   -8  -10   10     -2.99      0.00
   -7  -10   10     -1.19      0.00
   -6  -10   10      1.51      0.00
   -5  -10   10     -1.05      0.00
   -4  -10   10     -0.37      0.00
   -3  -10   10     -1.19      0.00
   -2  -10   10     -0.73      0.00
   -1  -10   10     -1.77      0.00
    0  -10   10     -1.40      0.00
    1  -10   10     -1.31      0.00
    2  -10   10     -1.88      0.00
    3  -10   10     -5.02      0.00
    4  -10   10     -3.18      0.00
    5  -10   10     -0.86      0.00
    6  -10   10      1.35      0.00
    7  -10   10     -0.75      0.00
    8  -10   10     -1.50      0.00
  -16   -9   10     -2.51      0.00
  -15   -9   10     -4.07      0.00
  -14   -9   10     -2.17      0.00
  -13   -9   10     -1.64      0.00
  -12   -9   10     -1.85      0.00
  -11   -9   10     -0.78      0.00
  -10   -9   10     -1.53      0.00
   -9   -9   10      0.82      0.00
   -8   -9   10     -0.69      0.00
   -7   -9   10     -1.56      0.00
   -6   -9   10      0.98      0.00
   -5   -9   10     -1.69      0.00
   -4   -9   10     -1.40      0.00
   -3   -9   10     -1.10      0.00
   -2   -9   10      2.90      0.00
   -1   -9   10      2.30      0.00
    0   -9   10     -2.52      0.00
    1   -9   10     -2.31      0.00
    2   -9   10      1.31      0.00
    3   -9   10     -0.22      0.00
    4   -9   10     -0.15      0.00
    5   -9   10      0.19      0.00
    6   -9   10      2.04      0.00
    7   -9   10     -0.62      0.00
    8   -9   10     -1.41      0.00
    9   -9   10     -1.97      0.00
  -17   -8   10      0.29      0.00
  -16   -8   10     -2.46      0.00
  -15   -8   10     -2.58      0.00
  -14   -8   10     -1.53      0.00
  -13   -8   10     -0.92      0.00
  -12   -8   10     -0.87      0.00
  -11   -8   10      1.79      0.00
  -10   -8   10      0.80      0.00
   -9   -8   10      3.10      0.00
   -8   -8   10      2.51      0.00
   -7   -8   10      1.14      0.00
   -6   -8   10      1.83      0.00
   -5   -8   10     -1.16      0.00
   -4   -8   10     -1.72      0.00
   -3   -8   10     -3.95      0.00
   -2   -8   10      0.56      0.00
   -1   -8   10      3.45      0.00
    0   -8   10      0.24      0.00
    1   -8   10     -0.28      0.00
    2   -8   10      1.75      0.00
    3   -8   10      2.04      0.00
    4   -8   10      1.18      0.00
    5   -8   10      0.77      0.00
    6   -8   10     -0.61      0.00
    7   -8   10     -3.44      0.00
    8   -8   10     -1.01      0.00
    9   -8   10     -3.18      0.00
   10   -8   10     -4.75      0.00
  -17   -7   10      0.43      0.00
  -16   -7   10     -3.49      0.00
  -15   -7   10     -2.28      0.00
  -14   -7   10      0.63      0.00
  -13   -7   10     -0.12      0.00
  -12   -7   10     -3.23      0.00
  -11   -7   10     -1.78      0.00
  -10   -7   10     -1.39      0.00
   -9   -7   10      0.01      0.00
   -8   -7   10     -0.21      0.00
   -7   -7   10     -0.16      0.00
   -6   -7   10      1.45      0.00
   -5   -7   10      0.75      0.00
   -4   -7   10      1.53      0.00
   -3   -7   10     -0.19      0.00
   -2   -7   10      0.81      0.00
   -1   -7   10      0.31      0.00
    0   -7   10     -1.28      0.00
    1   -7   10      2.35      0.00
    2   -7   10      4.66      0.00
    3   -7   10      0.98      0.00
    4   -7   10     -2.47      0.00
    5   -7   10      1.96      0.00
    6   -7   10      2.16      0.00
    7   -7   10     -1.79      0.00
    8   -7   10      2.09      0.00
    9   -7   10      3.40      0.00
   10   -7   10      1.99      0.00
   11   -7   10      6.46      0.00
   12   -7   10      5.37      0.00
  -17   -6   10      1.09      0.00
  -16   -6   10     -1.39      0.00
  -15   -6   10      0.55      0.00
  -14   -6   10      2.30      0.00
  -13   -6   10      2.81      0.00
  -12   -6   10      0.94      0.00
  -11   -6   10     -1.07      0.00
  -10   -6   10      0.19      0.00
   -9   -6   10      2.06      0.00
   -8   -6   10      1.47      0.00
   -7   -6   10     -0.66      0.00
   -6   -6   10      0.26      0.00
   -5   -6   10     -0.57      0.00
   -4   -6   10      1.13      0.00
   -3   -6   10      0.95      0.00
   -2   -6   10      0.97      0.00
   -1   -6   10     -0.28      0.00
    0   -6   10     -4.30      0.00
    1   -6   10      0.25      0.00
    2   -6   10      5.59      0.00
    3   -6   10      2.68      0.00
    4   -6   10     -2.88      0.00
    5   -6   10     -1.50      0.00
    6   -6   10      0.45      0.00
    7   -6   10     -2.17      0.00
    8   -6   10     -1.51      0.00
    9   -6   10     -0.36      0.00
   10   -6   10     -4.05      0.00
   11   -6   10     -1.86      0.00
   12   -6   10     -2.97      0.00
   13   -6   10     -5.64      0.00
  -17   -5   10      1.07      0.00
  -16   -5   10      0.35      0.00
  -15   -5   10      4.66      0.00
  -14   -5   10      2.08      0.00
  -13   -5   10      2.10      0.00
  -12   -5   10      2.81      0.00
  -11   -5   10     -0.58      0.00
  -10   -5   10     -1.27      0.00
   -9   -5   10      1.04      0.00
   -8   -5   10      1.18      0.00
   -7   -5   10     -0.46      0.00
   -6   -5   10     -0.20      0.00
   -5   -5   10     -3.19      0.00
   -4   -5   10      0.65      0.00
   -3   -5   10      2.26      0.00
   -2   -5   10      1.65      0.00
   -1   -5   10      0.15      0.00
    0   -5   10     -3.97      0.00
    1   -5   10     -1.11      0.00
    2   -5   10     -0.08      0.00
    3   -5   10     -0.69      0.00
    4   -5   10     -0.49      0.00
    5   -5   10     -0.92      0.00
    6   -5   10      1.78      0.00
    7   -5   10      0.03      0.00
    8   -5   10     -4.26      0.00
    9   -5   10     -1.27      0.00
   10   -5   10     -0.91      0.00
   11   -5   10      0.91      0.00
   12   -5   10      0.25      0.00
   13   -5   10     -2.71      0.00
   14   -5   10     -0.58      0.00
  -17   -4   10      1.03      0.00
  -16   -4   10     -0.21      0.00
  -15   -4   10      1.87      0.00
  -14   -4   10     -1.13      0.00
  -13   -4   10     -0.22      0.00
  -12   -4   10      2.59      0.00
  -11   -4   10      0.81      0.00
  -10   -4   10     -2.11      0.00
   -9   -4   10      0.77      0.00
   -8   -4   10     -1.94      0.00
   -7   -4   10     -4.79      0.00
   -6   -4   10     -3.88      0.00
   -5   -4   10     -5.65      0.00
   -4   -4   10     -2.14      0.00
   -3   -4   10      0.31      0.00
   -2   -4   10      1.06      0.00
   -1   -4   10      0.51      0.00
    0   -4   10      1.38      0.00
    1   -4   10      5.41      0.00
    2   -4   10      0.77      0.00
    3   -4   10     -4.17      0.00
    4   -4   10     -1.84      0.00
    5   -4   10     -2.46      0.00
    6   -4   10      0.48      0.00
    7   -4   10      2.48      0.00
    8   -4   10     -2.86      0.00
    9   -4   10     -0.74      0.00
   10   -4   10      1.16      0.00
   11   -4   10      1.48      0.00
   12   -4   10     -0.57      0.00
   13   -4   10     -4.24      0.00
   14   -4   10     -0.69      0.00
  -17   -3   10      0.50      0.00
  -16   -3   10      0.61      0.00
  -15   -3   10     -0.09      0.00
  -14   -3   10     -1.86      0.00
  -13   -3   10     -4.06      0.00
  -12   -3   10     -1.77      0.00
  -11   -3   10     -1.62      0.00
  -10   -3   10     -4.29      0.00
   -9   -3   10      2.46      0.00
   -8   -3   10      1.90      0.00
   -7   -3   10     -2.40      0.00
   -6   -3   10     -2.34      0.00
   -5   -3   10     -0.60      0.00
   -4   -3   10      1.48      0.00
   -3   -3   10      1.84      0.00
   -2   -3   10      0.31      0.00
   -1   -3   10     -1.52      0.00
    0   -3   10     -1.53      0.00
    1   -3   10      3.93      0.00
    2   -3   10      2.25      0.00
    3   -3   10     -5.66      0.00
    4   -3   10     -2.81      0.00
    5   -3   10     -2.48      0.00
    6   -3   10     -2.10      0.00
    7   -3   10      3.45      0.00
    8   -3   10      0.72      0.00
    9   -3   10     -0.98      0.00
   10   -3   10     -0.22      0.00
   11   -3   10      0.82      0.00
   12   -3   10      1.77      0.00
   13   -3   10     -0.51      0.00
   14   -3   10     -0.56      0.00
   15   -3   10     -0.41      0.00
  -17   -2   10     -0.47      0.00
  -16   -2   10     -0.31      0.00
  -15   -2   10     -0.76      0.00
  -14   -2   10      0.79      0.00
  -13   -2   10     -0.20      0.00
  -12   -2   10     -0.41      0.00
  -11   -2   10     -2.60      0.00
  -10   -2   10     -5.37      0.00
   -9   -2   10      1.23      0.00
   -8   -2   10      3.88      0.00
   -7   -2   10     -1.45      0.00
   -6   -2   10     -4.83      0.00
   -5   -2   10     -3.77      0.00
   -4   -2   10     -1.05      0.00
   -3   -2   10     -2.05      0.00
   -2   -2   10     -3.78      0.00
   -1   -2   10     -2.85      0.00
    0   -2   10     -7.19      0.00
    1   -2   10     -3.83      0.00
    2   -2   10     -1.04      0.00
    3   -2   10     -8.20      0.00
    4   -2   10     -5.69      0.00
    5   -2   10     -4.84      0.00
    6   -2   10     -8.42      0.00
    7   -2   10     -2.62      0.00
    8   -2   10     -2.12      0.00
    9   -2   10     -4.53      0.00
   10   -2   10     -2.64      0.00
   11   -2   10     -1.19      0.00
   12   -2   10      1.08      0.00
   13   -2   10      0.66      0.00
   14   -2   10      1.15      0.00
   15   -2   10      1.55      0.00
   16   -2   10      1.26      0.00
  -17   -1   10     -1.34      0.00
  -16   -1   10     -0.96      0.00
  -15   -1   10      0.26      0.00
  -14   -1   10     -0.90      0.00
  -13   -1   10      1.72      0.00
  -12   -1   10      1.26      0.00
  -11   -1   10     -1.49      0.00
  -10   -1   10     -5.10      0.00
   -9   -1   10     -2.92      0.00
   -8   -1   10      1.28      0.00
   -7   -1   10      2.36      0.00
   -6   -1   10      4.03      0.00
   -5   -1   10      1.74      0.00
   -4   -1   10      0.16      0.00
   -3   -1   10     -5.38      0.00
   -2   -1   10     -5.84      0.00
   -1   -1   10     -0.97      0.00
    0   -1   10     -5.53      0.00
    1   -1   10     -5.30      0.00
    2   -1   10      1.32      0.00
    3   -1   10     -0.26      0.00
    4   -1   10      2.74      0.00
    5   -1   10      3.01      0.00
    6   -1   10     -5.28      0.00
    7   -1   10     -1.95      0.00
    8   -1   10      2.19      0.00
    9   -1   10      1.58      0.00
   10   -1   10     -0.36      0.00
   11   -1   10     -1.53      0.00
   12   -1   10     -0.88      0.00
   13   -1   10     -4.08      0.00
   14   -1   10     -2.72      0.00
   15   -1   10      0.86      0.00
   16   -1   10     -0.26      0.00
   17   -1   10     -0.84      0.00
  -17    0   10      0.40      0.00
  -16    0   10      1.00      0.00
  -15    0   10      4.60      0.00
  -14    0   10      0.81      0.00
  -13    0   10      2.73      0.00
  -12    0   10      1.69      0.00
  -11    0   10      1.69      0.00
  -10    0   10      0.52      0.00
   -9    0   10      0.52      0.00
   -8    0   10     -2.30      0.00
   -7    0   10     -4.52      0.00
   -6    0   10      0.99      0.00
   -5    0   10      2.64      0.00
   -4    0   10      2.59      0.00
   -3    0   10     -1.78      0.00
   -2    0   10     -0.03      0.00
   -1    0   10      6.67      0.00
    0    0   10      4.10      0.00
    1    0   10     -2.29      0.00
    2    0   10      1.21      0.00
    3    0   10     -2.34      0.00
    4    0   10     -2.73      0.00
    5    0   10     -1.84      0.00
    6    0   10     -6.34      0.00
    7    0   10     -4.74      0.00
    8    0   10     -1.15      0.00
    9    0   10      2.99      0.00
   10    0   10     -0.75      0.00
   11    0   10     -0.65      0.00
   12    0   10      2.46      0.00
   13    0   10     -1.56      0.00
   14    0   10     -3.24      0.00
   15    0   10      1.19      0.00
   16    0   10      1.58      0.00
   17    0   10      0.69      0.00
  -16    1   10     -1.27      0.00
  -15    1   10      2.88      0.00
  -14    1   10      1.17      0.00
  -13    1   10      0.45      0.00
  -12    1   10      0.85      0.00
  -11    1   10      2.30      0.00
  -10    1   10      2.92      0.00
   -9    1   10      4.75      0.00
   -8    1   10      2.34      0.00
   -7    1   10     -1.56      0.00
   -6    1   10      1.30      0.00
   -5    1   10     -0.20      0.00
   -4    1   10     -3.08      0.00
   -3    1   10     -2.80      0.00
   -2    1   10     -2.87      0.00
   -1    1   10     -1.14      0.00
    0    1   10     -0.53      0.00
    1    1   10     -2.80      0.00
    2    1   10      2.11      0.00
    3    1   10     -0.40      0.00
    4    1   10     -0.76      0.00
    5    1   10     -3.38      0.00
    6    1   10     -4.03      0.00
    7    1   10     -1.09      0.00
    8    1   10     -2.15      0.00
    9    1   10      0.75      0.00
   10    1   10     -2.64      0.00
   11    1   10     -1.15      0.00
   12    1   10      3.43      0.00
   13    1   10      1.32      0.00
   14    1   10     -3.41      0.00
   15    1   10     -0.26      0.00
   16    1   10      0.85      0.00
   17    1   10      1.40      0.00
   18    1   10      1.69      0.00
  -16    2   10     -3.57      0.00
  -15    2   10     -2.84      0.00
  -14    2   10      0.33      0.00
  -13    2   10     -0.80      0.00
  -12    2   10      0.96      0.00
  -11    2   10      0.00      0.00
  -10    2   10     -0.08      0.00
   -9    2   10      2.34      0.00
   -8    2   10      2.42      0.00
   -7    2   10     -1.43      0.00
   -6    2   10      4.63      0.00
   -5    2   10      4.96      0.00
   -4    2   10     -1.02      0.00
   -3    2   10      6.37      0.00
   -2    2   10     12.11      0.00
   -1    2   10      9.52      0.00
    0    2   10      5.24      0.00
    1    2   10      5.75      0.00
    2    2   10      6.95      0.00
    3    2   10      1.15      0.00
    4    2   10      3.52      0.00
    5    2   10      2.11      0.00
    6    2   10     -2.40      0.00
    7    2   10      2.53      0.00
    8    2   10      3.95      0.00
    9    2   10      5.27      0.00
   10    2   10      3.29      0.00
   11    2   10      0.94      0.00
   12    2   10      3.09      0.00
   13    2   10      2.28      0.00
   14    2   10     -2.34      0.00
   15    2   10     -0.34      0.00
   16    2   10     -0.86      0.00
   17    2   10     -1.46      0.00
   18    2   10     -0.05      0.00
   19    2   10      1.14      0.00
  -16    3   10      0.52      0.00
  -15    3   10     -2.37      0.00
  -14    3   10     -1.63      0.00
  -13    3   10     -5.35      0.00
  -12    3   10     -0.10      0.00
  -11    3   10      1.95      0.00
  -10    3   10     -1.65      0.00
   -9    3   10     -3.82      0.00
   -8    3   10     -2.43      0.00
   -7    3   10     -6.76      0.00
   -6    3   10     -3.32      0.00
   -5    3   10     -2.85      0.00
   -4    3   10    -10.78      0.00
   -3    3   10     -7.51      0.00
   -2    3   10     -0.28      0.00
   -1    3   10     -0.45      0.00
    0    3   10     -3.72      0.00
    1    3   10      1.19      0.00
    2    3   10      2.30      0.00
    3    3   10    -12.31      0.00
    4    3   10    -14.97      0.00
    5    3   10    -10.86      0.00
    6    3   10    -18.72      0.00
    7    3   10    -10.35      0.00
    8    3   10     -4.83      0.00
    9    3   10     -5.62      0.00
   10    3   10     -1.39      0.00
   11    3   10      0.47      0.00
   12    3   10      3.37      0.00
   13    3   10      0.35      0.00
   14    3   10     -3.50      0.00
   15    3   10     -1.84      0.00
   16    3   10      0.70      0.00
   17    3   10      2.57      0.00
   18    3   10      4.65      0.00
   19    3   10      4.57      0.00
  -15    4   10     -0.93      0.00
  -14    4   10      1.77      0.00
  -13    4   10     -2.91      0.00
  -12    4   10     -1.88      0.00
  -11    4   10      2.94      0.00
  -10    4   10      3.82      0.00
   -9    4   10      2.27      0.00
   -8    4   10      3.29      0.00
   -7    4   10      2.57      0.00
   -6    4   10      2.40      0.00
   -5    4   10      2.38      0.00
   -4    4   10      0.29      0.00
   -3    4   10      0.98      0.00
   -2    4   10      1.50      0.00
   -1    4   10     -5.23      0.00
    0    4   10     -9.03      0.00
    1    4   10      0.88      0.00
    2    4   10     13.81      0.00
    3    4   10      5.12      0.00
    4    4   10      7.79      0.00
    5    4   10     17.54      0.00
    6    4   10      3.13      0.00
    7    4   10      4.62      0.00
    8    4   10     10.10      0.00
    9    4   10      4.59      0.00
   10    4   10      3.77      0.00
   11    4   10      5.21      0.00
   12    4   10      5.83      0.00
   13    4   10     -0.19      0.00
   14    4   10     -1.41      0.00
   15    4   10     -1.64      0.00
   16    4   10     -1.82      0.00
   17    4   10     -2.67      0.00
   18    4   10     -0.45      0.00
   19    4   10      0.05      0.00
   20    4   10      0.19      0.00
  -15    5   10     -1.28      0.00
  -14    5   10     -0.62      0.00
  -13    5   10     -1.99      0.00
  -12    5   10     -3.21      0.00
  -11    5   10     -2.32      0.00
  -10    5   10     -2.23      0.00
   -9    5   10     -3.03      0.00
   -8    5   10     -4.56      0.00
   -7    5   10     -4.87      0.00
   -6    5   10     -7.02      0.00
   -5    5   10     -6.70      0.00
   -4    5   10     -4.05      0.00
   -3    5   10      0.60      0.00
   -2    5   10      3.92      0.00
   -1    5   10     -2.54      0.00
    0    5   10     -7.98      0.00
    1    5   10     -5.51      0.00
    2    5   10      3.73      0.00
    3    5   10     -7.15      0.00
    4    5   10     -6.57      0.00
    5    5   10      5.80      0.00
    6    5   10     -4.06      0.00
    7    5   10    -10.96      0.00
    8    5   10     -5.38      0.00
    9    5   10     -8.02      0.00
   10    5   10     -9.10      0.00
   11    5   10     -2.07      0.00
   12    5   10      1.93      0.00
   13    5   10     -2.76      0.00
   14    5   10     -1.67      0.00
   15    5   10      0.37      0.00
   16    5   10      0.17      0.00
   17    5   10     -2.38      0.00
   18    5   10     -1.66      0.00
   19    5   10     -4.24      0.00
   20    5   10     -5.00      0.00
  -14    6   10     -1.11      0.00
  -13    6   10     -1.27      0.00
  -12    6   10     -1.41      0.00
  -11    6   10     -1.28      0.00
  -10    6   10     -1.81      0.00
   -9    6   10      0.28      0.00
   -8    6   10      1.19      0.00
   -7    6   10      1.44      0.00
   -6    6   10     -0.76      0.00
   -5    6   10     -2.86      0.00
   -4    6   10     -2.24      0.00
   -3    6   10      2.26      0.00
   -2    6   10      5.14      0.00
   -1    6   10      4.60      0.00
    0    6   10      4.37      0.00
    1    6   10      0.16      0.00
    2    6   10      1.40      0.00
    3    6   10     -9.18      0.00
    4    6   10    -13.84      0.00
    5    6   10     -2.62      0.00
    6    6   10     -3.44      0.00
    7    6   10     -9.26      0.00
    8    6   10     -1.94      0.00
    9    6   10     -2.15      0.00
   10    6   10     -6.75      0.00
   11    6   10     -4.03      0.00
   12    6   10      1.28      0.00
   13    6   10      0.20      0.00
   14    6   10      0.03      0.00
   15    6   10      1.56      0.00
   16    6   10      0.14      0.00
   17    6   10     -1.50      0.00
   18    6   10      2.04      0.00
   19    6   10      0.65      0.00
   20    6   10     -2.58      0.00
  -14    7   10     -1.78      0.00
  -13    7   10     -1.52      0.00
  -12    7   10     -0.99      0.00
  -11    7   10     -2.65      0.00
  -10    7   10     -4.02      0.00
   -9    7   10     -0.12      0.00
   -8    7   10      1.99      0.00
   -7    7   10      3.30      0.00
   -6    7   10      4.50      0.00
   -5    7   10      1.96      0.00
   -4    7   10     -0.38      0.00
   -3    7   10      0.43      0.00
   -2    7   10     -2.90      0.00
   -1    7   10     -2.76      0.00
    0    7   10      2.23      0.00
    1    7   10      1.68      0.00
    2    7   10      2.36      0.00
    3    7   10     -4.50      0.00
    4    7   10    -11.57      0.00
    5    7   10     -2.74      0.00
    6    7   10      0.14      0.00
    7    7   10     -0.97      0.00
    8    7   10      5.24      0.00
    9    7   10     10.64      0.00
   10    7   10      8.11      0.00
   11    7   10      4.36      0.00
   12    7   10      7.53      0.00
   13    7   10      6.12      0.00
   14    7   10      2.82      0.00
   15    7   10      3.15      0.00
   16    7   10      1.01      0.00
   17    7   10     -3.84      0.00
   18    7   10     -2.08      0.00
   19    7   10      1.44      0.00
   20    7   10      0.40      0.00
   21    7   10      0.94      0.00
  -13    8   10      0.16      0.00
  -12    8   10      0.57      0.00
  -11    8   10     -2.22      0.00
  -10    8   10     -2.59      0.00
   -9    8   10      0.03      0.00
   -8    8   10     -2.31      0.00
   -7    8   10     -4.23      0.00
   -6    8   10     -1.95      0.00
   -5    8   10     -0.14      0.00
   -4    8   10     -1.19      0.00
   -3    8   10     -2.36      0.00
   -2    8   10     -4.48      0.00
   -1    8   10     -2.31      0.00
    0    8   10      4.30      0.00
    1    8   10      7.04      0.00
    2    8   10     10.49      0.00
    3    8   10     12.27      0.00
    4    8   10      6.91      0.00
    5    8   10      5.52      0.00
    6    8   10      0.88      0.00
    7    8   10     -3.24      0.00
    8    8   10     -3.79      0.00
    9    8   10      4.10      0.00
   10    8   10      4.19      0.00
   11    8   10     -3.36      0.00
   12    8   10     -1.72      0.00
   13    8   10     -0.60      0.00
   14    8   10     -1.91      0.00
   15    8   10     -2.06      0.00
   16    8   10      0.56      0.00
   17    8   10     -1.46      0.00
   18    8   10     -3.50      0.00
   19    8   10     -1.09      0.00
   20    8   10     -0.51      0.00
   21    8   10      0.85      0.00
  -12    9   10      5.33      0.00
  -11    9   10      2.01      0.00
  -10    9   10      0.76      0.00
   -9    9   10      2.63      0.00
   -8    9   10      1.60      0.00
   -7    9   10     -0.24      0.00
   -6    9   10     -0.83      0.00
   -5    9   10      0.88      0.00
   -4    9   10      2.27      0.00
   -3    9   10      1.69      0.00
   -2    9   10      0.98      0.00
   -1    9   10     -1.94      0.00
    0    9   10      1.08      0.00
    1    9   10      2.85      0.00
    2    9   10      4.72      0.00
    3    9   10      9.32      0.00
    4    9   10     10.77      0.00
    5    9   10     10.46      0.00
    6    9   10      6.83      0.00
    7    9   10      3.09      0.00
    8    9   10     -1.29      0.00
    9    9   10      0.98      0.00
   10    9   10      3.33      0.00
   11    9   10     -0.17      0.00
   12    9   10      0.94      0.00
   13    9   10      1.32      0.00
   14    9   10      1.91      0.00
   15    9   10      0.95      0.00
   16    9   10      3.15      0.00
   17    9   10      0.88      0.00
   18    9   10     -1.66      0.00
   19    9   10      0.10      0.00
   20    9   10     -0.43      0.00
   21    9   10      0.64      0.00
  -12   10   10      1.81      0.00
  -11   10   10      1.71      0.00
  -10   10   10      0.53      0.00
   -9   10   10     -1.03      0.00
   -8   10   10     -3.53      0.00
   -7   10   10     -3.31      0.00
   -6   10   10     -0.61      0.00
   -5   10   10      1.70      0.00
   -4   10   10      2.64      0.00
   -3   10   10      1.26      0.00
   -2   10   10      4.70      0.00
   -1   10   10      2.85      0.00
    0   10   10      1.92      0.00
    1   10   10      1.28      0.00
    2   10   10      4.11      0.00
    3   10   10      3.49      0.00
    4   10   10      4.06      0.00
    5   10   10      5.23      0.00
    6   10   10      0.61      0.00
    7   10   10     -1.40      0.00
    8   10   10     -2.58      0.00
    9   10   10     -3.23      0.00
   10   10   10     -1.11      0.00
   11   10   10     -2.37      0.00
   12   10   10      0.59      0.00
   13   10   10      0.52      0.00
   14   10   10     -0.96      0.00
   15   10   10     -2.31      0.00
   16   10   10      0.52      0.00
   17   10   10     -2.33      0.00
   18   10   10     -4.62      0.00
   19   10   10     -2.66      0.00
   20   10   10     -2.07      0.00
   21   10   10      0.29      0.00
  -11   11   10      1.90      0.00
  -10   11   10      0.22      0.00
   -9   11   10     -2.41      0.00
   -8   11   10     -3.48      0.00
   -7   11   10     -1.98      0.00
   -6   11   10      0.47      0.00
   -5   11   10      1.50      0.00
   -4   11   10      2.76      0.00
   -3   11   10      2.26      0.00
   -2   11   10      5.46      0.00
   -1   11   10      7.33      0.00
    0   11   10      5.33      0.00
    1   11   10      2.52      0.00
    2   11   10      6.24      0.00
    3   11   10      2.71      0.00
    4   11   10      1.22      0.00
    5   11   10      4.24      0.00
    6   11   10      0.94      0.00
    7   11   10      0.48      0.00
    8   11   10     -0.75      0.00
    9   11   10     -0.97      0.00
   10   11   10      1.06      0.00
   11   11   10      0.03      0.00
   12   11   10      0.10      0.00
   13   11   10      1.34      0.00
   14   11   10      1.83      0.00
   15   11   10     -0.90      0.00
   16   11   10     -0.07      0.00
   17   11   10     -0.40      0.00
   18   11   10     -0.69      0.00
   19   11   10     -1.63      0.00
   20   11   10     -2.60      0.00
   21   11   10      1.58      0.00
  -10   12   10      1.12      0.00
   -9   12   10     -0.88      0.00
   -8   12   10     -1.54      0.00
   -7   12   10     -0.57      0.00
   -6   12   10      1.65      0.00
   -5   12   10     -0.41      0.00
   -4   12   10     -3.54      0.00
   -3   12   10     -0.85      0.00
   -2   12   10      1.47      0.00
   -1   12   10      3.67      0.00
    0   12   10      1.58      0.00
    1   12   10     -1.28      0.00
    2   12   10      2.49      0.00
    3   12   10      2.14      0.00
    4   12   10     -1.31      0.00
    5   12   10      0.85      0.00
    6   12   10     -1.36      0.00
    7   12   10     -0.80      0.00
    8   12   10      0.17      0.00
    9   12   10      0.80      0.00
   10   12   10      2.12      0.00
   11   12   10      5.61      0.00
   12   12   10      1.79      0.00
   13   12   10     -0.75      0.00
   14   12   10      1.45      0.00
   15   12   10      1.47      0.00
   16   12   10      1.16      0.00
   17   12   10      0.23      0.00
   18   12   10      0.24      0.00
   19   12   10     -0.49      0.00
   20   12   10     -4.25      0.00
   21   12   10     -1.31      0.00
   -9   13   10      0.28      0.00
   -8   13   10     -0.47      0.00
   -7   13   10     -1.85      0.00
   -6   13   10      1.90      0.00
   -5   13   10      3.26      0.00
   -4   13   10     -0.25      0.00
   -3   13   10      1.22      0.00
   -2   13   10      1.16      0.00
   -1   13   10      2.79      0.00
    0   13   10      2.77      0.00
    1   13   10      0.29      0.00
    2   13   10      1.72      0.00
    3   13   10      3.69      0.00
    4   13   10      1.29      0.00
    5   13   10      5.20      0.00
    6   13   10      4.22      0.00
    7   13   10      1.53      0.00
    8   13   10     -0.18      0.00
    9   13   10     -2.58      0.00
   10   13   10     -2.78      0.00
   11   13   10      1.30      0.00
   12   13   10      0.45      0.00
   13   13   10     -0.66      0.00
   14   13   10     -0.70      0.00
   15   13   10     -2.82      0.00
   16   13   10     -2.74      0.00
   17   13   10     -1.23      0.00
   18   13   10      0.52      0.00
   19   13   10      0.69      0.00
   20   13   10     -4.59      0.00
   21   13   10     -2.06      0.00
   -8   14   10     -1.82      0.00
   -7   14   10     -4.26      0.00
   -6   14   10     -3.49      0.00
   -5   14   10     -1.19      0.00
   -4   14   10     -0.84      0.00
   -3   14   10     -1.35      0.00
   -2   14   10     -0.77      0.00
   -1   14   10     -1.59      0.00
    0   14   10     -0.53      0.00
    1   14   10     -0.24      0.00
    2   14   10      0.85      0.00
    3   14   10      2.23      0.00
    4   14   10      1.15      0.00
    5   14   10      0.63      0.00
    6   14   10     -1.41      0.00
    7   14   10     -2.03      0.00
    8   14   10     -3.57      0.00
    9   14   10     -5.89      0.00
   10   14   10     -2.98      0.00
   11   14   10     -1.75      0.00
   12   14   10     -1.40      0.00
   13   14   10      0.84      0.00
   14   14   10      4.37      0.00
   15   14   10      2.72      0.00
   16   14   10     -0.06      0.00
   17   14   10     -1.06      0.00
   18   14   10      1.26      0.00
   19   14   10      0.17      0.00
   20   14   10     -4.13      0.00
   21   14   10      1.12      0.00
   -7   15   10      0.39      0.00
   -6   15   10     -1.92      0.00
   -5   15   10     -1.19      0.00
   -4   15   10      0.31      0.00
   -3   15   10     -2.60      0.00
   -2   15   10     -0.61      0.00
   -1   15   10     -3.83      0.00
    0   15   10     -0.92      0.00
    1   15   10      2.36      0.00
    2   15   10      1.44      0.00
    3   15   10     -0.76      0.00
    4   15   10      0.42      0.00
    5   15   10      1.92      0.00
    6   15   10      1.03      0.00
    7   15   10     -0.07      0.00
    8   15   10     -0.79      0.00
    9   15   10     -4.33      0.00
   10   15   10     -2.77      0.00
   11   15   10     -3.08      0.00
   12   15   10     -4.80      0.00
   13   15   10     -3.13      0.00
   14   15   10      0.17      0.00
   15   15   10     -0.75      0.00
   16   15   10     -3.10      0.00
   17   15   10     -4.82      0.00
   18   15   10     -0.30      0.00
   19   15   10     -0.47      0.00
   20   15   10     -5.46      0.00
   21   15   10     -3.09      0.00
   -6   16   10     -2.17      0.00
   -5   16   10     -1.06      0.00
   -4   16   10      0.99      0.00
   -3   16   10      0.51      0.00
   -2   16   10      3.70      0.00
   -1   16   10     -0.10      0.00
    0   16   10      0.90      0.00
    1   16   10      2.44      0.00
    2   16   10      1.42      0.00
    3   16   10     -1.24      0.00
    4   16   10     -3.10      0.00
    5   16   10      1.83      0.00
    6   16   10      1.09      0.00
    7   16   10     -2.04      0.00
    8   16   10      0.06      0.00
    9   16   10     -4.46      0.00
   10   16   10     -4.81      0.00
   11   16   10     -2.24      0.00
   12   16   10     -5.50      0.00
   13   16   10     -3.56      0.00
   14   16   10     -2.98      0.00
   15   16   10     -5.08      0.00
   16   16   10     -3.74      0.00
   17   16   10     -3.42      0.00
   18   16   10     -2.98      0.00
   19   16   10     -2.58      0.00
   20   16   10     -2.73      0.00
   21   16   10      0.84      0.00
   -4   17   10      2.19      0.00
   -3   17   10     -0.52      0.00
   -2   17   10      0.57      0.00
   -1   17   10      2.10      0.00
    0   17   10      3.89      0.00
    1   17   10      5.18      0.00
    2   17   10      2.95      0.00
    3   17   10     -0.61      0.00
    4   17   10     -4.13      0.00
    5   17   10      1.80      0.00
    6   17   10     -0.78      0.00
    7   17   10     -2.83      0.00
    8   17   10      3.00      0.00
    9   17   10      1.20      0.00
   10   17   10     -2.12      0.00
   11   17   10      0.23      0.00
   12   17   10     -2.59      0.00
   13   17   10     -0.23      0.00
   14   17   10      1.48      0.00
   15   17   10     -2.54      0.00
   16   17   10     -3.23      0.00
   17   17   10     -0.32      0.00
   18   17   10     -2.56      0.00
   19   17   10     -3.81      0.00
   20   17   10     -4.45      0.00
   -3   18   10      2.33      0.00
   -2   18   10      2.65      0.00
   -1   18   10      1.93      0.00
    0   18   10     -2.38      0.00
    1   18   10     -1.14      0.00
    2   18   10     -3.03      0.00
    3   18   10     -3.62      0.00
    4   18   10     -2.48      0.00
    5   18   10      1.81      0.00
    6   18   10      2.11      0.00
    7   18   10     -0.07      0.00
    8   18   10      0.45      0.00
    9   18   10      1.31      0.00
   10   18   10     -2.41      0.00
   11   18   10      1.64      0.00
   12   18   10      1.61      0.00
   13   18   10     -1.66      0.00
   14   18   10      0.68      0.00
   15   18   10      1.17      0.00
   16   18   10      2.52      0.00
   17   18   10      6.32      0.00
   18   18   10     -0.32      0.00
   19   18   10     -3.31      0.00
   20   18   10     -0.12      0.00
   -1   19   10      5.03      0.00
    0   19   10      2.88      0.00
    1   19   10      2.81      0.00
    2   19   10     -3.08      0.00
    3   19   10     -4.36      0.00
    4   19   10     -3.09      0.00
    5   19   10     -4.55      0.00
    6   19   10     -0.47      0.00
    7   19   10     -0.10      0.00
    8   19   10      0.80      0.00
    9   19   10      2.99      0.00
   10   19   10     -2.96      0.00
   11   19   10     -1.67      0.00
   12   19   10     -0.48      0.00
   13   19   10     -3.54      0.00
   14   19   10     -1.31      0.00
   15   19   10     -0.61      0.00
   16   19   10     -1.65      0.00
   17   19   10      1.51      0.00
   18   19   10     -4.91      0.00
   19   19   10     -9.89      0.00
    1   20   10     -0.09      0.00
    2   20   10     -1.69      0.00
    3   20   10     -1.12      0.00
    4   20   10     -2.16      0.00
    5   20   10     -5.81      0.00
    6   20   10     -4.21      0.00
    7   20   10     -5.66      0.00
    8   20   10     -4.35      0.00
    9   20   10     -0.25      0.00
   10   20   10      0.25      0.00
   11   20   10      0.59      0.00
   12   20   10      0.83      0.00
   13   20   10      0.64      0.00
   14   20   10      0.60      0.00
   15   20   10      1.70      0.00
   16   20   10     -1.54      0.00
   17   20   10      0.25      0.00
   18   20   10      0.02      0.00
    3   21   10     -0.39      0.00
    4   21   10     -1.27      0.00
    5   21   10     -2.38      0.00
    6   21   10     -2.35      0.00
    7   21   10     -3.64      0.00
    8   21   10     -7.28      0.00
    9   21   10     -3.61      0.00
   10   21   10      4.70      0.00
   11   21   10      5.02      0.00
   12   21   10      2.39      0.00
   13   21   10      3.31      0.00
   14   21   10      2.47      0.00
   15   21   10      4.72      0.00
   16   21   10      1.88      0.00
    7   22   10      1.22      0.00
    8   22   10      0.17      0.00
    9   22   10      1.30      0.00
   10   22   10      3.57      0.00
   11   22   10      1.34      0.00
   12   22   10     -2.98      0.00
   13   22   10     -2.12      0.00
   14   22   10     -1.61      0.00
   -8  -14   11      0.95      0.00
   -7  -14   11      2.59      0.00
   -6  -14   11      1.97      0.00
   -5  -14   11      1.92      0.00
   -4  -14   11     -0.16      0.00
   -3  -14   11      1.01      0.00
  -11  -13   11     -0.70      0.00
  -10  -13   11      2.37      0.00
   -9  -13   11      4.11      0.00
   -8  -13   11      1.17      0.00
   -7  -13   11      0.71      0.00
   -6  -13   11     -2.54      0.00
   -5  -13   11     -0.80      0.00
   -4  -13   11     -3.17      0.00
   -3  -13   11     -4.27      0.00
   -2  -13   11     -3.18      0.00
   -1  -13   11     -1.88      0.00
    0  -13   11      1.02      0.00
    1  -13   11      3.35      0.00
  -13  -12   11      1.03      0.00
  -12  -12   11      0.92      0.00
  -11  -12   11     -0.68      0.00
  -10  -12   11     -2.05      0.00
   -9  -12   11     -1.07      0.00
   -8  -12   11     -2.58      0.00
   -7  -12   11      0.04      0.00
   -6  -12   11     -2.08      0.00
   -5  -12   11      4.50      0.00
   -4  -12   11      5.59      0.00
   -3  -12   11      2.93      0.00
   -2  -12   11      1.44      0.00
   -1  -12   11      0.09      0.00
    0  -12   11     -2.67      0.00
    1  -12   11     -2.28      0.00
    2  -12   11     -1.70      0.00
    3  -12   11     -0.42      0.00
  -14  -11   11      2.25      0.00
  -13  -11   11      3.02      0.00
  -12  -11   11      2.50      0.00
  -11  -11   11     -0.75      0.00
  -10  -11   11     -4.74      0.00
   -9  -11   11     -4.02      0.00
   -8  -11   11     -4.94      0.00
   -7  -11   11     -1.47      0.00
   -6  -11   11     -3.43      0.00
   -5  -11   11     -1.70      0.00
   -4  -11   11     -1.20      0.00
   -3  -11   11     -2.28      0.00
   -2  -11   11     -2.16      0.00
   -1  -11   11     -0.17      0.00
    0  -11   11     -0.72      0.00
    1  -11   11     -1.42      0.00
    2  -11   11     -2.17      0.00
    3  -11   11     -1.09      0.00
    4  -11   11     -0.76      0.00
    5  -11   11      0.07      0.00
  -15  -10   11     -3.55      0.00
  -14  -10   11     -2.96      0.00
  -13  -10   11     -2.52      0.00
  -12  -10   11      0.36      0.00
  -11  -10   11      2.42      0.00
  -10  -10   11      2.35      0.00
   -9  -10   11      3.56      0.00
   -8  -10   11     -0.83      0.00
   -7  -10   11     -0.23      0.00
   -6  -10   11     -0.91      0.00
   -5  -10   11     -1.57      0.00
   -4  -10   11      1.30      0.00
   -3  -10   11      1.24      0.00
   -2  -10   11      0.49      0.00
   -1  -10   11     -0.45      0.00
    0  -10   11      0.09      0.00
    1  -10   11      1.16      0.00
    2  -10   11      2.27      0.00
    3  -10   11      2.95      0.00
    4  -10   11      1.87      0.00
    5  -10   11      1.87      0.00
    6  -10   11      1.36      0.00
    7  -10   11     -1.55      0.00
  -15   -9   11     -2.24      0.00
  -14   -9   11     -0.66      0.00
  -13   -9   11     -0.90      0.00
  -12   -9   11     -1.28      0.00
  -11   -9   11     -0.76      0.00
  -10   -9   11      0.89      0.00
   -9   -9   11      4.04      0.00
   -8   -9   11      0.58      0.00
   -7   -9   11      1.40      0.00
   -6   -9   11      0.44      0.00
   -5   -9   11     -2.25      0.00
   -4   -9   11      0.75      0.00
   -3   -9   11      1.68      0.00
   -2   -9   11      3.22      0.00
   -1   -9   11     -0.16      0.00
    0   -9   11     -1.88      0.00
    1   -9   11     -2.71      0.00
    2   -9   11     -1.90      0.00
    3   -9   11     -1.59      0.00
    4   -9   11     -0.67      0.00
    5   -9   11     -0.18      0.00
    6   -9   11     -1.20      0.00
    7   -9   11     -2.98      0.00
    8   -9   11     -0.91      0.00
  -16   -8   11     -2.06      0.00
  -15   -8   11     -1.38      0.00
  -14   -8   11      0.49      0.00
  -13   -8   11      0.38      0.00
  -12   -8   11      0.01      0.00
  -11   -8   11     -0.09      0.00
  -10   -8   11      0.04      0.00
   -9   -8   11      2.16      0.00
   -8   -8   11     -0.80      0.00
   -7   -8   11     -0.41      0.00
   -6   -8   11     -1.49      0.00
   -5   -8   11     -5.17      0.00
   -4   -8   11     -5.13      0.00
   -3   -8   11     -4.84      0.00
   -2   -8   11     -0.96      0.00
   -1   -8   11     -1.80      0.00
    0   -8   11     -1.07      0.00
    1   -8   11      1.76      0.00
    2   -8   11      1.72      0.00
    3   -8   11     -0.55      0.00
    4   -8   11      3.03      0.00
    5   -8   11      4.04      0.00
    6   -8   11      0.60      0.00
    7   -8   11     -0.97      0.00
    8   -8   11      1.87      0.00
    9   -8   11      0.10      0.00
   10   -8   11      0.36      0.00
  -16   -7   11      1.43      0.00
  -15   -7   11      3.43      0.00
  -14   -7   11      2.02      0.00
  -13   -7   11      0.14      0.00
  -12   -7   11     -1.25      0.00
  -11   -7   11     -1.07      0.00
  -10   -7   11     -2.07      0.00
   -9   -7   11      0.12      0.00
   -8   -7   11     -0.41      0.00
   -7   -7   11      1.00      0.00
   -6   -7   11      2.25      0.00
   -5   -7   11      0.47      0.00
   -4   -7   11      0.77      0.00
   -3   -7   11     -0.37      0.00
   -2   -7   11      1.29      0.00
   -1   -7   11     -2.61      0.00
    0   -7   11     -4.55      0.00
    1   -7   11      2.52      0.00
    2   -7   11      3.18      0.00
    3   -7   11     -1.52      0.00
    4   -7   11      0.44      0.00
    5   -7   11      2.65      0.00
    6   -7   11     -0.33      0.00
    7   -7   11     -3.07      0.00
    8   -7   11      0.47      0.00
    9   -7   11     -1.53      0.00
   10   -7   11     -1.46      0.00
   11   -7   11      0.25      0.00
  -16   -6   11      2.46      0.00
  -15   -6   11      5.73      0.00
  -14   -6   11      2.24      0.00
  -13   -6   11     -0.29      0.00
  -12   -6   11     -2.35      0.00
  -11   -6   11     -0.94      0.00
  -10   -6   11     -2.22      0.00
   -9   -6   11     -1.49      0.00
   -8   -6   11     -2.67      0.00
   -7   -6   11     -2.06      0.00
   -6   -6   11     -0.23      0.00
   -5   -6   11      0.26      0.00
   -4   -6   11      2.16      0.00
   -3   -6   11     -0.66      0.00
   -2   -6   11      0.64      0.00
   -1   -6   11     -2.16      0.00
    0   -6   11     -4.12      0.00
    1   -6   11      1.59      0.00
    2   -6   11      1.34      0.00
    3   -6   11     -2.33      0.00
    4   -6   11     -2.50      0.00
    5   -6   11      2.12      0.00
    6   -6   11      3.72      0.00
    7   -6   11      0.00      0.00
    8   -6   11      1.13      0.00
    9   -6   11      0.36      0.00
   10   -6   11      1.14      0.00
   11   -6   11      3.76      0.00
   12   -6   11      0.52      0.00
  -17   -5   11     -1.67      0.00
  -16   -5   11     -0.21      0.00
  -15   -5   11      2.57      0.00
  -14   -5   11      2.20      0.00
  -13   -5   11      1.97      0.00
  -12   -5   11      0.38      0.00
  -11   -5   11     -0.16      0.00
  -10   -5   11     -1.02      0.00
   -9   -5   11     -0.78      0.00
   -8   -5   11     -2.71      0.00
   -7   -5   11     -2.96      0.00
   -6   -5   11     -3.30      0.00
   -5   -5   11     -2.38      0.00
   -4   -5   11      2.95      0.00
   -3   -5   11      1.43      0.00
   -2   -5   11     -1.06      0.00
   -1   -5   11     -4.28      0.00
    0   -5   11     -4.47      0.00
    1   -5   11     -1.65      0.00
    2   -5   11     -1.14      0.00
    3   -5   11      0.24      0.00
    4   -5   11      1.55      0.00
    5   -5   11      2.96      0.00
    6   -5   11      3.63      0.00
    7   -5   11      0.86      0.00
    8   -5   11      0.65      0.00
    9   -5   11      0.68      0.00
   10   -5   11     -0.83      0.00
   11   -5   11      1.57      0.00
   12   -5   11     -1.57      0.00
   13   -5   11     -1.74      0.00
  -17   -4   11     -1.35      0.00
  -16   -4   11     -1.05      0.00
  -15   -4   11     -1.05      0.00
  -14   -4   11     -3.29      0.00
  -13   -4   11     -1.68      0.00
  -12   -4   11      0.57      0.00
  -11   -4   11     -2.37      0.00
  -10   -4   11     -2.83      0.00
   -9   -4   11     -2.60      0.00
   -8   -4   11     -4.70      0.00
   -7   -4   11     -2.61      0.00
   -6   -4   11     -1.05      0.00
   -5   -4   11     -2.47      0.00
   -4   -4   11      2.09      0.00
   -3   -4   11      3.11      0.00
   -2   -4   11      0.20      0.00
   -1   -4   11     -0.88      0.00
    0   -4   11      0.13      0.00
    1   -4   11      0.65      0.00
    2   -4   11     -4.90      0.00
    3   -4   11     -7.48      0.00
    4   -4   11     -1.99      0.00
    5   -4   11      1.39      0.00
    6   -4   11      4.29      0.00
    7   -4   11      2.87      0.00
    8   -4   11     -0.22      0.00
    9   -4   11      1.85      0.00
   10   -4   11      1.38      0.00
   11   -4   11      3.45      0.00
   12   -4   11      1.48      0.00
   13   -4   11      2.55      0.00
   14   -4   11      3.80      0.00
  -17   -3   11     -3.09      0.00
  -16   -3   11     -3.06      0.00
  -15   -3   11     -0.67      0.00
  -14   -3   11     -3.15      0.00
  -13   -3   11     -2.14      0.00
  -12   -3   11     -0.47      0.00
  -11   -3   11     -2.00      0.00
  -10   -3   11      1.29      0.00
   -9   -3   11      4.74      0.00
   -8   -3   11     -0.40      0.00
   -7   -3   11     -3.61      0.00
   -6   -3   11     -3.04      0.00
   -5   -3   11     -4.69      0.00
   -4   -3   11     -1.36      0.00
   -3   -3   11     -1.15      0.00
   -2   -3   11     -2.33      0.00
   -1   -3   11     -1.43      0.00
    0   -3   11      0.06      0.00
    1   -3   11      5.03      0.00
    2   -3   11      1.10      0.00
    3   -3   11     -2.33      0.00
    4   -3   11      1.51      0.00
    5   -3   11     -0.43      0.00
    6   -3   11      2.45      0.00
    7   -3   11      3.48      0.00
    8   -3   11     -2.05      0.00
    9   -3   11     -0.66      0.00
   10   -3   11     -1.70      0.00
   11   -3   11     -2.55      0.00
   12   -3   11     -3.16      0.00
   13   -3   11     -1.31      0.00
   14   -3   11      3.04      0.00
   15   -3   11      3.97      0.00
  -17   -2   11     -3.39      0.00
  -16   -2   11     -1.82      0.00
  -15   -2   11      0.16      0.00
  -14   -2   11      0.39      0.00
  -13   -2   11      1.82      0.00
  -12   -2   11     -0.95      0.00
  -11   -2   11     -3.57      0.00
  -10   -2   11     -3.82      0.00
   -9   -2   11      0.60      0.00
   -8   -2   11     -2.33      0.00
   -7   -2   11     -3.81      0.00
   -6   -2   11     -2.62      0.00
   -5   -2   11     -3.90      0.00
   -4   -2   11     -3.45      0.00
   -3   -2   11     -3.72      0.00
   -2   -2   11     -0.78      0.00
   -1   -2   11      0.63      0.00
    0   -2   11     -0.13      0.00
    1   -2   11      4.39      0.00
    2   -2   11      1.72      0.00
    3   -2   11      0.68      0.00
    4   -2   11      5.19      0.00
    5   -2   11     -0.98      0.00
    6   -2   11     -0.54      0.00
    7   -2   11      5.16      0.00
    8   -2   11      2.78      0.00
    9   -2   11      2.08      0.00
   10   -2   11     -0.11      0.00
   11   -2   11     -1.03      0.00
   12   -2   11      0.28      0.00
   13   -2   11     -1.45      0.00
   14   -2   11     -0.32      0.00
   15   -2   11     -1.14      0.00
   16   -2   11     -1.85      0.00
  -16   -1   11      2.72      0.00
  -15   -1   11      2.01      0.00
  -14   -1   11      3.14      0.00
  -13   -1   11      4.73      0.00
  -12   -1   11      2.06      0.00
  -11   -1   11      2.06      0.00
  -10   -1   11      1.58      0.00
   -9   -1   11      4.45      0.00
   -8   -1   11     -0.04      0.00
   -7   -1   11     -1.76      0.00
   -6   -1   11      0.52      0.00
   -5   -1   11      1.10      0.00
   -4   -1   11     -3.11      0.00
   -3   -1   11     -6.08      0.00
   -2   -1   11     -0.98      0.00
   -1   -1   11      2.24      0.00
    0   -1   11     -0.99      0.00
    1   -1   11      2.59      0.00
    2   -1   11      2.74      0.00
    3   -1   11      0.90      0.00
    4   -1   11      6.98      0.00
    5   -1   11      2.00      0.00
    6   -1   11     -2.92      0.00
    7   -1   11      0.04      0.00
    8   -1   11     -0.09      0.00
    9   -1   11     -1.17      0.00
   10   -1   11     -1.41      0.00
   11   -1   11     -0.39      0.00
   12   -1   11      0.33      0.00
   13   -1   11     -1.59      0.00
   14   -1   11      0.97      0.00
   15   -1   11      0.54      0.00
   16   -1   11     -1.32      0.00
  -16    0   11      1.41      0.00
  -15    0   11      0.51      0.00
  -14    0   11     -0.43      0.00
  -13    0   11      1.29      0.00
  -12    0   11      0.96      0.00
  -11    0   11      2.64      0.00
  -10    0   11      3.33      0.00
   -9    0   11      2.98      0.00
   -8    0   11     -1.94      0.00
   -7    0   11     -3.37      0.00
   -6    0   11      0.02      0.00
   -5    0   11      2.90      0.00
   -4    0   11      2.13      0.00
   -3    0   11     -1.18      0.00
   -2    0   11      0.41      0.00
   -1    0   11      3.25      0.00
    0    0   11     -2.93      0.00
    1    0   11     -0.92      0.00
    2    0   11      2.58      0.00
    3    0   11     -0.68      0.00
    4    0   11      4.18      0.00
    5    0   11      3.00      0.00
    6    0   11     -0.35      0.00
    7    0   11      1.61      0.00
    8    0   11      3.13      0.00
    9    0   11      2.05      0.00
   10    0   11      1.96      0.00
   11    0   11      4.94      0.00
   12    0   11      4.66      0.00
   13    0   11      0.74      0.00
   14    0   11      2.02      0.00
   15    0   11      4.03      0.00
   16    0   11      1.49      0.00
   17    0   11     -0.50      0.00
  -16    1   11     -1.78      0.00
  -15    1   11     -0.05      0.00
  -14    1   11     -2.02      0.00
  -13    1   11      0.75      0.00
  -12    1   11      0.35      0.00
  -11    1   11      1.01      0.00
  -10    1   11      4.04      0.00
   -9    1   11      3.34      0.00
   -8    1   11     -3.93      0.00
   -7    1   11     -7.49      0.00
   -6    1   11     -5.23      0.00
   -5    1   11     -8.48      0.00
   -4    1   11     -7.30      0.00
   -3    1   11     -4.18      0.00
   -2    1   11     -0.53      0.00
   -1    1   11      2.81      0.00
    0    1   11     -0.83      0.00
    1    1   11      1.81      0.00
    2    1   11      6.16      0.00
    3    1   11      0.79      0.00
    4    1   11      0.86      0.00
    5    1   11     -1.06      0.00
    6    1   11     -1.39      0.00
    7    1   11      0.63      0.00
    8    1   11      0.37      0.00
    9    1   11     -0.30      0.00
   10    1   11     -3.71      0.00
   11    1   11     -0.76      0.00
   12    1   11      1.11      0.00
   13    1   11     -3.06      0.00
   14    1   11     -3.95      0.00
   15    1   11     -0.84      0.00
   16    1   11     -2.16      0.00
   17    1   11     -0.98      0.00
   18    1   11     -1.01      0.00
  -16    2   11     -2.78      0.00
  -15    2   11     -0.47      0.00
  -14    2   11     -3.20      0.00
  -13    2   11      0.18      0.00
  -12    2   11      3.69      0.00
  -11    2   11      2.01      0.00
  -10    2   11      1.30      0.00
   -9    2   11      4.49      0.00
   -8    2   11      2.08      0.00
   -7    2   11      0.28      0.00
   -6    2   11      3.92      0.00
   -5    2   11     -1.18      0.00
   -4    2   11     -3.14      0.00
   -3    2   11      0.21      0.00
   -2    2   11      0.72      0.00
   -1    2   11     -1.37      0.00
    0    2   11     -4.20      0.00
    1    2   11     -2.38      0.00
    2    2   11      1.29      0.00
    3    2   11     -1.26      0.00
    4    2   11      3.61      0.00
    5    2   11      2.37      0.00
    6    2   11      2.83      0.00
    7    2   11      4.30      0.00
    8    2   11     -0.99      0.00
    9    2   11      0.26      0.00
   10    2   11     -3.16      0.00
   11    2   11     -2.06      0.00
   12    2   11     -0.62      0.00
   13    2   11     -3.74      0.00
   14    2   11     -3.84      0.00
   15    2   11     -0.83      0.00
   16    2   11     -2.54      0.00
   17    2   11     -0.67      0.00
   18    2   11     -0.24      0.00
  -15    3   11      0.74      0.00
  -14    3   11     -1.13      0.00
  -13    3   11     -4.76      0.00
  -12    3   11     -0.53      0.00
  -11    3   11      0.16      0.00
  -10    3   11     -2.21      0.00
   -9    3   11     -1.22      0.00
   -8    3   11     -1.59      0.00
   -7    3   11     -2.94      0.00
   -6    3   11     -0.27      0.00
   -5    3   11     -1.56      0.00
   -4    3   11     -2.47      0.00
   -3    3   11      5.43      0.00
   -2    3   11      5.77      0.00
   -1    3   11      2.45      0.00
    0    3   11      3.53      0.00
    1    3   11      7.94      0.00
    2    3   11      8.13      0.00
    3    3   11      1.98      0.00
    4    3   11      6.86      0.00
    5    3   11      0.72      0.00
    6    3   11     -3.98      0.00
    7    3   11     -0.32      0.00
    8    3   11     -6.14      0.00
    9    3   11     -4.38      0.00
   10    3   11     -1.60      0.00
   11    3   11      1.73      0.00
   12    3   11      3.31      0.00
   13    3   11      1.81      0.00
   14    3   11      0.92      0.00
   15    3   11      1.25      0.00
   16    3   11     -2.58      0.00
   17    3   11     -2.94      0.00
   18    3   11      0.24      0.00
   19    3   11      1.23      0.00
  -15    4   11     -0.08      0.00
  -14    4   11      0.97      0.00
  -13    4   11     -3.90      0.00
  -12    4   11     -1.25      0.00
  -11    4   11     -0.25      0.00
  -10    4   11     -0.28      0.00
   -9    4   11      0.86      0.00
   -8    4   11      2.90      0.00
   -7    4   11      0.99      0.00
   -6    4   11      1.29      0.00
   -5    4   11      0.92      0.00
   -4    4   11     -1.88      0.00
   -3    4   11      3.38      0.00
   -2    4   11     -1.36      0.00
   -1    4   11     -8.99      0.00
    0    4   11    -10.65      0.00
    1    4   11     -6.55      0.00
    2    4   11     -6.63      0.00
    3    4   11    -10.98      0.00
    4    4   11      0.40      0.00
    5    4   11      0.66      0.00
    6    4   11     -7.30      0.00
    7    4   11     -1.25      0.00
    8    4   11     -5.73      0.00
    9    4   11    -11.68      0.00
   10    4   11     -6.24      0.00
   11    4   11     -1.65      0.00
   12    4   11     -1.00      0.00
   13    4   11     -0.77      0.00
   14    4   11      0.70      0.00
   15    4   11      1.04      0.00
   16    4   11     -2.66      0.00
   17    4   11     -4.64      0.00
   18    4   11     -2.25      0.00
   19    4   11     -1.51      0.00
  -14    5   11      0.42      0.00
  -13    5   11     -0.27      0.00
  -12    5   11      2.33      0.00
  -11    5   11      0.93      0.00
  -10    5   11     -0.02      0.00
   -9    5   11      2.87      0.00
   -8    5   11      7.36      0.00
   -7    5   11      6.55      0.00
   -6    5   11      3.35      0.00
   -5    5   11      0.23      0.00
   -4    5   11      0.53      0.00
   -3    5   11      5.90      0.00
   -2    5   11      5.07      0.00
   -1    5   11      2.04      0.00
    0    5   11      0.90      0.00
    1    5   11      1.86      0.00
    2    5   11      0.25      0.00
    3    5   11     -6.51      0.00
    4    5   11      5.86      0.00
    5    5   11     14.51      0.00
    6    5   11      6.49      0.00
    7    5   11     14.48      0.00
    8    5   11     14.75      0.00
    9    5   11      2.73      0.00
   10    5   11      2.92      0.00
   11    5   11      3.68      0.00
   12    5   11     -0.29      0.00
   13    5   11     -3.42      0.00
   14    5   11      0.73      0.00
   15    5   11      2.46      0.00
   16    5   11      0.07      0.00
   17    5   11     -0.80      0.00
   18    5   11      0.08      0.00
   19    5   11     -2.65      0.00
   20    5   11     -0.75      0.00
  -14    6   11      0.31      0.00
  -13    6   11      0.78      0.00
  -12    6   11      3.64      0.00
  -11    6   11      1.86      0.00
  -10    6   11     -1.42      0.00
   -9    6   11     -2.02      0.00
   -8    6   11     -3.51      0.00
   -7    6   11     -2.75      0.00
   -6    6   11     -5.00      0.00
   -5    6   11     -8.39      0.00
   -4    6   11     -7.05      0.00
   -3    6   11     -5.65      0.00
   -2    6   11     -2.72      0.00
   -1    6   11      2.72      0.00
    0    6   11     11.22      0.00
    1    6   11     16.17      0.00
    2    6   11     16.01      0.00
    3    6   11      4.39      0.00
    4    6   11      6.93      0.00
    5    6   11     10.33      0.00
    6    6   11     -1.41      0.00
    7    6   11      0.32      0.00
    8    6   11      3.61      0.00
    9    6   11     -4.59      0.00
   10    6   11     -8.22      0.00
   11    6   11     -5.10      0.00
   12    6   11     -5.18      0.00
   13    6   11     -8.30      0.00
   14    6   11     -2.66      0.00
   15    6   11      0.08      0.00
   16    6   11     -2.38      0.00
   17    6   11     -1.33      0.00
   18    6   11      3.76      0.00
   19    6   11      1.90      0.00
   20    6   11     -0.29      0.00
  -13    7   11     -0.69      0.00
  -12    7   11      0.12      0.00
  -11    7   11     -0.38      0.00
  -10    7   11     -0.33      0.00
   -9    7   11      0.87      0.00
   -8    7   11     -1.82      0.00
   -7    7   11      1.36      0.00
   -6    7   11      2.42      0.00
   -5    7   11      2.64      0.00
   -4    7   11      3.42      0.00
   -3    7   11      3.02      0.00
   -2    7   11      2.99      0.00
   -1    7   11      3.13      0.00
    0    7   11      5.55      0.00
    1    7   11      4.77      0.00
    2    7   11      6.20      0.00
    3    7   11      1.25      0.00
    4    7   11      3.63      0.00
    5    7   11      8.93      0.00
    6    7   11      3.28      0.00
    7    7   11     -0.12      0.00
    8    7   11      3.83      0.00
    9    7   11      2.48      0.00
   10    7   11     -3.94      0.00
   11    7   11     -1.04      0.00
   12    7   11      1.88      0.00
   13    7   11     -2.50      0.00
   14    7   11     -2.64      0.00
   15    7   11      0.19      0.00
   16    7   11      0.02      0.00
   17    7   11     -1.20      0.00
   18    7   11      2.39      0.00
   19    7   11      2.94      0.00
   20    7   11      1.29      0.00
  -13    8   11      2.17      0.00
  -12    8   11      1.21      0.00
  -11    8   11     -0.95      0.00
  -10    8   11     -0.19      0.00
   -9    8   11      1.47      0.00
   -8    8   11     -0.58      0.00
   -7    8   11      1.15      0.00
   -6    8   11      2.91      0.00
   -5    8   11      5.60      0.00
   -4    8   11      5.10      0.00
   -3    8   11      4.25      0.00
   -2    8   11     -0.47      0.00
   -1    8   11     -1.55      0.00
    0    8   11      0.11      0.00
    1    8   11     -4.03      0.00
    2    8   11     -4.88      0.00
    3    8   11     -7.69      0.00
    4    8   11     -8.89      0.00
    5    8   11     -4.51      0.00
    6    8   11     -3.91      0.00
    7    8   11     -4.44      0.00
    8    8   11      0.25      0.00
    9    8   11      3.96      0.00
   10    8   11     -1.12      0.00
   11    8   11     -2.27      0.00
   12    8   11      1.36      0.00
   13    8   11      0.84      0.00
   14    8   11      0.01      0.00
   15    8   11      2.70      0.00
   16    8   11      3.43      0.00
   17    8   11     -1.44      0.00
   18    8   11     -0.95      0.00
   19    8   11      0.91      0.00
   20    8   11      0.76      0.00
   21    8   11      1.34      0.00
  -12    9   11      1.49      0.00
  -11    9   11      2.69      0.00
  -10    9   11      4.10      0.00
   -9    9   11      1.18      0.00
   -8    9   11     -3.02      0.00
   -7    9   11     -2.23      0.00
   -6    9   11      0.28      0.00
   -5    9   11      0.96      0.00
   -4    9   11     -1.09      0.00
   -3    9   11      0.96      0.00
   -2    9   11     -0.28      0.00
   -1    9   11     -0.38      0.00
    0    9   11      1.06      0.00
    1    9   11     -0.19      0.00
    2    9   11      0.63      0.00
    3    9   11     -0.41      0.00
    4    9   11     -0.60      0.00
    5    9   11     -0.18      0.00
    6    9   11     -1.89      0.00
    7    9   11     -1.47      0.00
    8    9   11      0.27      0.00
    9    9   11      4.79      0.00
   10    9   11      2.40      0.00
   11    9   11     -0.79      0.00
   12    9   11      0.85      0.00
   13    9   11     -1.67      0.00
   14    9   11     -4.05      0.00
   15    9   11     -2.50      0.00
   16    9   11     -0.19      0.00
   17    9   11     -4.79      0.00
   18    9   11     -4.38      0.00
   19    9   11     -1.80      0.00
   20    9   11      0.39      0.00
   21    9   11      0.96      0.00
  -11   10   11     -1.82      0.00
  -10   10   11      1.57      0.00
   -9   10   11      2.00      0.00
   -8   10   11      0.62      0.00
   -7   10   11     -0.21      0.00
   -6   10   11      1.48      0.00
   -5   10   11      1.64      0.00
   -4   10   11      0.71      0.00
   -3   10   11      1.25      0.00
   -2   10   11      2.29      0.00
   -1   10   11     -0.03      0.00
    0   10   11     -2.61      0.00
    1   10   11     -2.94      0.00
    2   10   11     -0.55      0.00
    3   10   11     -1.66      0.00
    4   10   11      0.58      0.00
    5   10   11      0.22      0.00
    6   10   11     -0.40      0.00
    7   10   11     -0.11      0.00
    8   10   11     -2.31      0.00
    9   10   11      0.23      0.00
   10   10   11      0.03      0.00
   11   10   11     -1.21      0.00
   12   10   11     -0.29      0.00
   13   10   11     -3.01      0.00
   14   10   11     -3.83      0.00
   15   10   11     -2.25      0.00
   16   10   11      1.71      0.00
   17   10   11     -0.48      0.00
   18   10   11     -0.40      0.00
   19   10   11     -1.32      0.00
   20   10   11     -0.72      0.00
   21   10   11     -1.11      0.00
  -10   11   11      0.21      0.00
   -9   11   11     -0.85      0.00
   -8   11   11     -0.67      0.00
   -7   11   11      0.00      0.00
   -6   11   11      2.17      0.00
   -5   11   11     -0.42      0.00
   -4   11   11     -0.91      0.00
   -3   11   11     -0.54      0.00
   -2   11   11      2.34      0.00
   -1   11   11      1.10      0.00
    0   11   11     -1.60      0.00
    1   11   11     -1.80      0.00
    2   11   11      1.04      0.00
    3   11   11     -1.23      0.00
    4   11   11      1.03      0.00
    5   11   11      0.83      0.00
    6   11   11     -0.59      0.00
    7   11   11      0.23      0.00
    8   11   11     -2.69      0.00
    9   11   11     -5.21      0.00
   10   11   11     -4.93      0.00
   11   11   11     -3.19      0.00
   12   11   11     -1.75      0.00
   13   11   11     -0.89      0.00
   14   11   11      0.00      0.00
   15   11   11     -0.58      0.00
   16   11   11      0.84      0.00
   17   11   11     -0.12      0.00
   18   11   11      2.29      0.00
   19   11   11      1.48      0.00
   20   11   11      1.07      0.00
   21   11   11      2.02      0.00
  -10   12   11     -0.06      0.00
   -9   12   11      0.00      0.00
   -8   12   11     -1.20      0.00
   -7   12   11     -2.79      0.00
   -6   12   11     -1.62      0.00
   -5   12   11     -4.59      0.00
   -4   12   11     -5.30      0.00
   -3   12   11     -3.10      0.00
   -2   12   11      1.17      0.00
   -1   12   11      2.49      0.00
    0   12   11      0.02      0.00
    1   12   11      0.13      0.00
    2   12   11      3.87      0.00
    3   12   11      0.70      0.00
    4   12   11      1.14      0.00
    5   12   11      2.85      0.00
    6   12   11     -0.05      0.00
    7   12   11      3.16      0.00
    8   12   11      3.12      0.00
    9   12   11      0.08      0.00
   10   12   11     -0.57      0.00
   11   12   11     -1.80      0.00
   12   12   11     -5.25      0.00
   13   12   11     -4.27      0.00
   14   12   11     -2.06      0.00
   15   12   11     -1.98      0.00
   16   12   11     -1.48      0.00
   17   12   11     -2.62      0.00
   18   12   11      0.48      0.00
   19   12   11     -0.98      0.00
   20   12   11     -2.85      0.00
   21   12   11      1.50      0.00
   -9   13   11      3.83      0.00
   -8   13   11      5.52      0.00
   -7   13   11      3.30      0.00
   -6   13   11      1.21      0.00
   -5   13   11     -1.54      0.00
   -4   13   11     -6.07      0.00
   -3   13   11     -5.16      0.00
   -2   13   11     -2.68      0.00
   -1   13   11     -0.52      0.00
    0   13   11     -1.07      0.00
    1   13   11     -1.65      0.00
    2   13   11      0.59      0.00
    3   13   11     -0.37      0.00
    4   13   11     -1.08      0.00
    5   13   11      0.30      0.00
    6   13   11     -2.66      0.00
    7   13   11     -0.54      0.00
    8   13   11     -1.00      0.00
    9   13   11     -1.82      0.00
   10   13   11     -1.10      0.00
   11   13   11      0.17      0.00
   12   13   11     -2.95      0.00
   13   13   11     -3.10      0.00
   14   13   11     -1.89      0.00
   15   13   11     -1.54      0.00
   16   13   11      0.59      0.00
   17   13   11      0.86      0.00
   18   13   11      4.32      0.00
   19   13   11      4.39      0.00
   20   13   11      2.74      0.00
   21   13   11      4.02      0.00
   -8   14   11      0.88      0.00
   -7   14   11     -1.69      0.00
   -6   14   11     -2.01      0.00
   -5   14   11      2.15      0.00
   -4   14   11      2.11      0.00
   -3   14   11      4.82      0.00
   -2   14   11      3.19      0.00
   -1   14   11      0.18      0.00
    0   14   11      0.45      0.00
    1   14   11     -1.54      0.00
    2   14   11     -1.85      0.00
    3   14   11     -1.76      0.00
    4   14   11     -1.34      0.00
    5   14   11      2.07      0.00
    6   14   11      2.59      0.00
    7   14   11      3.24      0.00
    8   14   11      4.19      0.00
    9   14   11      5.38      0.00
   10   14   11      5.87      0.00
   11   14   11      5.41      0.00
   12   14   11      3.32      0.00
   13   14   11      4.57      0.00
   14   14   11      3.55      0.00
   15   14   11     -1.51      0.00
   16   14   11     -2.66      0.00
   17   14   11     -1.75      0.00
   18   14   11     -0.39      0.00
   19   14   11     -1.64      0.00
   20   14   11      0.06      0.00
   21   14   11      4.11      0.00
   -6   15   11     -1.57      0.00
   -5   15   11     -2.82      0.00
   -4   15   11     -3.69      0.00
   -3   15   11     -0.95      0.00
   -2   15   11      0.54      0.00
   -1   15   11     -0.64      0.00
    0   15   11      1.63      0.00
    1   15   11      0.49      0.00
    2   15   11      1.31      0.00
    3   15   11     -0.82      0.00
    4   15   11     -1.70      0.00
    5   15   11     -0.19      0.00
    6   15   11     -0.46      0.00
    7   15   11     -0.72      0.00
    8   15   11     -1.57      0.00
    9   15   11     -2.25      0.00
   10   15   11      2.14      0.00
   11   15   11      0.22      0.00
   12   15   11     -1.37      0.00
   13   15   11      1.69      0.00
   14   15   11      2.59      0.00
   15   15   11     -0.13      0.00
   16   15   11     -1.17      0.00
   17   15   11      0.77      0.00
   18   15   11      2.43      0.00
   19   15   11     -1.12      0.00
   20   15   11     -1.66      0.00
   21   15   11      2.49      0.00
   -5   16   11     -1.79      0.00
   -4   16   11     -3.30      0.00
   -3   16   11     -5.08      0.00
   -2   16   11     -2.10      0.00
   -1   16   11     -2.74      0.00
    0   16   11     -0.33      0.00
    1   16   11      0.27      0.00
    2   16   11     -0.96      0.00
    3   16   11     -5.22      0.00
    4   16   11     -3.69      0.00
    5   16   11     -1.11      0.00
    6   16   11     -0.80      0.00
    7   16   11      3.02      0.00
    8   16   11      3.25      0.00
    9   16   11      0.18      0.00
   10   16   11      4.61      0.00
   11   16   11      2.67      0.00
   12   16   11      0.92      0.00
   13   16   11      2.87      0.00
   14   16   11      1.82      0.00
   15   16   11     -0.89      0.00
   16   16   11     -1.17      0.00
   17   16   11     -0.12      0.00
   18   16   11      1.27      0.00
   19   16   11     -2.43      0.00
   20   16   11     -4.04      0.00
   -4   17   11     -1.64      0.00
   -3   17   11     -3.71      0.00
   -2   17   11      1.29      0.00
   -1   17   11     -0.71      0.00
    0   17   11     -0.76      0.00
    1   17   11     -0.41      0.00
    2   17   11     -3.53      0.00
    3   17   11     -2.90      0.00
    4   17   11     -1.28      0.00
    5   17   11     -0.73      0.00
    6   17   11     -4.59      0.00
    7   17   11     -4.04      0.00
    8   17   11     -0.04      0.00
    9   17   11     -1.36      0.00
   10   17   11      1.46      0.00
   11   17   11      2.78      0.00
   12   17   11     -1.76      0.00
   13   17   11     -0.44      0.00
   14   17   11      0.35      0.00
   15   17   11     -0.55      0.00
   16   17   11      0.87      0.00
   17   17   11     -1.65      0.00
   18   17   11     -4.43      0.00
   19   17   11     -4.57      0.00
   20   17   11     -2.42      0.00
   -2   18   11      0.00      0.00
   -1   18   11     -2.89      0.00
    0   18   11     -1.90      0.00
    1   18   11     -1.72      0.00
    2   18   11     -7.21      0.00
    3   18   11     -4.10      0.00
    4   18   11     -3.13      0.00
    5   18   11      1.55      0.00
    6   18   11      1.15      0.00
    7   18   11      0.59      0.00
    8   18   11      5.30      0.00
    9   18   11     -0.16      0.00
   10   18   11     -1.76      0.00
   11   18   11      2.68      0.00
   12   18   11     -1.38      0.00
   13   18   11      0.15      0.00
   14   18   11      1.13      0.00
   15   18   11     -0.69      0.00
   16   18   11      1.95      0.00
   17   18   11      0.50      0.00
   18   18   11     -6.28      0.00
   19   18   11     -3.66      0.00
   -1   19   11     -2.91      0.00
    0   19   11     -3.77      0.00
    1   19   11     -0.98      0.00
    2   19   11     -1.13      0.00
    3   19   11      1.83      0.00
    4   19   11      1.37      0.00
    5   19   11      1.22      0.00
    6   19   11     -2.76      0.00
    7   19   11     -4.94      0.00
    8   19   11     -1.41      0.00
    9   19   11     -5.10      0.00
   10   19   11     -5.44      0.00
   11   19   11      0.24      0.00
   12   19   11     -0.79      0.00
   13   19   11     -2.29      0.00
   14   19   11     -2.31      0.00
   15   19   11     -4.48      0.00
   16   19   11     -1.50      0.00
   17   19   11      3.98      0.00
   18   19   11     -1.19      0.00
   19   19   11     -0.52      0.00
    1   20   11      1.61      0.00
    2   20   11      1.47      0.00
    3   20   11      0.37      0.00
    4   20   11      2.42      0.00
    5   20   11      1.51      0.00
    6   20   11     -0.53      0.00
    7   20   11     -4.98      0.00
    8   20   11     -4.46      0.00
    9   20   11     -1.71      0.00
   10   20   11     -2.99      0.00
   11   20   11     -2.28      0.00
   12   20   11     -1.62      0.00
   13   20   11     -1.94      0.00
   14   20   11      2.03      0.00
   15   20   11      1.69      0.00
   16   20   11     -0.73      0.00
   17   20   11      1.70      0.00
   18   20   11     -1.90      0.00
    3   21   11      1.69      0.00
    4   21   11      1.16      0.00
    5   21   11     -0.28      0.00
    6   21   11      5.98      0.00
    7   21   11      5.21      0.00
    8   21   11      4.31      0.00
    9   21   11      6.62      0.00
   10   21   11      3.10      0.00
   11   21   11      2.05      0.00
   12   21   11      1.24      0.00
   13   21   11      1.09      0.00
   14   21   11      1.27      0.00
   15   21   11     -1.18      0.00
   16   21   11     -3.87      0.00
    7   22   11     -1.66      0.00
    8   22   11      0.36      0.00
    9   22   11      2.36      0.00
   10   22   11     -0.15      0.00
   11   22   11     -1.24      0.00
   12   22   11     -3.46      0.00
   13   22   11     -1.93      0.00
   14   22   11     -1.82      0.00
   -9  -13   12     -4.58      0.00
   -8  -13   12     -3.39      0.00
   -7  -13   12     -0.40      0.00
   -6  -13   12      1.93      0.00
   -5  -13   12      4.32      0.00
   -4  -13   12     -1.73      0.00
   -3  -13   12     -3.01      0.00
   -2  -13   12     -2.96      0.00
  -11  -12   12     -3.06      0.00
  -10  -12   12     -2.41      0.00
   -9  -12   12     -2.06      0.00
   -8  -12   12     -2.11      0.00
   -7  -12   12     -1.47      0.00
   -6  -12   12     -2.38      0.00
   -5  -12   12      0.57      0.00
   -4  -12   12     -2.16      0.00
   -3  -12   12     -0.94      0.00
   -2  -12   12     -1.72      0.00
   -1  -12   12     -2.57      0.00
    0  -12   12     -2.15      0.00
    1  -12   12      0.43      0.00
  -13  -11   12      1.80      0.00
  -12  -11   12      4.57      0.00
  -11  -11   12      1.30      0.00
  -10  -11   12     -0.85      0.00
   -9  -11   12     -1.93      0.00
   -8  -11   12     -4.89      0.00
   -7  -11   12     -1.55      0.00
   -6  -11   12     -0.96      0.00
   -5  -11   12      3.45      0.00
   -4  -11   12      1.82      0.00
   -3  -11   12      0.85      0.00
   -2  -11   12      1.30      0.00
   -1  -11   12      0.62      0.00
    0  -11   12     -2.30      0.00
    1  -11   12     -0.78      0.00
    2  -11   12      0.35      0.00
    3  -11   12      1.51      0.00
    4  -11   12      0.72      0.00
  -14  -10   12     -2.07      0.00
  -13  -10   12     -2.56      0.00
  -12  -10   12      0.84      0.00
  -11  -10   12      2.67      0.00
  -10  -10   12      4.16      0.00
   -9  -10   12      4.39      0.00
   -8  -10   12      0.96      0.00
   -7  -10   12      3.21      0.00
   -6  -10   12      0.79      0.00
   -5  -10   12      3.62      0.00
   -4  -10   12      2.62      0.00
   -3  -10   12     -0.93      0.00
   -2  -10   12     -1.25      0.00
   -1  -10   12      0.15      0.00
    0  -10   12      0.62      0.00
    1  -10   12      0.94      0.00
    2  -10   12     -0.32      0.00
    3  -10   12     -2.39      0.00
    4  -10   12     -2.10      0.00
    5  -10   12     -0.75      0.00
    6  -10   12     -2.87      0.00
  -14   -9   12      3.02      0.00
  -13   -9   12      2.00      0.00
  -12   -9   12      2.45      0.00
  -11   -9   12      2.99      0.00
  -10   -9   12      3.18      0.00
   -9   -9   12      0.69      0.00
   -8   -9   12     -4.34      0.00
   -7   -9   12     -2.48      0.00
   -6   -9   12     -3.88      0.00
   -5   -9   12     -1.91      0.00
   -4   -9   12      0.67      0.00
   -3   -9   12      0.37      0.00
   -2   -9   12     -1.35      0.00
   -1   -9   12     -4.53      0.00
    0   -9   12     -4.29      0.00
    1   -9   12     -2.35      0.00
    2   -9   12     -0.53      0.00
    3   -9   12     -0.82      0.00
    4   -9   12     -0.35      0.00
    5   -9   12      0.24      0.00
    6   -9   12     -0.45      0.00
    7   -9   12     -1.24      0.00
  -15   -8   12     -2.00      0.00
  -14   -8   12      0.23      0.00
  -13   -8   12     -0.54      0.00
  -12   -8   12     -2.06      0.00
  -11   -8   12     -2.27      0.00
  -10   -8   12     -0.21      0.00
   -9   -8   12      1.28      0.00
   -8   -8   12     -1.30      0.00
   -7   -8   12      1.43      0.00
   -6   -8   12      0.50      0.00
   -5   -8   12     -0.16      0.00
   -4   -8   12      1.31      0.00
   -3   -8   12      1.38      0.00
   -2   -8   12      1.75      0.00
   -1   -8   12     -0.75      0.00
    0   -8   12      0.12      0.00
    1   -8   12     -1.70      0.00
    2   -8   12     -5.30      0.00
    3   -8   12     -4.64      0.00
    4   -8   12     -2.97      0.00
    5   -8   12     -3.28      0.00
    6   -8   12     -2.99      0.00
    7   -8   12     -0.45      0.00
    8   -8   12      2.58      0.00
    9   -8   12      0.37      0.00
  -15   -7   12      0.56      0.00
  -14   -7   12      1.33      0.00
  -13   -7   12      1.53      0.00
  -12   -7   12      1.32      0.00
  -11   -7   12      1.16      0.00
  -10   -7   12      1.60      0.00
   -9   -7   12      2.95      0.00
   -8   -7   12     -0.22      0.00
   -7   -7   12      1.79      0.00
   -6   -7   12      1.22      0.00
   -5   -7   12      1.32      0.00
   -4   -7   12      1.65      0.00
   -3   -7   12     -0.08      0.00
   -2   -7   12     -1.69      0.00
   -1   -7   12     -6.09      0.00
    0   -7   12     -1.19      0.00
    1   -7   12      3.30      0.00
    2   -7   12     -0.79      0.00
    3   -7   12     -2.55      0.00
    4   -7   12     -0.15      0.00
    5   -7   12      0.72      0.00
    6   -7   12     -1.32      0.00
    7   -7   12      0.31      0.00
    8   -7   12      3.64      0.00
    9   -7   12      0.70      0.00
   10   -7   12      0.78      0.00
  -16   -6   12      3.63      0.00
  -15   -6   12      4.15      0.00
  -14   -6   12      1.56      0.00
  -13   -6   12      0.32      0.00
  -12   -6   12      0.80      0.00
  -11   -6   12     -0.19      0.00
  -10   -6   12     -1.25      0.00
   -9   -6   12      0.56      0.00
   -8   -6   12     -0.59      0.00
   -7   -6   12      0.06      0.00
   -6   -6   12     -0.63      0.00
   -5   -6   12      1.43      0.00
   -4   -6   12      3.12      0.00
   -3   -6   12      2.25      0.00
   -2   -6   12      2.34      0.00
   -1   -6   12     -1.95      0.00
    0   -6   12     -1.26      0.00
    1   -6   12      3.37      0.00
    2   -6   12      1.99      0.00
    3   -6   12      0.06      0.00
    4   -6   12      0.29      0.00
    5   -6   12     -0.46      0.00
    6   -6   12     -1.07      0.00
    7   -6   12      0.25      0.00
    8   -6   12      1.91      0.00
    9   -6   12     -1.44      0.00
   10   -6   12      1.77      0.00
   11   -6   12      3.61      0.00
  -16   -5   12     -2.51      0.00
  -15   -5   12     -1.17      0.00
  -14   -5   12     -3.44      0.00
  -13   -5   12     -0.98      0.00
  -12   -5   12      1.77      0.00
  -11   -5   12      2.69      0.00
  -10   -5   12      1.64      0.00
   -9   -5   12      1.95      0.00
   -8   -5   12      3.01      0.00
   -7   -5   12      3.59      0.00
   -6   -5   12      0.86      0.00
   -5   -5   12      0.50      0.00
   -4   -5   12      3.75      0.00
   -3   -5   12      1.19      0.00
   -2   -5   12      1.00      0.00
   -1   -5   12      0.10      0.00
    0   -5   12      0.90      0.00
    1   -5   12      2.91      0.00
    2   -5   12     -0.89      0.00
    3   -5   12      0.38      0.00
    4   -5   12      4.22      0.00
    5   -5   12      1.73      0.00
    6   -5   12     -1.11      0.00
    7   -5   12     -3.14      0.00
    8   -5   12     -0.69      0.00
    9   -5   12     -0.92      0.00
   10   -5   12      1.64      0.00
   11   -5   12      2.40      0.00
   12   -5   12     -0.12      0.00
  -16   -4   12     -0.12      0.00
  -15   -4   12     -0.45      0.00
  -14   -4   12     -2.56      0.00
  -13   -4   12      0.80      0.00
  -12   -4   12      0.99      0.00
  -11   -4   12      2.18      0.00
  -10   -4   12      1.92      0.00
   -9   -4   12      0.54      0.00
   -8   -4   12      0.03      0.00
   -7   -4   12      3.24      0.00
   -6   -4   12      1.77      0.00
   -5   -4   12     -1.15      0.00
   -4   -4   12      1.75      0.00
   -3   -4   12     -0.63      0.00
   -2   -4   12      0.79      0.00
   -1   -4   12      0.79      0.00
    0   -4   12      2.32      0.00
    1   -4   12      3.19      0.00
    2   -4   12     -2.84      0.00
    3   -4   12     -3.02      0.00
    4   -4   12      0.00      0.00
    5   -4   12      0.35      0.00
    6   -4   12      1.49      0.00
    7   -4   12     -1.73      0.00
    8   -4   12     -0.89      0.00
    9   -4   12      0.44      0.00
   10   -4   12      0.06      0.00
   11   -4   12      0.71      0.00
   12   -4   12     -1.11      0.00
   13   -4   12      0.91      0.00
  -16   -3   12      2.59      0.00
  -15   -3   12     -0.21      0.00
  -14   -3   12     -2.20      0.00
  -13   -3   12     -1.33      0.00
  -12   -3   12     -1.72      0.00
  -11   -3   12     -0.90      0.00
  -10   -3   12      0.80      0.00
   -9   -3   12      0.52      0.00
   -8   -3   12     -3.69      0.00
   -7   -3   12     -1.36      0.00
   -6   -3   12     -2.87      0.00
   -5   -3   12     -4.76      0.00
   -4   -3   12     -0.69      0.00
   -3   -3   12     -0.52      0.00
   -2   -3   12      0.51      0.00
   -1   -3   12      0.65      0.00
    0   -3   12      2.56      0.00
    1   -3   12      3.49      0.00
    2   -3   12      0.47      0.00
    3   -3   12      0.63      0.00
    4   -3   12     -0.15      0.00
    5   -3   12     -2.19      0.00
    6   -3   12      1.05      0.00
    7   -3   12      0.12      0.00
    8   -3   12      0.09      0.00
    9   -3   12      2.12      0.00
   10   -3   12      0.05      0.00
   11   -3   12      2.39      0.00
   12   -3   12      1.14      0.00
   13   -3   12      0.87      0.00
   14   -3   12     -0.82      0.00
  -16   -2   12      1.00      0.00
  -15   -2   12      0.28      0.00
  -14   -2   12      1.51      0.00
  -13   -2   12     -0.01      0.00
  -12   -2   12     -0.82      0.00
  -11   -2   12     -0.50      0.00
  -10   -2   12      3.91      0.00
   -9   -2   12      4.60      0.00
   -8   -2   12     -0.44      0.00
   -7   -2   12      3.23      0.00
   -6   -2   12      4.95      0.00
   -5   -2   12      1.83      0.00
   -4   -2   12      0.39      0.00
   -3   -2   12      0.00      0.00
   -2   -2   12     -0.06      0.00
   -1   -2   12      0.12      0.00
    0   -2   12     -0.32      0.00
    1   -2   12      1.55      0.00
    2   -2   12      1.22      0.00
    3   -2   12      5.13      0.00
    4   -2   12      5.76      0.00
    5   -2   12     -2.13      0.00
    6   -2   12     -2.02      0.00
    7   -2   12     -1.70      0.00
    8   -2   12     -1.80      0.00
    9   -2   12      2.25      0.00
   10   -2   12      1.14      0.00
   11   -2   12      0.77      0.00
   12   -2   12     -1.23      0.00
   13   -2   12     -1.59      0.00
   14   -2   12     -2.51      0.00
   15   -2   12     -4.12      0.00
  -16   -1   12     -1.44      0.00
  -15   -1   12     -2.21      0.00
  -14   -1   12      0.93      0.00
  -13   -1   12      3.09      0.00
  -12   -1   12      1.84      0.00
  -11   -1   12     -0.07      0.00
  -10   -1   12      0.20      0.00
   -9   -1   12     -1.29      0.00
   -8   -1   12     -5.36      0.00
   -7   -1   12     -3.05      0.00
   -6   -1   12      1.53      0.00
   -5   -1   12      1.09      0.00
   -4   -1   12     -1.64      0.00
   -3   -1   12     -3.14      0.00
   -2   -1   12     -1.01      0.00
   -1   -1   12      0.12      0.00
    0   -1   12     -1.72      0.00
    1   -1   12      1.33      0.00
    2   -1   12     -3.93      0.00
    3   -1   12     -1.62      0.00
    4   -1   12      3.07      0.00
    5   -1   12     -3.81      0.00
    6   -1   12     -2.35      0.00
    7   -1   12     -0.06      0.00
    8   -1   12     -2.59      0.00
    9   -1   12     -2.12      0.00
   10   -1   12     -1.47      0.00
   11   -1   12      0.45      0.00
   12   -1   12      2.13      0.00
   13   -1   12      1.29      0.00
   14   -1   12      2.56      0.00
   15   -1   12      0.47      0.00
   16   -1   12     -0.87      0.00
  -16    0   12     -1.33      0.00
  -15    0   12     -2.85      0.00
  -14    0   12     -2.74      0.00
  -13    0   12      0.23      0.00
  -12    0   12     -0.60      0.00
  -11    0   12      2.84      0.00
  -10    0   12      1.37      0.00
   -9    0   12     -3.44      0.00
   -8    0   12     -7.48      0.00
   -7    0   12     -3.63      0.00
   -6    0   12      1.75      0.00
   -5    0   12      2.26      0.00
   -4    0   12     -0.25      0.00
   -3    0   12     -2.81      0.00
   -2    0   12      0.50      0.00
   -1    0   12     -1.43      0.00
    0    0   12     -4.66      0.00
    1    0   12      1.54      0.00
    2    0   12     -2.60      0.00
    3    0   12     -2.57      0.00
    4    0   12      2.74      0.00
    5    0   12     -1.36      0.00
    6    0   12     -0.56      0.00
    7    0   12     -0.05      0.00
    8    0   12     -1.41      0.00
    9    0   12     -0.56      0.00
   10    0   12     -0.09      0.00
   11    0   12     -0.90      0.00
   12    0   12     -3.14      0.00
   13    0   12     -6.02      0.00
   14    0   12     -1.99      0.00
   15    0   12     -1.76      0.00
   16    0   12     -2.68      0.00
   17    0   12     -2.50      0.00
  -15    1   12      0.28      0.00
  -14    1   12     -1.01      0.00
  -13    1   12      1.17      0.00
  -12    1   12     -2.43      0.00
  -11    1   12      0.33      0.00
  -10    1   12      2.92      0.00
   -9    1   12      2.92      0.00
   -8    1   12     -2.24      0.00
   -7    1   12     -0.92      0.00
   -6    1   12      0.22      0.00
   -5    1   12      0.34      0.00
   -4    1   12      1.60      0.00
   -3    1   12      2.67      0.00
   -2    1   12      6.02      0.00
   -1    1   12      3.87      0.00
    0    1   12     -0.17      0.00
    1    1   12      3.39      0.00
    2    1   12      0.99      0.00
    3    1   12     -2.34      0.00
    4    1   12     -0.84      0.00
    5    1   12     -5.20      0.00
    6    1   12     -3.79      0.00
    7    1   12     -3.42      0.00
    8    1   12     -3.43      0.00
    9    1   12     -2.97      0.00
   10    1   12     -0.70      0.00
   11    1   12      3.45      0.00
   12    1   12      1.80      0.00
   13    1   12     -0.59      0.00
   14    1   12      0.67      0.00
   15    1   12     -0.81      0.00
   16    1   12     -1.46      0.00
   17    1   12      0.52      0.00
  -15    2   12      0.79      0.00
  -14    2   12     -2.48      0.00
  -13    2   12      0.37      0.00
  -12    2   12      0.95      0.00
  -11    2   12     -0.09      0.00
  -10    2   12      1.05      0.00
   -9    2   12      2.77      0.00
   -8    2   12     -0.84      0.00
   -7    2   12      0.56      0.00
   -6    2   12      0.28      0.00
   -5    2   12     -4.00      0.00
   -4    2   12     -3.49      0.00
   -3    2   12     -1.88      0.00
   -2    2   12     -4.95      0.00
   -1    2   12     -6.30      0.00
    0    2   12     -7.21      0.00
    1    2   12     -2.28      0.00
    2    2   12     -0.91      0.00
    3    2   12     -3.46      0.00
    4    2   12     -1.35      0.00
    5    2   12     -5.60      0.00
    6    2   12     -3.86      0.00
    7    2   12     -3.65      0.00
    8    2   12     -2.74      0.00
    9    2   12     -2.09      0.00
   10    2   12     -2.85      0.00
   11    2   12      1.47      0.00
   12    2   12      2.39      0.00
   13    2   12      1.92      0.00
   14    2   12      0.87      0.00
   15    2   12     -2.24      0.00
   16    2   12     -5.92      0.00
   17    2   12     -1.17      0.00
   18    2   12      2.26      0.00
  -15    3   12      2.25      0.00
  -14    3   12     -1.96      0.00
  -13    3   12     -1.46      0.00
  -12    3   12      2.47      0.00
  -11    3   12     -0.54      0.00
  -10    3   12     -1.21      0.00
   -9    3   12      2.48      0.00
   -8    3   12      3.29      0.00
   -7    3   12      5.20      0.00
   -6    3   12      6.87      0.00
   -5    3   12      1.77      0.00
   -4    3   12      4.61      0.00
   -3    3   12      8.57      0.00
   -2    3   12      2.18      0.00
   -1    3   12      1.20      0.00
    0    3   12     -0.71      0.00
    1    3   12     -0.29      0.00
    2    3   12     -1.66      0.00
    3    3   12     -1.41      0.00
    4    3   12      5.26      0.00
    5    3   12      2.16      0.00
    6    3   12      5.06      0.00
    7    3   12      4.90      0.00
    8    3   12     -0.33      0.00
    9    3   12      1.90      0.00
   10    3   12      1.60      0.00
   11    3   12      1.05      0.00
   12    3   12      0.00      0.00
   13    3   12     -0.65      0.00
   14    3   12      2.02      0.00
   15    3   12      2.83      0.00
   16    3   12     -2.95      0.00
   17    3   12     -2.09      0.00
   18    3   12     -1.03      0.00
  -14    4   12      0.14      0.00
  -13    4   12     -3.21      0.00
  -12    4   12      0.77      0.00
  -11    4   12     -0.24      0.00
  -10    4   12      0.22      0.00
   -9    4   12      1.76      0.00
   -8    4   12     -0.17      0.00
   -7    4   12     -2.25      0.00
   -6    4   12     -2.10      0.00
   -5    4   12     -6.49      0.00
   -4    4   12     -3.43      0.00
   -3    4   12      1.92      0.00
   -2    4   12     -2.26      0.00
   -1    4   12     -1.19      0.00
    0    4   12      2.08      0.00
    1    4   12      3.35      0.00
    2    4   12     -3.03      0.00
    3    4   12     -6.49      0.00
    4    4   12     -1.38      0.00
    5    4   12     -9.14      0.00
    6    4   12     -7.44      0.00
    7    4   12     -0.36      0.00
    8    4   12     -7.77      0.00
    9    4   12     -7.17      0.00
   10    4   12     -5.28      0.00
   11    4   12     -4.45      0.00
   12    4   12     -2.12      0.00
   13    4   12     -1.19      0.00
   14    4   12      1.65      0.00
   15    4   12      3.10      0.00
   16    4   12      0.81      0.00
   17    4   12      0.88      0.00
   18    4   12     -0.26      0.00
   19    4   12      0.43      0.00
  -14    5   12      0.43      0.00
  -13    5   12      0.06      0.00
  -12    5   12      2.38      0.00
  -11    5   12     -2.05      0.00
  -10    5   12     -1.43      0.00
   -9    5   12      2.71      0.00
   -8    5   12      5.25      0.00
   -7    5   12      3.59      0.00
   -6    5   12      1.31      0.00
   -5    5   12      0.37      0.00
   -4    5   12      0.47      0.00
   -3    5   12      2.69      0.00
   -2    5   12     -0.25      0.00
   -1    5   12     -1.70      0.00
    0    5   12      0.67      0.00
    1    5   12      1.62      0.00
    2    5   12     -1.72      0.00
    3    5   12     -2.02      0.00
    4    5   12      7.54      0.00
    5    5   12      1.81      0.00
    6    5   12     -1.32      0.00
    7    5   12      6.52      0.00
    8    5   12      1.01      0.00
    9    5   12      0.39      0.00
   10    5   12      4.34      0.00
   11    5   12      1.79      0.00
   12    5   12     -2.11      0.00
   13    5   12     -1.10      0.00
   14    5   12      1.04      0.00
   15    5   12     -1.36      0.00
   16    5   12     -2.82      0.00
   17    5   12     -0.81      0.00
   18    5   12     -0.73      0.00
   19    5   12     -3.32      0.00
  -13    6   12     -1.92      0.00
  -12    6   12      0.28      0.00
  -11    6   12     -2.12      0.00
  -10    6   12     -2.60      0.00
   -9    6   12     -1.97      0.00
   -8    6   12      2.42      0.00
   -7    6   12      5.24      0.00
   -6    6   12      2.40      0.00
   -5    6   12      2.03      0.00
   -4    6   12      0.67      0.00
   -3    6   12      0.39      0.00
   -2    6   12     -2.51      0.00
   -1    6   12     -2.73      0.00
    0    6   12     -0.22      0.00
    1    6   12     -1.96      0.00
    2    6   12     -6.31      0.00
    3    6   12    -11.18      0.00
    4    6   12     -2.86      0.00
    5    6   12     -1.62      0.00
    6    6   12     -3.71      0.00
    7    6   12      5.34      0.00
    8    6   12      3.81      0.00
    9    6   12     -1.79      0.00
   10    6   12      4.14      0.00
   11    6   12      6.42      0.00
   12    6   12      0.05      0.00
   13    6   12     -0.95      0.00
   14    6   12      3.50      0.00
   15    6   12      3.42      0.00
   16    6   12      1.08      0.00
   17    6   12      1.20      0.00
   18    6   12      0.35      0.00
   19    6   12     -4.77      0.00
   20    6   12     -3.94      0.00
  -13    7   12      3.53      0.00
  -12    7   12      2.11      0.00
  -11    7   12     -0.46      0.00
  -10    7   12      0.09      0.00
   -9    7   12     -1.43      0.00
   -8    7   12     -3.36      0.00
   -7    7   12      0.01      0.00
   -6    7   12      0.26      0.00
   -5    7   12      0.12      0.00
   -4    7   12     -0.90      0.00
   -3    7   12     -2.56      0.00
   -2    7   12     -4.69      0.00
   -1    7   12     -1.92      0.00
    0    7   12      0.63      0.00
    1    7   12      2.39      0.00
    2    7   12      4.50      0.00
    3    7   12     -1.20      0.00
    4    7   12     -0.03      0.00
    5    7   12     -2.03      0.00
    6    7   12     -9.16      0.00
    7    7   12     -4.09      0.00
    8    7   12      0.19      0.00
    9    7   12     -5.04      0.00
   10    7   12     -4.81      0.00
   11    7   12     -0.89      0.00
   12    7   12     -2.92      0.00
   13    7   12     -4.94      0.00
   14    7   12     -0.68      0.00
   15    7   12      2.33      0.00
   16    7   12      0.84      0.00
   17    7   12      1.21      0.00
   18    7   12      2.52      0.00
   19    7   12      0.17      0.00
   20    7   12      0.85      0.00
  -12    8   12      3.27      0.00
  -11    8   12      1.34      0.00
  -10    8   12      0.62      0.00
   -9    8   12     -0.07      0.00
   -8    8   12     -2.56      0.00
   -7    8   12      2.03      0.00
   -6    8   12      4.39      0.00
   -5    8   12      5.89      0.00
   -4    8   12      7.56      0.00
   -3    8   12      5.85      0.00
   -2    8   12      1.59      0.00
   -1    8   12      2.24      0.00
    0    8   12      0.05      0.00
    1    8   12     -1.90      0.00
    2    8   12     -0.21      0.00
    3    8   12     -0.74      0.00
    4    8   12      0.90      0.00
    5    8   12     -0.37      0.00
    6    8   12     -4.53      0.00
    7    8   12     -3.34      0.00
    8    8   12      2.10      0.00
    9    8   12      3.19      0.00
   10    8   12      2.13      0.00
   11    8   12      7.51      0.00
   12    8   12      7.65      0.00
   13    8   12      1.78      0.00
   14    8   12      1.38      0.00
   15    8   12      4.21      0.00
   16    8   12      2.24      0.00
   17    8   12     -0.02      0.00
   18    8   12     -0.35      0.00
   19    8   12     -2.00      0.00
   20    8   12     -0.82      0.00
  -12    9   12      1.20      0.00
  -11    9   12      2.41      0.00
  -10    9   12      3.12      0.00
   -9    9   12      1.41      0.00
   -8    9   12     -2.68      0.00
   -7    9   12     -1.86      0.00
   -6    9   12     -1.06      0.00
   -5    9   12     -0.01      0.00
   -4    9   12      1.70      0.00
   -3    9   12      2.68      0.00
   -2    9   12     -2.08      0.00
   -1    9   12     -5.15      0.00
    0    9   12     -6.61      0.00
    1    9   12     -6.90      0.00
    2    9   12     -5.69      0.00
    3    9   12     -2.08      0.00
    4    9   12      2.13      0.00
    5    9   12      2.81      0.00
    6    9   12      0.79      0.00
    7    9   12     -3.73      0.00
    8    9   12     -3.93      0.00
    9    9   12     -3.83      0.00
   10    9   12     -6.48      0.00
   11    9   12     -0.77      0.00
   12    9   12      1.09      0.00
   13    9   12     -3.49      0.00
   14    9   12     -3.40      0.00
   15    9   12      2.22      0.00
   16    9   12      3.29      0.00
   17    9   12      1.63      0.00
   18    9   12      3.14      0.00
   19    9   12      1.29      0.00
   20    9   12     -2.24      0.00
   21    9   12     -3.58      0.00
  -11   10   12      1.89      0.00
  -10   10   12      2.09      0.00
   -9   10   12      0.64      0.00
   -8   10   12      0.57      0.00
   -7   10   12      1.40      0.00
   -6   10   12      1.06      0.00
   -5   10   12     -0.87      0.00
   -4   10   12     -1.90      0.00
   -3   10   12      0.88      0.00
   -2   10   12      1.71      0.00
   -1   10   12     -1.51      0.00
    0   10   12     -5.73      0.00
    1   10   12     -8.88      0.00
    2   10   12     -8.96      0.00
    3   10   12     -6.81      0.00
    4   10   12     -1.55      0.00
    5   10   12      1.85      0.00
    6   10   12      5.56      0.00
    7   10   12      6.52      0.00
    8   10   12      6.10      0.00
    9   10   12      4.10      0.00
   10   10   12     -1.24      0.00
   11   10   12     -0.74      0.00
   12   10   12      1.49      0.00
   13   10   12      0.21      0.00
   14   10   12     -1.21      0.00
   15   10   12      0.93      0.00
   16   10   12      1.82      0.00
   17   10   12     -1.37      0.00
   18   10   12      0.41      0.00
   19   10   12      0.08      0.00
   20   10   12     -1.03      0.00
   21   10   12     -2.52      0.00
  -10   11   12      0.27      0.00
   -9   11   12     -0.50      0.00
   -8   11   12      0.35      0.00
   -7   11   12      0.51      0.00
   -6   11   12     -0.22      0.00
   -5   11   12     -2.45      0.00
   -4   11   12     -1.68      0.00
   -3   11   12      0.36      0.00
   -2   11   12      2.09      0.00
   -1   11   12      0.40      0.00
    0   11   12     -1.58      0.00
    1   11   12     -3.51      0.00
    2   11   12     -5.27      0.00
    3   11   12     -8.55      0.00
    4   11   12     -3.56      0.00
    5   11   12     -1.95      0.00
    6   11   12      1.84      0.00
    7   11   12      5.51      0.00
    8   11   12      3.39      0.00
    9   11   12      2.96      0.00
   10   11   12     -0.05      0.00
   11   11   12     -5.19      0.00
   12   11   12     -6.90      0.00
   13   11   12     -3.95      0.00
   14   11   12     -1.89      0.00
   15   11   12     -2.40      0.00
   16   11   12     -2.21      0.00
   17   11   12     -2.67      0.00
   18   11   12      1.26      0.00
   19   11   12     -0.54      0.00
   20   11   12      2.07      0.00
   21   11   12      1.95      0.00
   -9   12   12      0.30      0.00
   -8   12   12     -0.27      0.00
   -7   12   12      0.51      0.00
   -6   12   12      3.57      0.00
   -5   12   12      0.44      0.00
   -4   12   12     -0.66      0.00
   -3   12   12      0.89      0.00
   -2   12   12      1.15      0.00
   -1   12   12      1.07      0.00
    0   12   12      2.20      0.00
    1   12   12      4.99      0.00
    2   12   12      5.67      0.00
    3   12   12      0.07      0.00
    4   12   12      0.99      0.00
    5   12   12     -1.27      0.00
    6   12   12      0.04      0.00
    7   12   12      4.10      0.00
    8   12   12      1.32      0.00
    9   12   12      1.43      0.00
   10   12   12      4.56      0.00
   11   12   12      4.00      0.00
   12   12   12     -0.86      0.00
   13   12   12     -0.40      0.00
   14   12   12      0.82      0.00
   15   12   12     -0.16      0.00
   16   12   12     -1.59      0.00
   17   12   12     -1.33      0.00
   18   12   12      3.65      0.00
   19   12   12     -0.14      0.00
   20   12   12      1.12      0.00
   21   12   12      1.57      0.00
   -8   13   12     -0.63      0.00
   -7   13   12     -2.50      0.00
   -6   13   12      2.15      0.00
   -5   13   12      0.38      0.00
   -4   13   12     -0.95      0.00
   -3   13   12      1.45      0.00
   -2   13   12     -0.71      0.00
   -1   13   12      0.37      0.00
    0   13   12      0.80      0.00
    1   13   12      2.57      0.00
    2   13   12      4.25      0.00
    3   13   12      2.26      0.00
    4   13   12      2.63      0.00
    5   13   12     -0.02      0.00
    6   13   12     -3.74      0.00
    7   13   12      0.02      0.00
    8   13   12      2.45      0.00
    9   13   12      3.34      0.00
   10   13   12      6.70      0.00
   11   13   12      7.97      0.00
   12   13   12      3.85      0.00
   13   13   12      2.52      0.00
   14   13   12     -1.63      0.00
   15   13   12     -3.80      0.00
   16   13   12     -3.49      0.00
   17   13   12     -2.95      0.00
   18   13   12     -0.64      0.00
   19   13   12     -3.62      0.00
   20   13   12     -3.19      0.00
   21   13   12     -2.14      0.00
   -7   14   12     -2.78      0.00
   -6   14   12     -0.96      0.00
   -5   14   12     -0.19      0.00
   -4   14   12      0.84      0.00
   -3   14   12      3.70      0.00
   -2   14   12      0.65      0.00
   -1   14   12     -0.78      0.00
    0   14   12     -0.48      0.00
    1   14   12      2.08      0.00
    2   14   12      1.63      0.00
    3   14   12     -1.84      0.00
    4   14   12     -1.51      0.00
    5   14   12      1.20      0.00
    6   14   12     -0.37      0.00
    7   14   12     -0.35      0.00
    8   14   12     -1.35      0.00
    9   14   12     -1.53      0.00
   10   14   12      0.13      0.00
   11   14   12      0.28      0.00
   12   14   12      0.12      0.00
   13   14   12      1.91      0.00
   14   14   12     -1.58      0.00
   15   14   12     -5.64      0.00
   16   14   12     -5.09      0.00
   17   14   12     -2.24      0.00
   18   14   12      0.74      0.00
   19   14   12      0.05      0.00
   20   14   12     -0.24      0.00
   21   14   12     -0.77      0.00
   -6   15   12     -3.39      0.00
   -5   15   12     -0.76      0.00
   -4   15   12      1.04      0.00
   -3   15   12      3.85      0.00
   -2   15   12      4.74      0.00
   -1   15   12      0.54      0.00
    0   15   12      0.68      0.00
    1   15   12      1.58      0.00
    2   15   12      1.26      0.00
    3   15   12     -0.13      0.00
    4   15   12     -0.14      0.00
    5   15   12      0.98      0.00
    6   15   12      2.08      0.00
    7   15   12      1.20      0.00
    8   15   12     -0.70      0.00
    9   15   12      0.84      0.00
   10   15   12      1.75      0.00
   11   15   12     -0.16      0.00
   12   15   12      1.33      0.00
   13   15   12      4.06      0.00
   14   15   12      3.96      0.00
   15   15   12      1.82      0.00
   16   15   12      1.59      0.00
   17   15   12      1.19      0.00
   18   15   12     -0.16      0.00
   19   15   12     -2.10      0.00
   20   15   12      0.52      0.00
   -5   16   12      0.18      0.00
   -4   16   12     -1.26      0.00
   -3   16   12     -0.42      0.00
   -2   16   12      1.37      0.00
   -1   16   12     -2.86      0.00
    0   16   12      1.23      0.00
    1   16   12      2.03      0.00
    2   16   12      3.68      0.00
    3   16   12      2.10      0.00
    4   16   12      0.54      0.00
    5   16   12      0.43      0.00
    6   16   12      0.96      0.00
    7   16   12      0.93      0.00
    8   16   12     -0.23      0.00
    9   16   12      0.15      0.00
   10   16   12      2.20      0.00
   11   16   12     -2.46      0.00
   12   16   12     -2.20      0.00
   13   16   12      1.53      0.00
   14   16   12      1.64      0.00
   15   16   12     -0.31      0.00
   16   16   12     -1.91      0.00
   17   16   12     -3.58      0.00
   18   16   12     -4.06      0.00
   19   16   12     -3.56      0.00
   20   16   12      2.50      0.00
   -4   17   12      0.16      0.00
   -3   17   12      1.19      0.00
   -2   17   12      2.92      0.00
   -1   17   12      0.71      0.00
    0   17   12      2.25      0.00
    1   17   12     -1.33      0.00
    2   17   12      1.12      0.00
    3   17   12      1.96      0.00
    4   17   12      2.45      0.00
    5   17   12      3.81      0.00
    6   17   12      0.88      0.00
    7   17   12      3.25      0.00
    8   17   12      1.40      0.00
    9   17   12     -1.75      0.00
   10   17   12      4.21      0.00
   11   17   12      0.81      0.00
   12   17   12     -0.48      0.00
   13   17   12      1.99      0.00
   14   17   12     -0.15      0.00
   15   17   12     -0.74      0.00
   16   17   12      0.33      0.00
   17   17   12     -1.27      0.00
   18   17   12     -2.38      0.00
   19   17   12     -2.17      0.00
   20   17   12      1.36      0.00
   -2   18   12     -1.09      0.00
   -1   18   12     -0.69      0.00
    0   18   12      4.15      0.00
    1   18   12      4.82      0.00
    2   18   12      3.58      0.00
    3   18   12      4.26      0.00
    4   18   12      3.46      0.00
    5   18   12      2.37      0.00
    6   18   12     -2.19      0.00
    7   18   12      1.74      0.00
    8   18   12      0.46      0.00
    9   18   12     -4.31      0.00
   10   18   12      0.60      0.00
   11   18   12     -0.20      0.00
   12   18   12     -2.24      0.00
   13   18   12      0.74      0.00
   14   18   12      0.47      0.00
   15   18   12     -0.22      0.00
   16   18   12      3.31      0.00
   17   18   12      1.54      0.00
   18   18   12     -1.72      0.00
   19   18   12     -1.06      0.00
   -1   19   12     -3.14      0.00
    0   19   12     -2.54      0.00
    1   19   12      0.84      0.00
    2   19   12     -1.34      0.00
    3   19   12      3.33      0.00
    4   19   12      2.15      0.00
    5   19   12     -0.49      0.00
    6   19   12     -1.78      0.00
    7   19   12      2.00      0.00
    8   19   12      6.21      0.00
    9   19   12      1.21      0.00
   10   19   12      0.20      0.00
   11   19   12      1.09      0.00
   12   19   12     -3.19      0.00
   13   19   12     -1.16      0.00
   14   19   12      0.98      0.00
   15   19   12     -0.97      0.00
   16   19   12      2.70      0.00
   17   19   12      2.60      0.00
   18   19   12     -0.08      0.00
    1   20   12      2.55      0.00
    2   20   12      0.39      0.00
    3   20   12      4.25      0.00
    4   20   12      3.25      0.00
    5   20   12      1.53      0.00
    6   20   12     -1.77      0.00
    7   20   12     -6.60      0.00
    8   20   12     -0.59      0.00
    9   20   12     -1.45      0.00
   10   20   12      0.15      0.00
   11   20   12      3.02      0.00
   12   20   12     -1.52      0.00
   13   20   12     -2.79      0.00
   14   20   12     -4.08      0.00
   15   20   12     -6.33      0.00
   16   20   12     -2.48      0.00
   17   20   12      0.07      0.00
    4   21   12     -0.25      0.00
    5   21   12      0.15      0.00
    6   21   12     -1.41      0.00
    7   21   12     -5.68      0.00
    8   21   12     -1.99      0.00
    9   21   12     -2.19      0.00
   10   21   12      0.29      0.00
   11   21   12      1.02      0.00
   12   21   12     -0.64      0.00
   13   21   12      0.60      0.00
   14   21   12      0.58      0.00
   15   21   12     -2.25      0.00
   16   21   12     -4.00      0.00
    7   22   12     -3.74      0.00
    8   22   12     -2.79      0.00
    9   22   12     -3.77      0.00
   10   22   12     -3.23      0.00
   11   22   12      1.77      0.00
   12   22   12      4.82      0.00
   13   22   12      3.27      0.00
   -9  -12   13     -3.42      0.00
   -8  -12   13      0.57      0.00
   -7  -12   13      1.88      0.00
   -6  -12   13      0.71      0.00
   -5  -12   13      2.03      0.00
   -4  -12   13     -0.74      0.00
   -3  -12   13     -0.06      0.00
   -2  -12   13     -1.02      0.00
   -1  -12   13     -1.33      0.00
  -11  -11   13      0.61      0.00
  -10  -11   13      2.26      0.00
   -9  -11   13     -0.13      0.00
   -8  -11   13      0.86      0.00
   -7  -11   13      3.96      0.00
   -6  -11   13      4.86      0.00
   -5  -11   13      8.11      0.00
   -4  -11   13      4.41      0.00
   -3  -11   13      5.59      0.00
   -2  -11   13      3.01      0.00
   -1  -11   13      1.79      0.00
    0  -11   13      0.99      0.00
    1  -11   13      0.45      0.00
    2  -11   13     -2.76      0.00
  -12  -10   13      1.59      0.00
  -11  -10   13     -0.77      0.00
  -10  -10   13     -0.03      0.00
   -9  -10   13     -2.67      0.00
   -8  -10   13     -4.23      0.00
   -7  -10   13     -0.46      0.00
   -6  -10   13      1.16      0.00
   -5  -10   13      3.97      0.00
   -4  -10   13      0.72      0.00
   -3  -10   13     -0.36      0.00
   -2  -10   13     -3.65      0.00
   -1  -10   13     -3.71      0.00
    0  -10   13     -1.79      0.00
    1  -10   13      1.11      0.00
    2  -10   13     -1.89      0.00
    3  -10   13     -2.84      0.00
    4  -10   13     -2.43      0.00
  -13   -9   13     -2.96      0.00
  -12   -9   13     -2.75      0.00
  -11   -9   13     -1.06      0.00
  -10   -9   13      4.59      0.00
   -9   -9   13      5.03      0.00
   -8   -9   13      2.52      0.00
   -7   -9   13      4.32      0.00
   -6   -9   13      2.88      0.00
   -5   -9   13      5.64      0.00
   -4   -9   13      6.41      0.00
   -3   -9   13      5.28      0.00
   -2   -9   13      2.67      0.00
   -1   -9   13     -1.12      0.00
    0   -9   13     -3.36      0.00
    1   -9   13     -2.58      0.00
    2   -9   13     -0.93      0.00
    3   -9   13      0.26      0.00
    4   -9   13      0.04      0.00
    5   -9   13     -0.43      0.00
    6   -9   13     -3.25      0.00
  -14   -8   13      2.03      0.00
  -13   -8   13     -0.47      0.00
  -12   -8   13     -2.35      0.00
  -11   -8   13     -4.43      0.00
  -10   -8   13     -2.41      0.00
   -9   -8   13     -0.74      0.00
   -8   -8   13      0.69      0.00
   -7   -8   13      3.21      0.00
   -6   -8   13     -1.00      0.00
   -5   -8   13      0.33      0.00
   -4   -8   13      2.27      0.00
   -3   -8   13      3.31      0.00
   -2   -8   13      4.16      0.00
   -1   -8   13      2.99      0.00
    0   -8   13      3.24      0.00
    1   -8   13     -0.23      0.00
    2   -8   13     -3.11      0.00
    3   -8   13     -3.92      0.00
    4   -8   13     -2.70      0.00
    5   -8   13     -2.10      0.00
    6   -8   13     -2.48      0.00
    7   -8   13      0.35      0.00
    8   -8   13      0.44      0.00
  -14   -7   13     -0.74      0.00
  -13   -7   13     -2.40      0.00
  -12   -7   13     -2.25      0.00
  -11   -7   13     -3.16      0.00
  -10   -7   13     -3.75      0.00
   -9   -7   13     -3.90      0.00
   -8   -7   13     -1.38      0.00
   -7   -7   13      3.45      0.00
   -6   -7   13      1.35      0.00
   -5   -7   13      0.77      0.00
   -4   -7   13     -0.84      0.00
   -3   -7   13     -0.12      0.00
   -2   -7   13      1.97      0.00
   -1   -7   13      3.06      0.00
    0   -7   13      6.38      0.00
    1   -7   13      4.23      0.00
    2   -7   13      0.08      0.00
    3   -7   13     -1.07      0.00
    4   -7   13     -2.19      0.00
    5   -7   13     -2.10      0.00
    6   -7   13     -1.14      0.00
    7   -7   13      0.11      0.00
    8   -7   13     -1.16      0.00
    9   -7   13     -2.64      0.00
  -15   -6   13      0.08      0.00
  -14   -6   13     -1.36      0.00
  -13   -6   13     -1.17      0.00
  -12   -6   13     -0.06      0.00
  -11   -6   13      1.02      0.00
  -10   -6   13      0.76      0.00
   -9   -6   13      1.19      0.00
   -8   -6   13      1.14      0.00
   -7   -6   13      3.29      0.00
   -6   -6   13      2.86      0.00
   -5   -6   13      5.06      0.00
   -4   -6   13      4.11      0.00
   -3   -6   13      1.84      0.00
   -2   -6   13      0.70      0.00
   -1   -6   13      0.36      0.00
    0   -6   13      3.83      0.00
    1   -6   13      1.59      0.00
    2   -6   13     -2.52      0.00
    3   -6   13      1.48      0.00
    4   -6   13      0.63      0.00
    5   -6   13     -1.30      0.00
    6   -6   13     -1.87      0.00
    7   -6   13     -2.18      0.00
    8   -6   13     -3.39      0.00
    9   -6   13     -4.56      0.00
   10   -6   13      0.18      0.00
  -15   -5   13      0.00      0.00
  -14   -5   13     -1.26      0.00
  -13   -5   13     -1.25      0.00
  -12   -5   13     -0.59      0.00
  -11   -5   13     -0.31      0.00
  -10   -5   13     -2.02      0.00
   -9   -5   13     -1.39      0.00
   -8   -5   13     -0.80      0.00
   -7   -5   13      0.43      0.00
   -6   -5   13     -2.99      0.00
   -5   -5   13     -2.13      0.00
   -4   -5   13     -0.30      0.00
   -3   -5   13      0.54      0.00
   -2   -5   13      1.18      0.00
   -1   -5   13      0.28      0.00
    0   -5   13      5.07      0.00
    1   -5   13      3.56      0.00
    2   -5   13     -3.61      0.00
    3   -5   13     -2.30      0.00
    4   -5   13     -2.31      0.00
    5   -5   13     -2.38      0.00
    6   -5   13     -1.00      0.00
    7   -5   13     -0.35      0.00
    8   -5   13     -1.00      0.00
    9   -5   13     -3.87      0.00
   10   -5   13      0.46      0.00
   11   -5   13      1.69      0.00
  -15   -4   13     -5.61      0.00
  -14   -4   13     -4.54      0.00
  -13   -4   13     -2.60      0.00
  -12   -4   13     -1.47      0.00
  -11   -4   13     -1.45      0.00
  -10   -4   13     -0.97      0.00
   -9   -4   13     -1.80      0.00
   -8   -4   13     -1.10      0.00
   -7   -4   13      0.96      0.00
   -6   -4   13     -2.29      0.00
   -5   -4   13     -1.97      0.00
   -4   -4   13     -0.25      0.00
   -3   -4   13     -1.03      0.00
   -2   -4   13     -0.47      0.00
   -1   -4   13     -2.47      0.00
    0   -4   13      0.28      0.00
    1   -4   13      2.28      0.00
    2   -4   13     -0.82      0.00
    3   -4   13     -0.09      0.00
    4   -4   13      1.42      0.00
    5   -4   13      0.45      0.00
    6   -4   13      0.46      0.00
    7   -4   13      0.75      0.00
    8   -4   13      4.32      0.00
    9   -4   13      3.96      0.00
   10   -4   13      4.89      0.00
   11   -4   13      3.49      0.00
   12   -4   13      1.36      0.00
   13   -4   13      1.81      0.00
  -15   -3   13     -0.46      0.00
  -14   -3   13      0.75      0.00
  -13   -3   13      2.32      0.00
  -12   -3   13      0.51      0.00
  -11   -3   13     -0.21      0.00
  -10   -3   13      0.88      0.00
   -9   -3   13     -3.65      0.00
   -8   -3   13     -3.49      0.00
   -7   -3   13      1.24      0.00
   -6   -3   13     -0.20      0.00
   -5   -3   13     -1.09      0.00
   -4   -3   13      0.87      0.00
   -3   -3   13     -2.32      0.00
   -2   -3   13     -1.03      0.00
   -1   -3   13     -1.62      0.00
    0   -3   13     -1.92      0.00
    1   -3   13      0.16      0.00
    2   -3   13     -1.83      0.00
    3   -3   13     -2.43      0.00
    4   -3   13     -3.84      0.00
    5   -3   13     -5.17      0.00
    6   -3   13     -2.04      0.00
    7   -3   13     -2.71      0.00
    8   -3   13     -0.01      0.00
    9   -3   13      0.55      0.00
   10   -3   13     -0.69      0.00
   11   -3   13     -0.39      0.00
   12   -3   13     -0.34      0.00
   13   -3   13      1.56      0.00
  -15   -2   13     -3.83      0.00
  -14   -2   13     -0.76      0.00
  -13   -2   13      1.02      0.00
  -12   -2   13     -2.90      0.00
  -11   -2   13     -2.57      0.00
  -10   -2   13      0.70      0.00
   -9   -2   13     -1.07      0.00
   -8   -2   13     -3.20      0.00
   -7   -2   13      1.06      0.00
   -6   -2   13      0.43      0.00
   -5   -2   13     -1.74      0.00
   -4   -2   13     -0.20      0.00
   -3   -2   13     -3.22      0.00
   -2   -2   13     -1.07      0.00
   -1   -2   13     -0.70      0.00
    0   -2   13     -0.89      0.00
    1   -2   13     -0.66      0.00
    2   -2   13     -1.07      0.00
    3   -2   13      5.54      0.00
    4   -2   13      3.79      0.00
    5   -2   13     -0.41      0.00
    6   -2   13      1.81      0.00
    7   -2   13     -0.94      0.00
    8   -2   13     -1.06      0.00
    9   -2   13     -1.40      0.00
   10   -2   13     -3.75      0.00
   11   -2   13     -1.12      0.00
   12   -2   13     -0.91      0.00
   13   -2   13     -0.51      0.00
   14   -2   13     -1.26      0.00
  -15   -1   13     -4.07      0.00
  -14   -1   13     -0.50      0.00
  -13   -1   13     -0.26      0.00
  -12   -1   13     -0.49      0.00
  -11   -1   13     -0.01      0.00
  -10   -1   13     -0.88      0.00
   -9   -1   13     -2.16      0.00
   -8   -1   13     -5.27      0.00
   -7   -1   13     -0.34      0.00
   -6   -1   13      1.97      0.00
   -5   -1   13      1.68      0.00
   -4   -1   13      0.94      0.00
   -3   -1   13      0.04      0.00
   -2   -1   13      1.84      0.00
   -1   -1   13      2.05      0.00
    0   -1   13      4.56      0.00
    1   -1   13      3.22      0.00
    2   -1   13     -1.78      0.00
    3   -1   13      3.35      0.00
    4   -1   13      1.40      0.00
    5   -1   13     -2.74      0.00
    6   -1   13     -0.98      0.00
    7   -1   13     -1.94      0.00
    8   -1   13      0.93      0.00
    9   -1   13      2.23      0.00
   10   -1   13     -2.07      0.00
   11   -1   13     -2.31      0.00
   12   -1   13     -1.93      0.00
   13   -1   13      0.14      0.00
   14   -1   13      1.00      0.00
   15   -1   13     -1.06      0.00
  -15    0   13     -1.46      0.00
  -14    0   13      2.38      0.00
  -13    0   13      0.42      0.00
  -12    0   13      0.86      0.00
  -11    0   13      1.93      0.00
  -10    0   13      1.86      0.00
   -9    0   13      1.47      0.00
   -8    0   13     -0.28      0.00
   -7    0   13      0.29      0.00
   -6    0   13     -1.29      0.00
   -5    0   13     -1.50      0.00
   -4    0   13     -2.05      0.00
   -3    0   13      0.73      0.00
   -2    0   13      2.04      0.00
   -1    0   13      0.55      0.00
    0    0   13      1.75      0.00
    1    0   13      3.38      0.00
    2    0   13     -1.53      0.00
    3    0   13     -0.13      0.00
    4    0   13     -2.86      0.00
    5    0   13     -5.52      0.00
    6    0   13     -0.49      0.00
    7    0   13     -1.17      0.00
    8    0   13     -2.61      0.00
    9    0   13     -1.90      0.00
   10    0   13     -1.84      0.00
   11    0   13     -2.20      0.00
   12    0   13     -1.04      0.00
   13    0   13      2.06      0.00
   14    0   13      5.41      0.00
   15    0   13      3.39      0.00
   16    0   13      3.12      0.00
  -15    1   13     -2.50      0.00
  -14    1   13     -2.02      0.00
  -13    1   13     -0.59      0.00
  -12    1   13     -0.20      0.00
  -11    1   13      1.22      0.00
  -10    1   13      0.71      0.00
   -9    1   13     -1.74      0.00
   -8    1   13     -0.40      0.00
   -7    1   13      1.68      0.00
   -6    1   13     -0.84      0.00
   -5    1   13     -2.79      0.00
   -4    1   13     -2.07      0.00
   -3    1   13      0.23      0.00
   -2    1   13      1.05      0.00
   -1    1   13     -1.47      0.00
    0    1   13     -2.77      0.00
    1    1   13      1.86      0.00
    2    1   13     -1.57      0.00
    3    1   13      0.83      0.00
    4    1   13      0.56      0.00
    5    1   13     -3.53      0.00
    6    1   13      1.07      0.00
    7    1   13      1.82      0.00
    8    1   13      0.61      0.00
    9    1   13      1.26      0.00
   10    1   13      3.60      0.00
   11    1   13      3.38      0.00
   12    1   13      1.96      0.00
   13    1   13     -0.02      0.00
   14    1   13      0.94      0.00
   15    1   13     -0.67      0.00
   16    1   13      0.57      0.00
   17    1   13      3.21      0.00
  -15    2   13      1.18      0.00
  -14    2   13     -2.46      0.00
  -13    2   13      0.99      0.00
  -12    2   13     -0.53      0.00
  -11    2   13      0.55      0.00
  -10    2   13      2.20      0.00
   -9    2   13      2.15      0.00
   -8    2   13      1.73      0.00
   -7    2   13      2.67      0.00
   -6    2   13     -3.23      0.00
   -5    2   13     -7.23      0.00
   -4    2   13     -3.62      0.00
   -3    2   13     -3.05      0.00
   -2    2   13     -0.34      0.00
   -1    2   13      1.33      0.00
    0    2   13      2.03      0.00
    1    2   13      6.64      0.00
    2    2   13      2.94      0.00
    3    2   13      3.61      0.00
    4    2   13      2.09      0.00
    5    2   13     -2.97      0.00
    6    2   13      0.37      0.00
    7    2   13     -0.97      0.00
    8    2   13     -1.12      0.00
    9    2   13     -0.07      0.00
   10    2   13      0.77      0.00
   11    2   13      1.89      0.00
   12    2   13      0.82      0.00
   13    2   13      0.08      0.00
   14    2   13      0.89      0.00
   15    2   13     -1.95      0.00
   16    2   13     -1.17      0.00
   17    2   13      2.75      0.00
  -14    3   13     -5.17      0.00
  -13    3   13     -0.70      0.00
  -12    3   13      1.22      0.00
  -11    3   13      1.97      0.00
  -10    3   13      3.44      0.00
   -9    3   13      2.94      0.00
   -8    3   13     -0.16      0.00
   -7    3   13      3.93      0.00
   -6    3   13     -0.67      0.00
   -5    3   13     -4.97      0.00
   -4    3   13     -0.71      0.00
   -3    3   13     -3.45      0.00
   -2    3   13     -8.31      0.00
   -1    3   13     -7.30      0.00
    0    3   13     -5.01      0.00
    1    3   13     -4.06      0.00
    2    3   13     -6.79      0.00
    3    3   13     -3.74      0.00
    4    3   13     -1.68      0.00
    5    3   13     -3.43      0.00
    6    3   13      3.08      0.00
    7    3   13      1.42      0.00
    8    3   13      0.25      0.00
    9    3   13      0.76      0.00
   10    3   13     -0.07      0.00
   11    3   13      1.21      0.00
   12    3   13     -2.11      0.00
   13    3   13     -3.68      0.00
   14    3   13     -1.78      0.00
   15    3   13     -2.04      0.00
   16    3   13     -2.39      0.00
   17    3   13      0.13      0.00
   18    3   13      1.44      0.00
  -14    4   13     -3.02      0.00
  -13    4   13     -1.09      0.00
  -12    4   13     -0.73      0.00
  -11    4   13     -4.38      0.00
  -10    4   13     -0.06      0.00
   -9    4   13      3.00      0.00
   -8    4   13     -1.17      0.00
   -7    4   13     -0.25      0.00
   -6    4   13     -0.75      0.00
   -5    4   13     -2.30      0.00
   -4    4   13      2.28      0.00
   -3    4   13      4.18      0.00
   -2    4   13     -0.83      0.00
   -1    4   13      3.37      0.00
    0    4   13      6.57      0.00
    1    4   13      6.40      0.00
    2    4   13      5.32      0.00
    3    4   13      7.81      0.00
    4    4   13      9.56      0.00
    5    4   13      4.24      0.00
    6    4   13      7.72      0.00
    7    4   13      4.95      0.00
    8    4   13      0.55      0.00
    9    4   13      1.21      0.00
   10    4   13     -0.67      0.00
   11    4   13     -0.99      0.00
   12    4   13     -0.79      0.00
   13    4   13     -1.10      0.00
   14    4   13     -0.41      0.00
   15    4   13     -0.19      0.00
   16    4   13     -1.90      0.00
   17    4   13     -1.29      0.00
   18    4   13     -1.58      0.00
  -13    5   13      0.65      0.00
  -12    5   13      3.94      0.00
  -11    5   13     -2.72      0.00
  -10    5   13     -2.59      0.00
   -9    5   13      1.00      0.00
   -8    5   13      2.32      0.00
   -7    5   13     -0.66      0.00
   -6    5   13     -1.94      0.00
   -5    5   13     -3.50      0.00
   -4    5   13     -1.08      0.00
   -3    5   13     -0.50      0.00
   -2    5   13     -6.16      0.00
   -1    5   13     -1.25      0.00
    0    5   13     -0.56      0.00
    1    5   13     -4.05      0.00
    2    5   13     -8.76      0.00
    3    5   13     -8.23      0.00
    4    5   13     -4.55      0.00
    5    5   13    -10.30      0.00
    6    5   13     -6.92      0.00
    7    5   13     -5.23      0.00
    8    5   13    -11.56      0.00
    9    5   13     -7.30      0.00
   10    5   13     -4.29      0.00
   11    5   13     -6.71      0.00
   12    5   13     -4.48      0.00
   13    5   13     -1.49      0.00
   14    5   13      0.17      0.00
   15    5   13     -1.28      0.00
   16    5   13     -3.22      0.00
   17    5   13     -1.68      0.00
   18    5   13     -2.74      0.00
   19    5   13     -1.25      0.00
  -13    6   13     -0.16      0.00
  -12    6   13      2.67      0.00
  -11    6   13     -0.27      0.00
  -10    6   13     -0.33      0.00
   -9    6   13     -0.83      0.00
   -8    6   13      3.38      0.00
   -7    6   13      4.63      0.00
   -6    6   13      4.40      0.00
   -5    6   13      2.86      0.00
   -4    6   13      3.08      0.00
   -3    6   13      2.60      0.00
   -2    6   13      0.68      0.00
   -1    6   13      2.63      0.00
    0    6   13      3.35      0.00
    1    6   13      2.86      0.00
    2    6   13     -2.91      0.00
    3    6   13     -5.32      0.00
    4    6   13     -1.59      0.00
    5    6   13     -5.77      0.00
    6    6   13     -1.52      0.00
    7    6   13      6.96      0.00
    8    6   13      2.60      0.00
    9    6   13      5.51      0.00
   10    6   13      9.73      0.00
   11    6   13      5.16      0.00
   12    6   13      1.08      0.00
   13    6   13      0.47      0.00
   14    6   13      1.57      0.00
   15    6   13      0.68      0.00
   16    6   13      1.56      0.00
   17    6   13      3.63      0.00
   18    6   13      1.65      0.00
   19    6   13      1.10      0.00
  -12    7   13     -1.73      0.00
  -11    7   13     -2.68      0.00
  -10    7   13      0.99      0.00
   -9    7   13     -1.04      0.00
   -8    7   13     -0.89      0.00
   -7    7   13     -0.14      0.00
   -6    7   13     -1.54      0.00
   -5    7   13      1.11      0.00
   -4    7   13      0.44      0.00
   -3    7   13     -3.24      0.00
   -2    7   13     -3.24      0.00
   -1    7   13     -3.06      0.00
    0    7   13     -1.70      0.00
    1    7   13      1.43      0.00
    2    7   13      2.89      0.00
    3    7   13      3.27      0.00
    4    7   13      4.82      0.00
    5    7   13     -0.09      0.00
    6    7   13     -1.81      0.00
    7    7   13      3.32      0.00
    8    7   13      1.74      0.00
    9    7   13      1.12      0.00
   10    7   13      4.72      0.00
   11    7   13      2.87      0.00
   12    7   13     -3.12      0.00
   13    7   13     -3.09      0.00
   14    7   13     -0.49      0.00
   15    7   13     -0.35      0.00
   16    7   13      1.61      0.00
   17    7   13      3.70      0.00
   18    7   13      2.41      0.00
   19    7   13      2.82      0.00
   20    7   13      4.33      0.00
  -12    8   13      0.06      0.00
  -11    8   13      0.60      0.00
  -10    8   13      3.02      0.00
   -9    8   13     -0.59      0.00
   -8    8   13     -3.32      0.00
   -7    8   13     -1.04      0.00
   -6    8   13     -3.21      0.00
   -5    8   13      0.10      0.00
   -4    8   13      1.96      0.00
   -3    8   13      1.23      0.00
   -2    8   13      0.75      0.00
   -1    8   13      1.67      0.00
    0    8   13      0.32      0.00
    1    8   13     -1.56      0.00
    2    8   13      0.41      0.00
    3    8   13      2.70      0.00
    4    8   13      4.98      0.00
    5    8   13      3.24      0.00
    6    8   13     -0.37      0.00
    7    8   13      1.16      0.00
    8    8   13      0.76      0.00
    9    8   13     -4.31      0.00
   10    8   13     -1.57      0.00
   11    8   13      0.50      0.00
   12    8   13     -5.78      0.00
   13    8   13     -6.16      0.00
   14    8   13     -1.79      0.00
   15    8   13     -0.87      0.00
   16    8   13     -1.07      0.00
   17    8   13      2.76      0.00
   18    8   13      4.50      0.00
   19    8   13      3.57      0.00
   20    8   13      4.67      0.00
  -11    9   13     -1.16      0.00
  -10    9   13      0.34      0.00
   -9    9   13      0.27      0.00
   -8    9   13     -2.12      0.00
   -7    9   13      0.97      0.00
   -6    9   13      0.75      0.00
   -5    9   13      1.62      0.00
   -4    9   13      3.52      0.00
   -3    9   13      6.69      0.00
   -2    9   13      5.85      0.00
   -1    9   13      6.84      0.00
    0    9   13      2.34      0.00
    1    9   13     -1.18      0.00
    2    9   13     -2.14      0.00
    3    9   13     -4.08      0.00
    4    9   13     -5.09      0.00
    5    9   13     -6.62      0.00
    6    9   13     -6.99      0.00
    7    9   13     -2.49      0.00
    8    9   13      2.36      0.00
    9    9   13     -0.76      0.00
   10    9   13     -0.22      0.00
   11    9   13      3.72      0.00
   12    9   13     -0.69      0.00
   13    9   13     -3.13      0.00
   14    9   13      2.08      0.00
   15    9   13      5.93      0.00
   16    9   13      0.59      0.00
   17    9   13     -1.31      0.00
   18    9   13      0.42      0.00
   19    9   13      0.03      0.00
   20    9   13      1.65      0.00
  -10   10   13     -2.34      0.00
   -9   10   13     -0.13      0.00
   -8   10   13     -1.13      0.00
   -7   10   13     -1.61      0.00
   -6   10   13     -1.38      0.00
   -5   10   13     -1.90      0.00
   -4   10   13     -2.05      0.00
   -3   10   13     -0.21      0.00
   -2   10   13      0.94      0.00
   -1   10   13      6.01      0.00
    0   10   13      5.18      0.00
    1   10   13      4.20      0.00
    2   10   13      2.74      0.00
    3   10   13      2.26      0.00
    4   10   13      1.28      0.00
    5   10   13     -1.95      0.00
    6   10   13     -1.51      0.00
    7   10   13     -2.63      0.00
    8   10   13     -1.34      0.00
    9   10   13     -1.67      0.00
   10   10   13     -3.06      0.00
   11   10   13     -0.23      0.00
   12   10   13     -2.16      0.00
   13   10   13     -5.53      0.00
   14   10   13     -4.86      0.00
   15   10   13     -1.38      0.00
   16   10   13     -4.20      0.00
   17   10   13     -2.99      0.00
   18   10   13      1.61      0.00
   19   10   13      1.94      0.00
   20   10   13      3.29      0.00
  -10   11   13     -6.44      0.00
   -9   11   13     -5.29      0.00
   -8   11   13     -0.78      0.00
   -7   11   13      1.24      0.00
   -6   11   13      1.80      0.00
   -5   11   13     -1.57      0.00
   -4   11   13     -0.84      0.00
   -3   11   13      0.30      0.00
   -2   11   13      1.58      0.00
   -1   11   13      4.71      0.00
    0   11   13      6.08      0.00
    1   11   13      6.56      0.00
    2   11   13      4.27      0.00
    3   11   13      4.58      0.00
    4   11   13      4.37      0.00
    5   11   13     -0.14      0.00
    6   11   13      1.87      0.00
    7   11   13      0.84      0.00
    8   11   13      1.11      0.00
    9   11   13      4.02      0.00
   10   11   13      4.87      0.00
   11   11   13      5.83      0.00
   12   11   13      4.29      0.00
   13   11   13      1.47      0.00
   14   11   13     -1.87      0.00
   15   11   13     -1.46      0.00
   16   11   13     -2.53      0.00
   17   11   13     -0.48      0.00
   18   11   13      2.13      0.00
   19   11   13      0.24      0.00
   20   11   13      1.32      0.00
   -9   12   13     -3.44      0.00
   -8   12   13     -1.93      0.00
   -7   12   13      0.72      0.00
   -6   12   13      3.08      0.00
   -5   12   13      0.11      0.00
   -4   12   13      2.65      0.00
   -3   12   13      0.87      0.00
   -2   12   13      0.04      0.00
   -1   12   13      0.75      0.00
    0   12   13      2.23      0.00
    1   12   13      4.09      0.00
    2   12   13      2.90      0.00
    3   12   13      2.53      0.00
    4   12   13      3.97      0.00
    5   12   13     -0.46      0.00
    6   12   13      0.21      0.00
    7   12   13      1.13      0.00
    8   12   13     -1.70      0.00
    9   12   13     -0.44      0.00
   10   12   13      1.16      0.00
   11   12   13     -0.78      0.00
   12   12   13     -0.42      0.00
   13   12   13      1.66      0.00
   14   12   13     -1.00      0.00
   15   12   13     -2.48      0.00
   16   12   13     -2.43      0.00
   17   12   13     -0.88      0.00
   18   12   13      0.04      0.00
   19   12   13     -2.93      0.00
   20   12   13      0.21      0.00
   -8   13   13     -3.22      0.00
   -7   13   13     -1.50      0.00
   -6   13   13     -0.15      0.00
   -5   13   13     -2.47      0.00
   -4   13   13      1.63      0.00
   -3   13   13      1.94      0.00
   -2   13   13     -0.78      0.00
   -1   13   13     -0.31      0.00
    0   13   13      2.15      0.00
    1   13   13      3.51      0.00
    2   13   13      1.44      0.00
    3   13   13      1.02      0.00
    4   13   13      4.97      0.00
    5   13   13      2.04      0.00
    6   13   13     -0.59      0.00
    7   13   13      1.49      0.00
    8   13   13     -1.58      0.00
    9   13   13     -0.79      0.00
   10   13   13      1.82      0.00
   11   13   13     -0.86      0.00
   12   13   13     -2.39      0.00
   13   13   13      0.16      0.00
   14   13   13     -1.05      0.00
   15   13   13     -1.32      0.00
   16   13   13     -0.41      0.00
   17   13   13      0.01      0.00
   18   13   13      0.72      0.00
   19   13   13     -3.55      0.00
   20   13   13     -1.78      0.00
   -7   14   13     -0.49      0.00
   -6   14   13      2.58      0.00
   -5   14   13      0.84      0.00
   -4   14   13     -0.22      0.00
   -3   14   13      1.37      0.00
   -2   14   13     -4.63      0.00
   -1   14   13     -5.24      0.00
    0   14   13     -1.71      0.00
    1   14   13     -0.12      0.00
    2   14   13     -1.30      0.00
    3   14   13     -2.53      0.00
    4   14   13      0.31      0.00
    5   14   13      1.83      0.00
    6   14   13     -1.90      0.00
    7   14   13     -2.70      0.00
    8   14   13     -3.06      0.00
    9   14   13     -1.81      0.00
   10   14   13      0.48      0.00
   11   14   13      0.35      0.00
   12   14   13     -0.98      0.00
   13   14   13      0.22      0.00
   14   14   13     -2.33      0.00
   15   14   13     -1.87      0.00
   16   14   13     -0.51      0.00
   17   14   13     -1.25      0.00
   18   14   13     -0.89      0.00
   19   14   13     -1.21      0.00
   20   14   13      2.69      0.00
   -6   15   13     -1.67      0.00
   -5   15   13      0.10      0.00
   -4   15   13      2.39      0.00
   -3   15   13      7.88      0.00
   -2   15   13      2.08      0.00
   -1   15   13     -0.40      0.00
    0   15   13      1.52      0.00
    1   15   13      1.58      0.00
    2   15   13      0.61      0.00
    3   15   13     -3.29      0.00
    4   15   13     -3.25      0.00
    5   15   13      1.48      0.00
    6   15   13      2.03      0.00
    7   15   13      0.58      0.00
    8   15   13      0.99      0.00
    9   15   13      2.48      0.00
   10   15   13      2.81      0.00
   11   15   13      0.37      0.00
   12   15   13     -0.71      0.00
   13   15   13     -0.50      0.00
   14   15   13     -3.89      0.00
   15   15   13     -5.64      0.00
   16   15   13     -5.66      0.00
   17   15   13     -5.24      0.00
   18   15   13     -5.34      0.00
   19   15   13     -3.39      0.00
   20   15   13      0.96      0.00
   -5   16   13     -0.69      0.00
   -4   16   13     -0.01      0.00
   -3   16   13      4.00      0.00
   -2   16   13      6.34      0.00
   -1   16   13      5.09      0.00
    0   16   13      5.58      0.00
    1   16   13      5.14      0.00
    2   16   13      5.03      0.00
    3   16   13      1.68      0.00
    4   16   13      2.48      0.00
    5   16   13      2.79      0.00
    6   16   13      2.42      0.00
    7   16   13     -0.57      0.00
    8   16   13     -3.65      0.00
    9   16   13     -0.48      0.00
   10   16   13      0.68      0.00
   11   16   13     -2.41      0.00
   12   16   13     -0.35      0.00
   13   16   13     -0.57      0.00
   14   16   13     -1.94      0.00
   15   16   13     -2.62      0.00
   16   16   13     -2.00      0.00
   17   16   13     -0.80      0.00
   18   16   13     -1.60      0.00
   19   16   13     -1.33      0.00
   20   16   13      0.28      0.00
   -3   17   13     -4.06      0.00
   -2   17   13     -1.10      0.00
   -1   17   13     -1.72      0.00
    0   17   13      1.34      0.00
    1   17   13      1.05      0.00
    2   17   13      2.29      0.00
    3   17   13      0.45      0.00
    4   17   13     -0.65      0.00
    5   17   13     -2.99      0.00
    6   17   13     -0.44      0.00
    7   17   13      2.10      0.00
    8   17   13     -0.39      0.00
    9   17   13      3.27      0.00
   10   17   13      4.80      0.00
   11   17   13      0.13      0.00
   12   17   13      2.31      0.00
   13   17   13      2.26      0.00
   14   17   13      0.01      0.00
   15   17   13     -1.13      0.00
   16   17   13     -0.66      0.00
   17   17   13     -1.98      0.00
   18   17   13     -2.19      0.00
   19   17   13     -0.78      0.00
   -2   18   13      0.29      0.00
   -1   18   13     -0.60      0.00
    0   18   13      3.11      0.00
    1   18   13     -2.27      0.00
    2   18   13     -2.35      0.00
    3   18   13      0.65      0.00
    4   18   13      0.52      0.00
    5   18   13     -0.21      0.00
    6   18   13     -2.83      0.00
    7   18   13     -0.49      0.00
    8   18   13     -3.84      0.00
    9   18   13     -4.17      0.00
   10   18   13      1.94      0.00
   11   18   13     -0.95      0.00
   12   18   13     -1.86      0.00
   13   18   13     -1.81      0.00
   14   18   13     -6.02      0.00
   15   18   13     -4.98      0.00
   16   18   13      1.16      0.00
   17   18   13      1.75      0.00
   18   18   13      0.85      0.00
   19   18   13     -1.18      0.00
    0   19   13      3.20      0.00
    1   19   13      1.77      0.00
    2   19   13      0.83      0.00
    3   19   13      0.84      0.00
    4   19   13     -2.85      0.00
    5   19   13     -0.89      0.00
    6   19   13     -4.37      0.00
    7   19   13      1.55      0.00
    8   19   13      0.55      0.00
    9   19   13     -5.18      0.00
   10   19   13     -0.08      0.00
   11   19   13     -1.70      0.00
   12   19   13     -1.53      0.00
   13   19   13      1.33      0.00
   14   19   13     -1.01      0.00
   15   19   13     -1.10      0.00
   16   19   13      1.51      0.00
   17   19   13     -0.84      0.00
   18   19   13     -1.31      0.00
    2   20   13     -0.18      0.00
    3   20   13      3.14      0.00
    4   20   13      1.88      0.00
    5   20   13      1.96      0.00
    6   20   13     -2.93      0.00
    7   20   13     -1.44      0.00
    8   20   13     -0.75      0.00
    9   20   13     -3.23      0.00
   10   20   13      0.59      0.00
   11   20   13      0.34      0.00
   12   20   13      1.47      0.00
   13   20   13      2.50      0.00
   14   20   13     -0.42      0.00
   15   20   13     -2.63      0.00
   16   20   13      0.53      0.00
   17   20   13      0.23      0.00
    4   21   13      1.32      0.00
    5   21   13      2.09      0.00
    6   21   13      2.35      0.00
    7   21   13     -1.10      0.00
    8   21   13     -2.73      0.00
    9   21   13     -6.33      0.00
   10   21   13     -3.77      0.00
   11   21   13     -1.46      0.00
   12   21   13     -2.11      0.00
   13   21   13     -1.02      0.00
   14   21   13     -0.64      0.00
   15   21   13     -2.14      0.00
    8   22   13     10.66      0.00
    9   22   13      5.62      0.00
   10   22   13      1.58      0.00
   11   22   13     -0.01      0.00
   12   22   13     -3.33      0.00
   -8  -11   14     -0.18      0.00
   -7  -11   14     -0.39      0.00
   -6  -11   14     -0.97      0.00
   -5  -11   14     -2.66      0.00
   -4  -11   14     -5.03      0.00
   -3  -11   14     -4.53      0.00
   -2  -11   14     -4.49      0.00
   -1  -11   14     -1.86      0.00
  -10  -10   14      5.98      0.00
   -9  -10   14      2.30      0.00
   -8  -10   14      1.94      0.00
   -7  -10   14      1.21      0.00
   -6  -10   14     -1.28      0.00
   -5  -10   14      1.38      0.00
   -4  -10   14      0.95      0.00
   -3  -10   14      1.09      0.00
   -2  -10   14     -1.32      0.00
   -1  -10   14     -0.48      0.00
    0  -10   14      0.54      0.00
    1  -10   14      1.05      0.00
    2  -10   14      0.17      0.00
  -12   -9   14     -3.31      0.00
  -11   -9   14     -5.26      0.00
  -10   -9   14     -2.22      0.00
   -9   -9   14     -3.41      0.00
   -8   -9   14     -0.83      0.00
   -7   -9   14      0.57      0.00
   -6   -9   14     -3.07      0.00
   -5   -9   14     -3.34      0.00
   -4   -9   14     -5.09      0.00
   -3   -9   14     -1.98      0.00
   -2   -9   14     -1.45      0.00
   -1   -9   14      0.00      0.00
    0   -9   14      0.93      0.00
    1   -9   14     -0.23      0.00
    2   -9   14     -2.25      0.00
    3   -9   14     -1.24      0.00
    4   -9   14     -0.33      0.00
    5   -9   14      0.45      0.00
  -12   -8   14      1.27      0.00
  -11   -8   14     -0.60      0.00
  -10   -8   14     -0.51      0.00
   -9   -8   14     -3.08      0.00
   -8   -8   14     -2.65      0.00
   -7   -8   14     -2.25      0.00
   -6   -8   14     -3.10      0.00
   -5   -8   14     -1.52      0.00
   -4   -8   14     -2.15      0.00
   -3   -8   14      0.28      0.00
   -2   -8   14      2.28      0.00
   -1   -8   14      2.98      0.00
    0   -8   14      1.18      0.00
    1   -8   14     -2.31      0.00
    2   -8   14     -2.12      0.00
    3   -8   14      0.49      0.00
    4   -8   14      1.68      0.00
    5   -8   14      2.11      0.00
    6   -8   14      1.45      0.00
  -13   -7   14     -3.42      0.00
  -12   -7   14     -1.69      0.00
  -11   -7   14     -2.50      0.00
  -10   -7   14     -2.96      0.00
   -9   -7   14     -2.69      0.00
   -8   -7   14     -0.58      0.00
   -7   -7   14     -0.31      0.00
   -6   -7   14     -1.82      0.00
   -5   -7   14      1.01      0.00
   -4   -7   14      0.64      0.00
   -3   -7   14     -0.96      0.00
   -2   -7   14     -0.01      0.00
   -1   -7   14      2.83      0.00
    0   -7   14      3.87      0.00
    1   -7   14     -0.24      0.00
    2   -7   14     -1.75      0.00
    3   -7   14     -2.65      0.00
    4   -7   14     -4.11      0.00
    5   -7   14     -3.06      0.00
    6   -7   14     -2.59      0.00
    7   -7   14      1.18      0.00
    8   -7   14      0.62      0.00
  -14   -6   14     -1.41      0.00
  -13   -6   14     -1.03      0.00
  -12   -6   14      3.01      0.00
  -11   -6   14      3.78      0.00
  -10   -6   14      2.02      0.00
   -9   -6   14     -0.23      0.00
   -8   -6   14     -1.16      0.00
   -7   -6   14     -2.86      0.00
   -6   -6   14     -6.25      0.00
   -5   -6   14     -1.89      0.00
   -4   -6   14      1.18      0.00
   -3   -6   14      1.27      0.00
   -2   -6   14     -1.12      0.00
   -1   -6   14     -0.89      0.00
    0   -6   14      0.43      0.00
    1   -6   14     -2.74      0.00
    2   -6   14     -1.94      0.00
    3   -6   14      0.51      0.00
    4   -6   14     -0.90      0.00
    5   -6   14      0.09      0.00
    6   -6   14     -1.10      0.00
    7   -6   14     -0.70      0.00
    8   -6   14     -1.65      0.00
    9   -6   14      0.89      0.00
  -14   -5   14      0.91      0.00
  -13   -5   14      1.78      0.00
  -12   -5   14      3.36      0.00
  -11   -5   14      3.88      0.00
  -10   -5   14      3.35      0.00
   -9   -5   14      1.64      0.00
   -8   -5   14      1.38      0.00
   -7   -5   14      0.27      0.00
   -6   -5   14     -3.36      0.00
   -5   -5   14     -3.15      0.00
   -4   -5   14     -2.39      0.00
   -3   -5   14      0.18      0.00
   -2   -5   14     -0.25      0.00
   -1   -5   14      1.04      0.00
    0   -5   14      4.29      0.00
    1   -5   14      0.70      0.00
    2   -5   14     -2.30      0.00
    3   -5   14      1.00      0.00
    4   -5   14     -0.85      0.00
    5   -5   14     -0.57      0.00
    6   -5   14     -0.40      0.00
    7   -5   14     -0.19      0.00
    8   -5   14      0.12      0.00
    9   -5   14      1.90      0.00
   10   -5   14      5.57      0.00
   11   -5   14      2.92      0.00
  -14   -4   14     -0.24      0.00
  -13   -4   14      0.90      0.00
  -12   -4   14      0.18      0.00
  -11   -4   14      1.24      0.00
  -10   -4   14      0.37      0.00
   -9   -4   14      0.03      0.00
   -8   -4   14      2.77      0.00
   -7   -4   14      3.17      0.00
   -6   -4   14      0.31      0.00
   -5   -4   14     -1.37      0.00
   -4   -4   14     -3.60      0.00
   -3   -4   14     -3.28      0.00
   -2   -4   14     -2.03      0.00
   -1   -4   14     -2.96      0.00
    0   -4   14      1.16      0.00
    1   -4   14      0.61      0.00
    2   -4   14     -2.92      0.00
    3   -4   14     -0.41      0.00
    4   -4   14     -2.97      0.00
    5   -4   14     -2.47      0.00
    6   -4   14     -0.99      0.00
    7   -4   14     -1.30      0.00
    8   -4   14     -0.89      0.00
    9   -4   14     -3.34      0.00
   10   -4   14     -2.76      0.00
   11   -4   14     -3.50      0.00
   12   -4   14     -0.26      0.00
  -14   -3   14     -0.63      0.00
  -13   -3   14     -2.08      0.00
  -12   -3   14     -3.08      0.00
  -11   -3   14      1.20      0.00
  -10   -3   14      2.04      0.00
   -9   -3   14     -0.91      0.00
   -8   -3   14      0.27      0.00
   -7   -3   14      2.45      0.00
   -6   -3   14      0.49      0.00
   -5   -3   14      2.42      0.00
   -4   -3   14      1.40      0.00
   -3   -3   14     -1.85      0.00
   -2   -3   14      0.11      0.00
   -1   -3   14     -1.46      0.00
    0   -3   14      1.58      0.00
    1   -3   14      1.43      0.00
    2   -3   14      1.58      0.00
    3   -3   14      5.35      0.00
    4   -3   14      2.39      0.00
    5   -3   14      0.15      0.00
    6   -3   14     -1.18      0.00
    7   -3   14     -1.49      0.00
    8   -3   14      2.47      0.00
    9   -3   14      2.26      0.00
   10   -3   14      1.34      0.00
   11   -3   14     -1.39      0.00
   12   -3   14     -2.70      0.00
   13   -3   14     -3.37      0.00
  -14   -2   14      3.15      0.00
  -13   -2   14     -0.28      0.00
  -12   -2   14     -2.11      0.00
  -11   -2   14     -0.22      0.00
  -10   -2   14      2.64      0.00
   -9   -2   14     -2.72      0.00
   -8   -2   14     -3.24      0.00
   -7   -2   14      0.65      0.00
   -6   -2   14     -2.31      0.00
   -5   -2   14     -0.51      0.00
   -4   -2   14      0.84      0.00
   -3   -2   14     -0.63      0.00
   -2   -2   14      2.18      0.00
   -1   -2   14      1.78      0.00
    0   -2   14      2.02      0.00
    1   -2   14      0.17      0.00
    2   -2   14      0.53      0.00
    3   -2   14      2.40      0.00
    4   -2   14     -0.58      0.00
    5   -2   14     -2.19      0.00
    6   -2   14     -2.66      0.00
    7   -2   14     -3.56      0.00
    8   -2   14     -2.23      0.00
    9   -2   14     -4.06      0.00
   10   -2   14     -3.87      0.00
   11   -2   14     -0.69      0.00
   12   -2   14      0.67      0.00
   13   -2   14      1.35      0.00
   14   -2   14     -1.57      0.00
  -14   -1   14      1.58      0.00
  -13   -1   14     -1.06      0.00
  -12   -1   14     -2.41      0.00
  -11   -1   14     -2.09      0.00
  -10   -1   14      3.07      0.00
   -9   -1   14      0.87      0.00
   -8   -1   14      0.56      0.00
   -7   -1   14      3.60      0.00
   -6   -1   14      3.42      0.00
   -5   -1   14      4.72      0.00
   -4   -1   14      4.84      0.00
   -3   -1   14      0.96      0.00
   -2   -1   14      0.75      0.00
   -1   -1   14      1.28      0.00
    0   -1   14      0.82      0.00
    1   -1   14      0.04      0.00
    2   -1   14      0.81      0.00
    3   -1   14      4.80      0.00
    4   -1   14      1.93      0.00
    5   -1   14      1.09      0.00
    6   -1   14      2.08      0.00
    7   -1   14     -0.36      0.00
    8   -1   14      0.64      0.00
    9   -1   14      0.12      0.00
   10   -1   14      0.12      0.00
   11   -1   14      3.82      0.00
   12   -1   14      4.27      0.00
   13   -1   14      3.96      0.00
   14   -1   14      1.59      0.00
   15   -1   14      0.94      0.00
  -14    0   14     -1.00      0.00
  -13    0   14     -1.13      0.00
  -12    0   14      0.76      0.00
  -11    0   14      0.28      0.00
  -10    0   14     -0.66      0.00
   -9    0   14     -0.75      0.00
   -8    0   14     -0.07      0.00
   -7    0   14     -0.71      0.00
   -6    0   14     -2.88      0.00
   -5    0   14     -3.87      0.00
   -4    0   14     -1.70      0.00
   -3    0   14     -1.36      0.00
   -2    0   14     -1.21      0.00
   -1    0   14     -1.18      0.00
    0    0   14      2.41      0.00
    1    0   14      3.93      0.00
    2    0   14      1.85      0.00
    3    0   14      5.40      0.00
    4    0   14     -0.12      0.00
    5    0   14      0.71      0.00
    6    0   14      4.04      0.00
    7    0   14     -0.27      0.00
    8    0   14      0.04      0.00
    9    0   14     -0.04      0.00
   10    0   14     -1.52      0.00
   11    0   14      0.72      0.00
   12    0   14      2.24      0.00
   13    0   14      2.78      0.00
   14    0   14      2.81      0.00
   15    0   14      0.63      0.00
  -14    1   14     -1.19      0.00
  -13    1   14     -3.38      0.00
  -12    1   14     -1.34      0.00
  -11    1   14      1.46      0.00
  -10    1   14      0.70      0.00
   -9    1   14      1.58      0.00
   -8    1   14      1.97      0.00
   -7    1   14      1.14      0.00
   -6    1   14     -0.92      0.00
   -5    1   14     -0.99      0.00
   -4    1   14     -1.65      0.00
   -3    1   14     -0.94      0.00
   -2    1   14     -0.51      0.00
   -1    1   14     -2.84      0.00
    0    1   14      0.62      0.00
    1    1   14      1.65      0.00
    2    1   14      0.22      0.00
    3    1   14      4.19      0.00
    4    1   14     -0.88      0.00
    5    1   14      2.49      0.00
    6    1   14      6.87      0.00
    7    1   14      1.32      0.00
    8    1   14     -1.34      0.00
    9    1   14     -1.68      0.00
   10    1   14     -0.92      0.00
   11    1   14     -0.49      0.00
   12    1   14     -1.77      0.00
   13    1   14     -3.33      0.00
   14    1   14     -2.73      0.00
   15    1   14     -3.12      0.00
   16    1   14      0.79      0.00
  -14    2   14      1.19      0.00
  -13    2   14      2.53      0.00
  -12    2   14      1.90      0.00
  -11    2   14      1.63      0.00
  -10    2   14      0.51      0.00
   -9    2   14     -0.72      0.00
   -8    2   14      1.60      0.00
   -7    2   14      2.07      0.00
   -6    2   14     -2.57      0.00
   -5    2   14      1.05      0.00
   -4    2   14      2.16      0.00
   -3    2   14      0.60      0.00
   -2    2   14     -0.80      0.00
   -1    2   14     -0.02      0.00
    0    2   14      2.87      0.00
    1    2   14      2.51      0.00
    2    2   14      1.51      0.00
    3    2   14      4.66      0.00
    4    2   14      1.69      0.00
    5    2   14      2.21      0.00
    6    2   14      3.31      0.00
    7    2   14     -0.05      0.00
    8    2   14     -0.55      0.00
    9    2   14     -0.13      0.00
   10    2   14      1.20      0.00
   11    2   14      1.35      0.00
   12    2   14      1.37      0.00
   13    2   14      0.41      0.00
   14    2   14     -1.07      0.00
   15    2   14     -3.25      0.00
   16    2   14     -1.49      0.00
   17    2   14      0.35      0.00
  -14    3   14     -1.69      0.00
  -13    3   14      1.74      0.00
  -12    3   14     -0.19      0.00
  -11    3   14      0.98      0.00
  -10    3   14      3.81      0.00
   -9    3   14     -0.85      0.00
   -8    3   14     -1.70      0.00
   -7    3   14      0.41      0.00
   -6    3   14     -4.81      0.00
   -5    3   14     -1.93      0.00
   -4    3   14      2.42      0.00
   -3    3   14     -1.22      0.00
   -2    3   14     -4.56      0.00
   -1    3   14     -2.15      0.00
    0    3   14     -2.23      0.00
    1    3   14     -1.22      0.00
    2    3   14     -1.14      0.00
    3    3   14      1.88      0.00
    4    3   14      2.06      0.00
    5    3   14      2.19      0.00
    6    3   14      3.73      0.00
    7    3   14     -0.31      0.00
    8    3   14     -1.36      0.00
    9    3   14     -1.07      0.00
   10    3   14     -1.64      0.00
   11    3   14     -2.04      0.00
   12    3   14     -1.36      0.00
   13    3   14      0.41      0.00
   14    3   14      2.50      0.00
   15    3   14      0.31      0.00
   16    3   14     -1.87      0.00
   17    3   14     -1.18      0.00
  -13    4   14      6.09      0.00
  -12    4   14      1.93      0.00
  -11    4   14     -2.18      0.00
  -10    4   14      1.07      0.00
   -9    4   14      0.07      0.00
   -8    4   14     -1.31      0.00
   -7    4   14      3.22      0.00
   -6    4   14      0.96      0.00
   -5    4   14      2.30      0.00
   -4    4   14      7.49      0.00
   -3    4   14      2.13      0.00
   -2    4   14     -0.04      0.00
   -1    4   14      2.69      0.00
    0    4   14     -2.06      0.00
    1    4   14     -5.61      0.00
    2    4   14     -8.51      0.00
    3    4   14     -5.08      0.00
    4    4   14     -3.72      0.00
    5    4   14     -2.79      0.00
    6    4   14      4.04      0.00
    7    4   14      2.66      0.00
    8    4   14      3.50      0.00
    9    4   14      4.58      0.00
   10    4   14      0.95      0.00
   11    4   14     -0.10      0.00
   12    4   14     -1.58      0.00
   13    4   14     -3.79      0.00
   14    4   14     -2.54      0.00
   15    4   14     -3.03      0.00
   16    4   14     -2.42      0.00
   17    4   14     -2.19      0.00
   18    4   14     -2.61      0.00
  -13    5   14      6.62      0.00
  -12    5   14      4.92      0.00
  -11    5   14     -1.16      0.00
  -10    5   14      0.75      0.00
   -9    5   14      0.90      0.00
   -8    5   14     -2.44      0.00
   -7    5   14     -2.55      0.00
   -6    5   14     -5.26      0.00
   -5    5   14     -5.12      0.00
   -4    5   14     -1.05      0.00
   -3    5   14     -3.07      0.00
   -2    5   14     -1.49      0.00
   -1    5   14      4.55      0.00
    0    5   14      5.17      0.00
    1    5   14      3.33      0.00
    2    5   14      1.89      0.00
    3    5   14      4.05      0.00
    4    5   14      1.62      0.00
    5    5   14     -1.56      0.00
    6    5   14      3.43      0.00
    7    5   14      0.76      0.00
    8    5   14      0.78      0.00
    9    5   14      4.54      0.00
   10    5   14      0.29      0.00
   11    5   14     -3.29      0.00
   12    5   14     -2.78      0.00
   13    5   14     -1.69      0.00
   14    5   14     -0.49      0.00
   15    5   14     -1.92      0.00
   16    5   14     -0.15      0.00
   17    5   14      1.22      0.00
   18    5   14      1.14      0.00
  -12    6   14      1.74      0.00
  -11    6   14     -1.28      0.00
  -10    6   14     -0.07      0.00
   -9    6   14     -0.72      0.00
   -8    6   14      0.76      0.00
   -7    6   14      0.06      0.00
   -6    6   14     -0.05      0.00
   -5    6   14      0.16      0.00
   -4    6   14     -0.32      0.00
   -3    6   14     -1.46      0.00
   -2    6   14     -1.97      0.00
   -1    6   14      1.21      0.00
    0    6   14      1.67      0.00
    1    6   14     -0.84      0.00
    2    6   14     -0.19      0.00
    3    6   14      1.83      0.00
    4    6   14      0.03      0.00
    5    6   14     -4.89      0.00
    6    6   14     -2.88      0.00
    7    6   14     -3.65      0.00
    8    6   14     -6.38      0.00
    9    6   14     -1.28      0.00
   10    6   14      0.00      0.00
   11    6   14     -3.56      0.00
   12    6   14     -3.86      0.00
   13    6   14     -3.25      0.00
   14    6   14     -3.00      0.00
   15    6   14     -3.93      0.00
   16    6   14     -3.84      0.00
   17    6   14     -3.63      0.00
   18    6   14     -1.62      0.00
   19    6   14      1.84      0.00
  -12    7   14     -2.24      0.00
  -11    7   14     -1.12      0.00
  -10    7   14      1.37      0.00
   -9    7   14     -1.56      0.00
   -8    7   14      2.02      0.00
   -7    7   14      2.80      0.00
   -6    7   14      5.63      0.00
   -5    7   14      6.84      0.00
   -4    7   14      4.24      0.00
   -3    7   14      2.88      0.00
   -2    7   14      1.89      0.00
   -1    7   14      1.77      0.00
    0    7   14     -1.12      0.00
    1    7   14     -3.62      0.00
    2    7   14     -3.51      0.00
    3    7   14     -3.39      0.00
    4    7   14     -3.28      0.00
    5    7   14     -6.41      0.00
    6    7   14     -4.39      0.00
    7    7   14     -0.21      0.00
    8    7   14     -2.04      0.00
    9    7   14      3.05      0.00
   10    7   14      6.61      0.00
   11    7   14      2.70      0.00
   12    7   14      2.83      0.00
   13    7   14      4.07      0.00
   14    7   14      1.97      0.00
   15    7   14      1.01      0.00
   16    7   14      3.22      0.00
   17    7   14      2.30      0.00
   18    7   14     -1.91      0.00
   19    7   14     -0.64      0.00
  -11    8   14      4.25      0.00
  -10    8   14      5.08      0.00
   -9    8   14     -1.48      0.00
   -8    8   14     -2.99      0.00
   -7    8   14     -3.21      0.00
   -6    8   14     -2.13      0.00
   -5    8   14      0.58      0.00
   -4    8   14     -1.26      0.00
   -3    8   14     -4.67      0.00
   -2    8   14     -3.82      0.00
   -1    8   14     -2.21      0.00
    0    8   14     -2.94      0.00
    1    8   14     -1.04      0.00
    2    8   14      1.20      0.00
    3    8   14      4.99      0.00
    4    8   14      6.38      0.00
    5    8   14      2.60      0.00
    6    8   14      1.92      0.00
    7    8   14      2.59      0.00
    8    8   14     -3.06      0.00
    9    8   14     -2.18      0.00
   10    8   14      2.94      0.00
   11    8   14     -0.29      0.00
   12    8   14     -2.72      0.00
   13    8   14      1.80      0.00
   14    8   14      3.48      0.00
   15    8   14     -0.69      0.00
   16    8   14     -3.13      0.00
   17    8   14     -2.62      0.00
   18    8   14     -4.68      0.00
   19    8   14     -2.68      0.00
  -11    9   14      5.48      0.00
  -10    9   14      7.50      0.00
   -9    9   14      2.92      0.00
   -8    9   14     -1.50      0.00
   -7    9   14     -1.19      0.00
   -6    9   14     -2.96      0.00
   -5    9   14     -0.42      0.00
   -4    9   14      1.31      0.00
   -3    9   14      1.30      0.00
   -2    9   14      3.49      0.00
   -1    9   14      4.35      0.00
    0    9   14      3.19      0.00
    1    9   14      5.32      0.00
    2    9   14      4.88      0.00
    3    9   14      6.53      0.00
    4    9   14      6.05      0.00
    5    9   14      4.26      0.00
    6    9   14      3.67      0.00
    7    9   14      3.34      0.00
    8    9   14      0.00      0.00
    9    9   14     -3.30      0.00
   10    9   14      2.24      0.00
   11    9   14      3.90      0.00
   12    9   14     -0.10      0.00
   13    9   14      1.69      0.00
   14    9   14      4.74      0.00
   15    9   14      1.86      0.00
   16    9   14     -2.09      0.00
   17    9   14     -0.04      0.00
   18    9   14     -2.19      0.00
   19    9   14     -4.17      0.00
   20    9   14     -3.38      0.00
  -10   10   14     -0.17      0.00
   -9   10   14      2.36      0.00
   -8   10   14      0.59      0.00
   -7   10   14      1.06      0.00
   -6   10   14     -2.51      0.00
   -5   10   14     -2.88      0.00
   -4   10   14     -0.59      0.00
   -3   10   14      1.72      0.00
   -2   10   14      4.16      0.00
   -1   10   14      4.13      0.00
    0   10   14     -0.93      0.00
    1   10   14     -1.59      0.00
    2   10   14     -1.61      0.00
    3   10   14     -1.48      0.00
    4   10   14     -2.65      0.00
    5   10   14      0.07      0.00
    6   10   14      2.05      0.00
    7   10   14      0.48      0.00
    8   10   14     -1.81      0.00
    9   10   14     -6.42      0.00
   10   10   14     -2.25      0.00
   11   10   14      1.82      0.00
   12   10   14     -0.24      0.00
   13   10   14      0.96      0.00
   14   10   14      4.20      0.00
   15   10   14      3.34      0.00
   16   10   14     -0.64      0.00
   17   10   14      3.16      0.00
   18   10   14      3.29      0.00
   19   10   14     -0.18      0.00
   20   10   14     -1.78      0.00
   -9   11   14      1.73      0.00
   -8   11   14      1.17      0.00
   -7   11   14      2.30      0.00
   -6   11   14      1.33      0.00
   -5   11   14      0.19      0.00
   -4   11   14      0.82      0.00
   -3   11   14     -0.61      0.00
   -2   11   14     -0.07      0.00
   -1   11   14      2.20      0.00
    0   11   14     -0.05      0.00
    1   11   14     -2.34      0.00
    2   11   14     -4.06      0.00
    3   11   14     -4.90      0.00
    4   11   14     -5.84      0.00
    5   11   14     -3.63      0.00
    6   11   14      1.40      0.00
    7   11   14      1.64      0.00
    8   11   14      1.11      0.00
    9   11   14     -0.53      0.00
   10   11   14     -0.78      0.00
   11   11   14      0.66      0.00
   12   11   14      0.50      0.00
   13   11   14      1.35      0.00
   14   11   14      2.14      0.00
   15   11   14      2.21      0.00
   16   11   14     -1.49      0.00
   17   11   14      0.61      0.00
   18   11   14      0.88      0.00
   19   11   14     -1.33      0.00
   20   11   14     -0.20      0.00
   -8   12   14      2.51      0.00
   -7   12   14      1.56      0.00
   -6   12   14     -0.40      0.00
   -5   12   14     -2.15      0.00
   -4   12   14      1.71      0.00
   -3   12   14      1.77      0.00
   -2   12   14      1.90      0.00
   -1   12   14      2.91      0.00
    0   12   14      1.60      0.00
    1   12   14     -1.48      0.00
    2   12   14     -4.30      0.00
    3   12   14     -4.42      0.00
    4   12   14     -6.06      0.00
    5   12   14     -9.08      0.00
    6   12   14     -3.85      0.00
    7   12   14     -2.61      0.00
    8   12   14     -2.35      0.00
    9   12   14      1.85      0.00
   10   12   14      1.37      0.00
   11   12   14     -0.09      0.00
   12   12   14     -0.29      0.00
   13   12   14     -0.09      0.00
   14   12   14     -1.05      0.00
   15   12   14      1.01      0.00
   16   12   14      0.09      0.00
   17   12   14      2.80      0.00
   18   12   14      3.13      0.00
   19   12   14      0.50      0.00
   20   12   14      2.56      0.00
   -7   13   14      0.73      0.00
   -6   13   14      0.56      0.00
   -5   13   14     -1.06      0.00
   -4   13   14      3.74      0.00
   -3   13   14      1.04      0.00
   -2   13   14     -2.55      0.00
   -1   13   14     -0.76      0.00
    0   13   14      0.34      0.00
    1   13   14      0.14      0.00
    2   13   14     -1.78      0.00
    3   13   14      0.06      0.00
    4   13   14      1.26      0.00
    5   13   14     -3.90      0.00
    6   13   14     -3.37      0.00
    7   13   14     -1.90      0.00
    8   13   14     -3.52      0.00
    9   13   14     -0.33      0.00
   10   13   14      0.23      0.00
   11   13   14     -1.44      0.00
   12   13   14      0.11      0.00
   13   13   14      0.74      0.00
   14   13   14     -1.02      0.00
   15   13   14      1.19      0.00
   16   13   14     -0.33      0.00
   17   13   14      0.79      0.00
   18   13   14      2.79      0.00
   19   13   14      3.48      0.00
   20   13   14      5.23      0.00
   -6   14   14     -1.97      0.00
   -5   14   14     -2.45      0.00
   -4   14   14      4.59      0.00
   -3   14   14      3.37      0.00
   -2   14   14     -1.37      0.00
   -1   14   14      0.48      0.00
    0   14   14      0.00      0.00
    1   14   14      0.85      0.00
    2   14   14     -0.88      0.00
    3   14   14      0.14      0.00
    4   14   14      4.66      0.00
    5   14   14      4.04      0.00
    6   14   14      0.22      0.00
    7   14   14      0.86      0.00
    8   14   14     -0.12      0.00
    9   14   14      3.00      0.00
   10   14   14      3.93      0.00
   11   14   14     -0.37      0.00
   12   14   14     -0.18      0.00
   13   14   14      0.20      0.00
   14   14   14     -2.04      0.00
   15   14   14     -0.21      0.00
   16   14   14     -0.61      0.00
   17   14   14     -2.17      0.00
   18   14   14     -2.37      0.00
   19   14   14     -1.10      0.00
   20   14   14      0.74      0.00
   -5   15   14     -3.67      0.00
   -4   15   14     -1.18      0.00
   -3   15   14      0.01      0.00
   -2   15   14     -3.92      0.00
   -1   15   14     -2.58      0.00
    0   15   14     -0.51      0.00
    1   15   14      1.33      0.00
    2   15   14      0.49      0.00
    3   15   14     -1.87      0.00
    4   15   14     -2.71      0.00
    5   15   14     -1.16      0.00
    6   15   14     -2.04      0.00
    7   15   14     -1.56      0.00
    8   15   14     -2.67      0.00
    9   15   14     -1.94      0.00
   10   15   14     -0.81      0.00
   11   15   14     -1.00      0.00
   12   15   14      0.49      0.00
   13   15   14      1.44      0.00
   14   15   14     -1.87      0.00
   15   15   14     -3.95      0.00
   16   15   14     -4.55      0.00
   17   15   14     -5.41      0.00
   18   15   14     -3.40      0.00
   19   15   14     -0.13      0.00
   20   15   14      0.90      0.00
   -4   16   14     -4.23      0.00
   -3   16   14     -0.27      0.00
   -2   16   14     -1.58      0.00
   -1   16   14     -2.55      0.00
    0   16   14      0.08      0.00
    1   16   14     -0.95      0.00
    2   16   14      1.12      0.00
    3   16   14      0.71      0.00
    4   16   14     -0.94      0.00
    5   16   14     -0.53      0.00
    6   16   14     -0.78      0.00
    7   16   14     -1.02      0.00
    8   16   14      2.29      0.00
    9   16   14      3.62      0.00
   10   16   14      1.10      0.00
   11   16   14      0.84      0.00
   12   16   14      2.56      0.00
   13   16   14      3.38      0.00
   14   16   14      1.37      0.00
   15   16   14      0.38      0.00
   16   16   14      0.96      0.00
   17   16   14     -0.93      0.00
   18   16   14     -2.49      0.00
   19   16   14     -0.49      0.00
   -3   17   14      1.03      0.00
   -2   17   14      3.26      0.00
   -1   17   14      3.25      0.00
    0   17   14      2.84      0.00
    1   17   14     -3.15      0.00
    2   17   14      0.04      0.00
    3   17   14      1.04      0.00
    4   17   14      3.75      0.00
    5   17   14      3.68      0.00
    6   17   14      3.29      0.00
    7   17   14      1.35      0.00
    8   17   14      1.44      0.00
    9   17   14      5.84      0.00
   10   17   14      4.07      0.00
   11   17   14      0.34      0.00
   12   17   14      1.92      0.00
   13   17   14      1.21      0.00
   14   17   14      0.09      0.00
   15   17   14      0.94      0.00
   16   17   14      2.49      0.00
   17   17   14      1.20      0.00
   18   17   14     -3.13      0.00
   19   17   14     -3.66      0.00
   -1   18   14      2.43      0.00
    0   18   14      3.83      0.00
    1   18   14     -0.52      0.00
    2   18   14      0.04      0.00
    3   18   14     -2.17      0.00
    4   18   14      1.04      0.00
    5   18   14     -0.56      0.00
    6   18   14      1.48      0.00
    7   18   14      5.22      0.00
    8   18   14      0.22      0.00
    9   18   14      4.42      0.00
   10   18   14      5.79      0.00
   11   18   14      3.47      0.00
   12   18   14      7.18      0.00
   13   18   14      4.86      0.00
   14   18   14      2.88      0.00
   15   18   14      2.32      0.00
   16   18   14      1.46      0.00
   17   18   14      0.27      0.00
   18   18   14     -0.63      0.00
    0   19   14      3.58      0.00
    1   19   14      3.61      0.00
    2   19   14      5.76      0.00
    3   19   14      4.97      0.00
    4   19   14      4.25      0.00
    5   19   14      1.10      0.00
    6   19   14     -0.65      0.00
    7   19   14      3.38      0.00
    8   19   14     -1.65      0.00
    9   19   14     -0.32      0.00
   10   19   14      0.75      0.00
   11   19   14     -0.39      0.00
   12   19   14      3.01      0.00
   13   19   14      1.79      0.00
   14   19   14      1.05      0.00
   15   19   14      3.78      0.00
   16   19   14      4.88      0.00
   17   19   14      2.01      0.00
   18   19   14      3.46      0.00
    2   20   14     -0.11      0.00
    3   20   14      3.77      0.00
    4   20   14      2.02      0.00
    5   20   14      2.33      0.00
    6   20   14     -2.25      0.00
    7   20   14      0.63      0.00
    8   20   14      2.33      0.00
    9   20   14      4.36      0.00
   10   20   14      6.72      0.00
   11   20   14      1.42      0.00
   12   20   14     -0.65      0.00
   13   20   14      0.11      0.00
   14   20   14      0.40      0.00
   15   20   14      5.39      0.00
   16   20   14      7.87      0.00
   17   20   14      1.26      0.00
    5   21   14      4.18      0.00
    6   21   14      1.35      0.00
    7   21   14      2.04      0.00
    8   21   14      1.04      0.00
    9   21   14     -1.38      0.00
   10   21   14      4.32      0.00
   11   21   14      1.81      0.00
   12   21   14     -0.05      0.00
   13   21   14     -1.35      0.00
   14   21   14     -5.62      0.00
   15   21   14     -5.52      0.00
   10   22   14     -1.58      0.00
   -7  -10   15     -2.48      0.00
   -6  -10   15     -2.34      0.00
   -5  -10   15     -2.82      0.00
   -4  -10   15     -2.71      0.00
   -3  -10   15     -0.31      0.00
   -2  -10   15     -0.53      0.00
   -1  -10   15      1.16      0.00
    0  -10   15     -0.33      0.00
  -10   -9   15     -2.59      0.00
   -9   -9   15     -7.45      0.00
   -8   -9   15     -5.33      0.00
   -7   -9   15     -4.68      0.00
   -6   -9   15     -3.54      0.00
   -5   -9   15     -2.03      0.00
   -4   -9   15     -1.27      0.00
   -3   -9   15      0.55      0.00
   -2   -9   15      1.87      0.00
   -1   -9   15      3.50      0.00
    0   -9   15      0.68      0.00
    1   -9   15      0.03      0.00
    2   -9   15      1.65      0.00
    3   -9   15      1.96      0.00
  -11   -8   15     -2.59      0.00
  -10   -8   15     -0.63      0.00
   -9   -8   15     -1.30      0.00
   -8   -8   15      0.23      0.00
   -7   -8   15     -1.36      0.00
   -6   -8   15     -1.43      0.00
   -5   -8   15      1.30      0.00
   -4   -8   15      0.15      0.00
   -3   -8   15      0.03      0.00
   -2   -8   15      1.81      0.00
   -1   -8   15      2.22      0.00
    0   -8   15      0.35      0.00
    1   -8   15     -1.26      0.00
    2   -8   15      0.46      0.00
    3   -8   15      1.40      0.00
    4   -8   15      1.05      0.00
    5   -8   15     -0.18      0.00
  -12   -7   15      7.18      0.00
  -11   -7   15      5.54      0.00
  -10   -7   15      2.62      0.00
   -9   -7   15      0.52      0.00
   -8   -7   15      2.59      0.00
   -7   -7   15      0.63      0.00
   -6   -7   15     -0.24      0.00
   -5   -7   15      1.87      0.00
   -4   -7   15     -0.09      0.00
   -3   -7   15     -0.66      0.00
   -2   -7   15      0.17      0.00
   -1   -7   15     -0.07      0.00
    0   -7   15     -1.07      0.00
    1   -7   15     -2.08      0.00
    2   -7   15      0.91      0.00
    3   -7   15      1.01      0.00
    4   -7   15      0.25      0.00
    5   -7   15     -0.53      0.00
    6   -7   15     -0.56      0.00
    7   -7   15      0.48      0.00
  -12   -6   15      4.33      0.00
  -11   -6   15      5.83      0.00
  -10   -6   15      4.07      0.00
   -9   -6   15      0.54      0.00
   -8   -6   15     -0.38      0.00
   -7   -6   15     -0.92      0.00
   -6   -6   15      0.18      0.00
   -5   -6   15      1.21      0.00
   -4   -6   15     -1.06      0.00
   -3   -6   15     -2.65      0.00
   -2   -6   15     -1.82      0.00
   -1   -6   15      2.36      0.00
    0   -6   15      3.77      0.00
    1   -6   15      1.90      0.00
    2   -6   15      3.22      0.00
    3   -6   15      2.08      0.00
    4   -6   15      0.23      0.00
    5   -6   15      0.89      0.00
    6   -6   15     -0.90      0.00
    7   -6   15     -0.58      0.00
    8   -6   15     -2.05      0.00
  -13   -5   15      3.46      0.00
  -12   -5   15      5.22      0.00
  -11   -5   15      5.47      0.00
  -10   -5   15      5.16      0.00
   -9   -5   15      5.62      0.00
   -8   -5   15      3.68      0.00
   -7   -5   15      1.46      0.00
   -6   -5   15      0.09      0.00
   -5   -5   15      0.90      0.00
   -4   -5   15      1.72      0.00
   -3   -5   15      1.10      0.00
   -2   -5   15     -2.17      0.00
   -1   -5   15     -1.64      0.00
    0   -5   15     -0.80      0.00
    1   -5   15     -1.88      0.00
    2   -5   15      0.26      0.00
    3   -5   15     -0.26      0.00
    4   -5   15     -2.73      0.00
    5   -5   15      0.38      0.00
    6   -5   15     -1.35      0.00
    7   -5   15     -1.28      0.00
    8   -5   15     -3.79      0.00
    9   -5   15     -2.67      0.00
  -13   -4   15      0.89      0.00
  -12   -4   15      2.32      0.00
  -11   -4   15      1.62      0.00
  -10   -4   15     -0.97      0.00
   -9   -4   15     -2.04      0.00
   -8   -4   15     -0.55      0.00
   -7   -4   15      0.58      0.00
   -6   -4   15     -0.49      0.00
   -5   -4   15     -1.59      0.00
   -4   -4   15     -3.52      0.00
   -3   -4   15     -2.07      0.00
   -2   -4   15     -1.74      0.00
   -1   -4   15      0.14      0.00
    0   -4   15      1.66      0.00
    1   -4   15     -0.14      0.00
    2   -4   15      2.44      0.00
    3   -4   15      2.31      0.00
    4   -4   15     -3.74      0.00
    5   -4   15     -3.67      0.00
    6   -4   15     -3.36      0.00
    7   -4   15      0.57      0.00
    8   -4   15      2.35      0.00
    9   -4   15      1.11      0.00
   10   -4   15     -1.62      0.00
   11   -4   15     -3.53      0.00
  -13   -3   15     -3.95      0.00
  -12   -3   15     -5.04      0.00
  -11   -3   15     -4.04      0.00
  -10   -3   15     -4.67      0.00
   -9   -3   15     -5.78      0.00
   -8   -3   15     -0.61      0.00
   -7   -3   15     -0.72      0.00
   -6   -3   15     -0.82      0.00
   -5   -3   15      1.62      0.00
   -4   -3   15      0.30      0.00
   -3   -3   15     -0.17      0.00
   -2   -3   15     -1.36      0.00
   -1   -3   15     -3.33      0.00
    0   -3   15     -2.22      0.00
    1   -3   15     -3.03      0.00
    2   -3   15      0.62      0.00
    3   -3   15      4.63      0.00
    4   -3   15      1.24      0.00
    5   -3   15      0.33      0.00
    6   -3   15     -0.09      0.00
    7   -3   15     -0.15      0.00
    8   -3   15      1.42      0.00
    9   -3   15      1.69      0.00
   10   -3   15      1.74      0.00
   11   -3   15      0.56      0.00
   12   -3   15      1.60      0.00
  -13   -2   15     -0.25      0.00
  -12   -2   15      0.25      0.00
  -11   -2   15      4.19      0.00
  -10   -2   15      1.36      0.00
   -9   -2   15     -3.66      0.00
   -8   -2   15      0.88      0.00
   -7   -2   15      1.00      0.00
   -6   -2   15      1.62      0.00
   -5   -2   15      5.55      0.00
   -4   -2   15      3.32      0.00
   -3   -2   15     -0.41      0.00
   -2   -2   15      1.22      0.00
   -1   -2   15     -0.94      0.00
    0   -2   15      0.08      0.00
    1   -2   15     -1.64      0.00
    2   -2   15     -0.07      0.00
    3   -2   15      3.89      0.00
    4   -2   15      0.65      0.00
    5   -2   15      0.27      0.00
    6   -2   15      0.42      0.00
    7   -2   15     -0.07      0.00
    8   -2   15      0.44      0.00
    9   -2   15     -0.37      0.00
   10   -2   15      1.89      0.00
   11   -2   15      3.71      0.00
   12   -2   15      3.90      0.00
   13   -2   15      1.84      0.00
  -13   -1   15     -0.34      0.00
  -12   -1   15      0.72      0.00
  -11   -1   15      2.34      0.00
  -10   -1   15     -0.03      0.00
   -9   -1   15     -3.96      0.00
   -8   -1   15     -1.40      0.00
   -7   -1   15     -0.46      0.00
   -6   -1   15     -3.04      0.00
   -5   -1   15      0.76      0.00
   -4   -1   15      0.90      0.00
   -3   -1   15     -2.63      0.00
   -2   -1   15     -0.21      0.00
   -1   -1   15     -0.60      0.00
    0   -1   15      1.95      0.00
    1   -1   15     -0.98      0.00
    2   -1   15     -1.60      0.00
    3   -1   15     -0.83      0.00
    4   -1   15     -2.39      0.00
    5   -1   15      2.50      0.00
    6   -1   15      1.92      0.00
    7   -1   15      0.81      0.00
    8   -1   15      1.14      0.00
    9   -1   15     -1.97      0.00
   10   -1   15     -1.89      0.00
   11   -1   15     -0.49      0.00
   12   -1   15     -2.18      0.00
   13   -1   15     -2.10      0.00
   14   -1   15     -1.42      0.00
  -13    0   15     -3.74      0.00
  -12    0   15     -0.73      0.00
  -11    0   15     -0.81      0.00
  -10    0   15      1.41      0.00
   -9    0   15     -0.32      0.00
   -8    0   15      0.85      0.00
   -7    0   15      3.20      0.00
   -6    0   15      0.67      0.00
   -5    0   15      1.91      0.00
   -4    0   15      2.41      0.00
   -3    0   15      2.12      0.00
   -2    0   15      2.29      0.00
   -1    0   15      1.79      0.00
    0    0   15      2.11      0.00
    1    0   15     -0.40      0.00
    2    0   15      0.57      0.00
    3    0   15     -2.48      0.00
    4    0   15     -6.53      0.00
    5    0   15     -0.05      0.00
    6    0   15     -0.32      0.00
    7    0   15     -3.17      0.00
    8    0   15     -1.94      0.00
    9    0   15     -0.25      0.00
   10    0   15      2.88      0.00
   11    0   15      3.30      0.00
   12    0   15     -1.90      0.00
   13    0   15     -4.02      0.00
   14    0   15     -3.12      0.00
   15    0   15     -0.02      0.00
  -13    1   15      1.70      0.00
  -12    1   15      3.38      0.00
  -11    1   15      0.18      0.00
  -10    1   15      1.56      0.00
   -9    1   15      0.98      0.00
   -8    1   15      2.28      0.00
   -7    1   15     -0.16      0.00
   -6    1   15     -2.00      0.00
   -5    1   15     -2.14      0.00
   -4    1   15     -1.47      0.00
   -3    1   15      0.42      0.00
   -2    1   15      0.52      0.00
   -1    1   15      3.23      0.00
    0    1   15      3.74      0.00
    1    1   15      2.14      0.00
    2    1   15      2.49      0.00
    3    1   15      0.98      0.00
    4    1   15     -5.11      0.00
    5    1   15     -3.92      0.00
    6    1   15     -3.14      0.00
    7    1   15     -3.84      0.00
    8    1   15     -2.54      0.00
    9    1   15     -2.96      0.00
   10    1   15     -1.79      0.00
   11    1   15      1.98      0.00
   12    1   15      1.92      0.00
   13    1   15     -0.53      0.00
   14    1   15     -0.09      0.00
   15    1   15      0.57      0.00
  -13    2   15      1.64      0.00
  -12    2   15      2.56      0.00
  -11    2   15      2.01      0.00
  -10    2   15     -1.34      0.00
   -9    2   15     -5.33      0.00
   -8    2   15     -2.92      0.00
   -7    2   15     -3.94      0.00
   -6    2   15     -1.70      0.00
   -5    2   15      1.38      0.00
   -4    2   15      1.95      0.00
   -3    2   15      1.29      0.00
   -2    2   15     -0.21      0.00
   -1    2   15     -1.08      0.00
    0    2   15     -1.06      0.00
    1    2   15     -0.87      0.00
    2    2   15     -1.94      0.00
    3    2   15      0.24      0.00
    4    2   15     -1.86      0.00
    5    2   15      0.08      0.00
    6    2   15     -0.65      0.00
    7    2   15     -2.42      0.00
    8    2   15      1.81      0.00
    9    2   15      3.58      0.00
   10    2   15      1.65      0.00
   11    2   15      1.93      0.00
   12    2   15      1.32      0.00
   13    2   15     -0.95      0.00
   14    2   15     -0.37      0.00
   15    2   15     -0.10      0.00
   16    2   15      2.69      0.00
  -13    3   15      6.50      0.00
  -12    3   15      2.13      0.00
  -11    3   15      2.44      0.00
  -10    3   15      0.51      0.00
   -9    3   15     -3.39      0.00
   -8    3   15     -0.50      0.00
   -7    3   15      0.43      0.00
   -6    3   15     -0.94      0.00
   -5    3   15      4.01      0.00
   -4    3   15      2.41      0.00
   -3    3   15      0.05      0.00
   -2    3   15      3.78      0.00
   -1    3   15      4.93      0.00
    0    3   15      4.00      0.00
    1    3   15      1.63      0.00
    2    3   15      0.52      0.00
    3    3   15      1.99      0.00
    4    3   15     -1.07      0.00
    5    3   15      0.80      0.00
    6    3   15     -0.61      0.00
    7    3   15     -2.37      0.00
    8    3   15      0.20      0.00
    9    3   15      0.27      0.00
   10    3   15     -0.20      0.00
   11    3   15      1.78      0.00
   12    3   15      1.40      0.00
   13    3   15      0.63      0.00
   14    3   15      0.50      0.00
   15    3   15     -0.13      0.00
   16    3   15      1.28      0.00
   17    3   15      0.26      0.00
  -13    4   15      3.73      0.00
  -12    4   15     -2.73      0.00
  -11    4   15     -1.63      0.00
  -10    4   15      1.86      0.00
   -9    4   15     -1.36      0.00
   -8    4   15     -0.59      0.00
   -7    4   15      0.01      0.00
   -6    4   15     -6.06      0.00
   -5    4   15      0.06      0.00
   -4    4   15     -1.07      0.00
   -3    4   15     -5.08      0.00
   -2    4   15     -3.22      0.00
   -1    4   15     -1.18      0.00
    0    4   15     -2.71      0.00
    1    4   15     -3.69      0.00
    2    4   15     -1.80      0.00
    3    4   15     -2.75      0.00
    4    4   15     -4.87      0.00
    5    4   15     -2.51      0.00
    6    4   15     -3.48      0.00
    7    4   15     -4.34      0.00
    8    4   15     -0.21      0.00
    9    4   15      0.09      0.00
   10    4   15     -2.41      0.00
   11    4   15     -1.12      0.00
   12    4   15      0.51      0.00
   13    4   15      0.92      0.00
   14    4   15      0.14      0.00
   15    4   15     -0.55      0.00
   16    4   15      0.37      0.00
   17    4   15      0.82      0.00
  -12    5   15     -1.96      0.00
  -11    5   15     -3.23      0.00
  -10    5   15     -0.17      0.00
   -9    5   15     -1.46      0.00
   -8    5   15      0.62      0.00
   -7    5   15      2.76      0.00
   -6    5   15     -1.70      0.00
   -5    5   15      1.87      0.00
   -4    5   15      2.96      0.00
   -3    5   15      1.09      0.00
   -2    5   15      3.13      0.00
   -1    5   15      5.64      0.00
    0    5   15      0.06      0.00
    1    5   15      0.18      0.00
    2    5   15      5.05      0.00
    3    5   15      4.40      0.00
    4    5   15      0.94      0.00
    5    5   15     -0.12      0.00
    6    5   15      2.01      0.00
    7    5   15     -0.65      0.00
    8    5   15      0.76      0.00
    9    5   15      4.05      0.00
   10    5   15      2.02      0.00
   11    5   15      0.57      0.00
   12    5   15      0.29      0.00
   13    5   15     -1.14      0.00
   14    5   15     -0.93      0.00
   15    5   15     -2.26      0.00
   16    5   15     -1.63      0.00
   17    5   15     -0.51      0.00
   18    5   15      0.32      0.00
  -12    6   15     -0.85      0.00
  -11    6   15      1.49      0.00
  -10    6   15      4.24      0.00
   -9    6   15      1.12      0.00
   -8    6   15      0.10      0.00
   -7    6   15      0.60      0.00
   -6    6   15     -0.09      0.00
   -5    6   15     -1.81      0.00
   -4    6   15     -3.34      0.00
   -3    6   15     -6.49      0.00
   -2    6   15     -3.94      0.00
   -1    6   15     -0.60      0.00
    0    6   15     -3.43      0.00
    1    6   15     -2.98      0.00
    2    6   15     -1.05      0.00
    3    6   15      1.17      0.00
    4    6   15      0.60      0.00
    5    6   15     -2.30      0.00
    6    6   15     -0.08      0.00
    7    6   15     -3.74      0.00
    8    6   15     -4.90      0.00
    9    6   15     -1.86      0.00
   10    6   15     -4.39      0.00
   11    6   15     -3.44      0.00
   12    6   15      0.74      0.00
   13    6   15     -0.25      0.00
   14    6   15     -0.36      0.00
   15    6   15     -0.61      0.00
   16    6   15      1.34      0.00
   17    6   15     -0.32      0.00
   18    6   15     -0.47      0.00
  -11    7   15      1.76      0.00
  -10    7   15      4.41      0.00
   -9    7   15      1.93      0.00
   -8    7   15      1.37      0.00
   -7    7   15     -1.16      0.00
   -6    7   15      1.08      0.00
   -5    7   15      1.60      0.00
   -4    7   15      0.51      0.00
   -3    7   15     -1.23      0.00
   -2    7   15      1.67      0.00
   -1    7   15      1.82      0.00
    0    7   15      1.06      0.00
    1    7   15      0.89      0.00
    2    7   15      1.86      0.00
    3    7   15      2.23      0.00
    4    7   15     -0.54      0.00
    5    7   15     -1.23      0.00
    6    7   15      1.29      0.00
    7    7   15     -1.35      0.00
    8    7   15     -2.10      0.00
    9    7   15      3.75      0.00
   10    7   15      1.96      0.00
   11    7   15     -0.51      0.00
   12    7   15      3.58      0.00
   13    7   15      4.52      0.00
   14    7   15      1.26      0.00
   15    7   15     -1.15      0.00
   16    7   15      1.27      0.00
   17    7   15      0.23      0.00
   18    7   15      0.34      0.00
   19    7   15      1.32      0.00
  -11    8   15      1.55      0.00
  -10    8   15      1.68      0.00
   -9    8   15     -0.89      0.00
   -8    8   15      2.82      0.00
   -7    8   15      0.54      0.00
   -6    8   15     -0.22      0.00
   -5    8   15      0.38      0.00
   -4    8   15     -0.04      0.00
   -3    8   15      0.08      0.00
   -2    8   15      0.47      0.00
   -1    8   15     -2.18      0.00
    0    8   15     -2.54      0.00
    1    8   15     -4.36      0.00
    2    8   15     -1.79      0.00
    3    8   15      0.14      0.00
    4    8   15     -1.98      0.00
    5    8   15     -1.35      0.00
    6    8   15      0.44      0.00
    7    8   15      0.42      0.00
    8    8   15     -2.35      0.00
    9    8   15      2.22      0.00
   10    8   15      4.87      0.00
   11    8   15      1.66      0.00
   12    8   15      2.35      0.00
   13    8   15      4.30      0.00
   14    8   15      2.93      0.00
   15    8   15      2.11      0.00
   16    8   15      4.32      0.00
   17    8   15      3.00      0.00
   18    8   15      0.08      0.00
   19    8   15      0.31      0.00
  -10    9   15      1.77      0.00
   -9    9   15     -1.11      0.00
   -8    9   15      0.05      0.00
   -7    9   15     -0.19      0.00
   -6    9   15     -1.81      0.00
   -5    9   15     -1.98      0.00
   -4    9   15     -4.07      0.00
   -3    9   15     -3.43      0.00
   -2    9   15     -2.74      0.00
   -1    9   15     -5.20      0.00
    0    9   15     -6.50      0.00
    1    9   15     -6.94      0.00
    2    9   15     -6.29      0.00
    3    9   15     -4.64      0.00
    4    9   15     -2.43      0.00
    5    9   15      0.70      0.00
    6    9   15      2.04      0.00
    7    9   15      2.27      0.00
    8    9   15     -1.37      0.00
    9    9   15     -0.46      0.00
   10    9   15      1.18      0.00
   11    9   15     -3.75      0.00
   12    9   15     -4.33      0.00
   13    9   15     -1.51      0.00
   14    9   15     -2.23      0.00
   15    9   15     -4.32      0.00
   16    9   15     -2.08      0.00
   17    9   15      1.59      0.00
   18    9   15     -0.09      0.00
   19    9   15     -0.08      0.00
   -9   10   15      0.31      0.00
   -8   10   15      1.96      0.00
   -7   10   15      4.32      0.00
   -6   10   15      1.34      0.00
   -5   10   15      1.26      0.00
   -4   10   15      0.12      0.00
   -3   10   15      0.70      0.00
   -2   10   15      3.32      0.00
   -1   10   15      2.64      0.00
    0   10   15     -0.69      0.00
    1   10   15     -0.14      0.00
    2   10   15     -2.60      0.00
    3   10   15     -3.41      0.00
    4   10   15     -3.57      0.00
    5   10   15     -2.98      0.00
    6   10   15     -1.61      0.00
    7   10   15     -2.09      0.00
    8   10   15     -2.30      0.00
    9   10   15      0.86      0.00
   10   10   15      4.90      0.00
   11   10   15      0.38      0.00
   12   10   15     -2.26      0.00
   13   10   15      0.22      0.00
   14   10   15      1.53      0.00
   15   10   15     -0.84      0.00
   16   10   15     -2.65      0.00
   17   10   15      0.35      0.00
   18   10   15     -3.03      0.00
   19   10   15     -4.25      0.00
   -9   11   15      1.90      0.00
   -8   11   15      1.52      0.00
   -7   11   15      4.19      0.00
   -6   11   15      1.59      0.00
   -5   11   15      1.23      0.00
   -4   11   15      1.57      0.00
   -3   11   15     -0.66      0.00
   -2   11   15      0.26      0.00
   -1   11   15      0.68      0.00
    0   11   15     -0.40      0.00
    1   11   15      2.73      0.00
    2   11   15      1.32      0.00
    3   11   15      0.56      0.00
    4   11   15     -1.36      0.00
    5   11   15     -1.77      0.00
    6   11   15     -1.06      0.00
    7   11   15     -3.76      0.00
    8   11   15     -3.62      0.00
    9   11   15     -3.29      0.00
   10   11   15     -0.28      0.00
   11   11   15     -0.37      0.00
   12   11   15     -1.41      0.00
   13   11   15     -1.02      0.00
   14   11   15     -0.78      0.00
   15   11   15     -1.00      0.00
   16   11   15     -1.37      0.00
   17   11   15      4.23      0.00
   18   11   15      2.34      0.00
   19   11   15      2.00      0.00
   -8   12   15     -3.22      0.00
   -7   12   15     -0.51      0.00
   -6   12   15      0.50      0.00
   -5   12   15      1.70      0.00
   -4   12   15      3.59      0.00
   -3   12   15     -2.10      0.00
   -2   12   15     -1.70      0.00
   -1   12   15     -0.60      0.00
    0   12   15     -0.46      0.00
    1   12   15      1.59      0.00
    2   12   15      2.99      0.00
    3   12   15      5.64      0.00
    4   12   15      5.19      0.00
    5   12   15      3.99      0.00
    6   12   15      2.59      0.00
    7   12   15     -1.17      0.00
    8   12   15      0.45      0.00
    9   12   15      2.67      0.00
   10   12   15      2.79      0.00
   11   12   15      3.18      0.00
   12   12   15      3.57      0.00
   13   12   15      3.57      0.00
   14   12   15      1.70      0.00
   15   12   15     -0.10      0.00
   16   12   15     -0.14      0.00
   17   12   15      6.00      0.00
   18   12   15      3.96      0.00
   19   12   15      2.08      0.00
   20   12   15      0.84      0.00
   -7   13   15     -0.33      0.00
   -6   13   15     -0.49      0.00
   -5   13   15      2.08      0.00
   -4   13   15      6.82      0.00
   -3   13   15      1.67      0.00
   -2   13   15      1.43      0.00
   -1   13   15      0.21      0.00
    0   13   15     -0.28      0.00
    1   13   15     -0.49      0.00
    2   13   15      0.05      0.00
    3   13   15      2.99      0.00
    4   13   15      3.50      0.00
    5   13   15      1.70      0.00
    6   13   15      1.93      0.00
    7   13   15      0.39      0.00
    8   13   15      0.11      0.00
    9   13   15      3.10      0.00
   10   13   15     -0.20      0.00
   11   13   15     -1.07      0.00
   12   13   15     -0.59      0.00
   13   13   15     -0.12      0.00
   14   13   15      1.02      0.00
   15   13   15      1.03      0.00
   16   13   15     -1.95      0.00
   17   13   15      0.50      0.00
   18   13   15      1.38      0.00
   19   13   15      0.90      0.00
   20   13   15      0.48      0.00
   -6   14   15     -1.55      0.00
   -5   14   15     -0.25      0.00
   -4   14   15      1.53      0.00
   -3   14   15     -2.85      0.00
   -2   14   15     -3.63      0.00
   -1   14   15     -1.90      0.00
    0   14   15     -1.33      0.00
    1   14   15     -1.06      0.00
    2   14   15     -1.28      0.00
    3   14   15     -0.54      0.00
    4   14   15      0.84      0.00
    5   14   15      1.43      0.00
    6   14   15      3.01      0.00
    7   14   15      2.95      0.00
    8   14   15      0.89      0.00
    9   14   15      3.83      0.00
   10   14   15     -0.79      0.00
   11   14   15     -3.42      0.00
   12   14   15     -2.10      0.00
   13   14   15     -2.52      0.00
   14   14   15     -1.78      0.00
   15   14   15      2.45      0.00
   16   14   15      0.41      0.00
   17   14   15     -0.66      0.00
   18   14   15      0.14      0.00
   19   14   15     -0.43      0.00
   -5   15   15      3.39      0.00
   -4   15   15      4.27      0.00
   -3   15   15      0.10      0.00
   -2   15   15     -5.82      0.00
   -1   15   15     -2.02      0.00
    0   15   15     -2.10      0.00
    1   15   15     -0.78      0.00
    2   15   15     -0.09      0.00
    3   15   15     -1.67      0.00
    4   15   15     -1.05      0.00
    5   15   15      0.66      0.00
    6   15   15      1.29      0.00
    7   15   15      2.14      0.00
    8   15   15     -1.20      0.00
    9   15   15      0.44      0.00
   10   15   15      0.69      0.00
   11   15   15     -0.21      0.00
   12   15   15      2.82      0.00
   13   15   15      2.83      0.00
   14   15   15     -0.03      0.00
   15   15   15      2.61      0.00
   16   15   15      1.97      0.00
   17   15   15      0.68      0.00
   18   15   15      0.21      0.00
   19   15   15     -0.91      0.00
   -4   16   15      1.07      0.00
   -3   16   15      2.89      0.00
   -2   16   15     -1.55      0.00
   -1   16   15     -0.44      0.00
    0   16   15     -2.53      0.00
    1   16   15      0.55      0.00
    2   16   15      3.75      0.00
    3   16   15      1.51      0.00
    4   16   15     -0.18      0.00
    5   16   15     -1.57      0.00
    6   16   15     -1.86      0.00
    7   16   15      1.36      0.00
    8   16   15      1.99      0.00
    9   16   15      1.35      0.00
   10   16   15      0.05      0.00
   11   16   15     -0.84      0.00
   12   16   15      1.33      0.00
   13   16   15      1.75      0.00
   14   16   15     -1.78      0.00
   15   16   15     -2.69      0.00
   16   16   15     -3.39      0.00
   17   16   15     -5.33      0.00
   18   16   15     -5.25      0.00
   19   16   15     -2.02      0.00
   -2   17   15      4.65      0.00
   -1   17   15      6.32      0.00
    0   17   15      4.60      0.00
    1   17   15      0.83      0.00
    2   17   15      0.79      0.00
    3   17   15      1.08      0.00
    4   17   15      2.74      0.00
    5   17   15      1.97      0.00
    6   17   15      3.10      0.00
    7   17   15      1.21      0.00
    8   17   15      1.40      0.00
    9   17   15      1.12      0.00
   10   17   15     -1.94      0.00
   11   17   15     -0.98      0.00
   12   17   15     -1.24      0.00
   13   17   15     -2.49      0.00
   14   17   15     -4.33      0.00
   15   17   15     -5.22      0.00
   16   17   15     -1.86      0.00
   17   17   15     -0.68      0.00
   18   17   15     -1.12      0.00
   19   17   15      0.42      0.00
   -1   18   15     -1.16      0.00
    0   18   15      3.26      0.00
    1   18   15      2.85      0.00
    2   18   15      5.03      0.00
    3   18   15      2.98      0.00
    4   18   15      0.64      0.00
    5   18   15     -4.95      0.00
    6   18   15     -2.80      0.00
    7   18   15     -1.05      0.00
    8   18   15      2.96      0.00
    9   18   15      5.27      0.00
   10   18   15     -0.07      0.00
   11   18   15     -0.40      0.00
   12   18   15     -1.68      0.00
   13   18   15     -3.05      0.00
   14   18   15     -0.78      0.00
   15   18   15     -0.35      0.00
   16   18   15     -0.96      0.00
   17   18   15     -1.95      0.00
   18   18   15     -2.44      0.00
    1   19   15     -1.19      0.00
    2   19   15      3.78      0.00
    3   19   15      2.38      0.00
    4   19   15      2.66      0.00
    5   19   15     -2.87      0.00
    6   19   15     -6.71      0.00
    7   19   15     -6.88      0.00
    8   19   15     -6.26      0.00
    9   19   15      1.07      0.00
   10   19   15      0.52      0.00
   11   19   15     -0.99      0.00
   12   19   15     -1.65      0.00
   13   19   15     -6.45      0.00
   14   19   15     -5.09      0.00
   15   19   15     -1.20      0.00
   16   19   15     -1.92      0.00
   17   19   15     -1.79      0.00
    3   20   15      2.28      0.00
    4   20   15      3.86      0.00
    5   20   15      3.27      0.00
    6   20   15      1.67      0.00
    7   20   15      3.11      0.00
    8   20   15     -4.08      0.00
    9   20   15     -1.67      0.00
   10   20   15     -3.07      0.00
   11   20   15     -5.68      0.00
   12   20   15     -2.31      0.00
   13   20   15     -4.31      0.00
   14   20   15     -3.19      0.00
   15   20   15      0.83      0.00
   16   20   15      0.24      0.00
    6   21   15     -1.27      0.00
    7   21   15      1.36      0.00
    8   21   15     -1.62      0.00
    9   21   15      0.60      0.00
   10   21   15      0.22      0.00
   11   21   15     -3.21      0.00
   12   21   15     -2.08      0.00
   13   21   15     -1.15      0.00
   14   21   15      0.07      0.00
   -7   -9   16     -2.03      0.00
   -6   -9   16     -3.63      0.00
   -5   -9   16     -5.36      0.00
   -4   -9   16     -5.28      0.00
   -3   -9   16     -0.65      0.00
   -2   -9   16      0.90      0.00
   -1   -9   16     -0.27      0.00
    0   -9   16     -2.69      0.00
   -9   -8   16     -1.94      0.00
   -8   -8   16      1.54      0.00
   -7   -8   16      1.34      0.00
   -6   -8   16      3.70      0.00
   -5   -8   16      0.94      0.00
   -4   -8   16     -4.39      0.00
   -3   -8   16     -4.43      0.00
   -2   -8   16     -2.63      0.00
   -1   -8   16     -0.62      0.00
    0   -8   16     -0.96      0.00
    1   -8   16      0.21      0.00
    2   -8   16      1.15      0.00
    3   -8   16     -1.22      0.00
  -10   -7   16      4.86      0.00
   -9   -7   16      3.11      0.00
   -8   -7   16      3.98      0.00
   -7   -7   16      2.65      0.00
   -6   -7   16      4.11      0.00
   -5   -7   16      3.91      0.00
   -4   -7   16      1.81      0.00
   -3   -7   16     -1.13      0.00
   -2   -7   16     -1.84      0.00
   -1   -7   16     -2.34      0.00
    0   -7   16     -2.57      0.00
    1   -7   16     -1.89      0.00
    2   -7   16     -0.54      0.00
    3   -7   16     -1.41      0.00
    4   -7   16      0.91      0.00
    5   -7   16      1.34      0.00
  -11   -6   16      2.82      0.00
  -10   -6   16      3.50      0.00
   -9   -6   16      2.59      0.00
   -8   -6   16      2.40      0.00
   -7   -6   16      2.35      0.00
   -6   -6   16      1.76      0.00
   -5   -6   16      1.46      0.00
   -4   -6   16      1.82      0.00
   -3   -6   16      1.27      0.00
   -2   -6   16      0.23      0.00
   -1   -6   16     -3.07      0.00
    0   -6   16     -3.04      0.00
    1   -6   16     -1.67      0.00
    2   -6   16     -1.76      0.00
    3   -6   16     -4.86      0.00
    4   -6   16     -1.81      0.00
    5   -6   16     -0.34      0.00
    6   -6   16     -0.82      0.00
    7   -6   16     -0.60      0.00
  -11   -5   16     -4.18      0.00
  -10   -5   16     -3.48      0.00
   -9   -5   16     -2.10      0.00
   -8   -5   16     -1.70      0.00
   -7   -5   16     -1.69      0.00
   -6   -5   16     -3.09      0.00
   -5   -5   16     -4.14      0.00
   -4   -5   16     -2.93      0.00
   -3   -5   16      0.62      0.00
   -2   -5   16      2.00      0.00
   -1   -5   16      0.34      0.00
    0   -5   16     -1.21      0.00
    1   -5   16      0.82      0.00
    2   -5   16      2.74      0.00
    3   -5   16     -0.66      0.00
    4   -5   16      0.94      0.00
    5   -5   16      4.96      0.00
    6   -5   16      5.26      0.00
    7   -5   16      4.55      0.00
    8   -5   16      1.02      0.00
  -12   -4   16     -2.15      0.00
  -11   -4   16     -3.58      0.00
  -10   -4   16     -3.89      0.00
   -9   -4   16      0.18      0.00
   -8   -4   16      2.28      0.00
   -7   -4   16      2.34      0.00
   -6   -4   16      2.85      0.00
   -5   -4   16      1.31      0.00
   -4   -4   16     -0.59      0.00
   -3   -4   16     -1.75      0.00
   -2   -4   16     -2.53      0.00
   -1   -4   16     -0.96      0.00
    0   -4   16     -1.84      0.00
    1   -4   16     -0.21      0.00
    2   -4   16      3.78      0.00
    3   -4   16      0.41      0.00
    4   -4   16     -2.34      0.00
    5   -4   16      1.74      0.00
    6   -4   16      2.42      0.00
    7   -4   16      4.18      0.00
    8   -4   16      3.51      0.00
    9   -4   16      3.41      0.00
   10   -4   16      1.89      0.00
  -12   -3   16      0.70      0.00
  -11   -3   16     -0.14      0.00
  -10   -3   16     -3.59      0.00
   -9   -3   16      0.02      0.00
   -8   -3   16      2.71      0.00
   -7   -3   16      1.93      0.00
   -6   -3   16      3.39      0.00
   -5   -3   16      3.72      0.00
   -4   -3   16      1.41      0.00
   -3   -3   16     -1.26      0.00
   -2   -3   16     -2.65      0.00
   -1   -3   16     -0.59      0.00
    0   -3   16     -0.50      0.00
    1   -3   16     -2.86      0.00
    2   -3   16      1.53      0.00
    3   -3   16      0.27      0.00
    4   -3   16     -3.93      0.00
    5   -3   16     -0.88      0.00
    6   -3   16     -0.09      0.00
    7   -3   16      2.48      0.00
    8   -3   16      2.97      0.00
    9   -3   16      1.57      0.00
   10   -3   16     -1.36      0.00
   11   -3   16     -2.21      0.00
  -12   -2   16     -1.10      0.00
  -11   -2   16     -0.71      0.00
  -10   -2   16     -2.62      0.00
   -9   -2   16     -0.15      0.00
   -8   -2   16      3.60      0.00
   -7   -2   16     -1.27      0.00
   -6   -2   16     -2.16      0.00
   -5   -2   16      1.84      0.00
   -4   -2   16      1.67      0.00
   -3   -2   16      2.45      0.00
   -2   -2   16      1.49      0.00
   -1   -2   16      0.49      0.00
    0   -2   16      1.99      0.00
    1   -2   16     -1.58      0.00
    2   -2   16      0.76      0.00
    3   -2   16     -0.21      0.00
    4   -2   16     -0.92      0.00
    5   -2   16      2.39      0.00
    6   -2   16      2.39      0.00
    7   -2   16      3.16      0.00
    8   -2   16      2.96      0.00
    9   -2   16      3.82      0.00
   10   -2   16      4.10      0.00
   11   -2   16      1.89      0.00
   12   -2   16     -1.60      0.00
  -12   -1   16      0.78      0.00
  -11   -1   16      1.43      0.00
  -10   -1   16     -0.55      0.00
   -9   -1   16     -1.73      0.00
   -8   -1   16      4.83      0.00
   -7   -1   16      0.16      0.00
   -6   -1   16     -2.23      0.00
   -5   -1   16     -0.36      0.00
   -4   -1   16     -3.09      0.00
   -3   -1   16     -0.55      0.00
   -2   -1   16      2.82      0.00
   -1   -1   16      0.76      0.00
    0   -1   16     -0.02      0.00
    1   -1   16     -2.11      0.00
    2   -1   16     -1.68      0.00
    3   -1   16     -5.70      0.00
    4   -1   16     -7.23      0.00
    5   -1   16     -4.47      0.00
    6   -1   16     -3.84      0.00
    7   -1   16     -2.44      0.00
    8   -1   16     -2.30      0.00
    9   -1   16     -1.40      0.00
   10   -1   16      0.31      0.00
   11   -1   16     -0.20      0.00
   12   -1   16     -3.42      0.00
   13   -1   16     -3.64      0.00
  -12    0   16     -0.14      0.00
  -11    0   16     -1.57      0.00
  -10    0   16     -3.55      0.00
   -9    0   16     -4.14      0.00
   -8    0   16      2.22      0.00
   -7    0   16     -0.08      0.00
   -6    0   16     -1.28      0.00
   -5    0   16      0.39      0.00
   -4    0   16     -0.70      0.00
   -3    0   16     -1.61      0.00
   -2    0   16      1.19      0.00
   -1    0   16      0.37      0.00
    0    0   16     -0.39      0.00
    1    0   16     -1.34      0.00
    2    0   16     -0.64      0.00
    3    0   16     -2.54      0.00
    4    0   16     -4.40      0.00
    5    0   16     -0.98      0.00
    6    0   16     -1.29      0.00
    7    0   16     -0.49      0.00
    8    0   16      0.51      0.00
    9    0   16      0.77      0.00
   10    0   16      4.86      0.00
   11    0   16      6.78      0.00
   12    0   16      1.68      0.00
   13    0   16     -0.98      0.00
   14    0   16     -0.77      0.00
  -12    1   16     -0.19      0.00
  -11    1   16     -1.38      0.00
  -10    1   16     -3.42      0.00
   -9    1   16     -5.15      0.00
   -8    1   16     -2.25      0.00
   -7    1   16     -0.85      0.00
   -6    1   16     -1.89      0.00
   -5    1   16     -3.27      0.00
   -4    1   16     -2.76      0.00
   -3    1   16     -3.62      0.00
   -2    1   16     -3.70      0.00
   -1    1   16     -4.08      0.00
    0    1   16     -1.67      0.00
    1    1   16     -0.92      0.00
    2    1   16      1.33      0.00
    3    1   16      0.85      0.00
    4    1   16     -0.80      0.00
    5    1   16      3.07      0.00
    6    1   16     -0.56      0.00
    7    1   16     -1.24      0.00
    8    1   16      0.63      0.00
    9    1   16     -1.52      0.00
   10    1   16      0.56      0.00
   11    1   16      3.74      0.00
   12    1   16      2.89      0.00
   13    1   16      4.13      0.00
   14    1   16      5.17      0.00
   15    1   16      4.26      0.00
  -12    2   16     -0.25      0.00
  -11    2   16     -1.31      0.00
  -10    2   16      0.81      0.00
   -9    2   16      0.26      0.00
   -8    2   16      1.76      0.00
   -7    2   16      1.44      0.00
   -6    2   16      2.54      0.00
   -5    2   16      2.24      0.00
   -4    2   16      0.60      0.00
   -3    2   16      0.86      0.00
   -2    2   16     -1.20      0.00
   -1    2   16     -1.67      0.00
    0    2   16     -1.36      0.00
    1    2   16     -1.84      0.00
    2    2   16      0.87      0.00
    3    2   16     -0.33      0.00
    4    2   16     -1.56      0.00
    5    2   16      1.50      0.00
    6    2   16      0.14      0.00
    7    2   16      1.20      0.00
    8    2   16      1.25      0.00
    9    2   16     -1.40      0.00
   10    2   16     -1.01      0.00
   11    2   16      0.15      0.00
   12    2   16     -1.51      0.00
   13    2   16     -1.18      0.00
   14    2   16      1.85      0.00
   15    2   16      3.19      0.00
  -12    3   16     -1.31      0.00
  -11    3   16     -1.31      0.00
  -10    3   16     -2.26      0.00
   -9    3   16     -4.40      0.00
   -8    3   16      0.89      0.00
   -7    3   16     -2.54      0.00
   -6    3   16     -0.98      0.00
   -5    3   16      1.30      0.00
   -4    3   16     -2.05      0.00
   -3    3   16     -0.80      0.00
   -2    3   16     -1.43      0.00
   -1    3   16     -0.25      0.00
    0    3   16     -0.87      0.00
    1    3   16      1.01      0.00
    2    3   16      1.91      0.00
    3    3   16      1.30      0.00
    4    3   16      2.43      0.00
    5    3   16      0.60      0.00
    6    3   16     -1.75      0.00
    7    3   16      1.42      0.00
    8    3   16      3.14      0.00
    9    3   16      2.14      0.00
   10    3   16      0.97      0.00
   11    3   16      3.14      0.00
   12    3   16      1.94      0.00
   13    3   16     -0.11      0.00
   14    3   16      0.45      0.00
   15    3   16      0.29      0.00
   16    3   16      0.19      0.00
  -12    4   16     -2.75      0.00
  -11    4   16      2.17      0.00
  -10    4   16      1.88      0.00
   -9    4   16     -0.31      0.00
   -8    4   16      5.77      0.00
   -7    4   16      1.66      0.00
   -6    4   16      0.26      0.00
   -5    4   16      3.37      0.00
   -4    4   16     -1.59      0.00
   -3    4   16     -1.04      0.00
   -2    4   16      3.16      0.00
   -1    4   16      3.25      0.00
    0    4   16     -0.43      0.00
    1    4   16      3.07      0.00
    2    4   16      2.57      0.00
    3    4   16      1.02      0.00
    4    4   16      2.23      0.00
    5    4   16      2.52      0.00
    6    4   16      0.46      0.00
    7    4   16     -0.52      0.00
    8    4   16      0.57      0.00
    9    4   16     -0.21      0.00
   10    4   16     -2.17      0.00
   11    4   16      2.03      0.00
   12    4   16      3.08      0.00
   13    4   16      3.69      0.00
   14    4   16      3.37      0.00
   15    4   16      0.85      0.00
   16    4   16     -0.01      0.00
  -11    5   16      2.45      0.00
  -10    5   16      1.89      0.00
   -9    5   16     -1.41      0.00
   -8    5   16      2.39      0.00
   -7    5   16      2.64      0.00
   -6    5   16     -0.68      0.00
   -5    5   16      3.32      0.00
   -4    5   16     -1.84      0.00
   -3    5   16     -3.38      0.00
   -2    5   16      1.76      0.00
   -1    5   16      1.15      0.00
    0    5   16     -2.51      0.00
    1    5   16     -1.29      0.00
    2    5   16     -0.88      0.00
    3    5   16     -3.61      0.00
    4    5   16     -6.63      0.00
    5    5   16     -4.99      0.00
    6    5   16     -4.00      0.00
    7    5   16     -3.31      0.00
    8    5   16      2.60      0.00
    9    5   16      4.39      0.00
   10    5   16      2.77      0.00
   11    5   16      5.48      0.00
   12    5   16      4.25      0.00
   13    5   16      1.85      0.00
   14    5   16     -0.97      0.00
   15    5   16     -2.44      0.00
   16    5   16     -0.38      0.00
   17    5   16      0.21      0.00
  -11    6   16      5.47      0.00
  -10    6   16      7.25      0.00
   -9    6   16      3.36      0.00
   -8    6   16      1.74      0.00
   -7    6   16      1.12      0.00
   -6    6   16     -1.67      0.00
   -5    6   16      1.79      0.00
   -4    6   16     -1.01      0.00
   -3    6   16     -0.13      0.00
   -2    6   16      3.71      0.00
   -1    6   16      2.95      0.00
    0    6   16     -0.19      0.00
    1    6   16     -0.73      0.00
    2    6   16      2.97      0.00
    3    6   16      2.08      0.00
    4    6   16      1.38      0.00
    5    6   16      3.80      0.00
    6    6   16      4.64      0.00
    7    6   16      2.90      0.00
    8    6   16      6.86      0.00
    9    6   16      8.17      0.00
   10    6   16      3.95      0.00
   11    6   16      3.76      0.00
   12    6   16      3.66      0.00
   13    6   16      0.33      0.00
   14    6   16     -1.11      0.00
   15    6   16     -0.20      0.00
   16    6   16      2.37      0.00
   17    6   16      2.90      0.00
   18    6   16      4.67      0.00
  -10    7   16      2.44      0.00
   -9    7   16      0.67      0.00
   -8    7   16      0.19      0.00
   -7    7   16     -0.74      0.00
   -6    7   16      1.32      0.00
   -5    7   16      2.38      0.00
   -4    7   16     -0.39      0.00
   -3    7   16     -1.68      0.00
   -2    7   16     -1.50      0.00
   -1    7   16     -1.16      0.00
    0    7   16     -2.71      0.00
    1    7   16     -3.00      0.00
    2    7   16      0.64      0.00
    3    7   16      0.40      0.00
    4    7   16      1.89      0.00
    5    7   16      2.29      0.00
    6    7   16      2.34      0.00
    7    7   16     -1.16      0.00
    8    7   16     -1.51      0.00
    9    7   16     -0.48      0.00
   10    7   16     -6.69      0.00
   11    7   16     -7.15      0.00
   12    7   16     -1.52      0.00
   13    7   16     -1.87      0.00
   14    7   16     -2.18      0.00
   15    7   16     -0.90      0.00
   16    7   16      0.11      0.00
   17    7   16     -2.62      0.00
   18    7   16     -1.35      0.00
  -10    8   16     -1.21      0.00
   -9    8   16     -1.17      0.00
   -8    8   16      1.89      0.00
   -7    8   16      1.07      0.00
   -6    8   16      4.98      0.00
   -5    8   16      4.20      0.00
   -4    8   16      3.04      0.00
   -3    8   16      2.56      0.00
   -2    8   16      3.67      0.00
   -1    8   16      3.19      0.00
    0    8   16      1.86      0.00
    1    8   16      0.04      0.00
    2    8   16     -0.85      0.00
    3    8   16     -2.22      0.00
    4    8   16     -1.61      0.00
    5    8   16     -1.47      0.00
    6    8   16     -0.99      0.00
    7    8   16     -3.20      0.00
    8    8   16     -3.44      0.00
    9    8   16      1.55      0.00
   10    8   16     -1.35      0.00
   11    8   16     -3.33      0.00
   12    8   16      0.50      0.00
   13    8   16      0.80      0.00
   14    8   16     -0.47      0.00
   15    8   16     -0.35      0.00
   16    8   16      1.76      0.00
   17    8   16     -0.16      0.00
   18    8   16     -1.20      0.00
   -9    9   16     -2.18      0.00
   -8    9   16      1.42      0.00
   -7    9   16     -0.69      0.00
   -6    9   16     -0.50      0.00
   -5    9   16     -0.50      0.00
   -4    9   16     -1.06      0.00
   -3    9   16     -2.16      0.00
   -2    9   16     -1.62      0.00
   -1    9   16     -3.26      0.00
    0    9   16     -1.03      0.00
    1    9   16     -0.63      0.00
    2    9   16     -1.08      0.00
    3    9   16     -0.76      0.00
    4    9   16     -0.91      0.00
    5    9   16      1.84      0.00
    6    9   16      2.75      0.00
    7    9   16      1.77      0.00
    8    9   16      0.85      0.00
    9    9   16      2.12      0.00
   10    9   16     -0.44      0.00
   11    9   16     -2.83      0.00
   12    9   16     -1.19      0.00
   13    9   16     -0.97      0.00
   14    9   16     -1.42      0.00
   15    9   16     -2.33      0.00
   16    9   16     -1.83      0.00
   17    9   16     -3.71      0.00
   18    9   16     -6.11      0.00
   19    9   16     -4.30      0.00
   -9   10   16      2.29      0.00
   -8   10   16      5.12      0.00
   -7   10   16      4.68      0.00
   -6   10   16      0.69      0.00
   -5   10   16      0.39      0.00
   -4   10   16     -0.95      0.00
   -3   10   16     -1.05      0.00
   -2   10   16     -0.23      0.00
   -1   10   16     -2.54      0.00
    0   10   16      0.01      0.00
    1   10   16      1.60      0.00
    2   10   16      2.02      0.00
    3   10   16      2.60      0.00
    4   10   16      1.00      0.00
    5   10   16      3.05      0.00
    6   10   16      2.13      0.00
    7   10   16      1.07      0.00
    8   10   16      2.80      0.00
    9   10   16      4.29      0.00
   10   10   16      3.06      0.00
   11   10   16     -0.20      0.00
   12   10   16      0.71      0.00
   13   10   16      0.22      0.00
   14   10   16     -0.42      0.00
   15   10   16     -2.04      0.00
   16   10   16      0.20      0.00
   17   10   16      3.28      0.00
   18   10   16      0.79      0.00
   19   10   16      0.12      0.00
   -8   11   16     -1.82      0.00
   -7   11   16      0.40      0.00
   -6   11   16     -2.86      0.00
   -5   11   16     -0.70      0.00
   -4   11   16     -1.29      0.00
   -3   11   16     -0.77      0.00
   -2   11   16      1.73      0.00
   -1   11   16      0.62      0.00
    0   11   16      1.25      0.00
    1   11   16      1.53      0.00
    2   11   16      0.79      0.00
    3   11   16      2.12      0.00
    4   11   16      1.48      0.00
    5   11   16      1.07      0.00
    6   11   16      0.67      0.00
    7   11   16     -0.94      0.00
    8   11   16     -0.34      0.00
    9   11   16      0.21      0.00
   10   11   16      1.50      0.00
   11   11   16      1.45      0.00
   12   11   16      4.77      0.00
   13   11   16      4.77      0.00
   14   11   16      3.74      0.00
   15   11   16      3.17      0.00
   16   11   16      4.07      0.00
   17   11   16      4.68      0.00
   18   11   16     -0.18      0.00
   19   11   16     -0.15      0.00
   -7   12   16      1.58      0.00
   -6   12   16      0.64      0.00
   -5   12   16      5.02      0.00
   -4   12   16      5.14      0.00
   -3   12   16      2.24      0.00
   -2   12   16      1.68      0.00
   -1   12   16     -0.61      0.00
    0   12   16      0.59      0.00
    1   12   16      1.70      0.00
    2   12   16     -0.51      0.00
    3   12   16     -1.09      0.00
    4   12   16     -2.17      0.00
    5   12   16     -4.11      0.00
    6   12   16     -1.54      0.00
    7   12   16     -0.71      0.00
    8   12   16      0.82      0.00
    9   12   16     -0.91      0.00
   10   12   16     -3.05      0.00
   11   12   16     -3.99      0.00
   12   12   16     -1.37      0.00
   13   12   16      0.50      0.00
   14   12   16     -0.74      0.00
   15   12   16     -0.05      0.00
   16   12   16      2.07      0.00
   17   12   16      5.18      0.00
   18   12   16      0.85      0.00
   19   12   16      0.81      0.00
   -6   13   16     -1.51      0.00
   -5   13   16     -0.96      0.00
   -4   13   16     -1.54      0.00
   -3   13   16     -3.45      0.00
   -2   13   16      1.75      0.00
   -1   13   16      2.74      0.00
    0   13   16      2.30      0.00
    1   13   16      1.49      0.00
    2   13   16     -0.29      0.00
    3   13   16     -0.13      0.00
    4   13   16     -0.10      0.00
    5   13   16     -2.89      0.00
    6   13   16     -2.80      0.00
    7   13   16     -2.16      0.00
    8   13   16      2.00      0.00
    9   13   16      1.98      0.00
   10   13   16     -1.18      0.00
   11   13   16     -0.86      0.00
   12   13   16     -1.49      0.00
   13   13   16     -0.78      0.00
   14   13   16     -0.19      0.00
   15   13   16     -0.03      0.00
   16   13   16     -1.95      0.00
   17   13   16      1.03      0.00
   18   13   16     -0.60      0.00
   19   13   16      0.83      0.00
   -5   14   16      2.79      0.00
   -4   14   16      2.12      0.00
   -3   14   16     -4.46      0.00
   -2   14   16     -0.72      0.00
   -1   14   16      1.53      0.00
    0   14   16      1.28      0.00
    1   14   16      2.61      0.00
    2   14   16      1.92      0.00
    3   14   16      1.40      0.00
    4   14   16      2.46      0.00
    5   14   16      3.07      0.00
    6   14   16      1.97      0.00
    7   14   16     -1.41      0.00
    8   14   16     -1.01      0.00
    9   14   16      1.15      0.00
   10   14   16     -1.36      0.00
   11   14   16      2.57      0.00
   12   14   16      3.45      0.00
   13   14   16      0.98      0.00
   14   14   16      1.14      0.00
   15   14   16      1.90      0.00
   16   14   16     -1.26      0.00
   17   14   16     -1.90      0.00
   18   14   16     -4.33      0.00
   19   14   16     -1.52      0.00
   -4   15   16      2.08      0.00
   -3   15   16     -1.76      0.00
   -2   15   16     -0.26      0.00
   -1   15   16      1.23      0.00
    0   15   16     -0.17      0.00
    1   15   16      1.10      0.00
    2   15   16     -0.17      0.00
    3   15   16     -0.99      0.00
    4   15   16     -0.47      0.00
    5   15   16      2.90      0.00
    6   15   16      6.28      0.00
    7   15   16      5.41      0.00
    8   15   16      1.76      0.00
    9   15   16      2.49      0.00
   10   15   16     -2.22      0.00
   11   15   16     -1.26      0.00
   12   15   16      0.34      0.00
   13   15   16     -2.59      0.00
   14   15   16     -3.77      0.00
   15   15   16     -1.42      0.00
   16   15   16     -0.67      0.00
   17   15   16      0.87      0.00
   18   15   16     -0.20      0.00
   19   15   16     -2.04      0.00
   -3   16   16      1.77      0.00
   -2   16   16      1.52      0.00
   -1   16   16      3.85      0.00
    0   16   16      1.67      0.00
    1   16   16      1.37      0.00
    2   16   16      1.01      0.00
    3   16   16      0.80      0.00
    4   16   16     -0.32      0.00
    5   16   16     -0.61      0.00
    6   16   16      1.02      0.00
    7   16   16      3.94      0.00
    8   16   16      2.81      0.00
    9   16   16      1.81      0.00
   10   16   16     -1.57      0.00
   11   16   16     -1.39      0.00
   12   16   16      1.88      0.00
   13   16   16      1.90      0.00
   14   16   16     -1.61      0.00
   15   16   16     -0.89      0.00
   16   16   16     -2.07      0.00
   17   16   16     -2.45      0.00
   18   16   16     -0.52      0.00
   -2   17   16     -6.75      0.00
   -1   17   16     -3.61      0.00
    0   17   16     -3.80      0.00
    1   17   16     -3.60      0.00
    2   17   16     -1.62      0.00
    3   17   16      0.51      0.00
    4   17   16      3.74      0.00
    5   17   16      2.41      0.00
    6   17   16      0.13      0.00
    7   17   16      1.32      0.00
    8   17   16      4.09      0.00
    9   17   16      4.26      0.00
   10   17   16      4.10      0.00
   11   17   16      2.46      0.00
   12   17   16      1.14      0.00
   13   17   16      1.62      0.00
   14   17   16     -1.29      0.00
   15   17   16     -0.20      0.00
   16   17   16      0.67      0.00
   17   17   16      0.29      0.00
   18   17   16     -0.67      0.00
    0   18   16      0.74      0.00
    1   18   16     -1.32      0.00
    2   18   16     -5.59      0.00
    3   18   16     -9.66      0.00
    4   18   16     -4.61      0.00
    5   18   16     -2.03      0.00
    6   18   16      1.72      0.00
    7   18   16      1.01      0.00
    8   18   16      1.66      0.00
    9   18   16      0.16      0.00
   10   18   16     -0.16      0.00
   11   18   16      1.72      0.00
   12   18   16     -2.03      0.00
   13   18   16     -3.41      0.00
   14   18   16     -2.62      0.00
   15   18   16     -2.32      0.00
   16   18   16     -1.16      0.00
   17   18   16      1.43      0.00
    2   19   16      2.77      0.00
    3   19   16     -1.80      0.00
    4   19   16     -2.50      0.00
    5   19   16     -4.95      0.00
    6   19   16      0.77      0.00
    7   19   16      0.06      0.00
    8   19   16      1.70      0.00
    9   19   16      2.35      0.00
   10   19   16     -1.32      0.00
   11   19   16      3.99      0.00
   12   19   16      3.73      0.00
   13   19   16      2.82      0.00
   14   19   16      6.24      0.00
   15   19   16      5.08      0.00
   16   19   16      1.57      0.00
    4   20   16      0.59      0.00
    5   20   16     -1.29      0.00
    6   20   16      2.71      0.00
    7   20   16      1.72      0.00
    8   20   16      0.73      0.00
    9   20   16      2.10      0.00
   10   20   16     -2.26      0.00
   11   20   16      0.37      0.00
   12   20   16      1.52      0.00
   13   20   16      0.97      0.00
   14   20   16      2.15      0.00
   15   20   16      1.05      0.00
    7   21   16      3.63      0.00
    8   21   16      1.69      0.00
    9   21   16      2.85      0.00
   10   21   16      0.72      0.00
   11   21   16     -1.12      0.00
   12   21   16     -0.88      0.00
   13   21   16     -1.26      0.00
   -5   -8   17      1.18      0.00
   -4   -8   17      2.72      0.00
   -3   -8   17      3.32      0.00
   -2   -8   17      2.24      0.00
   -1   -8   17     -0.42      0.00
   -8   -7   17      3.12      0.00
   -7   -7   17      0.41      0.00
   -6   -7   17     -1.66      0.00
   -5   -7   17     -1.90      0.00
   -4   -7   17      0.09      0.00
   -3   -7   17      2.65      0.00
   -2   -7   17      0.76      0.00
   -1   -7   17     -2.05      0.00
    0   -7   17     -0.49      0.00
    1   -7   17      0.00      0.00
    2   -7   17     -0.25      0.00
    3   -7   17     -0.65      0.00
   -9   -6   17     -3.41      0.00
   -8   -6   17     -2.02      0.00
   -7   -6   17     -0.75      0.00
   -6   -6   17     -1.23      0.00
   -5   -6   17     -3.97      0.00
   -4   -6   17     -3.24      0.00
   -3   -6   17     -0.84      0.00
   -2   -6   17     -1.70      0.00
   -1   -6   17     -3.36      0.00
    0   -6   17     -0.79      0.00
    1   -6   17     -0.48      0.00
    2   -6   17     -1.41      0.00
    3   -6   17     -0.94      0.00
    4   -6   17      4.21      0.00
    5   -6   17      3.85      0.00
  -10   -5   17      0.60      0.00
   -9   -5   17      1.95      0.00
   -8   -5   17     -0.40      0.00
   -7   -5   17     -0.11      0.00
   -6   -5   17     -0.29      0.00
   -5   -5   17     -1.28      0.00
   -4   -5   17     -1.87      0.00
   -3   -5   17     -3.29      0.00
   -2   -5   17     -2.74      0.00
   -1   -5   17     -2.85      0.00
    0   -5   17      0.33      0.00
    1   -5   17      4.16      0.00
    2   -5   17      2.27      0.00
    3   -5   17     -2.07      0.00
    4   -5   17      1.05      0.00
    5   -5   17      1.54      0.00
    6   -5   17      1.59      0.00
    7   -5   17      2.04      0.00
  -11   -4   17     -1.75      0.00
  -10   -4   17     -1.04      0.00
   -9   -4   17      2.73      0.00
   -8   -4   17      2.82      0.00
   -7   -4   17      3.85      0.00
   -6   -4   17      1.35      0.00
   -5   -4   17      1.60      0.00
   -4   -4   17      1.88      0.00
   -3   -4   17     -0.12      0.00
   -2   -4   17     -0.22      0.00
   -1   -4   17     -1.58      0.00
    0   -4   17     -3.53      0.00
    1   -4   17     -0.35      0.00
    2   -4   17      1.59      0.00
    3   -4   17     -1.01      0.00
    4   -4   17      1.37      0.00
    5   -4   17      1.02      0.00
    6   -4   17     -0.42      0.00
    7   -4   17      1.53      0.00
    8   -4   17      1.73      0.00
  -11   -3   17      4.59      0.00
  -10   -3   17      4.71      0.00
   -9   -3   17      4.73      0.00
   -8   -3   17     -0.04      0.00
   -7   -3   17     -2.44      0.00
   -6   -3   17      0.04      0.00
   -5   -3   17      2.74      0.00
   -4   -3   17      2.71      0.00
   -3   -3   17      1.33      0.00
   -2   -3   17      0.58      0.00
   -1   -3   17      2.69      0.00
    0   -3   17      1.29      0.00
    1   -3   17      1.51      0.00
    2   -3   17      1.60      0.00
    3   -3   17     -2.99      0.00
    4   -3   17     -0.88      0.00
    5   -3   17      0.84      0.00
    6   -3   17     -2.35      0.00
    7   -3   17     -3.57      0.00
    8   -3   17     -1.38      0.00
    9   -3   17      1.93      0.00
   10   -3   17      1.88      0.00
  -11   -2   17      1.53      0.00
  -10   -2   17     -2.95      0.00
   -9   -2   17      1.47      0.00
   -8   -2   17      1.25      0.00
   -7   -2   17     -4.61      0.00
   -6   -2   17     -0.85      0.00
   -5   -2   17      0.61      0.00
   -4   -2   17      1.40      0.00
   -3   -2   17      3.41      0.00
   -2   -2   17      2.57      0.00
   -1   -2   17      1.98      0.00
    0   -2   17     -0.52      0.00
    1   -2   17     -1.82      0.00
    2   -2   17      0.21      0.00
    3   -2   17     -3.52      0.00
    4   -2   17     -3.16      0.00
    5   -2   17      0.60      0.00
    6   -2   17      1.26      0.00
    7   -2   17      0.66      0.00
    8   -2   17     -0.56      0.00
    9   -2   17     -1.29      0.00
   10   -2   17     -0.16      0.00
   11   -2   17      1.40      0.00
  -11   -1   17      4.13      0.00
  -10   -1   17     -1.77      0.00
   -9   -1   17      1.07      0.00
   -8   -1   17      2.19      0.00
   -7   -1   17     -2.63      0.00
   -6   -1   17      1.23      0.00
   -5   -1   17      2.01      0.00
   -4   -1   17     -0.42      0.00
   -3   -1   17      0.10      0.00
   -2   -1   17     -0.14      0.00
   -1   -1   17     -0.24      0.00
    0   -1   17      2.26      0.00
    1   -1   17      0.34      0.00
    2   -1   17      1.47      0.00
    3   -1   17     -1.39      0.00
    4   -1   17      0.69      0.00
    5   -1   17      4.88      0.00
    6   -1   17      4.14      0.00
    7   -1   17      4.94      0.00
    8   -1   17      4.27      0.00
    9   -1   17      4.11      0.00
   10   -1   17      4.38      0.00
   11   -1   17      3.12      0.00
   12   -1   17      0.11      0.00
  -11    0   17      1.93      0.00
  -10    0   17     -0.97      0.00
   -9    0   17     -1.49      0.00
   -8    0   17      0.44      0.00
   -7    0   17     -3.24      0.00
   -6    0   17     -2.76      0.00
   -5    0   17     -1.01      0.00
   -4    0   17     -3.42      0.00
   -3    0   17     -2.16      0.00
   -2    0   17     -2.67      0.00
   -1    0   17     -3.61      0.00
    0    0   17      0.94      0.00
    1    0   17      2.13      0.00
    2    0   17      4.01      0.00
    3    0   17     -1.12      0.00
    4    0   17      0.60      0.00
    5    0   17      4.14      0.00
    6    0   17      1.98      0.00
    7    0   17      1.52      0.00
    8    0   17     -2.47      0.00
    9    0   17     -1.13      0.00
   10    0   17      3.51      0.00
   11    0   17      3.80      0.00
   12    0   17     -0.37      0.00
   13    0   17     -0.44      0.00
  -11    1   17      3.19      0.00
  -10    1   17      4.30      0.00
   -9    1   17      1.51      0.00
   -8    1   17      4.17      0.00
   -7    1   17      2.04      0.00
   -6    1   17      3.39      0.00
   -5    1   17      4.95      0.00
   -4    1   17      3.21      0.00
   -3    1   17      1.85      0.00
   -2    1   17     -0.48      0.00
   -1    1   17     -0.62      0.00
    0    1   17      0.14      0.00
    1    1   17      0.52      0.00
    2    1   17      1.33      0.00
    3    1   17     -1.90      0.00
    4    1   17     -0.70      0.00
    5    1   17      0.21      0.00
    6    1   17      0.31      0.00
    7    1   17      2.92      0.00
    8    1   17      0.48      0.00
    9    1   17     -0.64      0.00
   10    1   17      3.03      0.00
   11    1   17      5.07      0.00
   12    1   17      2.65      0.00
   13    1   17      1.96      0.00
   14    1   17      0.41      0.00
  -11    2   17      3.08      0.00
  -10    2   17      3.66      0.00
   -9    2   17      2.45      0.00
   -8    2   17      3.02      0.00
   -7    2   17     -1.99      0.00
   -6    2   17     -0.78      0.00
   -5    2   17     -1.81      0.00
   -4    2   17      1.06      0.00
   -3    2   17      0.68      0.00
   -2    2   17     -1.80      0.00
   -1    2   17     -0.93      0.00
    0    2   17      1.25      0.00
    1    2   17      3.98      0.00
    2    2   17      2.99      0.00
    3    2   17      2.66      0.00
    4    2   17      1.46      0.00
    5    2   17     -1.78      0.00
    6    2   17     -3.89      0.00
    7    2   17     -2.12      0.00
    8    2   17      0.98      0.00
    9    2   17     -0.42      0.00
   10    2   17     -0.78      0.00
   11    2   17     -0.73      0.00
   12    2   17     -1.47      0.00
   13    2   17      1.89      0.00
   14    2   17      3.33      0.00
  -11    3   17      1.92      0.00
  -10    3   17      0.27      0.00
   -9    3   17      2.38      0.00
   -8    3   17      4.67      0.00
   -7    3   17     -0.09      0.00
   -6    3   17      2.26      0.00
   -5    3   17     -0.49      0.00
   -4    3   17      0.33      0.00
   -3    3   17      2.80      0.00
   -2    3   17      2.99      0.00
   -1    3   17      0.25      0.00
    0    3   17     -1.03      0.00
    1    3   17      0.13      0.00
    2    3   17     -0.58      0.00
    3    3   17      0.89      0.00
    4    3   17     -0.22      0.00
    5    3   17     -0.86      0.00
    6    3   17     -1.60      0.00
    7    3   17     -1.84      0.00
    8    3   17     -0.71      0.00
    9    3   17     -1.01      0.00
   10    3   17      1.29      0.00
   11    3   17      2.23      0.00
   12    3   17     -1.15      0.00
   13    3   17     -1.30      0.00
   14    3   17     -2.31      0.00
   15    3   17     -4.00      0.00
  -11    4   17      2.31      0.00
  -10    4   17     -2.79      0.00
   -9    4   17     -2.88      0.00
   -8    4   17      1.97      0.00
   -7    4   17     -3.15      0.00
   -6    4   17     -0.46      0.00
   -5    4   17      0.62      0.00
   -4    4   17     -3.23      0.00
   -3    4   17      0.94      0.00
   -2    4   17      3.79      0.00
   -1    4   17      4.02      0.00
    0    4   17      2.96      0.00
    1    4   17      2.49      0.00
    2    4   17      0.11      0.00
    3    4   17     -1.56      0.00
    4    4   17     -1.95      0.00
    5    4   17     -3.67      0.00
    6    4   17     -4.01      0.00
    7    4   17     -0.05      0.00
    8    4   17      1.17      0.00
    9    4   17      0.11      0.00
   10    4   17     -0.04      0.00
   11    4   17      2.49      0.00
   12    4   17      2.03      0.00
   13    4   17      2.16      0.00
   14    4   17     -0.72      0.00
   15    4   17     -3.38      0.00
   16    4   17     -4.62      0.00
  -11    5   17      5.00      0.00
  -10    5   17      1.35      0.00
   -9    5   17     -0.03      0.00
   -8    5   17      5.34      0.00
   -7    5   17     -0.62      0.00
   -6    5   17     -0.79      0.00
   -5    5   17      1.78      0.00
   -4    5   17     -3.22      0.00
   -3    5   17      2.31      0.00
   -2    5   17      2.79      0.00
   -1    5   17     -0.11      0.00
    0    5   17     -3.80      0.00
    1    5   17      0.87      0.00
    2    5   17      2.06      0.00
    3    5   17     -0.40      0.00
    4    5   17      1.17      0.00
    5    5   17     -1.50      0.00
    6    5   17     -4.31      0.00
    7    5   17     -4.41      0.00
    8    5   17     -3.89      0.00
    9    5   17     -2.48      0.00
   10    5   17     -2.34      0.00
   11    5   17      0.41      0.00
   12    5   17     -1.20      0.00
   13    5   17     -0.39      0.00
   14    5   17      0.82      0.00
   15    5   17      1.67      0.00
   16    5   17      0.99      0.00
  -10    6   17     -2.98      0.00
   -9    6   17     -5.55      0.00
   -8    6   17     -0.91      0.00
   -7    6   17      0.52      0.00
   -6    6   17      2.64      0.00
   -5    6   17      4.81      0.00
   -4    6   17     -0.64      0.00
   -3    6   17      2.91      0.00
   -2    6   17      5.72      0.00
   -1    6   17      4.12      0.00
    0    6   17     -1.78      0.00
    1    6   17      0.56      0.00
    2    6   17      1.25      0.00
    3    6   17      0.19      0.00
    4    6   17      0.64      0.00
    5    6   17     -1.78      0.00
    6    6   17     -2.15      0.00
    7    6   17     -2.05      0.00
    8    6   17      0.38      0.00
    9    6   17     -2.55      0.00
   10    6   17     -4.56      0.00
   11    6   17      2.57      0.00
   12    6   17      1.96      0.00
   13    6   17     -2.43      0.00
   14    6   17     -3.11      0.00
   15    6   17     -0.34      0.00
   16    6   17      2.65      0.00
   17    6   17      1.54      0.00
  -10    7   17      1.70      0.00
   -9    7   17     -0.35      0.00
   -8    7   17     -1.64      0.00
   -7    7   17     -0.53      0.00
   -6    7   17      0.53      0.00
   -5    7   17      1.14      0.00
   -4    7   17     -2.58      0.00
   -3    7   17     -2.51      0.00
   -2    7   17     -0.92      0.00
   -1    7   17     -1.12      0.00
    0    7   17     -2.13      0.00
    1    7   17     -2.05      0.00
    2    7   17     -1.93      0.00
    3    7   17     -1.28      0.00
    4    7   17      1.44      0.00
    5    7   17      3.97      0.00
    6    7   17      2.87      0.00
    7    7   17     -0.48      0.00
    8    7   17      4.41      0.00
    9    7   17      2.32      0.00
   10    7   17     -4.79      0.00
   11    7   17     -1.54      0.00
   12    7   17      2.67      0.00
   13    7   17      2.10      0.00
   14    7   17      1.83      0.00
   15    7   17      1.97      0.00
   16    7   17      2.62      0.00
   17    7   17     -0.04      0.00
   -9    8   17     -1.74      0.00
   -8    8   17     -1.97      0.00
   -7    8   17     -2.37      0.00
   -6    8   17     -1.44      0.00
   -5    8   17     -2.42      0.00
   -4    8   17     -3.04      0.00
   -3    8   17     -1.38      0.00
   -2    8   17     -0.27      0.00
   -1    8   17      0.13      0.00
    0    8   17      2.97      0.00
    1    8   17      2.84      0.00
    2    8   17      4.97      0.00
    3    8   17      3.65      0.00
    4    8   17      3.00      0.00
    5    8   17      4.01      0.00
    6    8   17      2.64      0.00
    7    8   17     -1.02      0.00
    8    8   17     -1.23      0.00
    9    8   17     -0.51      0.00
   10    8   17     -2.51      0.00
   11    8   17     -0.59      0.00
   12    8   17      0.66      0.00
   13    8   17     -1.61      0.00
   14    8   17     -0.35      0.00
   15    8   17      0.73      0.00
   16    8   17     -0.72      0.00
   17    8   17     -4.42      0.00
   18    8   17     -3.17      0.00
   -9    9   17      0.87      0.00
   -8    9   17      3.60      0.00
   -7    9   17      2.79      0.00
   -6    9   17      4.59      0.00
   -5    9   17      2.08      0.00
   -4    9   17      0.78      0.00
   -3    9   17      2.36      0.00
   -2    9   17      2.05      0.00
   -1    9   17      0.27      0.00
    0    9   17      1.77      0.00
    1    9   17      0.54      0.00
    2    9   17      0.99      0.00
    3    9   17     -1.08      0.00
    4    9   17     -0.09      0.00
    5    9   17      0.14      0.00
    6    9   17     -1.58      0.00
    7    9   17     -1.08      0.00
    8    9   17     -2.18      0.00
    9    9   17     -2.14      0.00
   10    9   17     -2.89      0.00
   11    9   17      0.66      0.00
   12    9   17      3.22      0.00
   13    9   17      0.07      0.00
   14    9   17     -1.40      0.00
   15    9   17      0.91      0.00
   16    9   17      6.24      0.00
   17    9   17      6.50      0.00
   18    9   17      3.32      0.00
   -8   10   17     -1.13      0.00
   -7   10   17     -4.31      0.00
   -6   10   17     -2.79      0.00
   -5   10   17     -0.39      0.00
   -4   10   17     -1.20      0.00
   -3   10   17     -1.45      0.00
   -2   10   17     -2.45      0.00
   -1   10   17     -4.73      0.00
    0   10   17     -3.44      0.00
    1   10   17     -3.27      0.00
    2   10   17     -3.32      0.00
    3   10   17     -4.37      0.00
    4   10   17     -3.33      0.00
    5   10   17     -0.59      0.00
    6   10   17     -0.10      0.00
    7   10   17      0.36      0.00
    8   10   17      0.36      0.00
    9   10   17      0.72      0.00
   10   10   17      0.81      0.00
   11   10   17      1.93      0.00
   12   10   17      3.04      0.00
   13   10   17      2.00      0.00
   14   10   17      1.56      0.00
   15   10   17     -1.55      0.00
   16   10   17     -0.99      0.00
   17   10   17      0.52      0.00
   18   10   17      0.24      0.00
   -7   11   17      0.65      0.00
   -6   11   17      0.14      0.00
   -5   11   17      4.46      0.00
   -4   11   17      3.18      0.00
   -3   11   17      2.12      0.00
   -2   11   17      1.50      0.00
   -1   11   17      0.34      0.00
    0   11   17      1.56      0.00
    1   11   17      0.14      0.00
    2   11   17     -0.60      0.00
    3   11   17      1.14      0.00
    4   11   17     -0.22      0.00
    5   11   17      0.56      0.00
    6   11   17      0.29      0.00
    7   11   17     -2.23      0.00
    8   11   17     -1.78      0.00
    9   11   17     -2.96      0.00
   10   11   17     -0.51      0.00
   11   11   17      2.74      0.00
   12   11   17      3.86      0.00
   13   11   17     -0.45      0.00
   14   11   17      0.93      0.00
   15   11   17      1.63      0.00
   16   11   17      2.03      0.00
   17   11   17      0.60      0.00
   18   11   17     -3.02      0.00
   -6   12   17     -4.55      0.00
   -5   12   17     -1.42      0.00
   -4   12   17     -1.95      0.00
   -3   12   17     -0.88      0.00
   -2   12   17      0.81      0.00
   -1   12   17     -0.45      0.00
    0   12   17      0.62      0.00
    1   12   17     -1.09      0.00
    2   12   17     -1.27      0.00
    3   12   17      2.13      0.00
    4   12   17      0.50      0.00
    5   12   17     -0.29      0.00
    6   12   17      0.66      0.00
    7   12   17     -1.32      0.00
    8   12   17     -0.68      0.00
    9   12   17     -4.35      0.00
   10   12   17     -3.66      0.00
   11   12   17     -0.71      0.00
   12   12   17      3.24      0.00
   13   12   17      0.44      0.00
   14   12   17     -0.65      0.00
   15   12   17     -1.54      0.00
   16   12   17     -0.38      0.00
   17   12   17      0.90      0.00
   18   12   17     -2.48      0.00
   -5   13   17      2.22      0.00
   -4   13   17      0.16      0.00
   -3   13   17     -0.48      0.00
   -2   13   17      2.12      0.00
   -1   13   17     -0.99      0.00
    0   13   17      0.44      0.00
    1   13   17     -0.52      0.00
    2   13   17     -1.21      0.00
    3   13   17      0.86      0.00
    4   13   17      1.84      0.00
    5   13   17      1.89      0.00
    6   13   17      3.86      0.00
    7   13   17      2.70      0.00
    8   13   17      2.94      0.00
    9   13   17      0.10      0.00
   10   13   17      1.14      0.00
   11   13   17      3.12      0.00
   12   13   17      3.12      0.00
   13   13   17      1.98      0.00
   14   13   17      1.69      0.00
   15   13   17      0.58      0.00
   16   13   17     -2.58      0.00
   17   13   17     -3.12      0.00
   18   13   17     -3.10      0.00
   -4   14   17     -2.07      0.00
   -3   14   17     -1.24      0.00
   -2   14   17      4.59      0.00
   -1   14   17      1.59      0.00
    0   14   17      0.58      0.00
    1   14   17     -1.14      0.00
    2   14   17     -1.41      0.00
    3   14   17     -1.80      0.00
    4   14   17     -1.43      0.00
    5   14   17     -1.15      0.00
    6   14   17      1.64      0.00
    7   14   17      2.17      0.00
    8   14   17      2.97      0.00
    9   14   17     -0.48      0.00
   10   14   17     -2.62      0.00
   11   14   17      1.43      0.00
   12   14   17      1.98      0.00
   13   14   17      2.09      0.00
   14   14   17      1.23      0.00
   15   14   17      2.09      0.00
   16   14   17     -0.98      0.00
   17   14   17     -4.00      0.00
   18   14   17     -6.12      0.00
   -3   15   17     -1.50      0.00
   -2   15   17      1.72      0.00
   -1   15   17      1.43      0.00
    0   15   17     -0.26      0.00
    1   15   17     -0.34      0.00
    2   15   17     -0.57      0.00
    3   15   17     -2.27      0.00
    4   15   17     -3.07      0.00
    5   15   17     -2.65      0.00
    6   15   17      0.58      0.00
    7   15   17      2.79      0.00
    8   15   17      4.91      0.00
    9   15   17      4.36      0.00
   10   15   17      0.19      0.00
   11   15   17      1.51      0.00
   12   15   17      0.74      0.00
   13   15   17      0.60      0.00
   14   15   17      0.26      0.00
   15   15   17      0.53      0.00
   16   15   17     -1.28      0.00
   17   15   17     -0.44      0.00
   18   15   17     -2.67      0.00
   -2   16   17     -1.89      0.00
   -1   16   17     -0.24      0.00
    0   16   17     -3.36      0.00
    1   16   17     -2.19      0.00
    2   16   17     -2.69      0.00
    3   16   17     -0.94      0.00
    4   16   17     -0.11      0.00
    5   16   17     -1.34      0.00
    6   16   17     -0.88      0.00
    7   16   17      0.61      0.00
    8   16   17      0.89      0.00
    9   16   17      2.19      0.00
   10   16   17      0.54      0.00
   11   16   17      1.25      0.00
   12   16   17      0.46      0.00
   13   16   17     -1.31      0.00
   14   16   17      0.18      0.00
   15   16   17      3.11      0.00
   16   16   17      3.39      0.00
   17   16   17      5.86      0.00
   18   16   17      3.13      0.00
   -1   17   17      1.00      0.00
    0   17   17     -1.96      0.00
    1   17   17     -1.78      0.00
    2   17   17     -3.09      0.00
    3   17   17      1.95      0.00
    4   17   17      4.21      0.00
    5   17   17      1.23      0.00
    6   17   17     -1.39      0.00
    7   17   17     -1.28      0.00
    8   17   17     -0.48      0.00
    9   17   17      1.39      0.00
   10   17   17      2.62      0.00
   11   17   17      1.91      0.00
   12   17   17     -0.36      0.00
   13   17   17     -1.14      0.00
   14   17   17      0.65      0.00
   15   17   17      3.62      0.00
   16   17   17      2.22      0.00
   17   17   17      1.69      0.00
    1   18   17     -0.91      0.00
    2   18   17     -4.70      0.00
    3   18   17     -3.83      0.00
    4   18   17     -1.54      0.00
    5   18   17     -0.65      0.00
    6   18   17     -0.69      0.00
    7   18   17     -1.71      0.00
    8   18   17     -0.12      0.00
    9   18   17     -1.62      0.00
   10   18   17      2.52      0.00
   11   18   17      6.01      0.00
   12   18   17      3.33      0.00
   13   18   17      1.61      0.00
   14   18   17     -1.34      0.00
   15   18   17     -1.08      0.00
   16   18   17     -1.89      0.00
   17   18   17     -0.90      0.00
    3   19   17     -0.60      0.00
    4   19   17     -1.86      0.00
    5   19   17     -3.20      0.00
    6   19   17     -2.64      0.00
    7   19   17     -3.66      0.00
    8   19   17      2.70      0.00
    9   19   17      3.23      0.00
   10   19   17      3.82      0.00
   11   19   17      3.20      0.00
   12   19   17     -0.37      0.00
   13   19   17      1.67      0.00
   14   19   17      1.10      0.00
   15   19   17      0.17      0.00
   16   19   17     -0.90      0.00
    5   20   17      2.05      0.00
    6   20   17      2.15      0.00
    7   20   17     -4.24      0.00
    8   20   17     -4.58      0.00
    9   20   17     -0.90      0.00
   10   20   17      3.53      0.00
   11   20   17      6.01      0.00
   12   20   17      1.71      0.00
   13   20   17      1.16      0.00
   14   20   17      2.02      0.00
   -6   -6   18      0.05      0.00
   -5   -6   18     -0.68      0.00
   -4   -6   18      0.51      0.00
   -3   -6   18      0.96      0.00
   -2   -6   18     -0.63      0.00
   -1   -6   18     -0.93      0.00
    0   -6   18      4.24      0.00
    1   -6   18      4.64      0.00
    2   -6   18      2.08      0.00
   -8   -5   18      0.43      0.00
   -7   -5   18     -0.09      0.00
   -6   -5   18      0.18      0.00
   -5   -5   18      2.50      0.00
   -4   -5   18      0.60      0.00
   -3   -5   18     -0.04      0.00
   -2   -5   18     -0.43      0.00
   -1   -5   18     -2.44      0.00
    0   -5   18      0.20      0.00
    1   -5   18      0.09      0.00
    2   -5   18     -1.30      0.00
    3   -5   18     -2.19      0.00
    4   -5   18     -2.03      0.00
    5   -5   18     -3.62      0.00
   -9   -4   18     -2.97      0.00
   -8   -4   18     -2.31      0.00
   -7   -4   18     -0.18      0.00
   -6   -4   18     -0.75      0.00
   -5   -4   18      1.24      0.00
   -4   -4   18      0.44      0.00
   -3   -4   18     -0.47      0.00
   -2   -4   18      1.07      0.00
   -1   -4   18      2.03      0.00
    0   -4   18      3.46      0.00
    1   -4   18      4.45      0.00
    2   -4   18      1.84      0.00
    3   -4   18      0.67      0.00
    4   -4   18      2.51      0.00
    5   -4   18      0.38      0.00
    6   -4   18      1.00      0.00
    7   -4   18      1.77      0.00
   -9   -3   18     -1.89      0.00
   -8   -3   18     -6.03      0.00
   -7   -3   18     -1.51      0.00
   -6   -3   18      1.48      0.00
   -5   -3   18      3.51      0.00
   -4   -3   18      3.07      0.00
   -3   -3   18     -0.34      0.00
   -2   -3   18     -0.50      0.00
   -1   -3   18     -0.20      0.00
    0   -3   18     -0.79      0.00
    1   -3   18      3.23      0.00
    2   -3   18      3.25      0.00
    3   -3   18      1.45      0.00
    4   -3   18      4.09      0.00
    5   -3   18      3.01      0.00
    6   -3   18      2.84      0.00
    7   -3   18      4.18      0.00
    8   -3   18      2.94      0.00
  -10   -2   18      2.02      0.00
   -9   -2   18      4.00      0.00
   -8   -2   18     -2.93      0.00
   -7   -2   18     -1.89      0.00
   -6   -2   18      2.16      0.00
   -5   -2   18      3.22      0.00
   -4   -2   18      2.55      0.00
   -3   -2   18     -0.38      0.00
   -2   -2   18     -2.03      0.00
   -1   -2   18      1.11      0.00
    0   -2   18      2.72      0.00
    1   -2   18      4.54      0.00
    2   -2   18      3.48      0.00
    3   -2   18      0.31      0.00
    4   -2   18      4.60      0.00
    5   -2   18      2.71      0.00
    6   -2   18      0.05      0.00
    7   -2   18      1.06      0.00
    8   -2   18      1.50      0.00
    9   -2   18      0.34      0.00
  -10   -1   18     -5.34      0.00
   -9   -1   18     -0.16      0.00
   -8   -1   18     -1.84      0.00
   -7   -1   18     -4.16      0.00
   -6   -1   18      0.12      0.00
   -5   -1   18     -3.15      0.00
   -4   -1   18     -3.73      0.00
   -3   -1   18      0.44      0.00
   -2   -1   18     -1.01      0.00
   -1   -1   18     -0.26      0.00
    0   -1   18      0.76      0.00
    1   -1   18      3.40      0.00
    2   -1   18      4.35      0.00
    3   -1   18     -0.40      0.00
    4   -1   18      3.46      0.00
    5   -1   18      2.85      0.00
    6   -1   18      0.62      0.00
    7   -1   18     -1.54      0.00
    8   -1   18     -1.45      0.00
    9   -1   18      1.50      0.00
   10   -1   18      4.51      0.00
   11   -1   18      3.60      0.00
  -10    0   18     -3.57      0.00
   -9    0   18      1.06      0.00
   -8    0   18      1.22      0.00
   -7    0   18     -3.58      0.00
   -6    0   18      2.37      0.00
   -5    0   18     -0.70      0.00
   -4    0   18     -3.79      0.00
   -3    0   18     -2.47      0.00
   -2    0   18     -2.34      0.00
   -1    0   18     -0.41      0.00
    0    0   18     -1.56      0.00
    1    0   18     -3.79      0.00
    2    0   18     -2.75      0.00
    3    0   18     -3.65      0.00
    4    0   18     -1.24      0.00
    5    0   18     -1.57      0.00
    6    0   18     -0.92      0.00
    7    0   18     -1.67      0.00
    8    0   18     -3.95      0.00
    9    0   18     -1.97      0.00
   10    0   18      1.33      0.00
   11    0   18      1.37      0.00
   12    0   18     -1.74      0.00
  -10    1   18     -2.55      0.00
   -9    1   18     -1.29      0.00
   -8    1   18     -2.07      0.00
   -7    1   18     -6.19      0.00
   -6    1   18     -4.51      0.00
   -5    1   18     -3.00      0.00
   -4    1   18      0.77      0.00
   -3    1   18      0.79      0.00
   -2    1   18     -1.41      0.00
   -1    1   18     -0.42      0.00
    0    1   18      2.64      0.00
    1    1   18      0.34      0.00
    2    1   18     -0.11      0.00
    3    1   18      0.08      0.00
    4    1   18      1.31      0.00
    5    1   18      0.20      0.00
    6    1   18     -1.59      0.00
    7    1   18      0.65      0.00
    8    1   18     -0.20      0.00
    9    1   18     -0.17      0.00
   10    1   18      1.84      0.00
   11    1   18      2.04      0.00
   12    1   18      1.69      0.00
   13    1   18      2.71      0.00
  -10    2   18      0.12      0.00
   -9    2   18      0.29      0.00
   -8    2   18      0.03      0.00
   -7    2   18      0.02      0.00
   -6    2   18      0.48      0.00
   -5    2   18     -0.37      0.00
   -4    2   18      1.36      0.00
   -3    2   18      1.68      0.00
   -2    2   18     -0.14      0.00
   -1    2   18     -2.17      0.00
    0    2   18     -2.34      0.00
    1    2   18     -3.66      0.00
    2    2   18     -1.39      0.00
    3    2   18     -1.01      0.00
    4    2   18      0.20      0.00
    5    2   18      0.67      0.00
    6    2   18     -1.45      0.00
    7    2   18     -0.31      0.00
    8    2   18     -0.08      0.00
    9    2   18      1.23      0.00
   10    2   18      2.20      0.00
   11    2   18     -2.11      0.00
   12    2   18     -3.24      0.00
   13    2   18      0.02      0.00
  -10    3   18     -3.83      0.00
   -9    3   18      1.33      0.00
   -8    3   18      4.06      0.00
   -7    3   18      0.39      0.00
   -6    3   18      2.74      0.00
   -5    3   18      0.27      0.00
   -4    3   18      1.10      0.00
   -3    3   18      1.84      0.00
   -2    3   18      1.71      0.00
   -1    3   18      2.94      0.00
    0    3   18      0.30      0.00
    1    3   18     -2.37      0.00
    2    3   18     -2.63      0.00
    3    3   18     -0.66      0.00
    4    3   18      0.36      0.00
    5    3   18     -0.68      0.00
    6    3   18      0.80      0.00
    7    3   18      0.45      0.00
    8    3   18     -1.42      0.00
    9    3   18     -2.93      0.00
   10    3   18     -0.53      0.00
   11    3   18      1.04      0.00
   12    3   18     -0.16      0.00
   13    3   18     -1.55      0.00
   14    3   18     -2.96      0.00
  -10    4   18     -5.62      0.00
   -9    4   18     -0.20      0.00
   -8    4   18      2.53      0.00
   -7    4   18     -4.53      0.00
   -6    4   18     -0.24      0.00
   -5    4   18     -5.81      0.00
   -4    4   18     -4.80      0.00
   -3    4   18     -1.72      0.00
   -2    4   18     -2.05      0.00
   -1    4   18     -1.72      0.00
    0    4   18     -0.68      0.00
    1    4   18      3.63      0.00
    2    4   18      0.99      0.00
    3    4   18      2.06      0.00
    4    4   18      0.25      0.00
    5    4   18     -2.31      0.00
    6    4   18     -0.45      0.00
    7    4   18     -1.59      0.00
    8    4   18      0.93      0.00
    9    4   18      0.55      0.00
   10    4   18     -0.50      0.00
   11    4   18      2.20      0.00
   12    4   18      3.00      0.00
   13    4   18      3.29      0.00
   14    4   18     -0.94      0.00
   15    4   18     -4.36      0.00
  -10    5   18     -2.80      0.00
   -9    5   18      0.59      0.00
   -8    5   18      1.20      0.00
   -7    5   18     -5.51      0.00
   -6    5   18      0.84      0.00
   -5    5   18     -1.38      0.00
   -4    5   18     -3.46      0.00
   -3    5   18      0.28      0.00
   -2    5   18      0.95      0.00
   -1    5   18     -1.38      0.00
    0    5   18     -2.04      0.00
    1    5   18      1.49      0.00
    2    5   18     -0.64      0.00
    3    5   18      1.37      0.00
    4    5   18      0.04      0.00
    5    5   18      0.55      0.00
    6    5   18      3.65      0.00
    7    5   18      3.44      0.00
    8    5   18      3.10      0.00
    9    5   18      1.01      0.00
   10    5   18      0.61      0.00
   11    5   18      2.03      0.00
   12    5   18     -0.41      0.00
   13    5   18      1.97      0.00
   14    5   18      1.57      0.00
   15    5   18      1.84      0.00
   -9    6   18      0.42      0.00
   -8    6   18      2.61      0.00
   -7    6   18     -1.51      0.00
   -6    6   18      0.82      0.00
   -5    6   18      2.16      0.00
   -4    6   18     -1.63      0.00
   -3    6   18      2.03      0.00
   -2    6   18     -0.17      0.00
   -1    6   18     -3.00      0.00
    0    6   18     -3.49      0.00
    1    6   18     -0.94      0.00
    2    6   18     -1.97      0.00
    3    6   18     -2.03      0.00
    4    6   18     -0.18      0.00
    5    6   18     -0.14      0.00
    6    6   18     -1.35      0.00
    7    6   18      1.00      0.00
    8    6   18      2.12      0.00
    9    6   18     -0.90      0.00
   10    6   18      0.13      0.00
   11    6   18      5.44      0.00
   12    6   18      4.46      0.00
   13    6   18      3.86      0.00
   14    6   18      1.56      0.00
   15    6   18      1.52      0.00
   16    6   18     -0.32      0.00
   -9    7   18     -1.15      0.00
   -8    7   18      1.77      0.00
   -7    7   18      0.75      0.00
   -6    7   18     -1.20      0.00
   -5    7   18     -1.39      0.00
   -4    7   18     -3.63      0.00
   -3    7   18      2.91      0.00
   -2    7   18      3.55      0.00
   -1    7   18      4.11      0.00
    0    7   18      1.24      0.00
    1    7   18      1.39      0.00
    2    7   18      0.19      0.00
    3    7   18     -3.54      0.00
    4    7   18     -1.48      0.00
    5    7   18     -0.80      0.00
    6    7   18     -0.40      0.00
    7    7   18      2.05      0.00
    8    7   18      4.74      0.00
    9    7   18      2.41      0.00
   10    7   18      2.32      0.00
   11    7   18      6.57      0.00
   12    7   18      3.84      0.00
   13    7   18      1.34      0.00
   14    7   18      2.49      0.00
   15    7   18      2.96      0.00
   16    7   18      1.38      0.00
   -8    8   18      0.99      0.00
   -7    8   18      1.05      0.00
   -6    8   18     -0.38      0.00
   -5    8   18     -1.32      0.00
   -4    8   18     -1.12      0.00
   -3    8   18      0.22      0.00
   -2    8   18     -2.70      0.00
   -1    8   18     -2.31      0.00
    0    8   18     -3.41      0.00
    1    8   18     -3.95      0.00
    2    8   18     -4.71      0.00
    3    8   18     -4.22      0.00
    4    8   18      0.01      0.00
    5    8   18      0.58      0.00
    6    8   18      0.61      0.00
    7    8   18      0.26      0.00
    8    8   18      2.02      0.00
    9    8   18     -1.26      0.00
   10    8   18     -4.44      0.00
   11    8   18     -1.66      0.00
   12    8   18     -3.23      0.00
   13    8   18     -4.61      0.00
   14    8   18      0.14      0.00
   15    8   18      4.03      0.00
   16    8   18      6.01      0.00
   17    8   18      2.86      0.00
   -8    9   18     -0.46      0.00
   -7    9   18     -0.31      0.00
   -6    9   18      0.01      0.00
   -5    9   18     -1.57      0.00
   -4    9   18      0.99      0.00
   -3    9   18      3.23      0.00
   -2    9   18      2.59      0.00
   -1    9   18      3.08      0.00
    0    9   18      6.19      0.00
    1    9   18      6.07      0.00
    2    9   18      3.79      0.00
    3    9   18      1.23      0.00
    4    9   18      1.22      0.00
    5    9   18      2.37      0.00
    6    9   18      1.65      0.00
    7    9   18      0.03      0.00
    8    9   18     -0.13      0.00
    9    9   18     -0.03      0.00
   10    9   18     -0.12      0.00
   11    9   18      2.33      0.00
   12    9   18      1.34      0.00
   13    9   18     -0.35      0.00
   14    9   18      0.65      0.00
   15    9   18     -0.04      0.00
   16    9   18      1.04      0.00
   17    9   18      1.11      0.00
   -7   10   18     -0.10      0.00
   -6   10   18      0.73      0.00
   -5   10   18     -1.72      0.00
   -4   10   18     -1.83      0.00
   -3   10   18      1.06      0.00
   -2   10   18      2.11      0.00
   -1   10   18      1.18      0.00
    0   10   18      2.72      0.00
    1   10   18      1.19      0.00
    2   10   18      2.40      0.00
    3   10   18      1.42      0.00
    4   10   18     -0.44      0.00
    5   10   18     -0.47      0.00
    6   10   18     -2.81      0.00
    7   10   18     -1.40      0.00
    8   10   18     -1.48      0.00
    9   10   18     -1.29      0.00
   10   10   18     -0.99      0.00
   11   10   18     -0.76      0.00
   12   10   18     -2.62      0.00
   13   10   18     -2.78      0.00
   14   10   18      0.80      0.00
   15   10   18      1.57      0.00
   16   10   18      2.44      0.00
   17   10   18     -0.04      0.00
   -6   11   18      0.21      0.00
   -5   11   18      0.37      0.00
   -4   11   18     -3.81      0.00
   -3   11   18     -3.35      0.00
   -2   11   18     -2.57      0.00
   -1   11   18     -1.86      0.00
    0   11   18     -0.46      0.00
    1   11   18     -2.89      0.00
    2   11   18     -0.90      0.00
    3   11   18     -0.38      0.00
    4   11   18     -1.12      0.00
    5   11   18     -0.18      0.00
    6   11   18     -2.87      0.00
    7   11   18     -2.97      0.00
    8   11   18     -2.62      0.00
    9   11   18     -0.88      0.00
   10   11   18      3.57      0.00
   11   11   18      4.10      0.00
   12   11   18      0.95      0.00
   13   11   18     -1.97      0.00
   14   11   18     -0.67      0.00
   15   11   18     -1.35      0.00
   16   11   18      1.99      0.00
   17   11   18      0.94      0.00
   -5   12   18      0.76      0.00
   -4   12   18     -3.05      0.00
   -3   12   18     -0.99      0.00
   -2   12   18     -0.12      0.00
   -1   12   18      0.86      0.00
    0   12   18      1.92      0.00
    1   12   18     -0.78      0.00
    2   12   18      0.79      0.00
    3   12   18      2.37      0.00
    4   12   18      0.72      0.00
    5   12   18      0.67      0.00
    6   12   18      0.46      0.00
    7   12   18     -1.01      0.00
    8   12   18     -1.77      0.00
    9   12   18     -4.58      0.00
   10   12   18     -0.67      0.00
   11   12   18      0.63      0.00
   12   12   18      0.18      0.00
   13   12   18     -1.77      0.00
   14   12   18      0.80      0.00
   15   12   18     -0.46      0.00
   16   12   18      1.51      0.00
   17   12   18      1.95      0.00
   18   12   18     -0.47      0.00
   -5   13   18      1.06      0.00
   -4   13   18     -2.28      0.00
   -3   13   18      0.59      0.00
   -2   13   18      1.31      0.00
   -1   13   18      0.21      0.00
    0   13   18      0.16      0.00
    1   13   18     -1.66      0.00
    2   13   18     -0.39      0.00
    3   13   18     -0.21      0.00
    4   13   18     -3.75      0.00
    5   13   18     -5.57      0.00
    6   13   18     -3.79      0.00
    7   13   18     -3.02      0.00
    8   13   18     -0.03      0.00
    9   13   18     -3.92      0.00
   10   13   18     -2.22      0.00
   11   13   18     -1.68      0.00
   12   13   18     -1.08      0.00
   13   13   18     -2.17      0.00
   14   13   18      2.34      0.00
   15   13   18      2.35      0.00
   16   13   18     -0.32      0.00
   17   13   18      0.68      0.00
   18   13   18      0.70      0.00
   -4   14   18     -2.10      0.00
   -3   14   18     -1.68      0.00
   -2   14   18      0.45      0.00
   -1   14   18      0.80      0.00
    0   14   18      3.09      0.00
    1   14   18      1.54      0.00
    2   14   18      0.44      0.00
    3   14   18     -0.18      0.00
    4   14   18     -0.51      0.00
    5   14   18     -0.61      0.00
    6   14   18     -0.54      0.00
    7   14   18     -2.20      0.00
    8   14   18      1.08      0.00
    9   14   18     -0.17      0.00
   10   14   18      0.94      0.00
   11   14   18      0.31      0.00
   12   14   18     -1.23      0.00
   13   14   18     -2.95      0.00
   14   14   18     -0.22      0.00
   15   14   18      2.41      0.00
   16   14   18      0.59      0.00
   17   14   18      0.36      0.00
   -2   15   18     -0.56      0.00
   -1   15   18     -3.11      0.00
    0   15   18      0.15      0.00
    1   15   18      1.80      0.00
    2   15   18      2.22      0.00
    3   15   18      2.08      0.00
    4   15   18      2.01      0.00
    5   15   18      2.59      0.00
    6   15   18      2.86      0.00
    7   15   18     -0.91      0.00
    8   15   18     -2.81      0.00
    9   15   18     -4.64      0.00
   10   15   18     -3.76      0.00
   11   15   18     -1.56      0.00
   12   15   18     -1.10      0.00
   13   15   18      0.28      0.00
   14   15   18      0.39      0.00
   15   15   18      1.91      0.00
   16   15   18      3.41      0.00
   17   15   18      3.73      0.00
   -1   16   18     -1.56      0.00
    0   16   18     -1.24      0.00
    1   16   18     -1.10      0.00
    2   16   18     -0.36      0.00
    3   16   18      2.26      0.00
    4   16   18      2.69      0.00
    5   16   18      2.26      0.00
    6   16   18      3.02      0.00
    7   16   18      2.53      0.00
    8   16   18      1.90      0.00
    9   16   18      1.58      0.00
   10   16   18     -0.48      0.00
   11   16   18     -3.25      0.00
   12   16   18     -6.42      0.00
   13   16   18     -3.80      0.00
   14   16   18     -2.11      0.00
   15   16   18     -2.23      0.00
   16   16   18     -1.11      0.00
   17   16   18      2.75      0.00
    0   17   18      2.17      0.00
    1   17   18      1.89      0.00
    2   17   18      0.19      0.00
    3   17   18      1.90      0.00
    4   17   18      1.92      0.00
    5   17   18     -0.22      0.00
    6   17   18     -2.35      0.00
    7   17   18     -2.19      0.00
    8   17   18     -1.56      0.00
    9   17   18      1.31      0.00
   10   17   18      3.54      0.00
   11   17   18      0.20      0.00
   12   17   18     -5.25      0.00
   13   17   18     -5.14      0.00
   14   17   18     -1.46      0.00
   15   17   18     -0.32      0.00
   16   17   18     -2.44      0.00
    2   18   18      2.58      0.00
    3   18   18      5.23      0.00
    4   18   18      5.83      0.00
    5   18   18      4.69      0.00
    6   18   18      0.68      0.00
    7   18   18     -1.53      0.00
    8   18   18     -1.22      0.00
    9   18   18      1.98      0.00
   10   18   18      7.69      0.00
   11   18   18      6.54      0.00
   12   18   18      2.69      0.00
   13   18   18     -0.09      0.00
   14   18   18      0.14      0.00
   15   18   18      1.48      0.00
   16   18   18     -1.38      0.00
    4   19   18     -5.71      0.00
    5   19   18     -3.60      0.00
    6   19   18     -0.71      0.00
    7   19   18     -1.79      0.00
    8   19   18     -2.33      0.00
    9   19   18     -3.96      0.00
   10   19   18     -0.67      0.00
   11   19   18      0.11      0.00
   12   19   18      0.82      0.00
   13   19   18      1.99      0.00
   14   19   18     -1.04      0.00
    7   20   18      1.43      0.00
    8   20   18      2.97      0.00
    9   20   18     -1.20      0.00
   10   20   18     -1.68      0.00
   11   20   18     -2.58      0.00
   12   20   18     -2.27      0.00
   -5   -5   19      4.71      0.00
   -4   -5   19      1.95      0.00
   -3   -5   19     -1.63      0.00
   -2   -5   19     -4.04      0.00
   -1   -5   19     -2.50      0.00
    0   -5   19      0.54      0.00
    1   -5   19      0.54      0.00
    2   -5   19      0.74      0.00
   -6   -4   19      0.33      0.00
   -5   -4   19      3.71      0.00
   -4   -4   19      0.56      0.00
   -3   -4   19     -2.83      0.00
   -2   -4   19     -5.42      0.00
   -1   -4   19     -7.13      0.00
    0   -4   19     -3.00      0.00
    1   -4   19     -0.93      0.00
    2   -4   19     -1.40      0.00
    3   -4   19     -0.61      0.00
    4   -4   19     -1.17      0.00
   -7   -3   19      4.06      0.00
   -6   -3   19      1.94      0.00
   -5   -3   19      3.01      0.00
   -4   -3   19     -0.33      0.00
   -3   -3   19     -0.09      0.00
   -2   -3   19      0.84      0.00
   -1   -3   19     -0.56      0.00
    0   -3   19      0.21      0.00
    1   -3   19      1.89      0.00
    2   -3   19      0.02      0.00
    3   -3   19      2.79      0.00
    4   -3   19      5.35      0.00
    5   -3   19      2.93      0.00
    6   -3   19      2.97      0.00
   -8   -2   19     -1.37      0.00
   -7   -2   19     -0.26      0.00
   -6   -2   19     -2.83      0.00
   -5   -2   19     -3.82      0.00
   -4   -2   19     -1.14      0.00
   -3   -2   19      0.72      0.00
   -2   -2   19      1.36      0.00
   -1   -2   19      0.92      0.00
    0   -2   19     -0.74      0.00
    1   -2   19      2.56      0.00
    2   -2   19      0.08      0.00
    3   -2   19     -0.11      0.00
    4   -2   19      2.46      0.00
    5   -2   19      0.73      0.00
    6   -2   19      1.23      0.00
    7   -2   19     -0.84      0.00
    8   -2   19     -3.03      0.00
   -9   -1   19      4.68      0.00
   -8   -1   19     -0.01      0.00
   -7   -1   19      5.20      0.00
   -6   -1   19      4.49      0.00
   -5   -1   19     -3.66      0.00
   -4   -1   19     -1.42      0.00
   -3   -1   19      0.23      0.00
   -2   -1   19      1.61      0.00
   -1   -1   19      2.48      0.00
    0   -1   19     -1.84      0.00
    1   -1   19     -1.85      0.00
    2   -1   19     -2.11      0.00
    3   -1   19     -1.97      0.00
    4   -1   19      0.07      0.00
    5   -1   19     -3.37      0.00
    6   -1   19     -4.15      0.00
    7   -1   19     -4.91      0.00
    8   -1   19     -5.11      0.00
    9   -1   19     -4.57      0.00
   -9    0   19      3.98      0.00
   -8    0   19     -1.98      0.00
   -7    0   19      0.40      0.00
   -6    0   19      3.57      0.00
   -5    0   19     -1.12      0.00
   -4    0   19      0.21      0.00
   -3    0   19     -0.16      0.00
   -2    0   19     -2.52      0.00
   -1    0   19     -0.10      0.00
    0    0   19     -0.44      0.00
    1    0   19     -1.22      0.00
    2    0   19     -0.50      0.00
    3    0   19     -2.82      0.00
    4    0   19     -0.94      0.00
    5    0   19     -2.54      0.00
    6    0   19     -0.64      0.00
    7    0   19      0.58      0.00
    8    0   19      1.09      0.00
    9    0   19      4.20      0.00
   10    0   19      5.56      0.00
   -9    1   19      2.19      0.00
   -8    1   19      0.61      0.00
   -7    1   19     -1.41      0.00
   -6    1   19      1.20      0.00
   -5    1   19     -0.90      0.00
   -4    1   19      0.52      0.00
   -3    1   19      1.88      0.00
   -2    1   19     -1.72      0.00
   -1    1   19     -1.44      0.00
    0    1   19     -3.36      0.00
    1    1   19     -3.05      0.00
    2    1   19      0.93      0.00
    3    1   19      0.88      0.00
    4    1   19      2.18      0.00
    5    1   19     -1.81      0.00
    6    1   19     -1.14      0.00
    7    1   19     -0.32      0.00
    8    1   19     -0.98      0.00
    9    1   19      2.09      0.00
   10    1   19      2.04      0.00
   11    1   19      0.20      0.00
   -9    2   19      3.01      0.00
   -8    2   19      3.70      0.00
   -7    2   19      2.41      0.00
   -6    2   19      5.79      0.00
   -5    2   19      4.11      0.00
   -4    2   19      3.87      0.00
   -3    2   19      1.33      0.00
   -2    2   19      0.38      0.00
   -1    2   19      2.18      0.00
    0    2   19      0.20      0.00
    1    2   19     -0.01      0.00
    2    2   19      2.29      0.00
    3    2   19      4.59      0.00
    4    2   19      5.72      0.00
    5    2   19      3.66      0.00
    6    2   19      2.79      0.00
    7    2   19      2.31      0.00
    8    2   19      2.74      0.00
    9    2   19      3.87      0.00
   10    2   19      4.30      0.00
   11    2   19      3.59      0.00
   12    2   19      2.79      0.00
   -9    3   19      3.33      0.00
   -8    3   19      1.16      0.00
   -7    3   19      0.68      0.00
   -6    3   19      0.68      0.00
   -5    3   19     -3.34      0.00
   -4    3   19     -1.17      0.00
   -3    3   19     -3.52      0.00
   -2    3   19     -0.94      0.00
   -1    3   19      1.50      0.00
    0    3   19      2.93      0.00
    1    3   19      2.98      0.00
    2    3   19      3.21      0.00
    3    3   19      3.20      0.00
    4    3   19      0.72      0.00
    5    3   19      1.88      0.00
    6    3   19     -0.52      0.00
    7    3   19     -1.63      0.00
    8    3   19      1.47      0.00
    9    3   19      0.39      0.00
   10    3   19      1.89      0.00
   11    3   19      1.98      0.00
   12    3   19      2.82      0.00
   13    3   19      2.34      0.00
   -9    4   19      3.18      0.00
   -8    4   19     -0.50      0.00
   -7    4   19      1.30      0.00
   -6    4   19      5.00      0.00
   -5    4   19     -1.59      0.00
   -4    4   19     -1.91      0.00
   -3    4   19     -3.10      0.00
   -2    4   19     -1.23      0.00
   -1    4   19     -0.83      0.00
    0    4   19     -0.82      0.00
    1    4   19     -2.91      0.00
    2    4   19     -1.99      0.00
    3    4   19     -0.80      0.00
    4    4   19     -1.72      0.00
    5    4   19      3.33      0.00
    6    4   19      4.18      0.00
    7    4   19      1.79      0.00
    8    4   19      1.05      0.00
    9    4   19     -2.26      0.00
   10    4   19     -0.88      0.00
   11    4   19      0.52      0.00
   12    4   19      2.70      0.00
   13    4   19      2.30      0.00
   14    4   19     -0.56      0.00
   -8    5   19     -3.41      0.00
   -7    5   19     -5.79      0.00
   -6    5   19      3.15      0.00
   -5    5   19     -1.57      0.00
   -4    5   19     -2.06      0.00
   -3    5   19     -1.50      0.00
   -2    5   19     -3.79      0.00
   -1    5   19     -2.64      0.00
    0    5   19      0.02      0.00
    1    5   19      0.35      0.00
    2    5   19     -3.20      0.00
    3    5   19     -3.54      0.00
    4    5   19     -4.12      0.00
    5    5   19     -3.16      0.00
    6    5   19      0.39      0.00
    7    5   19      1.90      0.00
    8    5   19      2.65      0.00
    9    5   19      0.60      0.00
   10    5   19     -0.39      0.00
   11    5   19      0.69      0.00
   12    5   19     -0.30      0.00
   13    5   19     -1.24      0.00
   14    5   19     -2.74      0.00
   -8    6   19      1.34      0.00
   -7    6   19     -2.30      0.00
   -6    6   19      5.66      0.00
   -5    6   19      1.90      0.00
   -4    6   19      1.62      0.00
   -3    6   19      5.08      0.00
   -2    6   19      1.80      0.00
   -1    6   19     -1.26      0.00
    0    6   19     -3.10      0.00
    1    6   19     -0.29      0.00
    2    6   19     -4.02      0.00
    3    6   19     -2.26      0.00
    4    6   19     -0.56      0.00
    5    6   19     -0.79      0.00
    6    6   19      1.29      0.00
    7    6   19      1.25      0.00
    8    6   19      0.55      0.00
    9    6   19     -2.07      0.00
   10    6   19     -2.04      0.00
   11    6   19      0.51      0.00
   12    6   19     -2.29      0.00
   13    6   19     -1.30      0.00
   14    6   19     -1.65      0.00
   15    6   19      0.27      0.00
   -8    7   19     -2.07      0.00
   -7    7   19     -1.64      0.00
   -6    7   19      3.90      0.00
   -5    7   19      4.18      0.00
   -4    7   19      1.44      0.00
   -3    7   19      1.33      0.00
   -2    7   19     -0.75      0.00
   -1    7   19     -0.08      0.00
    0    7   19     -0.80      0.00
    1    7   19      0.34      0.00
    2    7   19     -2.57      0.00
    3    7   19     -1.14      0.00
    4    7   19     -0.91      0.00
    5    7   19     -2.55      0.00
    6    7   19     -2.93      0.00
    7    7   19     -0.28      0.00
    8    7   19      1.10      0.00
    9    7   19     -3.52      0.00
   10    7   19     -3.40      0.00
   11    7   19     -0.13      0.00
   12    7   19     -0.44      0.00
   13    7   19      3.01      0.00
   14    7   19      2.42      0.00
   15    7   19      1.87      0.00
   -7    8   19     -1.33      0.00
   -6    8   19     -3.24      0.00
   -5    8   19     -1.36      0.00
   -4    8   19     -1.32      0.00
   -3    8   19     -0.61      0.00
   -2    8   19     -3.01      0.00
   -1    8   19     -0.25      0.00
    0    8   19      1.55      0.00
    1    8   19      0.94      0.00
    2    8   19     -1.60      0.00
    3    8   19     -2.96      0.00
    4    8   19     -0.55      0.00
    5    8   19      1.14      0.00
    6    8   19      0.23      0.00
    7    8   19      2.26      0.00
    8    8   19      4.84      0.00
    9    8   19      5.31      0.00
   10    8   19      8.03      0.00
   11    8   19      6.70      0.00
   12    8   19      0.03      0.00
   13    8   19     -0.43      0.00
   14    8   19      1.24      0.00
   15    8   19      0.42      0.00
   16    8   19      0.01      0.00
   -7    9   19      0.09      0.00
   -6    9   19     -2.32      0.00
   -5    9   19     -2.11      0.00
   -4    9   19     -0.38      0.00
   -3    9   19      1.05      0.00
   -2    9   19     -1.45      0.00
   -1    9   19     -0.22      0.00
    0    9   19     -0.05      0.00
    1    9   19     -0.85      0.00
    2    9   19     -1.01      0.00
    3    9   19     -2.73      0.00
    4    9   19     -0.42      0.00
    5    9   19      0.28      0.00
    6    9   19      0.42      0.00
    7    9   19      2.12      0.00
    8    9   19      0.97      0.00
    9    9   19      0.33      0.00
   10    9   19      2.58      0.00
   11    9   19      4.37      0.00
   12    9   19     -1.01      0.00
   13    9   19     -4.16      0.00
   14    9   19     -2.75      0.00
   15    9   19     -2.82      0.00
   16    9   19     -1.88      0.00
   -6   10   19      4.19      0.00
   -5   10   19      3.49      0.00
   -4   10   19      3.58      0.00
   -3   10   19      2.49      0.00
   -2   10   19      0.32      0.00
   -1   10   19      1.27      0.00
    0   10   19      1.69      0.00
    1   10   19      1.89      0.00
    2   10   19      2.37      0.00
    3   10   19     -0.15      0.00
    4   10   19     -0.18      0.00
    5   10   19     -0.44      0.00
    6   10   19     -0.89      0.00
    7   10   19      0.98      0.00
    8   10   19      0.21      0.00
    9   10   19      0.81      0.00
   10   10   19      0.34      0.00
   11   10   19      2.05      0.00
   12   10   19      1.97      0.00
   13   10   19      2.30      0.00
   14   10   19      1.48      0.00
   15   10   19     -0.84      0.00
   16   10   19     -0.12      0.00
   -5   11   19     -0.92      0.00
   -4   11   19     -0.51      0.00
   -3   11   19     -0.03      0.00
   -2   11   19     -1.87      0.00
   -1   11   19     -2.45      0.00
    0   11   19     -4.12      0.00
    1   11   19     -5.09      0.00
    2   11   19     -1.66      0.00
    3   11   19     -1.59      0.00
    4   11   19     -2.80      0.00
    5   11   19     -1.42      0.00
    6   11   19     -1.64      0.00
    7   11   19      0.39      0.00
    8   11   19     -0.68      0.00
    9   11   19      0.07      0.00
   10   11   19      0.33      0.00
   11   11   19     -0.86      0.00
   12   11   19     -2.23      0.00
   13   11   19     -1.61      0.00
   14   11   19     -0.03      0.00
   15   11   19     -0.32      0.00
   16   11   19      0.26      0.00
   17   11   19     -3.74      0.00
   -5   12   19      3.84      0.00
   -4   12   19      1.48      0.00
   -3   12   19      2.03      0.00
   -2   12   19     -0.26      0.00
   -1   12   19      0.07      0.00
    0   12   19     -1.01      0.00
    1   12   19     -3.12      0.00
    2   12   19      0.10      0.00
    3   12   19      0.77      0.00
    4   12   19     -0.45      0.00
    5   12   19      1.82      0.00
    6   12   19      0.92      0.00
    7   12   19      1.58      0.00
    8   12   19     -0.18      0.00
    9   12   19     -1.58      0.00
   10   12   19      1.73      0.00
   11   12   19      2.55      0.00
   12   12   19      3.28      0.00
   13   12   19      3.12      0.00
   14   12   19      3.70      0.00
   15   12   19      0.37      0.00
   16   12   19      3.51      0.00
   17   12   19      1.48      0.00
   -4   13   19     -5.06      0.00
   -3   13   19     -2.13      0.00
   -2   13   19     -1.90      0.00
   -1   13   19     -0.49      0.00
    0   13   19     -0.74      0.00
    1   13   19     -2.75      0.00
    2   13   19      0.42      0.00
    3   13   19      2.57      0.00
    4   13   19      2.78      0.00
    5   13   19      3.84      0.00
    6   13   19      2.80      0.00
    7   13   19      2.87      0.00
    8   13   19      1.97      0.00
    9   13   19     -2.18      0.00
   10   13   19     -0.33      0.00
   11   13   19     -1.36      0.00
   12   13   19      0.53      0.00
   13   13   19      3.24      0.00
   14   13   19      7.60      0.00
   15   13   19      2.28      0.00
   16   13   19      1.65      0.00
   17   13   19      1.28      0.00
   -3   14   19      1.81      0.00
   -2   14   19      0.42      0.00
   -1   14   19     -0.25      0.00
    0   14   19      0.06      0.00
    1   14   19     -2.42      0.00
    2   14   19     -1.76      0.00
    3   14   19     -1.87      0.00
    4   14   19     -1.17      0.00
    5   14   19     -0.15      0.00
    6   14   19      0.67      0.00
    7   14   19      0.71      0.00
    8   14   19      0.81      0.00
    9   14   19     -2.71      0.00
   10   14   19     -0.37      0.00
   11   14   19     -0.97      0.00
   12   14   19      0.64      0.00
   13   14   19      1.56      0.00
   14   14   19      5.98      0.00
   15   14   19      5.36      0.00
   16   14   19      3.08      0.00
   17   14   19      1.10      0.00
   -1   15   19      2.38      0.00
    0   15   19      3.32      0.00
    1   15   19     -0.23      0.00
    2   15   19     -1.19      0.00
    3   15   19     -1.78      0.00
    4   15   19     -0.87      0.00
    5   15   19     -1.96      0.00
    6   15   19     -2.49      0.00
    7   15   19     -1.45      0.00
    8   15   19      2.51      0.00
    9   15   19      1.26      0.00
   10   15   19     -0.38      0.00
   11   15   19     -4.70      0.00
   12   15   19     -4.01      0.00
   13   15   19     -2.79      0.00
   14   15   19     -2.51      0.00
   15   15   19     -3.30      0.00
   16   15   19     -3.18      0.00
    0   16   19      3.84      0.00
    1   16   19      3.55      0.00
    2   16   19      3.12      0.00
    3   16   19      3.13      0.00
    4   16   19      2.79      0.00
    5   16   19     -0.25      0.00
    6   16   19     -3.68      0.00
    7   16   19     -4.65      0.00
    8   16   19      0.64      0.00
    9   16   19      5.30      0.00
   10   16   19      5.45      0.00
   11   16   19     -0.86      0.00
   12   16   19     -4.21      0.00
   13   16   19     -2.28      0.00
   14   16   19     -0.85      0.00
   15   16   19     -2.80      0.00
   16   16   19     -3.87      0.00
    1   17   19      3.15      0.00
    2   17   19      2.26      0.00
    3   17   19      3.85      0.00
    4   17   19      4.71      0.00
    5   17   19      3.92      0.00
    6   17   19      0.04      0.00
    7   17   19     -3.94      0.00
    8   17   19     -2.85      0.00
    9   17   19      2.65      0.00
   10   17   19      5.55      0.00
   11   17   19      3.10      0.00
   12   17   19     -0.26      0.00
   13   17   19     -1.25      0.00
   14   17   19     -1.28      0.00
   15   17   19     -3.57      0.00
    3   18   19      0.92      0.00
    4   18   19      0.25      0.00
    5   18   19      2.38      0.00
    6   18   19      0.30      0.00
    7   18   19     -3.74      0.00
    8   18   19     -5.47      0.00
    9   18   19     -2.26      0.00
   10   18   19      0.09      0.00
   11   18   19     -0.73      0.00
   12   18   19     -0.34      0.00
   13   18   19     -0.57      0.00
   14   18   19     -0.70      0.00
    6   19   19      4.35      0.00
    7   19   19      2.95      0.00
    8   19   19     -0.37      0.00
    9   19   19     -1.20      0.00
   10   19   19      0.74      0.00
   11   19   19      0.45      0.00
   12   19   19      6.09      0.00
   13   19   19      9.08      0.00
   -5   -3   20     -1.98      0.00
   -4   -3   20     -3.37      0.00
   -3   -3   20      0.15      0.00
   -2   -3   20      0.89      0.00
   -1   -3   20      0.62      0.00
    0   -3   20      2.46      0.00
    1   -3   20      1.98      0.00
    2   -3   20     -0.51      0.00
    3   -3   20      1.38      0.00
   -6   -2   20     -2.79      0.00
   -5   -2   20     -1.15      0.00
   -4   -2   20     -2.42      0.00
   -3   -2   20     -1.85      0.00
   -2   -2   20     -0.19      0.00
   -1   -2   20     -1.10      0.00
    0   -2   20     -0.14      0.00
    1   -2   20      1.24      0.00
    2   -2   20     -0.50      0.00
    3   -2   20      4.30      0.00
    4   -2   20      4.99      0.00
    5   -2   20      1.52      0.00
    6   -2   20      0.48      0.00
   -7   -1   20      4.95      0.00
   -6   -1   20     -0.25      0.00
   -5   -1   20     -0.33      0.00
   -4   -1   20      0.99      0.00
   -3   -1   20     -2.33      0.00
   -2   -1   20     -4.60      0.00
   -1   -1   20     -4.86      0.00
    0   -1   20     -3.27      0.00
    1   -1   20      2.29      0.00
    2   -1   20     -0.78      0.00
    3   -1   20     -1.60      0.00
    4   -1   20      0.98      0.00
    5   -1   20      0.75      0.00
    6   -1   20     -0.16      0.00
    7   -1   20     -5.14      0.00
   -7    0   20      3.43      0.00
   -6    0   20      2.91      0.00
   -5    0   20     -0.01      0.00
   -4    0   20      4.12      0.00
   -3    0   20     -0.49      0.00
   -2    0   20     -1.22      0.00
   -1    0   20      0.79      0.00
    0    0   20     -3.38      0.00
    1    0   20      0.44      0.00
    2    0   20      2.17      0.00
    3    0   20      1.19      0.00
    4    0   20     -0.77      0.00
    5    0   20     -1.70      0.00
    6    0   20      1.65      0.00
    7    0   20     -3.45      0.00
    8    0   20     -5.16      0.00
    9    0   20     -2.76      0.00
   -7    1   20      1.33      0.00
   -6    1   20      2.94      0.00
   -5    1   20      1.02      0.00
   -4    1   20      7.29      0.00
   -3    1   20      1.62      0.00
   -2    1   20     -1.19      0.00
   -1    1   20      1.89      0.00
    0    1   20      0.02      0.00
    1    1   20     -1.47      0.00
    2    1   20     -2.30      0.00
    3    1   20     -1.78      0.00
    4    1   20     -2.29      0.00
    5    1   20     -3.33      0.00
    6    1   20      0.74      0.00
    7    1   20      3.23      0.00
    8    1   20      4.57      0.00
    9    1   20      3.81      0.00
   10    1   20      1.90      0.00
   -7    2   20     -1.85      0.00
   -6    2   20     -2.63      0.00
   -5    2   20     -4.00      0.00
   -4    2   20      0.70      0.00
   -3    2   20      3.80      0.00
   -2    2   20      5.59      0.00
   -1    2   20      5.04      0.00
    0    2   20      3.14      0.00
    1    2   20      3.04      0.00
    2    2   20      3.74      0.00
    3    2   20      1.66      0.00
    4    2   20      2.29      0.00
    5    2   20      0.72      0.00
    6    2   20     -0.91      0.00
    7    2   20      1.27      0.00
    8    2   20      1.60      0.00
    9    2   20      1.72      0.00
   10    2   20      0.78      0.00
   11    2   20      0.19      0.00
   -7    3   20      2.52      0.00
   -6    3   20      3.29      0.00
   -5    3   20      2.13      0.00
   -4    3   20      0.26      0.00
   -3    3   20      0.86      0.00
   -2    3   20      5.47      0.00
   -1    3   20      6.91      0.00
    0    3   20      2.08      0.00
    1    3   20     -0.97      0.00
    2    3   20     -1.77      0.00
    3    3   20     -4.53      0.00
    4    3   20     -1.47      0.00
    5    3   20     -0.36      0.00
    6    3   20     -1.65      0.00
    7    3   20      0.04      0.00
    8    3   20      0.00      0.00
    9    3   20     -1.34      0.00
   10    3   20     -0.39      0.00
   11    3   20      1.54      0.00
   12    3   20      1.95      0.00
   -7    4   20     -0.91      0.00
   -6    4   20     -0.04      0.00
   -5    4   20     -2.40      0.00
   -4    4   20      2.01      0.00
   -3    4   20      1.52      0.00
   -2    4   20      3.72      0.00
   -1    4   20      5.37      0.00
    0    4   20      3.81      0.00
    1    4   20      1.53      0.00
    2    4   20     -2.61      0.00
    3    4   20     -5.76      0.00
    4    4   20     -4.75      0.00
    5    4   20     -0.98      0.00
    6    4   20     -1.48      0.00
    7    4   20     -2.19      0.00
    8    4   20     -0.11      0.00
    9    4   20     -4.76      0.00
   10    4   20     -4.04      0.00
   11    4   20     -0.66      0.00
   12    4   20      0.68      0.00
   -7    5   20      0.70      0.00
   -6    5   20      1.54      0.00
   -5    5   20     -5.81      0.00
   -4    5   20      1.88      0.00
   -3    5   20      3.25      0.00
   -2    5   20      3.04      0.00
   -1    5   20     -0.41      0.00
    0    5   20     -0.52      0.00
    1    5   20      0.01      0.00
    2    5   20      0.75      0.00
    3    5   20      1.58      0.00
    4    5   20     -2.64      0.00
    5    5   20     -0.19      0.00
    6    5   20     -0.15      0.00
    7    5   20     -1.04      0.00
    8    5   20      1.22      0.00
    9    5   20     -3.31      0.00
   10    5   20     -3.00      0.00
   11    5   20     -3.08      0.00
   12    5   20     -2.21      0.00
   13    5   20     -1.46      0.00
   -7    6   20     -2.57      0.00
   -6    6   20     -0.73      0.00
   -5    6   20     -9.12      0.00
   -4    6   20     -4.83      0.00
   -3    6   20     -1.42      0.00
   -2    6   20     -0.70      0.00
   -1    6   20     -0.71      0.00
    0    6   20      1.67      0.00
    1    6   20     -0.29      0.00
    2    6   20     -1.65      0.00
    3    6   20      0.17      0.00
    4    6   20     -2.62      0.00
    5    6   20     -2.97      0.00
    6    6   20     -1.21      0.00
    7    6   20      3.48      0.00
    8    6   20      4.99      0.00
    9    6   20      2.13      0.00
   10    6   20      1.98      0.00
   11    6   20      0.76      0.00
   12    6   20     -0.18      0.00
   13    6   20      0.11      0.00
   14    6   20     -1.41      0.00
   -7    7   20     -1.21      0.00
   -6    7   20      1.28      0.00
   -5    7   20     -4.17      0.00
   -4    7   20     -3.69      0.00
   -3    7   20      0.77      0.00
   -2    7   20      1.04      0.00
   -1    7   20      2.72      0.00
    0    7   20      2.85      0.00
    1    7   20      1.09      0.00
    2    7   20     -2.44      0.00
    3    7   20     -1.46      0.00
    4    7   20      0.72      0.00
    5    7   20     -1.37      0.00
    6    7   20     -1.31      0.00
    7    7   20      1.65      0.00
    8    7   20      2.42      0.00
    9    7   20      4.91      0.00
   10    7   20      6.74      0.00
   11    7   20      4.34      0.00
   12    7   20      0.92      0.00
   13    7   20      3.03      0.00
   14    7   20      1.68      0.00
   -6    8   20      2.19      0.00
   -5    8   20      1.39      0.00
   -4    8   20     -0.81      0.00
   -3    8   20     -0.72      0.00
   -2    8   20     -1.26      0.00
   -1    8   20      3.84      0.00
    0    8   20      5.45      0.00
    1    8   20      6.70      0.00
    2    8   20      2.83      0.00
    3    8   20      1.01      0.00
    4    8   20      0.22      0.00
    5    8   20     -4.90      0.00
    6    8   20     -5.46      0.00
    7    8   20     -4.04      0.00
    8    8   20     -4.40      0.00
    9    8   20     -2.46      0.00
   10    8   20      3.62      0.00
   11    8   20      4.50      0.00
   12    8   20     -1.47      0.00
   13    8   20     -1.50      0.00
   14    8   20     -2.06      0.00
   15    8   20     -2.03      0.00
   -6    9   20      0.26      0.00
   -5    9   20      2.59      0.00
   -4    9   20      2.45      0.00
   -3    9   20      1.27      0.00
   -2    9   20     -1.58      0.00
   -1    9   20     -1.15      0.00
    0    9   20     -1.60      0.00
    1    9   20     -0.10      0.00
    2    9   20     -1.73      0.00
    3    9   20     -2.65      0.00
    4    9   20     -1.48      0.00
    5    9   20     -1.83      0.00
    6    9   20     -2.10      0.00
    7    9   20     -1.33      0.00
    8    9   20     -0.81      0.00
    9    9   20     -0.90      0.00
   10    9   20      1.30      0.00
   11    9   20      0.88      0.00
   12    9   20     -4.22      0.00
   13    9   20     -4.35      0.00
   14    9   20     -3.69      0.00
   15    9   20     -3.14      0.00
   -5   10   20     -0.26      0.00
   -4   10   20      0.23      0.00
   -3   10   20      0.62      0.00
   -2   10   20      1.80      0.00
   -1   10   20      2.85      0.00
    0   10   20      0.85      0.00
    1   10   20      1.28      0.00
    2   10   20      3.27      0.00
    3   10   20      2.07      0.00
    4   10   20      0.49      0.00
    5   10   20     -1.44      0.00
    6   10   20     -2.92      0.00
    7   10   20     -1.26      0.00
    8   10   20     -1.49      0.00
    9   10   20     -0.21      0.00
   10   10   20      0.48      0.00
   11   10   20      1.79      0.00
   12   10   20     -0.55      0.00
   13   10   20      0.17      0.00
   14   10   20      2.71      0.00
   15   10   20      2.87      0.00
   -4   11   20     -0.03      0.00
   -3   11   20     -0.77      0.00
   -2   11   20      0.65      0.00
   -1   11   20      1.88      0.00
    0   11   20     -1.95      0.00
    1   11   20     -3.19      0.00
    2   11   20      0.51      0.00
    3   11   20      2.80      0.00
    4   11   20      5.79      0.00
    5   11   20      3.73      0.00
    6   11   20     -1.58      0.00
    7   11   20     -1.77      0.00
    8   11   20     -3.68      0.00
    9   11   20     -0.08      0.00
   10   11   20      0.93      0.00
   11   11   20      2.41      0.00
   12   11   20      0.39      0.00
   13   11   20     -1.03      0.00
   14   11   20     -1.47      0.00
   15   11   20      2.02      0.00
   16   11   20      5.13      0.00
   -3   12   20     -2.68      0.00
   -2   12   20     -2.58      0.00
   -1   12   20     -1.14      0.00
    0   12   20     -4.69      0.00
    1   12   20     -5.42      0.00
    2   12   20     -2.39      0.00
    3   12   20     -2.48      0.00
    4   12   20     -0.26      0.00
    5   12   20      0.43      0.00
    6   12   20     -1.48      0.00
    7   12   20     -0.20      0.00
    8   12   20     -3.87      0.00
    9   12   20     -2.57      0.00
   10   12   20      0.49      0.00
   11   12   20      3.10      0.00
   12   12   20      3.53      0.00
   13   12   20      2.46      0.00
   14   12   20     -1.27      0.00
   15   12   20     -2.74      0.00
   16   12   20      1.14      0.00
   -2   13   20      0.43      0.00
   -1   13   20      3.26      0.00
    0   13   20      1.04      0.00
    1   13   20      0.31      0.00
    2   13   20      2.91      0.00
    3   13   20      2.29      0.00
    4   13   20      2.21      0.00
    5   13   20      1.58      0.00
    6   13   20     -1.47      0.00
    7   13   20     -1.09      0.00
    8   13   20     -2.13      0.00
    9   13   20     -2.49      0.00
   10   13   20     -0.90      0.00
   11   13   20     -0.37      0.00
   12   13   20      3.05      0.00
   13   13   20      4.95      0.00
   14   13   20      5.32      0.00
   15   13   20      0.79      0.00
   16   13   20      1.65      0.00
   -1   14   20      1.08      0.00
    0   14   20     -0.67      0.00
    1   14   20     -2.19      0.00
    2   14   20     -0.64      0.00
    3   14   20     -0.39      0.00
    4   14   20     -1.78      0.00
    5   14   20     -3.66      0.00
    6   14   20     -5.38      0.00
    7   14   20     -4.22      0.00
    8   14   20     -1.52      0.00
    9   14   20      0.31      0.00
   10   14   20      1.23      0.00
   11   14   20     -2.95      0.00
   12   14   20     -2.35      0.00
   13   14   20     -2.32      0.00
   14   14   20      0.14      0.00
   15   14   20     -3.25      0.00
    0   15   20      2.47      0.00
    1   15   20      0.35      0.00
    2   15   20     -0.92      0.00
    3   15   20     -0.24      0.00
    4   15   20      0.90      0.00
    5   15   20     -0.42      0.00
    6   15   20     -2.01      0.00
    7   15   20     -2.07      0.00
    8   15   20     -0.20      0.00
    9   15   20      2.85      0.00
   10   15   20      4.90      0.00
   11   15   20      0.09      0.00
   12   15   20     -0.98      0.00
   13   15   20     -2.87      0.00
   14   15   20     -3.31      0.00
   15   15   20     -5.87      0.00
    1   16   20     -0.47      0.00
    2   16   20      0.49      0.00
    3   16   20      3.13      0.00
    4   16   20      6.42      0.00
    5   16   20      5.22      0.00
    6   16   20      2.53      0.00
    7   16   20      1.23      0.00
    8   16   20      1.20      0.00
    9   16   20      1.76      0.00
   10   16   20      2.41      0.00
   11   16   20     -0.72      0.00
   12   16   20     -0.26      0.00
   13   16   20      0.51      0.00
   14   16   20     -1.23      0.00
   15   16   20     -4.66      0.00
    3   17   20     -1.49      0.00
    4   17   20      1.82      0.00
    5   17   20      2.92      0.00
    6   17   20      1.13      0.00
    7   17   20      1.36      0.00
    8   17   20      3.97      0.00
    9   17   20      3.30      0.00
   10   17   20      0.98      0.00
   11   17   20     -1.75      0.00
   12   17   20     -2.33      0.00
   13   17   20     -1.23      0.00
   14   17   20      0.59      0.00
    5   18   20     -0.84      0.00
    6   18   20     -1.57      0.00
    7   18   20     -1.50      0.00
    8   18   20      2.34      0.00
    9   18   20      3.86      0.00
   10   18   20      0.53      0.00
   11   18   20     -0.56      0.00
   12   18   20      1.70      0.00
   -2   -2   21     -4.23      0.00
   -1   -2   21     -2.14      0.00
    0   -2   21      1.20      0.00
    1   -2   21      0.45      0.00
   -4   -1   21     -5.47      0.00
   -3   -1   21     -6.02      0.00
   -2   -1   21     -2.72      0.00
   -1   -1   21     -2.84      0.00
    0   -1   21     -0.79      0.00
    1   -1   21      2.21      0.00
    2   -1   21     -1.16      0.00
    3   -1   21     -0.57      0.00
    4   -1   21     -2.36      0.00
   -5    0   21      5.51      0.00
   -4    0   21      4.46      0.00
   -3    0   21     -2.70      0.00
   -2    0   21      1.37      0.00
   -1    0   21      1.70      0.00
    0    0   21      0.06      0.00
    1    0   21      1.06      0.00
    2    0   21     -1.71      0.00
    3    0   21     -2.29      0.00
    4    0   21     -2.95      0.00
    5    0   21     -1.04      0.00
    6    0   21      0.94      0.00
   -5    1   21      1.04      0.00
   -4    1   21      6.02      0.00
   -3    1   21      1.27      0.00
   -2    1   21      2.96      0.00
   -1    1   21      3.56      0.00
    0    1   21      1.47      0.00
    1    1   21      5.78      0.00
    2    1   21      6.31      0.00
    3    1   21      3.78      0.00
    4    1   21      1.15      0.00
    5    1   21     -1.38      0.00
    6    1   21      0.28      0.00
    7    1   21      0.16      0.00
    8    1   21      2.33      0.00
   -6    2   21     -0.70      0.00
   -5    2   21     -2.10      0.00
   -4    2   21      2.27      0.00
   -3    2   21      1.76      0.00
   -2    2   21      5.59      0.00
   -1    2   21      5.69      0.00
    0    2   21     -1.15      0.00
    1    2   21     -0.56      0.00
    2    2   21      0.41      0.00
    3    2   21      2.62      0.00
    4    2   21      1.96      0.00
    5    2   21     -2.54      0.00
    6    2   21     -3.00      0.00
    7    2   21     -3.52      0.00
    8    2   21     -2.20      0.00
    9    2   21     -0.76      0.00
   -6    3   21     -2.69      0.00
   -5    3   21     -3.98      0.00
   -4    3   21     -0.67      0.00
   -3    3   21     -0.93      0.00
   -2    3   21      2.16      0.00
   -1    3   21      2.20      0.00
    0    3   21      0.56      0.00
    1    3   21      0.42      0.00
    2    3   21     -0.85      0.00
    3    3   21      2.09      0.00
    4    3   21      4.79      0.00
    5    3   21      3.55      0.00
    6    3   21      1.25      0.00
    7    3   21      3.05      0.00
    8    3   21      1.25      0.00
    9    3   21     -2.74      0.00
   10    3   21     -0.94      0.00
   -6    4   21     -6.21      0.00
   -5    4   21     -5.93      0.00
   -4    4   21     -2.87      0.00
   -3    4   21     -1.09      0.00
   -2    4   21      1.58      0.00
   -1    4   21     -0.37      0.00
    0    4   21      0.77      0.00
    1    4   21      2.68      0.00
    2    4   21      3.40      0.00
    3    4   21      0.43      0.00
    4    4   21     -0.02      0.00
    5    4   21     -1.34      0.00
    6    4   21     -4.95      0.00
    7    4   21      0.39      0.00
    8    4   21      1.27      0.00
    9    4   21     -1.71      0.00
   10    4   21     -0.04      0.00
   11    4   21     -1.00      0.00
   -6    5   21     -5.32      0.00
   -5    5   21     -5.13      0.00
   -4    5   21     -1.29      0.00
   -3    5   21     -3.01      0.00
   -2    5   21     -3.02      0.00
   -1    5   21     -2.81      0.00
    0    5   21     -3.53      0.00
    1    5   21     -5.53      0.00
    2    5   21     -3.25      0.00
    3    5   21     -1.49      0.00
    4    5   21      2.92      0.00
    5    5   21      4.36      0.00
    6    5   21      2.93      0.00
    7    5   21      4.72      0.00
    8    5   21      2.51      0.00
    9    5   21     -2.49      0.00
   10    5   21      0.25      0.00
   11    5   21      1.95      0.00
   12    5   21      1.54      0.00
   -5    6   21     -4.68      0.00
   -4    6   21      2.22      0.00
   -3    6   21     -0.50      0.00
   -2    6   21     -3.02      0.00
   -1    6   21     -0.96      0.00
    0    6   21      1.91      0.00
    1    6   21      1.59      0.00
    2    6   21     -0.22      0.00
    3    6   21     -1.67      0.00
    4    6   21     -2.90      0.00
    5    6   21     -1.38      0.00
    6    6   21      1.65      0.00
    7    6   21      3.28      0.00
    8    6   21      4.65      0.00
    9    6   21     -0.05      0.00
   10    6   21     -2.06      0.00
   11    6   21     -0.60      0.00
   12    6   21      1.96      0.00
   -5    7   21     -3.64      0.00
   -4    7   21      0.15      0.00
   -3    7   21     -3.29      0.00
   -2    7   21     -4.79      0.00
   -1    7   21     -1.80      0.00
    0    7   21      1.15      0.00
    1    7   21      0.88      0.00
    2    7   21      1.99      0.00
    3    7   21      5.23      0.00
    4    7   21      0.66      0.00
    5    7   21     -1.78      0.00
    6    7   21      0.42      0.00
    7    7   21      0.54      0.00
    8    7   21      1.33      0.00
    9    7   21      2.57      0.00
   10    7   21      2.31      0.00
   11    7   21     -1.94      0.00
   12    7   21     -1.98      0.00
   13    7   21      1.78      0.00
   -5    8   21      1.90      0.00
   -4    8   21      4.65      0.00
   -3    8   21      3.12      0.00
   -2    8   21     -1.41      0.00
   -1    8   21     -0.90      0.00
    0    8   21      1.76      0.00
    1    8   21      0.30      0.00
    2    8   21     -1.56      0.00
    3    8   21      1.94      0.00
    4    8   21      3.81      0.00
    5    8   21      1.73      0.00
    6    8   21      2.12      0.00
    7    8   21      2.35      0.00
    8    8   21     -0.61      0.00
    9    8   21      0.53      0.00
   10    8   21      1.30      0.00
   11    8   21     -5.36      0.00
   12    8   21     -7.88      0.00
   13    8   21     -1.72      0.00
   -4    9   21     -2.64      0.00
   -3    9   21      0.94      0.00
   -2    9   21      0.48      0.00
   -1    9   21     -1.04      0.00
    0    9   21     -1.90      0.00
    1    9   21      1.86      0.00
    2    9   21      2.68      0.00
    3    9   21      0.41      0.00
    4    9   21     -0.41      0.00
    5    9   21     -3.51      0.00
    6    9   21     -1.10      0.00
    7    9   21      1.16      0.00
    8    9   21     -2.25      0.00
    9    9   21     -2.55      0.00
   10    9   21      1.41      0.00
   11    9   21     -0.11      0.00
   12    9   21     -4.83      0.00
   13    9   21     -1.78      0.00
   14    9   21      0.85      0.00
   -4   10   21     -4.98      0.00
   -3   10   21     -2.59      0.00
   -2   10   21      1.24      0.00
   -1   10   21      0.84      0.00
    0   10   21     -6.00      0.00
    1   10   21     -7.15      0.00
    2   10   21     -5.89      0.00
    3   10   21     -4.24      0.00
    4   10   21     -3.45      0.00
    5   10   21     -6.99      0.00
    6   10   21     -4.56      0.00
    7   10   21      1.10      0.00
    8   10   21      3.82      0.00
    9   10   21      2.99      0.00
   10   10   21      2.37      0.00
   11   10   21      1.75      0.00
   12   10   21     -4.18      0.00
   13   10   21     -5.18      0.00
   14   10   21     -3.05      0.00
   -3   11   21     -0.76      0.00
   -2   11   21      1.07      0.00
   -1   11   21      0.57      0.00
    0   11   21     -3.01      0.00
    1   11   21     -1.64      0.00
    2   11   21      0.04      0.00
    3   11   21      0.93      0.00
    4   11   21     -0.73      0.00
    5   11   21     -5.35      0.00
    6   11   21     -5.39      0.00
    7   11   21     -1.82      0.00
    8   11   21      0.81      0.00
    9   11   21      3.96      0.00
   10   11   21      3.05      0.00
   11   11   21      3.50      0.00
   12   11   21     -0.01      0.00
   13   11   21     -0.96      0.00
   14   11   21     -0.42      0.00
   -2   12   21      1.33      0.00
   -1   12   21      1.25      0.00
    0   12   21     -3.22      0.00
    1   12   21     -2.67      0.00
    2   12   21     -0.04      0.00
    3   12   21      3.44      0.00
    4   12   21      4.69      0.00
    5   12   21     -0.80      0.00
    6   12   21     -4.01      0.00
    7   12   21     -1.53      0.00
    8   12   21     -2.23      0.00
    9   12   21      1.11      0.00
   10   12   21      0.92      0.00
   11   12   21      2.14      0.00
   12   12   21     -0.19      0.00
   13   12   21     -1.77      0.00
   14   12   21     -3.16      0.00
   -1   13   21      0.23      0.00
    0   13   21     -1.57      0.00
    1   13   21     -0.32      0.00
    2   13   21     -0.92      0.00
    3   13   21     -1.57      0.00
    4   13   21      1.69      0.00
    5   13   21      0.31      0.00
    6   13   21     -2.14      0.00
    7   13   21     -0.01      0.00
    8   13   21     -1.18      0.00
    9   13   21      0.80      0.00
   10   13   21      0.23      0.00
   11   13   21      0.24      0.00
   12   13   21      1.33      0.00
   13   13   21      3.87      0.00
   14   13   21      2.74      0.00
    0   14   21     -2.67      0.00
    1   14   21     -1.84      0.00
    2   14   21     -0.20      0.00
    3   14   21      1.04      0.00
    4   14   21      4.73      0.00
    5   14   21      5.02      0.00
    6   14   21      2.83      0.00
    7   14   21      3.13      0.00
    8   14   21      3.62      0.00
    9   14   21      4.98      0.00
   10   14   21      2.48      0.00
   11   14   21     -1.91      0.00
   12   14   21     -2.15      0.00
   13   14   21     -0.29      0.00
   14   14   21      1.16      0.00
    1   15   21     -4.41      0.00
    2   15   21     -3.27      0.00
    3   15   21     -0.36      0.00
    4   15   21      2.05      0.00
    5   15   21      1.60      0.00
    6   15   21     -0.17      0.00
    7   15   21     -0.90      0.00
    8   15   21      1.75      0.00
    9   15   21      4.79      0.00
   10   15   21      2.48      0.00
   11   15   21     -1.50      0.00
   12   15   21     -0.26      0.00
   13   15   21     -1.05      0.00
   14   15   21     -0.93      0.00
    3   16   21     -1.85      0.00
    4   16   21      0.38      0.00
    5   16   21      0.70      0.00
    6   16   21      0.07      0.00
    7   16   21     -0.98      0.00
    8   16   21      0.22      0.00
    9   16   21      3.63      0.00
   10   16   21      3.15      0.00
   11   16   21     -0.59      0.00
   12   16   21      0.60      0.00
   13   16   21      1.50      0.00
    5   17   21      0.17      0.00
    6   17   21     -1.46      0.00
    7   17   21     -0.40      0.00
    8   17   21      0.57      0.00
    9   17   21      1.74      0.00
   10   17   21      3.50      0.00
   11   17   21      3.62      0.00
   12   17   21      2.72      0.00
    0    0   22     -0.95      0.00
    1    0   22      2.87      0.00
    2    0   22      1.79      0.00
   -2    1   22      7.63      0.00
   -1    1   22      3.20      0.00
    0    1   22      1.62      0.00
    1    1   22      3.56      0.00
    2    1   22      2.22      0.00
    3    1   22      4.22      0.00
    4    1   22      1.78      0.00
    5    1   22      0.46      0.00
   -3    2   22     -3.88      0.00
   -2    2   22      1.75      0.00
   -1    2   22     -1.63      0.00
    0    2   22     -0.96      0.00
    1    2   22      3.11      0.00
    2    2   22      3.06      0.00
    3    2   22      1.91      0.00
    4    2   22     -0.28      0.00
    5    2   22     -2.54      0.00
    6    2   22     -3.92      0.00
   -3    3   22     -1.55      0.00
   -2    3   22      2.84      0.00
   -1    3   22      2.22      0.00
    0    3   22     -0.16      0.00
    1    3   22      0.67      0.00
    2    3   22     -0.05      0.00
    3    3   22     -2.35      0.00
    4    3   22     -4.48      0.00
    5    3   22     -8.07      0.00
    6    3   22     -7.37      0.00
    7    3   22     -4.56      0.00
    8    3   22     -4.26      0.00
   -4    4   22      0.56      0.00
   -3    4   22     -3.15      0.00
   -2    4   22     -4.95      0.00
   -1    4   22     -4.82      0.00
    0    4   22     -5.06      0.00
    1    4   22     -3.26      0.00
    2    4   22     -3.71      0.00
    3    4   22     -2.23      0.00
    4    4   22     -1.72      0.00
    5    4   22     -2.86      0.00
    6    4   22      1.09      0.00
    7    4   22      2.92      0.00
    8    4   22     -1.52      0.00
    9    4   22     -1.90      0.00
   -4    5   22      4.30      0.00
   -3    5   22      0.55      0.00
   -2    5   22     -0.86      0.00
   -1    5   22     -1.63      0.00
    0    5   22      0.13      0.00
    1    5   22      1.96      0.00
    2    5   22      1.69      0.00
    3    5   22      2.07      0.00
    4    5   22      0.95      0.00
    5    5   22      0.27      0.00
    6    5   22      1.80      0.00
    7    5   22      4.66      0.00
    8    5   22     -0.54      0.00
    9    5   22     -6.58      0.00
   10    5   22     -1.98      0.00
   -4    6   22      2.29      0.00
   -3    6   22     -2.14      0.00
   -2    6   22      0.20      0.00
   -1    6   22      0.41      0.00
    0    6   22     -1.44      0.00
    1    6   22     -3.74      0.00
    2    6   22     -0.76      0.00
    3    6   22      0.04      0.00
    4    6   22      0.29      0.00
    5    6   22      2.03      0.00
    6    6   22      2.62      0.00
    7    6   22      6.43      0.00
    8    6   22      5.09      0.00
    9    6   22     -0.30      0.00
   10    6   22      0.08      0.00
   11    6   22     -1.34      0.00
   -3    7   22     -6.26      0.00
   -2    7   22     -4.11      0.00
   -1    7   22      2.75      0.00
    0    7   22      3.87      0.00
    1    7   22      0.42      0.00
    2    7   22      1.59      0.00
    3    7   22      0.48      0.00
    4    7   22     -1.47      0.00
    5    7   22     -1.60      0.00
    6    7   22      0.63      0.00
    7    7   22      2.42      0.00
    8    7   22      4.69      0.00
    9    7   22      5.18      0.00
   10    7   22      2.23      0.00
   11    7   22     -0.82      0.00
   -3    8   22     -3.65      0.00
   -2    8   22     -5.20      0.00
   -1    8   22     -0.47      0.00
    0    8   22      1.96      0.00
    1    8   22      0.69      0.00
    2    8   22     -0.88      0.00
    3    8   22     -0.51      0.00
    4    8   22     -0.50      0.00
    5    8   22      0.95      0.00
    6    8   22      5.25      0.00
    7    8   22      0.60      0.00
    8    8   22     -0.83      0.00
    9    8   22      4.08      0.00
   10    8   22      5.42      0.00
   11    8   22      1.98      0.00
   12    8   22      0.49      0.00
   -3    9   22      2.98      0.00
   -2    9   22     -1.00      0.00
   -1    9   22     -3.52      0.00
    0    9   22     -2.27      0.00
    1    9   22      2.05      0.00
    2    9   22      3.20      0.00
    3    9   22      2.39      0.00
    4    9   22     -2.41      0.00
    5    9   22     -4.82      0.00
    6    9   22      1.44      0.00
    7    9   22      1.25      0.00
    8    9   22     -2.43      0.00
    9    9   22     -2.59      0.00
   10    9   22     -0.37      0.00
   11    9   22     -3.28      0.00
   12    9   22     -3.60      0.00
   -2   10   22     -0.32      0.00
   -1   10   22     -5.23      0.00
    0   10   22     -7.51      0.00
    1   10   22     -2.90      0.00
    2   10   22      1.36      0.00
    3   10   22      2.47      0.00
    4   10   22     -1.13      0.00
    5   10   22     -4.94      0.00
    6   10   22     -0.06      0.00
    7   10   22      4.24      0.00
    8   10   22      3.07      0.00
    9   10   22      0.82      0.00
   10   10   22      1.94      0.00
   11   10   22     -1.16      0.00
   12   10   22     -3.34      0.00
   -1   11   22     -0.06      0.00
    0   11   22     -3.14      0.00
    1   11   22     -1.42      0.00
    2   11   22      0.65      0.00
    3   11   22      2.88      0.00
    4   11   22      1.45      0.00
    5   11   22     -2.54      0.00
    6   11   22     -0.50      0.00
    7   11   22      2.74      0.00
    8   11   22      3.77      0.00
    9   11   22      4.17      0.00
   10   11   22      5.30      0.00
   11   11   22      3.82      0.00
   12   11   22     -2.15      0.00
   13   11   22     -1.35      0.00
    0   12   22     -3.78      0.00
    1   12   22     -2.60      0.00
    2   12   22     -0.90      0.00
    3   12   22      4.43      0.00
    4   12   22      5.93      0.00
    5   12   22      3.17      0.00
    6   12   22      4.05      0.00
    7   12   22      3.01      0.00
    8   12   22      0.02      0.00
    9   12   22      0.33      0.00
   10   12   22      0.47      0.00
   11   12   22      3.08      0.00
   12   12   22      1.14      0.00
   13   12   22      1.78      0.00
    1   13   22     -4.27      0.00
    2   13   22     -4.63      0.00
    3   13   22      0.17      0.00
    4   13   22      2.63      0.00
    5   13   22     -0.11      0.00
    6   13   22      2.29      0.00
    7   13   22      5.11      0.00
    8   13   22      4.39      0.00
    9   13   22      4.15      0.00
   10   13   22     -1.61      0.00
   11   13   22     -2.82      0.00
   12   13   22     -1.47      0.00
   13   13   22      0.98      0.00
    2   14   22     -0.77      0.00
    3   14   22      0.21      0.00
    4   14   22      1.49      0.00
    5   14   22     -1.31      0.00
    6   14   22     -0.49      0.00
    7   14   22      2.65      0.00
    8   14   22      4.23      0.00
    9   14   22      5.67      0.00
   10   14   22      1.05      0.00
   11   14   22     -2.72      0.00
   12   14   22     -2.50      0.00
    4   15   22      1.07      0.00
    5   15   22     -3.00      0.00
    6   15   22     -5.63      0.00
    7   15   22     -2.30      0.00
    8   15   22      3.03      0.00
    9   15   22      5.82      0.00
   10   15   22      3.80      0.00
   11   15   22      1.99      0.00
    7   16   22     -2.58      0.00
    8   16   22      0.36      0.00
    9   16   22      2.69      0.00
   10   16   22      1.51      0.00
    1    3   23     -0.02      0.00
    2    3   23     -3.17      0.00
    3    3   23     -2.83      0.00
    4    3   23     -3.08      0.00
    0    4   23      1.18      0.00
    1    4   23      1.89      0.00
    2    4   23      1.22      0.00
    3    4   23     -0.07      0.00
    4    4   23     -0.46      0.00
    5    4   23      3.84      0.00
    6    4   23      6.55      0.00
   -1    5   23      0.65      0.00
    0    5   23     -0.97      0.00
    1    5   23     -0.43      0.00
    2    5   23      1.90      0.00
    3    5   23      1.98      0.00
    4    5   23      1.09      0.00
    5    5   23      0.40      0.00
    6    5   23      4.70      0.00
    7    5   23      6.84      0.00
   -1    6   23      4.89      0.00
    0    6   23      3.03      0.00
    1    6   23      1.42      0.00
    2    6   23     -1.73      0.00
    3    6   23     -3.05      0.00
    4    6   23     -1.08      0.00
    5    6   23      0.42      0.00
    6    6   23      2.98      0.00
    7    6   23      2.52      0.00
    8    6   23     -0.37      0.00
   -1    7   23      3.95      0.00
    0    7   23      1.60      0.00
    1    7   23      1.45      0.00
    2    7   23      0.90      0.00
    3    7   23     -2.53      0.00
    4    7   23     -6.03      0.00
    5    7   23     -3.54      0.00
    6    7   23     -1.30      0.00
    7    7   23     -1.39      0.00
    8    7   23     -0.29      0.00
    9    7   23     -0.86      0.00
   -1    8   23     -3.06      0.00
    0    8   23     -3.32      0.00
    1    8   23     -1.97      0.00
    2    8   23      2.70      0.00
    3    8   23      5.05      0.00
    4    8   23      4.00      0.00
    5    8   23      3.99      0.00
    6    8   23      1.51      0.00
    7    8   23     -2.23      0.00
    8    8   23     -2.03      0.00
    9    8   23     -0.72      0.00
   10    8   23      0.02      0.00
    0    9   23     -1.41      0.00
    1    9   23     -1.24      0.00
    2    9   23     -1.58      0.00
    3    9   23     -3.41      0.00
    4    9   23     -2.22      0.00
    5    9   23      3.22      0.00
    6    9   23      8.48      0.00
    7    9   23      4.95      0.00
    8    9   23      2.90      0.00
    9    9   23      4.08      0.00
   10    9   23      2.33      0.00
    0   10   23      0.33      0.00
    1   10   23      0.84      0.00
    2   10   23      2.41      0.00
    3   10   23      2.44      0.00
    4   10   23     -2.16      0.00
    5   10   23     -4.62      0.00
    6   10   23      1.53      0.00
    7   10   23      2.56      0.00
    8   10   23      2.58      0.00
    9   10   23      2.74      0.00
   10   10   23      1.73      0.00
    1   11   23     -3.10      0.00
    2   11   23     -4.75      0.00
    3   11   23     -2.27      0.00
    4   11   23     -2.62      0.00
    5   11   23     -3.08      0.00
    6   11   23     -0.29      0.00
    7   11   23      0.04      0.00
    8   11   23      2.30      0.00
    9   11   23      5.55      0.00
   10   11   23      7.96      0.00
    2   12   23      0.50      0.00
    3   12   23      0.89      0.00
    4   12   23     -3.76      0.00
    5   12   23     -5.30      0.00
    6   12   23     -3.05      0.00
    7   12   23     -2.65      0.00
    8   12   23     -1.42      0.00
    9   12   23      0.97      0.00
   10   12   23      3.59      0.00
    3   13   23      1.98      0.00
    4   13   23     -0.50      0.00
    5   13   23     -1.91      0.00
    6   13   23     -0.77      0.00
    7   13   23     -2.03      0.00
    8   13   23     -1.36      0.00
    9   13   23      0.12      0.00
   10   13   23     -1.63      0.00
    5   14   23     -6.88      0.00
    6   14   23     -1.92      0.00
    7   14   23      0.11      0.00
    8   14   23      1.02      0.00
    9   14   23      2.56      0.00
    5    9   24      0.37      0.00
    1    0    0    226.84      0.00
   20    0    0      1.46      0.00
    0    1    0     73.57      0.00
    1    1    0     52.93      0.00
  -19    2    0      0.20      0.00
   21    3    0      0.73      0.00
  -17    5    0     -1.35      0.00
   22    7    0      0.61      0.00
   22    8    0      1.07      0.00
  -14    9    0      0.54      0.00
   22    9    0      0.24      0.00
  -13   10    0     -1.14      0.00
   22   10    0      0.85      0.00
  -12   11    0     -5.41      0.00
  -11   12    0      1.21      0.00
   21   14    0     -1.15      0.00
   -7   15    0      5.07      0.00
   20   16    0     -1.63      0.00
   -4   17    0      1.12      0.00
   19   17    0     -1.19      0.00
   -2   18    0     -2.11      0.00
   18   18    0     -2.13      0.00
    0   19    0     -1.15      0.00
    3   20    0     -2.26      0.00
   14   20    0     -0.56      0.00
  -13  -20    1      0.24      0.00
   -5  -20    1      1.34      0.00
  -16  -19    1     -1.95      0.00
   -1  -19    1      1.00      0.00
    1  -18    1      1.63      0.00
    5  -16    1     -0.77      0.00
  -20  -15    1      1.10      0.00
    8  -14    1     -1.16      0.00
  -21  -13    1     -1.22      0.00
   13  -10    1     -0.32      0.00
   17   -5    1      0.81      0.00
  -21   -3    1     -1.41      0.00
   19   -2    1     -1.62      0.00
   -1    0    1     22.84      0.00
    0    0    1     32.55      0.00
    1    0    1    -62.77      0.00
   20    0    1     -0.53      0.00
    0    1    1     55.25      0.00
    1    1    1    -29.25      0.00
  -19    2    1      0.77      0.00
   21    3    1      0.93      0.00
  -17    5    1      0.81      0.00
   22    6    1     -1.62      0.00
   22    7    1      0.05      0.00
  -15    8    1     -0.62      0.00
   22    8    1     -1.09      0.00
  -14    9    1     -2.08      0.00
   22    9    1      2.99      0.00
  -13   10    1      1.06      0.00
   22   10    1     -1.49      0.00
  -12   11    1      0.34      0.00
   22   11    1     -1.05      0.00
  -11   12    1     -0.22      0.00
   22   12    1     -0.35      0.00
  -10   13    1      1.29      0.00
   21   15    1     -2.64      0.00
   -6   16    1     -3.21      0.00
    0   19    1     -1.57      0.00
    2   20    1      3.91      0.00
   16   20    1      1.93      0.00
    6   21    1     -0.18      0.00
    7   21    1     -1.59      0.00
    8   21    1      0.14      0.00
   10   21    1     -1.05      0.00
   11   21    1     -0.63      0.00
   12   21    1     -0.50      0.00
   13   21    1      0.39      0.00
  -11  -20    2      0.23      0.00
  -10  -20    2     -0.45      0.00
   -9  -20    2      0.18      0.00
   -8  -20    2     -0.35      0.00
   -7  -20    2      1.55      0.00
   -2  -19    2     -2.62      0.00
  -18  -17    2      0.75      0.00
    3  -17    2     -1.25      0.00
  -19  -16    2      2.15      0.00
  -20  -14    2      1.47      0.00
    8  -14    2     -0.83      0.00
    9  -13    2      0.49      0.00
  -21  -12    2      0.73      0.00
   17   -5    2     -0.29      0.00
  -21   -4    2     -1.50      0.00
  -20   -1    2      1.22      0.00
   20    0    2     -1.45      0.00
   21    3    2     -2.03      0.00
  -17    5    2     -2.63      0.00
   22    6    2     -2.03      0.00
   22    7    2      0.29      0.00
  -15    8    2      1.09      0.00
  -14    9    2      0.23      0.00
   22   12    2     -0.68      0.00
  -10   13    2     -1.19      0.00
   22   13    2      2.99      0.00
   -9   14    2      0.92      0.00
   21   15    2     -0.13      0.00
   -6   16    2      0.28      0.00
   20   17    2     -2.25      0.00
   -3   18    2     -2.95      0.00
   19   18    2     -2.29      0.00
   -1   19    2      1.53      0.00
   18   19    2     -2.38      0.00
    2   20    2     -0.76      0.00
   16   20    2     -0.40      0.00
    5   21    2     -5.79      0.00
   13   21    2     -2.09      0.00
   14   21    2      0.25      0.00
  -13  -19    3     -1.99      0.00
   -4  -19    3      2.20      0.00
    0  -18    3      1.08      0.00
  -17  -17    3     -1.14      0.00
    2  -17    3      0.80      0.00
  -18  -16    3      1.76      0.00
    4  -16    3     -1.40      0.00
  -19  -15    3     -0.40      0.00
    6  -15    3      0.78      0.00
  -20  -13    3     -0.15      0.00
   10  -12    3     -0.83      0.00
  -21  -10    3     -0.21      0.00
  -21   -9    3      1.07      0.00
  -21   -6    3     -1.80      0.00
   16   -6    3     -0.18      0.00
  -21   -5    3     -0.86      0.00
   18   -3    3     -0.45      0.00
  -20   -1    3     -1.32      0.00
   21    3    3      2.41      0.00
  -17    5    3     -4.68      0.00
   22    6    3      0.25      0.00
  -15    8    3     -0.85      0.00
  -14    9    3     -2.26      0.00
   22   13    3      0.32      0.00
   -9   14    3      1.12      0.00
   -8   15    3      0.55      0.00
   21   16    3     -0.11      0.00
   -5   17    3      0.92      0.00
   -3   18    3      1.51      0.00
   -1   19    3      1.08      0.00
    1   20    3      1.08      0.00
   17   20    3      1.38      0.00
    4   21    3      3.20      0.00
   15   21    3     -0.16      0.00
  -11  -19    4     -0.84      0.00
  -10  -19    4      1.88      0.00
   -9  -19    4      1.34      0.00
   -8  -19    4     -0.04      0.00
   -7  -19    4      0.31      0.00
   -6  -19    4     -0.96      0.00
  -14  -18    4     -1.10      0.00
   -2  -18    4     -1.88      0.00
  -16  -17    4     -1.94      0.00
    1  -17    4      3.78      0.00
  -17  -16    4      1.21      0.00
  -18  -15    4      0.57      0.00
    5  -15    4      1.12      0.00
  -19  -14    4     -0.40      0.00
    7  -14    4     -0.49      0.00
  -20  -12    4     -2.27      0.00
   11  -11    4     -1.43      0.00
   12  -10    4     -1.26      0.00
   13   -9    4     -0.06      0.00
   14   -8    4      0.36      0.00
  -21   -7    4      1.48      0.00
   15   -7    4      0.28      0.00
   18   -3    4     -1.03      0.00
  -20   -2    4      1.28      0.00
  -19    1    4      1.33      0.00
  -18    3    4     -0.67      0.00
   21    3    4      1.84      0.00
  -17    5    4     -0.22      0.00
   22    6    4      1.74      0.00
  -15    8    4     -1.76      0.00
  -14    9    4     -0.60      0.00
   -9   14    4     -1.54      0.00
   22   14    4     -1.86      0.00
   -8   15    4      1.39      0.00
   21   16    4     -1.19      0.00
   -5   17    4     -0.80      0.00
   20   18    4      1.43      0.00
   19   19    4      2.25      0.00
    3   21    4     -2.49      0.00
   16   21    4     -2.02      0.00
    8   22    4     -4.00      0.00
    9   22    4     -2.33      0.00
   10   22    4      2.23      0.00
   11   22    4      1.90      0.00
   12   22    4      1.17      0.00
  -12  -18    5      1.14      0.00
   -4  -18    5      4.98      0.00
   -3  -18    5      2.56      0.00
  -15  -17    5     -1.13      0.00
    0  -17    5      2.56      0.00
    6  -14    5      0.49      0.00
  -19  -13    5      0.51      0.00
    9  -12    5     -1.95      0.00
  -20  -11    5      1.06      0.00
  -20  -10    5     -2.18      0.00
   17   -4    5     -0.12      0.00
  -20   -3    5      2.25      0.00
   19   -1    5     -1.70      0.00
   20    1    5      0.06      0.00
  -18    3    5     -0.86      0.00
   21    3    5      2.35      0.00
   22    6    5     -0.52      0.00
   22    7    5     -1.79      0.00
  -14    9    5      0.45      0.00
  -13   10    5     -0.78      0.00
   -9   14    5      0.47      0.00
   22   14    5      0.21      0.00
   -8   15    5     -0.02      0.00
   -5   17    5     -3.77      0.00
   21   17    5     -1.52      0.00
   20   18    5      0.66      0.00
   -2   19    5      0.07      0.00
   19   19    5     -0.10      0.00
    0   20    5      3.72      0.00
   18   20    5     -0.46      0.00
    3   21    5      1.60      0.00
   16   21    5      0.11      0.00
    7   22    5      3.52      0.00
    8   22    5      2.71      0.00
   12   22    5     -0.77      0.00
   13   22    5      0.53      0.00
   -9  -18    6     -0.37      0.00
   -8  -18    6      1.17      0.00
   -7  -18    6     -0.15      0.00
   -6  -18    6     -0.72      0.00
  -13  -17    6      0.23      0.00
   -2  -17    6     -3.16      0.00
   -1  -17    6      2.61      0.00
  -15  -16    6     -1.10      0.00
    1  -16    6      1.74      0.00
  -18  -13    6      0.12      0.00
    7  -13    6      0.41      0.00
  -19  -12    6      0.66      0.00
   10  -11    6     -1.60      0.00
   11  -10    6      0.49      0.00
  -20   -8    6     -0.32      0.00
  -20   -7    6     -2.21      0.00
  -20   -6    6     -1.82      0.00
   15   -6    6     -0.67      0.00
  -20   -5    6     -0.30      0.00
   16   -5    6      0.65      0.00
  -20   -4    6     -1.03      0.00
  -19    0    6     -0.42      0.00
   20    1    6     -1.52      0.00
  -16    6    6      0.72      0.00
   22    7    6      1.41      0.00
  -14    9    6     -1.81      0.00
  -13   10    6     -1.29      0.00
   -9   14    6      2.56      0.00
   22   14    6      1.00      0.00
   -8   15    6      0.80      0.00
   22   15    6     -0.12      0.00
   21   17    6      0.13      0.00
   -4   18    6     -0.61      0.00
   -2   19    6     -2.23      0.00
    0   20    6      0.01      0.00
   18   20    6      1.76      0.00
   17   21    6     -0.08      0.00
    6   22    6     -1.38      0.00
    7   22    6      1.50      0.00
   14   22    6     -1.64      0.00
  -11  -17    7      0.50      0.00
  -10  -17    7     -1.31      0.00
   -5  -17    7      1.32      0.00
   -4  -17    7     -0.65      0.00
  -14  -16    7     -0.23      0.00
    0  -16    7      0.25      0.00
    2  -15    7      3.21      0.00
  -18  -12    7     -0.93      0.00
    8  -12    7     -0.59      0.00
  -19  -10    7      0.62      0.00
   13   -8    7      2.01      0.00
   14   -7    7      0.64      0.00
   18   -2    7      2.25      0.00
  -19   -1    7     -0.95      0.00
  -18    2    7      0.38      0.00
  -17    4    7     -1.45      0.00
   21    4    7      0.39      0.00
  -15    7    7      0.46      0.00
   22    7    7      0.88      0.00
  -13   10    7      0.53      0.00
  -12   11    7     -0.97      0.00
   -9   14    7     -1.43      0.00
   22   14    7      0.26      0.00
   -8   15    7      1.28      0.00
   22   15    7     -2.68      0.00
   21   17    7     -2.42      0.00
   -4   18    7     -0.26      0.00
   -2   19    7     -0.12      0.00
    0   20    7      0.59      0.00
    2   21    7      0.42      0.00
   17   21    7      1.10      0.00
    6   22    7      0.47      0.00
   14   22    7     -0.19      0.00
   15   22    7      1.85      0.00
  -12  -16    8     -2.32      0.00
   -3  -16    8     -0.26      0.00
   -2  -16    8     -0.19      0.00
  -14  -15    8     -2.02      0.00
    1  -15    8      0.83      0.00
  -17  -12    8     -0.15      0.00
    7  -12    8     -0.53      0.00
  -18  -11    8     -0.56      0.00
   10  -10    8      0.58      0.00
   11   -9    8     -0.19      0.00
  -19   -8    8     -1.17      0.00
  -19   -7    8      1.60      0.00
  -19   -6    8      0.73      0.00
  -19   -5    8      1.19      0.00
  -19   -4    8      2.49      0.00
   16   -4    8      0.45      0.00
  -19   -3    8     -0.96      0.00
   17   -3    8     -1.33      0.00
   19    0    8     -1.22      0.00
  -18    1    8      0.03      0.00
   20    2    8     -0.93      0.00
  -17    3    8     -0.74      0.00
   21    4    8     -0.38      0.00
  -16    5    8     -2.18      0.00
  -15    7    8      0.92      0.00
   22    8    8      1.20      0.00
  -12   11    8     -2.38      0.00
  -11   12    8      0.63      0.00
  -10   13    8      0.90      0.00
   -9   14    8      3.56      0.00
   22   14    8     -1.88      0.00
   -8   15    8      0.95      0.00
   22   15    8      2.29      0.00
   21   17    8     -1.23      0.00
   -4   18    8     -0.47      0.00
   -2   19    8     -1.69      0.00
    0   20    8     -2.89      0.00
    2   21    8      2.11      0.00
   17   21    8     -0.57      0.00
    5   22    8      2.69      0.00
    6   22    8      1.90      0.00
   15   22    8      0.45      0.00
   -9  -16    9      1.27      0.00
   -8  -16    9      0.42      0.00
   -7  -16    9     -0.27      0.00
   -6  -16    9     -1.54      0.00
   -5  -16    9     -1.78      0.00
  -12  -15    9      2.62      0.00
   -1  -15    9      0.16      0.00
  -14  -14    9     -0.68      0.00
    2  -14    9      0.31      0.00
  -16  -12    9      0.91      0.00
    6  -12    9      0.15      0.00
  -17  -11    9     -0.13      0.00
    8  -11    9      2.46      0.00
  -18   -9    9      1.28      0.00
  -18   -8    9     -1.60      0.00
   13   -7    9     -1.00      0.00
   14   -6    9      0.78      0.00
  -18   -1    9     -0.90      0.00
   18   -1    9      1.61      0.00
  -18    0    9     -1.05      0.00
   19    1    9     -3.26      0.00
   20    3    9      0.83      0.00
   21    5    9     -0.61      0.00
  -14    8    9      0.32      0.00
   22    8    9     -0.12      0.00
   22    9    9     -0.56      0.00
   22   10    9      2.12      0.00
  -11   12    9      2.40      0.00
  -10   13    9      0.90      0.00
   22   13    9      0.55      0.00
   -9   14    9      2.39      0.00
   22   14    9     -2.11      0.00
   -5   17    9     -2.11      0.00
   21   17    9      0.01      0.00
   -2   19    9      2.02      0.00
    0   20    9      3.05      0.00
    2   21    9     -0.46      0.00
   17   21    9     -0.85      0.00
    5   22    9     -2.94      0.00
   15   22    9      0.88      0.00
  -10  -15   10     -1.37      0.00
   -9  -15   10     -0.32      0.00
   -8  -15   10     -2.10      0.00
   -4  -15   10      0.89      0.00
   -3  -15   10      1.62      0.00
  -12  -14   10     -1.57      0.00
    1  -14   10      2.42      0.00
  -14  -13   10     -2.24      0.00
    3  -13   10     -2.80      0.00
  -15  -12   10      0.66      0.00
    5  -12   10     -0.34      0.00
  -16  -11   10     -0.49      0.00
    7  -11   10     -1.13      0.00
  -17   -9   10      0.48      0.00
   10   -9   10      0.11      0.00
   11   -8   10     -1.77      0.00
  -18   -6   10     -0.13      0.00
  -18   -5   10     -0.19      0.00
  -18   -4   10      1.61      0.00
   15   -4   10      2.94      0.00
  -18   -3   10      1.81      0.00
   16   -3   10     -1.29      0.00
   18    0   10      0.22      0.00
  -17    1   10     -1.70      0.00
  -16    4   10     -0.02      0.00
  -15    6   10     -0.14      0.00
   21    6   10     -0.25      0.00
  -13    9   10      2.71      0.00
   22   10   10     -1.86      0.00
   22   11   10      0.92      0.00
   22   12   10      0.82      0.00
   22   13   10      0.61      0.00
   22   14   10      2.66      0.00
   -5   17   10      2.60      0.00
   21   17   10     -2.89      0.00
   -2   19   10      3.19      0.00
    0   20   10     -0.44      0.00
    2   21   10     -0.93      0.00
   17   21   10     -0.15      0.00
    5   22   10     -1.77      0.00
    6   22   10     -2.90      0.00
   15   22   10      0.12      0.00
  -10  -14   11      2.64      0.00
   -9  -14   11      1.26      0.00
   -2  -14   11      0.94      0.00
  -12  -13   11     -0.99      0.00
  -14  -12   11      1.45      0.00
    4  -12   11      0.51      0.00
  -15  -11   11     -0.71      0.00
    6  -11   11      0.26      0.00
  -16   -9   11     -0.41      0.00
    9   -9   11     -0.39      0.00
  -17   -7   11      2.74      0.00
  -17   -6   11      0.67      0.00
  -17   -1   11      0.04      0.00
   17   -1   11     -2.16      0.00
  -17    0   11      0.51      0.00
   19    2   11     -0.39      0.00
  -16    3   11     -1.47      0.00
   20    4   11      0.04      0.00
  -15    5   11     -1.89      0.00
  -14    7   11     -0.32      0.00
   21    7   11      1.49      0.00
  -12   10   11     -1.36      0.00
  -11   11   11      0.52      0.00
   -7   15   11     -0.39      0.00
   -6   16   11      1.09      0.00
   21   16   11      0.22      0.00
   -3   18   11     -1.23      0.00
   20   18   11      1.30      0.00
    0   20   11     -0.08      0.00
   17   21   11     -0.07      0.00
    5   22   11     -2.15      0.00
    6   22   11     -0.40      0.00
   15   22   11     -0.06      0.00
  -10  -13   12     -0.71      0.00
   -1  -13   12     -0.75      0.00
  -12  -12   12     -0.54      0.00
    2  -12   12      0.07      0.00
  -15   -9   12     -0.55      0.00
    8   -9   12      0.81      0.00
  -16   -7   12      0.10      0.00
   12   -6   12      1.36      0.00
   13   -5   12      0.52      0.00
   14   -4   12      2.21      0.00
   15   -3   12     -2.69      0.00
  -16    1   12      0.74      0.00
   18    1   12      1.05      0.00
   19    3   12      0.66      0.00
  -15    4   12      2.87      0.00
   20    5   12     -1.92      0.00
  -14    6   12     -1.57      0.00
  -13    8   12      2.38      0.00
   21    8   12      0.02      0.00
  -10   12   12      1.18      0.00
   -9   13   12      0.43      0.00
   -8   14   12      0.44      0.00
   -7   15   12     -2.29      0.00
   21   15   12      1.59      0.00
   21   16   12      3.51      0.00
   -3   18   12     -1.02      0.00
   20   18   12     -0.53      0.00
   19   19   12      2.11      0.00
   18   20   12     -1.93      0.00
    3   21   12     -0.36      0.00
   17   21   12     -1.87      0.00
    6   22   12     -1.88      0.00
   14   22   12      1.79      0.00
   15   22   12      1.32      0.00
  -10  -12   13     -1.85      0.00
    0  -12   13     -0.60      0.00
  -12  -11   13      1.31      0.00
    3  -11   13     -2.00      0.00
  -13  -10   13      0.26      0.00
    5  -10   13      0.05      0.00
  -14   -9   13      0.29      0.00
    7   -9   13     -1.36      0.00
  -15   -7   13     -0.61      0.00
   10   -7   13      0.50      0.00
   11   -6   13     -0.67      0.00
   12   -5   13      1.88      0.00
  -16   -3   13     -0.01      0.00
   14   -3   13      0.27      0.00
  -16   -2   13     -2.53      0.00
   15   -2   13     -0.14      0.00
   16   -1   13      0.11      0.00
   18    2   13      2.31      0.00
  -15    3   13      0.50      0.00
   19    4   13     -0.61      0.00
  -14    5   13     -1.71      0.00
   20    6   13      0.89      0.00
  -13    7   13      0.47      0.00
  -11   10   13     -2.29      0.00
   21   10   13      2.47      0.00
   21   11   13      0.40      0.00
   21   12   13      0.49      0.00
   21   13   13     -2.43      0.00
   21   14   13      1.24      0.00
   21   15   13      0.81      0.00
   -4   17   13     -0.86      0.00
   20   17   13      2.04      0.00
   -1   19   13     -2.29      0.00
   19   19   13     -1.59      0.00
    1   20   13     -0.34      0.00
   18   20   13      1.16      0.00
    3   21   13      0.48      0.00
   16   21   13      1.17      0.00
    6   22   13      0.60      0.00
    7   22   13      3.17      0.00
   13   22   13     -2.11      0.00
   14   22   13     -1.15      0.00
   -9  -11   14     -2.48      0.00
    0  -11   14     -0.88      0.00
    1  -11   14     -0.42      0.00
  -11  -10   14      2.05      0.00
    3  -10   14      0.91      0.00
  -13   -8   14      0.03      0.00
    7   -8   14      1.92      0.00
  -14   -7   14     -2.01      0.00
   10   -6   14      3.41      0.00
  -15   -4   14     -1.19      0.00
  -15   -3   14     -3.14      0.00
  -15   -2   14      0.31      0.00
  -15   -1   14      0.30      0.00
  -15    0   14     -1.23      0.00
   16    0   14      1.38      0.00
   18    3   14     -1.17      0.00
  -14    4   14     -0.16      0.00
   19    5   14      0.58      0.00
  -13    6   14      1.54      0.00
  -12    8   14      1.87      0.00
   20    8   14     -0.39      0.00
  -10   11   14     -1.41      0.00
   -9   12   14      1.94      0.00
   -8   13   14      1.20      0.00
   -7   14   14     -1.30      0.00
   -6   15   14     -1.80      0.00
   -5   16   14     -1.81      0.00
   20   16   14      1.42      0.00
   20   17   14     -0.19      0.00
   -2   18   14      1.04      0.00
   19   18   14     -1.76      0.00
    4   21   14     -0.24      0.00
   16   21   14     -1.55      0.00
    7   22   14      0.14      0.00
    8   22   14     -0.75      0.00
    9   22   14     -4.74      0.00
   11   22   14     -1.84      0.00
   12   22   14     -1.48      0.00
   13   22   14     -1.87      0.00
   -9  -10   15     -2.64      0.00
   -8  -10   15      0.02      0.00
    1  -10   15     -0.28      0.00
    4   -9   15      0.19      0.00
  -12   -8   15     -1.04      0.00
    6   -8   15     -0.42      0.00
  -13   -6   15      1.36      0.00
    9   -6   15      0.46      0.00
   10   -5   15     -1.49      0.00
  -14   -4   15      0.98      0.00
  -14   -3   15     -1.95      0.00
  -14   -2   15     -0.16      0.00
  -14   -1   15      0.24      0.00
  -14    0   15     -1.64      0.00
  -14    1   15      1.57      0.00
   16    1   15      1.49      0.00
   18    4   15      1.04      0.00
   19    6   15      0.83      0.00
  -12    7   15     -0.24      0.00
   20    9   15      0.04      0.00
  -10   10   15     -1.42      0.00
   20   10   15     -2.63      0.00
   20   11   15      2.27      0.00
   20   14   15     -0.16      0.00
   20   15   15     -1.02      0.00
   -3   17   15      2.53      0.00
   19   18   15     -1.85      0.00
    0   19   15     -0.10      0.00
   18   19   15      0.60      0.00
    2   20   15      3.71      0.00
   17   20   15     -1.47      0.00
    5   21   15      0.76      0.00
   15   21   15      1.03      0.00
    9   22   15     -3.92      0.00
   10   22   15     -2.68      0.00
   11   22   15     -2.51      0.00
   12   22   15     -1.51      0.00
   -8   -9   16      1.77      0.00
    1   -9   16     -1.41      0.00
  -10   -8   16     -0.46      0.00
    4   -8   16     -1.84      0.00
  -11   -7   16      4.88      0.00
    6   -7   16      0.79      0.00
  -12   -5   16     -2.34      0.00
    9   -5   16      0.93      0.00
  -13   -3   16      1.60      0.00
  -13   -2   16     -1.88      0.00
  -13   -1   16      0.46      0.00
  -13    0   16      2.49      0.00
  -13    1   16     -0.11      0.00
  -13    2   16      1.16      0.00
   16    2   16      2.34      0.00
   17    4   16     -0.47      0.00
  -12    5   16     -2.17      0.00
  -11    7   16      1.45      0.00
   19    8   16     -0.27      0.00
  -10    9   16     -2.04      0.00
   -8   12   16     -0.74      0.00
   -7   13   16     -0.32      0.00
   -6   14   16      1.71      0.00
   -5   15   16      0.86      0.00
   19   16   16     -0.27      0.00
   19   17   16     -1.60      0.00
   -1   18   16      0.88      0.00
   18   18   16      2.13      0.00
    1   19   16      2.08      0.00
   17   19   16     -0.57      0.00
    3   20   16      0.56      0.00
   16   20   16     -0.35      0.00
    6   21   16      1.28      0.00
   14   21   16      0.41      0.00
   -7   -8   17     -1.94      0.00
   -6   -8   17     -0.21      0.00
    0   -8   17     -1.52      0.00
    1   -8   17     -0.60      0.00
   -9   -7   17     -0.39      0.00
    4   -7   17      0.93      0.00
  -10   -6   17     -0.75      0.00
    6   -6   17      2.79      0.00
  -11   -5   17     -2.42      0.00
    9   -4   17      1.05      0.00
  -12   -2   17      2.11      0.00
  -12   -1   17      2.24      0.00
  -12    0   17      0.25      0.00
  -12    1   17      0.07      0.00
  -12    2   17      0.22      0.00
   15    2   17      0.73      0.00
  -12    3   17      0.02      0.00
   17    5   17      1.00      0.00
  -11    6   17      1.14      0.00
   18    7   17      0.51      0.00
  -10    8   17     -1.26      0.00
   19   10   17      0.88      0.00
   -8   11   17      1.14      0.00
   19   11   17     -0.95      0.00
   -7   12   17     -1.38      0.00
   19   12   17     -0.55      0.00
   -6   13   17     -0.59      0.00
   19   13   17      0.62      0.00
   -5   14   17     -0.01      0.00
   19   14   17     -2.58      0.00
   -4   15   17     -0.44      0.00
   19   15   17     -1.56      0.00
   -3   16   17     -1.71      0.00
   18   17   17     -0.36      0.00
    0   18   17     -0.32      0.00
    2   19   17      1.32      0.00
    4   20   17      3.17      0.00
   15   20   17     -0.32      0.00
    7   21   17      3.07      0.00
    8   21   17      1.08      0.00
    9   21   17     -0.57      0.00
   10   21   17     -3.30      0.00
   11   21   17      0.01      0.00
   12   21   17     -0.17      0.00
   13   21   17     -0.79      0.00
   -5   -7   18     -1.98      0.00
   -4   -7   18     -0.22      0.00
   -3   -7   18     -1.78      0.00
   -2   -7   18     -3.42      0.00
   -1   -7   18     -0.15      0.00
    0   -7   18      2.70      0.00
   -7   -6   18      0.76      0.00
    3   -6   18      0.80      0.00
   -9   -5   18      0.19      0.00
    6   -5   18     -0.48      0.00
  -10   -3   18     -1.35      0.00
    9   -3   18      0.80      0.00
   10   -2   18      0.76      0.00
  -11   -1   18     -3.45      0.00
  -11    0   18      0.72      0.00
  -11    1   18      2.44      0.00
  -11    2   18      1.14      0.00
   14    2   18     -0.47      0.00
  -11    3   18     -3.93      0.00
   15    3   18     -3.07      0.00
   16    5   18      0.57      0.00
  -10    6   18     -1.12      0.00
   17    7   18     -0.14      0.00
   -9    8   18      1.16      0.00
   18    9   18      1.72      0.00
   -8   10   18      0.98      0.00
   18   10   18     -1.23      0.00
   -7   11   18     -1.34      0.00
   18   11   18     -0.51      0.00
   -6   12   18     -1.58      0.00
   18   14   18      0.08      0.00
   -3   15   18     -1.74      0.00
   18   15   18      0.87      0.00
   -2   16   18      0.71      0.00
   -1   17   18      2.77      0.00
   17   17   18      0.41      0.00
    1   18   18      1.45      0.00
    3   19   18     -3.02      0.00
   15   19   18     -2.22      0.00
    6   20   18      2.19      0.00
   13   20   18      3.51      0.00
   14   20   18      2.99      0.00
   -3   -6   19     -1.56      0.00
   -2   -6   19     -2.11      0.00
   -1   -6   19      0.71      0.00
   -6   -5   19      3.12      0.00
    3   -5   19      0.50      0.00
   -7   -4   19      0.91      0.00
    5   -4   19     -2.72      0.00
   -8   -3   19      0.90      0.00
    7   -3   19      1.32      0.00
   -9   -2   19      2.52      0.00
   10   -1   19     -0.64      0.00
   11    0   19      1.70      0.00
   12    1   19     -0.70      0.00
   13    2   19      2.39      0.00
   -9    5   19      1.11      0.00
   15    5   19     -1.71      0.00
   -9    6   19      2.52      0.00
   16    7   19      1.10      0.00
   -8    8   19      0.06      0.00
   17    9   19     -1.95      0.00
   -7   10   19      2.17      0.00
   17   10   19     -0.28      0.00
   -6   11   19     -0.57      0.00
   -2   15   19      1.78      0.00
   17   15   19     -0.24      0.00
   -1   16   19      1.17      0.00
   17   16   19     -1.86      0.00
   16   17   19     -2.99      0.00
    2   18   19      0.89      0.00
   15   18   19     -0.58      0.00
    4   19   19     -1.27      0.00
    5   19   19      3.27      0.00
   14   19   19      4.45      0.00
    8   20   19      0.85      0.00
    9   20   19     -0.30      0.00
   10   20   19      1.60      0.00
   11   20   19     -2.32      0.00
   -4   -4   20     -0.38      0.00
   -3   -4   20      1.43      0.00
   -2   -4   20     -0.26      0.00
   -1   -4   20      1.83      0.00
    0   -4   20      2.68      0.00
    1   -4   20     -0.15      0.00
    2   -4   20      0.31      0.00
   -6   -3   20     -1.05      0.00
    4   -3   20      1.04      0.00
    5   -3   20      0.54      0.00
   -7   -2   20      1.40      0.00
    8   -1   20     -3.85      0.00
   -8    0   20     -2.27      0.00
   -8    1   20     -3.28      0.00
   -8    2   20     -3.26      0.00
   -8    3   20      0.29      0.00
   -8    4   20     -3.27      0.00
   13    4   20     -1.77      0.00
   -8    5   20     -3.13      0.00
   14    5   20     -2.15      0.00
   15    7   20      0.42      0.00
   -7    8   20     -0.27      0.00
   16    9   20      0.32      0.00
   16   10   20      0.37      0.00
   -5   11   20      0.71      0.00
   -4   12   20     -2.61      0.00
   -3   13   20      1.36      0.00
   -2   14   20     -1.36      0.00
   16   14   20     -1.02      0.00
   -1   15   20      2.11      0.00
   16   15   20     -2.38      0.00
    0   16   20      0.46      0.00
    2   17   20     -1.89      0.00
   15   17   20     -0.22      0.00
    4   18   20     -3.18      0.00
   13   18   20     -0.36      0.00
   14   18   20     -1.75      0.00
    7   19   20     -0.08      0.00
    8   19   20     -0.96      0.00
    9   19   20      2.52      0.00
   10   19   20      1.19      0.00
   11   19   20     -1.35      0.00
   12   19   20      1.38      0.00
   -4   -2   21     -1.58      0.00
   -3   -2   21     -1.83      0.00
    2   -2   21     -1.87      0.00
    3   -2   21      1.10      0.00
   -5   -1   21     -3.43      0.00
    5   -1   21     -0.35      0.00
    6   -1   21      0.61      0.00
   -6    0   21     -0.01      0.00
    7    0   21      0.10      0.00
   -6    1   21     -3.38      0.00
    9    1   21      2.83      0.00
   10    2   21      0.62      0.00
   11    3   21      1.19      0.00
   12    4   21     -0.41      0.00
   -6    6   21     -0.43      0.00
   13    6   21      1.20      0.00
   -6    7   21      2.06      0.00
   14    7   21     -0.10      0.00
   14    8   21      0.35      0.00
   -5    9   21     -1.87      0.00
   15   10   21     -0.56      0.00
   -4   11   21     -0.50      0.00
   15   11   21      1.85      0.00
   -3   12   21     -1.06      0.00
   15   12   21     -1.02      0.00
   -2   13   21     -1.29      0.00
   15   13   21      0.97      0.00
   -1   14   21     -0.33      0.00
   15   14   21     -0.16      0.00
    0   15   21     -2.37      0.00
    2   16   21     -2.70      0.00
   14   16   21      1.86      0.00
    4   17   21      1.96      0.00
   13   17   21      0.48      0.00
    6   18   21     -0.64      0.00
    7   18   21     -0.78      0.00
    8   18   21      0.02      0.00
    9   18   21     -1.41      0.00
   10   18   21     -2.09      0.00
   11   18   21      0.76      0.00
   -2    0   22      1.39      0.00
   -1    0   22     -1.79      0.00
    3    0   22      1.39      0.00
    4    0   22     -1.47      0.00
   -3    1   22      1.10      0.00
    6    1   22     -0.18      0.00
   -4    2   22     -1.01      0.00
    7    2   22     -0.80      0.00
   -4    3   22     -1.72      0.00
    9    3   22     -1.28      0.00
   -5    4   22      1.57      0.00
   10    4   22      1.37      0.00
   11    5   22     -0.68      0.00
   -4    7   22      0.40      0.00
   12    7   22      0.09      0.00
   -4    8   22      0.32      0.00
   13    8   22      1.63      0.00
   13    9   22     -0.12      0.00
   -3   10   22      1.71      0.00
   13   10   22      0.13      0.00
   -2   11   22      2.34      0.00
   -1   12   22     -0.91      0.00
    0   13   22     -4.15      0.00
    1   14   22      0.40      0.00
   13   14   22      0.38      0.00
    2   15   22     -1.38      0.00
    3   15   22      0.55      0.00
   12   15   22      1.17      0.00
   13   15   22      0.11      0.00
    4   16   22      0.66      0.00
    5   16   22     -0.41      0.00
    6   16   22     -2.68      0.00
   11   16   22      1.68      0.00
   12   16   22      2.16      0.00
    7   17   22      0.19      0.00
    8   17   22      0.69      0.00
    9   17   22      0.77      0.00
   10   17   22     -0.04      0.00
    0    2   23      0.73      0.00
    1    2   23      3.16      0.00
    2    2   23      1.31      0.00
    3    2   23      1.34      0.00
   -1    3   23     -2.73      0.00
    0    3   23     -0.61      0.00
    5    3   23     -0.46      0.00
    6    3   23      0.37      0.00
   -2    4   23      2.27      0.00
   -1    4   23     -0.26      0.00
    7    4   23      5.42      0.00
   -2    5   23      0.78      0.00
    8    5   23      1.48      0.00
   -2    6   23      1.57      0.00
    9    6   23     -1.08      0.00
   -2    7   23      2.27      0.00
   10    7   23      0.64      0.00
   -2    8   23     -2.90      0.00
   11    8   23     -1.64      0.00
   -1    9   23     -0.33      0.00
   11    9   23     -1.18      0.00
   -1   10   23      2.02      0.00
   11   10   23     -2.49      0.00
    0   11   23     -1.48      0.00
   11   11   23      2.50      0.00
    1   12   23      1.28      0.00
   11   12   23      2.95      0.00
    2   13   23     -0.34      0.00
   11   13   23     -0.51      0.00
    4   14   23     -5.12      0.00
   10   14   23      0.35      0.00
   11   14   23      0.13      0.00
    6   15   23     -0.48      0.00
    7   15   23      0.99      0.00
    8   15   23      1.22      0.00
    9   15   23      0.79      0.00
    2    6   24      1.19      0.00
    3    6   24     -0.05      0.00
    4    6   24     -0.95      0.00
    5    6   24     -0.06      0.00
    2    7   24      0.02      0.00
    3    7   24     -0.04      0.00
    4    7   24      1.18      0.00
    5    7   24      1.26      0.00
    6    7   24      0.18      0.00
    2    8   24     -0.61      0.00
    3    8   24     -1.35      0.00
    4    8   24     -0.19      0.00
    5    8   24      0.82      0.00
    6    8   24      0.48      0.00
    7    8   24     -0.64      0.00
    2    9   24      0.63      0.00
    3    9   24     -0.68      0.00
    4    9   24     -2.39      0.00
    6    9   24      1.90      0.00
    7    9   24      0.07      0.00
    8    9   24      0.58      0.00
    3   10   24      0.60      0.00
    4   10   24     -2.14      0.00
    5   10   24     -2.81      0.00
    6   10   24     -1.75      0.00
    7   10   24     -1.00      0.00
    8   10   24      2.03      0.00
    4   11   24      0.15      0.00
    5   11   24     -0.54      0.00
    6   11   24     -0.53      0.00
    7   11   24     -2.01      0.00
    8   11   24     -0.68      0.00
    5   12   24     -0.90      0.00
    6   12   24     -0.08      0.00
    7   12   24     -1.64      0.00
    8   12   24     -1.20      0.00
    0    0    0      0.00      0.00
# SQUEEZE RESULTS
# Note: Data are Listed for all Voids in the P1 Unit Cell
# i.e. Centre of Gravity, Solvent Accessible Volume,
# Recovered number of Electrons in the Void and
# Details about the Squeezed Material
loop_
  _platon_squeeze_void_nr
  _platon_squeeze_void_average_x
  _platon_squeeze_void_average_y
  _platon_squeeze_void_average_z
  _platon_squeeze_void_volume
  _platon_squeeze_void_count_electrons
  _platon_squeeze_void_content
   1  0.000 -0.002 -0.002      1464       396 ' '
   2  0.393  0.238  0.510         7         2 ' '
   3  0.607  0.762  0.490         7         2 ' '
_platon_squeeze_details
(replace by semicolon in column 1 when used as .sqf)
TITL T         P -1         R = 0.11
CELL   16.7540   16.8940   18.0010     66.66     77.37     62.28
SPGR P-1
# Solvent Accessible Volume =    1481.5
# Electrons Found in S.A.V. =     395.2
# Note: Atoms in Void as Cxxx and Qxxx all others
C101 0.320 0.850 0.207 !       5.23 eA-3
C102 1.001 0.571 0.277 !       4.91 eA-3
C103 0.119 0.794 0.932 !       4.51 eA-3
C104 0.076 0.582 0.221 !       4.33 eA-3
C105 0.706 1.011 0.845 !       4.23 eA-3
C106 0.925 0.355 0.810 !       4.18 eA-3
Q107 0.183 0.155 0.526 !       4.15 eA-3
C108 0.913 0.064 0.175 !       3.94 eA-3
C109 0.941 0.771 0.242 !       3.79 eA-3
C110 0.862 0.138 0.110 !       3.74 eA-3
C111 0.621 0.028 0.874 !       3.56 eA-3
C112 0.233 0.086 0.124 !       3.55 eA-3
C113 0.940 0.709 0.267 !       3.44 eA-3
C114 0.018 0.458 0.316 !       3.36 eA-3
C115 0.970 0.972 0.639 !       3.30 eA-3
C116 0.012 0.353 0.732 !       3.12 eA-3
C117 0.721 0.060 0.814 !       3.09 eA-3
C118 0.939 0.789 0.606 !       3.03 eA-3
Q119 0.939 0.984 0.302 !       2.94 eA-3
Q120 0.173 0.162 0.592 !       2.93 eA-3
C121 0.061 0.381 0.691 !       2.89 eA-3
C122 0.058 0.782 0.558 !       2.88 eA-3
Q123 0.036 0.365 0.407 !       2.78 eA-3
C124 0.985 0.873 0.716 !       2.77 eA-3
C125 0.011 0.629 0.249 !       2.75 eA-3
C126 0.105 0.877 0.624 !       2.73 eA-3
C127 0.031 0.171 0.265 !       2.69 eA-3
Q128 0.048 0.175 0.799 !       2.69 eA-3
C129 1.003 0.888 0.220 !       2.67 eA-3
Q130 0.369 0.961 0.715 !       2.64 eA-3
C131 0.108 0.703 0.610 !       2.60 eA-3
C132 0.970 0.220 0.405 !       2.58 eA-3
C133 0.941 0.185 0.468 !       2.57 eA-3
C134 0.323 0.905 0.176 !       2.54 eA-3
Q135 0.388 0.408 0.909 !       2.48 eA-3
C136 0.049 0.159 0.237 !       2.47 eA-3
C137 0.024 0.874 0.702 !       2.45 eA-3
C138 0.234 1.000 0.151 !       2.44 eA-3
C139 0.045 0.269 0.372 !       2.44 eA-3
C140 0.057 0.983 0.608 !       2.41 eA-3
C141 0.889 0.029 0.607 !       2.37 eA-3
C142 0.876 0.264 0.419 !       2.35 eA-3
Q143 0.697 0.048 0.259 !       2.31 eA-3
Q144 0.541 0.220 0.064 !       2.31 eA-3
C145 0.013 0.677 0.623 !       2.29 eA-3
C146 0.988 0.221 0.357 !       2.29 eA-3
C147 0.251 0.971 0.175 !       2.27 eA-3
C148 0.181 0.719 0.001 !       2.26 eA-3
C149 0.028 0.815 0.593 !       2.26 eA-3
Q150 0.504 0.747 0.905 !       2.26 eA-3
C151 0.060 0.745 0.626 !       2.23 eA-3
C152 0.982 0.749 0.235 !       2.23 eA-3
C153 0.036 0.776 0.944 !       2.23 eA-3
C154 0.950 0.294 0.831 !       2.23 eA-3
C155 0.826 0.162 0.048 !       2.22 eA-3
Q156 0.499 0.799 0.892 !       2.21 eA-3
C157 0.999 0.216 0.027 !       2.20 eA-3
C158 0.137 0.895 0.853 !       2.14 eA-3
C159 0.188 0.693 0.990 !       2.11 eA-3
C160 0.016 0.372 0.348 !       2.10 eA-3
C161 0.668 0.051 0.832 !       2.09 eA-3
C162 0.971 0.044 0.343 !       2.09 eA-3
C163 0.200 0.785 0.986 !       2.08 eA-3
C164 0.033 0.881 0.626 !       2.07 eA-3
Q165 0.331 0.955 0.796 !       2.06 eA-3
C166 0.661 0.132 0.761 !       2.03 eA-3
C167 0.987 0.336 0.762 !       2.02 eA-3
C168 0.074 0.761 0.972 !       2.01 eA-3
C169 0.909 0.017 0.333 !       2.01 eA-3
C170 0.855 0.095 0.030 !       2.01 eA-3
C171 0.404 0.926 0.114 !       1.99 eA-3
C172 0.013 0.957 0.038 !       1.97 eA-3
C173 0.628 0.087 0.873 !       1.94 eA-3
C174 0.643 0.113 0.814 !       1.93 eA-3
Q175 0.872 0.580 0.218 !       1.93 eA-3
C176 0.816 0.242 0.969 !       1.90 eA-3
Q177 0.058 0.127 0.847 !       1.89 eA-3
C178 0.034 0.198 0.423 !       1.87 eA-3
C179 0.016 0.503 0.622 !       1.86 eA-3
C180 0.091 0.847 0.873 !       1.84 eA-3
C181 0.975 0.451 0.334 !       1.83 eA-3
C182 0.202 0.922 0.344 !       1.83 eA-3
C183 0.905 0.121 0.842 !       1.83 eA-3
C184 0.936 0.442 0.724 !       1.82 eA-3
Q185 0.474 0.788 0.863 !       1.80 eA-3
C186 0.898 0.047 0.294 !       1.80 eA-3
C187 0.879 0.207 0.427 !       1.79 eA-3
C188 0.154 0.671 0.607 !       1.78 eA-3
C189 0.858 0.082 0.060 !       1.77 eA-3
Q190 0.156 0.344 0.689 !       1.76 eA-3
C191 0.950 0.574 0.304 !       1.76 eA-3
C192 0.157 0.842 0.000 !       1.76 eA-3
C193 0.029 0.160 0.392 !       1.74 eA-3
Q194 0.549 0.046 0.536 !       1.74 eA-3
C195 0.858 0.206 0.465 !       1.73 eA-3
C196 0.107 0.908 0.439 !       1.72 eA-3
C197 0.882 0.151 0.058 !       1.71 eA-3
C198 0.081 0.926 0.050 !       1.71 eA-3
C199 0.295 0.124 0.109 !       1.70 eA-3
(replace by semicolon in column 1 when used as .sqf)
;
_shelx_fab_checksum              37193
_publcif_funding_html
;
;
loop_
_space_group_symop_operation_xyz
'x, y, z'
'-x, -y, -z'
loop_
_atom_site_label
_atom_site_type_symbol
_atom_site_fract_x
_atom_site_fract_y
_atom_site_fract_z
_atom_site_U_iso_or_equiv
_atom_site_adp_type
_atom_site_occupancy
_atom_site_site_symmetry_order
_atom_site_calc_flag
_atom_site_refinement_flags_posn
_atom_site_refinement_flags_adp
_atom_site_refinement_flags_occupancy
_atom_site_disorder_assembly
_atom_site_disorder_group
Cd1 Cd 1.48838(3) -1.22280(3) 0.90533(3) 0.03208(13) Uani 1 1 d . . . . .
Cd2 Cd 1.32887(3) -1.02563(3) 0.74953(3) 0.03653(14) Uani 1 1 d . . . . .
Cd3 Cd 1.20028(3) -0.83416(3) 0.56472(3) 0.03927(14) Uani 1 1 d . . . . .
O1 O 1.3574(3) -1.0767(3) 0.8841(3) 0.0382(10) Uani 1 1 d . . . . .
O2 O 1.4603(3) -1.0980(3) 0.9549(3) 0.0514(13) Uani 1 1 d . . . . .
O3 O 1.4522(3) -0.2821(3) 0.8313(3) 0.0329(10) Uani 1 1 d . . . . .
O4 O 1.3238(3) -0.1594(3) 0.7766(3) 0.0433(11) Uani 1 1 d . . . . .
O5 O 0.6278(3) -0.3723(3) 0.9475(3) 0.0521(13) Uani 1 1 d . . . . .
O6 O 0.6310(3) -0.2355(3) 0.8704(3) 0.0488(13) Uani 1 1 d . . . . .
O7 O 1.4896(3) -1.0938(3) 0.7420(3) 0.0455(12) Uani 1 1 d . . . . .
O8 O 1.1749(4) -0.9560(4) 0.7584(4) 0.0742(18) Uani 1 1 d . . . . .
H1W H 1.135780 -0.953527 0.795795 0.089 Uiso 1 1 d R U . . .
H2W H 1.151720 -0.946607 0.717685 0.089 Uiso 1 1 d R U . . .
O9 O 1.3154(3) -0.9867(3) 0.6113(3) 0.0379(10) Uani 1 1 d . . . . .
O10 O 1.2344(3) -0.9631(3) 0.5179(3) 0.0475(12) Uani 1 1 d . . . . .
O11 O 1.3497(3) -1.8981(3) 0.7190(3) 0.0400(11) Uani 1 1 d . . . . .
O12 O 1.2448(3) -1.7776(3) 0.6326(3) 0.0428(11) Uani 1 1 d . . . . .
O13 O 2.0612(3) -1.8242(4) 0.6099(4) 0.0650(17) Uani 1 1 d . . . . .
O14 O 2.0598(3) -1.6878(4) 0.5374(4) 0.0710(18) Uani 1 1 d . . . . .
N1 N 1.4268(3) -1.3071(4) 1.0195(3) 0.0388(13) Uani 1 1 d . . . . .
N2 N 1.2474(4) -1.7472(4) 1.4420(3) 0.0371(12) Uani 1 1 d . . . . .
N3 N 1.5614(4) -1.0002(4) 0.6625(4) 0.0448(14) Uani 1 1 d . . . . .
C1 C 1.3962(6) -1.2883(5) 1.0878(5) 0.056(2) Uani 1 1 d . . . . .
H1A H 1.398461 -1.235173 1.092239 0.067 Uiso 1 1 calc R U . . .
C2 C 1.3611(6) -1.3425(6) 1.1526(5) 0.063(2) Uani 1 1 d . . . . .
H2A H 1.338987 -1.325330 1.199841 0.076 Uiso 1 1 calc R U . . .
C3 C 1.3576(4) -1.4221(5) 1.1500(4) 0.0403(16) Uani 1 1 d . . . . .
C4 C 1.3885(4) -1.4409(5) 1.0776(4) 0.0409(16) Uani 1 1 d . . . . .
H4A H 1.385877 -1.492620 1.070864 0.049 Uiso 1 1 calc R U . . .
C5 C 1.4228(5) -1.3832(5) 1.0162(5) 0.0470(18) Uani 1 1 d . . . . .
H5A H 1.445299 -1.398247 0.968001 0.056 Uiso 1 1 calc R U . . .
C6 C 1.3223(5) -1.4818(5) 1.2195(4) 0.0445(17) Uani 1 1 d . . . . .
H6A H 1.288946 -1.455981 1.260701 0.053 Uiso 1 1 calc R U . . .
C7 C 1.3326(4) -1.5690(5) 1.2302(4) 0.0389(15) Uani 1 1 d . . . . .
H7A H 1.363330 -1.594059 1.188017 0.047 Uiso 1 1 calc R U . . .
C8 C 1.3004(4) -1.6292(5) 1.3017(4) 0.0369(15) Uani 1 1 d . . . . .
C9 C 1.2408(5) -1.5940(5) 1.3594(4) 0.0435(17) Uani 1 1 d . . . . .
H9A H 1.216815 -1.528296 1.351918 0.052 Uiso 1 1 calc R U . . .
C10 C 1.2161(5) -1.6548(5) 1.4281(5) 0.0456(17) Uani 1 1 d . . . . .
H10A H 1.174919 -1.629130 1.466878 0.055 Uiso 1 1 calc R U . . .
C11 C 1.3026(5) -1.7803(5) 1.3841(5) 0.0463(17) Uani 1 1 d . . . . .
H11A H 1.323293 -1.845582 1.391647 0.056 Uiso 1 1 calc R U . . .
C12 C 1.3304(5) -1.7252(5) 1.3153(5) 0.0460(17) Uani 1 1 d . . . . .
H12A H 1.370172 -1.752397 1.276723 0.055 Uiso 1 1 calc R U . . .
C13 C 1.3895(4) -1.0448(4) 0.9183(4) 0.0364(15) Uani 1 1 d . . . . .
C14 C 1.3390(4) -0.9438(4) 0.9145(4) 0.0356(14) Uani 1 1 d . . . . .
C15 C 1.3810(4) -0.8994(5) 0.9334(5) 0.0437(17) Uani 1 1 d . . . . .
H15A H 1.440441 -0.935481 0.952682 0.052 Uiso 1 1 calc R U . . .
C16 C 1.3375(4) -0.8048(5) 0.9244(5) 0.0422(17) Uani 1 1 d . . . . .
H16A H 1.367067 -0.776249 0.937791 0.051 Uiso 1 1 calc R U . . .
C17 C 1.2495(4) -0.7492(4) 0.8954(4) 0.0304(13) Uani 1 1 d . . . . .
C18 C 1.2072(4) -0.7948(4) 0.8800(4) 0.0377(15) Uani 1 1 d . . . . .
H18A H 1.146841 -0.759567 0.862958 0.045 Uiso 1 1 calc R U . . .
C19 C 1.2513(4) -0.8907(5) 0.8890(4) 0.0402(16) Uani 1 1 d . . . . .
H19A H 1.221081 -0.919990 0.877690 0.048 Uiso 1 1 calc R U . . .
C20 C 1.3767(4) -0.2473(4) 0.8028(4) 0.0318(13) Uani 1 1 d . . . . .
C21 C 1.3403(4) -0.3140(4) 0.8023(4) 0.0327(14) Uani 1 1 d . . . . .
C22 C 1.3839(4) -0.4115(4) 0.8400(4) 0.0373(15) Uani 1 1 d . . . . .
H22A H 1.442573 -0.438549 0.859422 0.045 Uiso 1 1 calc R U . . .
C23 C 1.3431(4) -0.4697(4) 0.8497(4) 0.0388(15) Uani 1 1 d . . . . .
H23A H 1.374423 -0.536359 0.875742 0.047 Uiso 1 1 calc R U . . .
C24 C 1.2578(4) -0.4337(4) 0.8225(4) 0.0355(14) Uani 1 1 d . . . . .
C25 C 1.2180(4) -0.3350(5) 0.7772(5) 0.0447(17) Uani 1 1 d . . . . .
H25A H 1.162051 -0.308388 0.752965 0.054 Uiso 1 1 calc R U . . .
C26 C 1.2587(5) -0.2770(5) 0.7678(4) 0.0416(16) Uani 1 1 d . . . . .
H26A H 1.230645 -0.211158 0.737448 0.050 Uiso 1 1 calc R U . . .
C27 C 0.6696(4) -0.3239(4) 0.9078(4) 0.0298(13) Uani 1 1 d . . . . .
C28 C 0.7727(4) -0.3713(4) 0.9013(4) 0.0316(13) Uani 1 1 d . . . . .
C29 C 0.8205(4) -0.4642(5) 0.9469(4) 0.0430(17) Uani 1 1 d . . . . .
H29A H 0.788782 -0.499534 0.983334 0.052 Uiso 1 1 calc R U . . .
C30 C 0.9132(4) -0.5075(5) 0.9413(4) 0.0449(17) Uani 1 1 d . . . . .
H30A H 0.944496 -0.571778 0.974393 0.054 Uiso 1 1 calc R U . . .
C31 C 0.9612(4) -0.4583(4) 0.8879(4) 0.0308(13) Uani 1 1 d . . . . .
C32 C 0.9136(4) -0.3629(5) 0.8416(5) 0.0472(18) Uani 1 1 d . . . . .
H32A H 0.945350 -0.327595 0.805059 0.057 Uiso 1 1 calc R U . . .
C33 C 0.8214(4) -0.3203(4) 0.8490(5) 0.0449(18) Uani 1 1 d . . . . .
H33A H 0.789850 -0.255166 0.818081 0.054 Uiso 1 1 calc R U . . .
C34 C 1.2019(4) -0.6454(4) 0.8816(4) 0.0332(14) Uani 1 1 d . . . . .
C35 C 1.2505(4) -0.5898(4) 0.8560(4) 0.0344(14) Uani 1 1 d . . . . .
H35A H 1.314255 -0.618908 0.848146 0.041 Uiso 1 1 calc R U . . .
C36 C 1.2062(4) -0.4917(5) 0.8418(4) 0.0351(14) Uani 1 1 d . . . . .
C37 C 1.1117(4) -0.4516(4) 0.8530(4) 0.0357(15) Uani 1 1 d . . . . .
H37A H 1.080782 -0.385145 0.843390 0.043 Uiso 1 1 calc R U . . .
C38 C 1.0619(4) -0.5043(4) 0.8772(4) 0.0314(13) Uani 1 1 d . . . . .
C39 C 1.1088(4) -0.6018(4) 0.8916(4) 0.0325(14) Uani 1 1 d . . . . .
H39A H 1.075864 -0.639507 0.908721 0.039 Uiso 1 1 calc R U . . .
C40 C 1.5435(4) -1.0597(5) 0.7315(5) 0.0457(17) Uani 1 1 d . . . . .
H40A H 1.575560 -1.077400 0.777149 0.055 Uiso 1 1 calc R U . . .
C41 C 1.5127(6) -0.9647(7) 0.5901(5) 0.063(2) Uani 1 1 d . . . . .
H41A H 1.535024 -0.922127 0.545687 0.095 Uiso 1 1 calc R U . . .
H41B H 1.522024 -1.018225 0.575081 0.095 Uiso 1 1 calc R U . . .
H41C H 1.448140 -0.929671 0.600828 0.095 Uiso 1 1 calc R U . . .
C42 C 1.6322(6) -0.9702(6) 0.6571(6) 0.065(2) Uani 1 1 d . . . . .
H42A H 1.635963 -0.926728 0.602158 0.098 Uiso 1 1 calc R U . . .
H42B H 1.617805 -0.937567 0.695987 0.098 Uiso 1 1 calc R U . . .
H42C H 1.690226 -1.026056 0.669423 0.098 Uiso 1 1 calc R U . . .
C43 C 1.2945(4) -1.0181(4) 0.5683(4) 0.0318(14) Uani 1 1 d . . . . .
C44 C 1.3448(4) -1.1211(4) 0.5757(4) 0.0291(13) Uani 1 1 d . . . . .
C45 C 1.4272(4) -1.1772(4) 0.6130(4) 0.0348(14) Uani 1 1 d . . . . .
H45A H 1.452199 -1.149939 0.633416 0.042 Uiso 1 1 calc R U . . .
C46 C 1.4728(4) -1.2720(4) 0.6204(4) 0.0348(14) Uani 1 1 d . . . . .
H46A H 1.528929 -1.309196 0.646100 0.042 Uiso 1 1 calc R U . . .
C47 C 1.4381(4) -1.3144(4) 0.5910(4) 0.0305(13) Uani 1 1 d . . . . .
C48 C 1.3558(4) -1.2585(4) 0.5543(4) 0.0397(15) Uani 1 1 d . . . . .
H48A H 1.330466 -1.286128 0.534647 0.048 Uiso 1 1 calc R U . . .
C49 C 1.3095(4) -1.1623(4) 0.5459(4) 0.0374(15) Uani 1 1 d . . . . .
H49A H 1.253673 -1.124733 0.519664 0.045 Uiso 1 1 calc R U . . .
C50 C 1.3110(4) -1.8125(4) 0.6754(4) 0.0318(14) Uani 1 1 d . . . . .
C51 C 1.3488(4) -1.7467(4) 0.6736(4) 0.0325(14) Uani 1 1 d . . . . .
C52 C 1.4272(4) -1.7829(4) 0.7140(4) 0.0395(15) Uani 1 1 d . . . . .
H52A H 1.452094 -1.847440 0.748534 0.047 Uiso 1 1 calc R U . . .
C53 C 1.4688(4) -1.7252(5) 0.7040(4) 0.0423(16) Uani 1 1 d . . . . .
H53A H 1.522861 -1.751352 0.731032 0.051 Uiso 1 1 calc R U . . .
C54 C 1.4338(4) -1.6306(4) 0.6559(4) 0.0328(14) Uani 1 1 d . . . . .
C55 C 1.3512(4) -1.5934(5) 0.6216(5) 0.0456(18) Uani 1 1 d . . . . .
H55A H 1.323197 -1.527516 0.591172 0.055 Uiso 1 1 calc R U . . .
C56 C 1.3096(4) -1.6509(4) 0.6312(4) 0.0405(16) Uani 1 1 d . . . . .
H56A H 1.252831 -1.623761 0.608150 0.049 Uiso 1 1 calc R U . . .
C57 C 2.0202(4) -1.7369(5) 0.5783(4) 0.0424(16) Uani 1 1 d . . . . .
C58 C 1.9177(4) -1.6907(5) 0.5873(4) 0.0396(16) Uani 1 1 d . . . . .
C59 C 1.8720(4) -1.7423(6) 0.6364(5) 0.054(2) Uani 1 1 d . . . . .
H59A H 1.904991 -1.807701 0.665678 0.065 Uiso 1 1 calc R U . . .
C60 C 1.7776(4) -1.7018(5) 0.6453(5) 0.0417(16) Uani 1 1 d . . . . .
H60A H 1.747189 -1.739194 0.680731 0.050 Uiso 1 1 calc R U . . .
C61 C 1.7284(4) -1.6056(4) 0.6012(4) 0.0350(14) Uani 1 1 d . . . . .
C62 C 1.7765(4) -1.5539(5) 0.5520(4) 0.0389(15) Uani 1 1 d . . . . .
H62A H 1.744423 -1.488509 0.522010 0.047 Uiso 1 1 calc R U . . .
C63 C 1.8707(4) -1.5950(5) 0.5452(4) 0.0411(16) Uani 1 1 d . . . . .
H63A H 1.902063 -1.557758 0.511979 0.049 Uiso 1 1 calc R U . . .
C64 C 1.4867(4) -1.4176(4) 0.6028(4) 0.0309(13) Uani 1 1 d . . . . .
C65 C 1.4380(4) -1.4737(4) 0.6241(4) 0.0320(14) Uani 1 1 d . . . . .
H65A H 1.373963 -1.444995 0.629564 0.038 Uiso 1 1 calc R U . . .
C66 C 1.4841(4) -1.5714(4) 0.6370(4) 0.0310(14) Uani 1 1 d . . . . .
C67 C 1.5770(4) -1.6129(4) 0.6286(4) 0.0356(14) Uani 1 1 d . . . . .
H67A H 1.607651 -1.679004 0.636658 0.043 Uiso 1 1 calc R U . . .
C68 C 1.6275(4) -1.5588(4) 0.6083(4) 0.0317(13) Uani 1 1 d . . . . .
C69 C 1.5798(4) -1.4618(4) 0.5956(4) 0.0340(14) Uani 1 1 d . . . . .
H69A H 1.612665 -1.424336 0.581250 0.041 Uiso 1 1 calc R U . . .
loop_
_atom_site_aniso_label
_atom_site_aniso_U_11
_atom_site_aniso_U_22
_atom_site_aniso_U_33
_atom_site_aniso_U_23
_atom_site_aniso_U_13
_atom_site_aniso_U_12
Cd1 0.0206(2) 0.0225(2) 0.0526(3) -0.0157(2) -0.00079(19) -0.00662(16)
Cd2 0.0372(3) 0.0199(2) 0.0525(3) -0.0073(2) -0.0108(2) -0.01233(19)
Cd3 0.0247(2) 0.0260(2) 0.0624(3) -0.0170(2) -0.0062(2) -0.00347(18)
O1 0.043(2) 0.021(2) 0.047(3) -0.012(2) -0.003(2) -0.0104(19)
O2 0.035(3) 0.031(3) 0.090(4) -0.031(3) -0.015(3) -0.002(2)
O3 0.024(2) 0.025(2) 0.051(3) -0.0116(19) -0.0001(19) -0.0137(17)
O4 0.042(3) 0.024(2) 0.062(3) -0.010(2) -0.006(2) -0.015(2)
O5 0.024(2) 0.041(3) 0.074(4) -0.009(3) 0.006(2) -0.011(2)
O6 0.021(2) 0.032(3) 0.080(4) -0.016(2) 0.003(2) -0.0057(19)
O7 0.028(2) 0.034(3) 0.073(3) -0.018(2) 0.000(2) -0.013(2)
O8 0.041(3) 0.070(4) 0.117(5) -0.036(4) -0.013(3) -0.021(3)
O9 0.043(3) 0.024(2) 0.046(3) -0.010(2) -0.011(2) -0.0109(19)
O10 0.041(3) 0.032(3) 0.065(3) -0.018(2) -0.015(2) -0.005(2)
O11 0.045(3) 0.022(2) 0.054(3) -0.011(2) -0.003(2) -0.0163(19)
O12 0.032(2) 0.035(3) 0.068(3) -0.020(2) -0.007(2) -0.016(2)
O13 0.026(2) 0.041(3) 0.104(5) -0.021(3) 0.012(3) -0.005(2)
O14 0.023(2) 0.070(4) 0.093(4) -0.003(3) -0.001(3) -0.020(3)
N1 0.031(3) 0.031(3) 0.049(3) -0.019(3) 0.005(2) -0.008(2)
N2 0.036(3) 0.030(3) 0.044(3) -0.015(2) 0.002(2) -0.012(2)
N3 0.041(3) 0.038(3) 0.057(4) -0.017(3) 0.009(3) -0.022(3)
C1 0.069(5) 0.042(4) 0.069(5) -0.027(4) 0.007(4) -0.031(4)
C2 0.090(6) 0.054(5) 0.055(5) -0.028(4) 0.028(5) -0.044(5)
C3 0.038(3) 0.029(3) 0.050(4) -0.015(3) 0.008(3) -0.013(3)
C4 0.038(3) 0.032(4) 0.054(4) -0.018(3) 0.005(3) -0.016(3)
C5 0.057(4) 0.036(4) 0.049(4) -0.023(3) 0.010(3) -0.018(3)
C6 0.039(4) 0.050(4) 0.046(4) -0.020(3) 0.009(3) -0.022(3)
C7 0.035(3) 0.038(4) 0.043(4) -0.019(3) 0.003(3) -0.012(3)
C8 0.028(3) 0.040(4) 0.047(4) -0.020(3) 0.001(3) -0.014(3)
C9 0.042(4) 0.031(4) 0.056(5) -0.021(3) 0.007(3) -0.012(3)
C10 0.040(4) 0.033(4) 0.060(5) -0.023(3) 0.013(3) -0.013(3)
C11 0.051(4) 0.029(4) 0.058(5) -0.019(3) 0.000(4) -0.013(3)
C12 0.047(4) 0.031(4) 0.053(4) -0.019(3) 0.007(3) -0.011(3)
C13 0.031(3) 0.029(3) 0.055(4) -0.022(3) 0.008(3) -0.015(3)
C14 0.035(3) 0.026(3) 0.044(4) -0.014(3) 0.001(3) -0.011(3)
C15 0.027(3) 0.032(3) 0.076(5) -0.028(4) -0.013(3) -0.002(3)
C16 0.025(3) 0.031(3) 0.078(5) -0.025(3) -0.008(3) -0.009(3)
C17 0.024(3) 0.020(3) 0.050(4) -0.016(3) 0.001(3) -0.010(2)
C18 0.023(3) 0.026(3) 0.068(5) -0.025(3) -0.007(3) -0.005(2)
C19 0.032(3) 0.035(4) 0.065(5) -0.027(3) -0.002(3) -0.015(3)
C20 0.036(3) 0.026(3) 0.032(3) -0.007(3) 0.003(3) -0.017(3)
C21 0.029(3) 0.024(3) 0.045(4) -0.009(3) -0.003(3) -0.012(2)
C22 0.027(3) 0.021(3) 0.061(4) -0.014(3) -0.006(3) -0.007(2)
C23 0.025(3) 0.026(3) 0.062(5) -0.017(3) -0.001(3) -0.007(2)
C24 0.024(3) 0.024(3) 0.056(4) -0.013(3) -0.005(3) -0.007(2)
C25 0.034(3) 0.030(3) 0.068(5) -0.005(3) -0.014(3) -0.016(3)
C26 0.044(4) 0.022(3) 0.055(4) -0.003(3) -0.013(3) -0.015(3)
C27 0.019(3) 0.039(4) 0.035(3) -0.018(3) 0.002(2) -0.012(3)
C28 0.017(3) 0.032(3) 0.045(4) -0.017(3) 0.001(2) -0.007(2)
C29 0.027(3) 0.034(4) 0.058(5) -0.008(3) 0.002(3) -0.013(3)
C30 0.026(3) 0.035(4) 0.055(4) -0.007(3) -0.001(3) -0.004(3)
C31 0.021(3) 0.024(3) 0.049(4) -0.016(3) 0.000(3) -0.009(2)
C32 0.029(3) 0.026(3) 0.078(5) -0.013(3) 0.007(3) -0.012(3)
C33 0.031(3) 0.014(3) 0.082(5) -0.010(3) 0.003(3) -0.012(2)
C34 0.024(3) 0.027(3) 0.054(4) -0.020(3) 0.000(3) -0.010(2)
C35 0.020(3) 0.025(3) 0.060(4) -0.020(3) 0.000(3) -0.007(2)
C36 0.019(3) 0.036(3) 0.049(4) -0.014(3) -0.003(3) -0.010(2)
C37 0.023(3) 0.026(3) 0.059(4) -0.020(3) -0.003(3) -0.006(2)
C38 0.020(3) 0.027(3) 0.048(4) -0.014(3) 0.003(3) -0.010(2)
C39 0.022(3) 0.027(3) 0.055(4) -0.019(3) -0.003(3) -0.011(2)
C40 0.033(3) 0.036(4) 0.067(5) -0.021(4) 0.007(3) -0.015(3)
C41 0.053(5) 0.075(6) 0.057(5) -0.026(5) 0.010(4) -0.026(4)
C42 0.063(5) 0.065(6) 0.087(6) -0.030(5) 0.019(5) -0.048(5)
C43 0.023(3) 0.023(3) 0.039(4) -0.005(3) 0.002(3) -0.007(2)
C44 0.026(3) 0.027(3) 0.031(3) -0.008(3) 0.001(2) -0.012(2)
C45 0.028(3) 0.027(3) 0.055(4) -0.019(3) -0.001(3) -0.013(3)
C46 0.025(3) 0.028(3) 0.052(4) -0.014(3) -0.005(3) -0.011(2)
C47 0.023(3) 0.027(3) 0.042(4) -0.013(3) 0.002(3) -0.011(2)
C48 0.037(3) 0.029(3) 0.057(4) -0.017(3) -0.005(3) -0.013(3)
C49 0.033(3) 0.022(3) 0.051(4) -0.004(3) -0.012(3) -0.010(3)
C50 0.031(3) 0.020(3) 0.049(4) -0.017(3) 0.007(3) -0.013(2)
C51 0.029(3) 0.023(3) 0.047(4) -0.013(3) 0.001(3) -0.012(2)
C52 0.035(3) 0.025(3) 0.054(4) -0.005(3) -0.008(3) -0.014(3)
C53 0.036(3) 0.028(3) 0.061(5) -0.009(3) -0.015(3) -0.012(3)
C54 0.025(3) 0.018(3) 0.057(4) -0.010(3) 0.002(3) -0.013(2)
C55 0.037(4) 0.025(3) 0.073(5) -0.004(3) -0.010(3) -0.018(3)
C56 0.030(3) 0.020(3) 0.069(5) -0.004(3) -0.011(3) -0.014(3)
C57 0.024(3) 0.054(5) 0.043(4) -0.018(3) 0.002(3) -0.012(3)
C58 0.021(3) 0.046(4) 0.047(4) -0.021(3) 0.001(3) -0.006(3)
C59 0.019(3) 0.052(5) 0.083(6) -0.027(4) 0.001(3) -0.007(3)
C60 0.021(3) 0.037(4) 0.061(5) -0.016(3) 0.001(3) -0.009(3)
C61 0.024(3) 0.030(3) 0.049(4) -0.018(3) 0.003(3) -0.008(2)
C62 0.028(3) 0.032(3) 0.058(4) -0.017(3) 0.002(3) -0.015(3)
C63 0.026(3) 0.045(4) 0.052(4) -0.018(3) 0.003(3) -0.016(3)
C64 0.025(3) 0.023(3) 0.046(4) -0.011(3) 0.000(3) -0.013(2)
C65 0.019(3) 0.026(3) 0.050(4) -0.013(3) 0.000(3) -0.010(2)
C66 0.029(3) 0.017(3) 0.052(4) -0.010(3) 0.003(3) -0.017(2)
C67 0.028(3) 0.021(3) 0.055(4) -0.016(3) 0.000(3) -0.006(2)
C68 0.022(3) 0.030(3) 0.046(4) -0.017(3) 0.002(3) -0.011(2)
C69 0.024(3) 0.024(3) 0.056(4) -0.015(3) 0.003(3) -0.013(2)
loop_
_atom_type_symbol
_atom_type_description
_atom_type_scat_dispersion_real
_atom_type_scat_dispersion_imag
_atom_type_scat_source
C C 0.0033 0.0016 'International Tables Vol C Tables 4.2.6.8 and 6.1.1.4'
H H 0.0000 0.0000 'International Tables Vol C Tables 4.2.6.8 and 6.1.1.4'
N N 0.0061 0.0033 'International Tables Vol C Tables 4.2.6.8 and 6.1.1.4'
O O 0.0106 0.0060 'International Tables Vol C Tables 4.2.6.8 and 6.1.1.4'
Cd Cd -0.8075 1.2024 'International Tables Vol C Tables 4.2.6.8 and 6.1.1.4'
loop_
_geom_angle_atom_site_label_1
_geom_angle_atom_site_label_2
_geom_angle_atom_site_label_3
_geom_angle
_geom_angle_site_symmetry_1
_geom_angle_site_symmetry_3
_geom_angle_publ_flag
O3 Cd1 O6 109.35(17) 1_545 1_645 ?
O3 Cd1 N1 88.29(18) 1_545 . ?
O6 Cd1 N1 132.05(18) 1_645 . ?
O3 Cd1 O1 98.23(15) 1_545 . ?
O6 Cd1 O1 124.60(16) 1_645 . ?
N1 Cd1 O1 94.58(16) . . ?
O3 Cd1 O2 152.15(15) 1_545 . ?
O6 Cd1 O2 88.10(17) 1_645 . ?
N1 Cd1 O2 95.93(19) . . ?
O1 Cd1 O2 54.05(15) . . ?
O3 Cd1 O5 90.23(17) 1_545 1_645 ?
O6 Cd1 O5 54.75(16) 1_645 1_645 ?
N1 Cd1 O5 82.02(17) . 1_645 ?
O1 Cd1 O5 170.81(17) . 1_645 ?
O2 Cd1 O5 117.61(17) . 1_645 ?
O3 Cd1 C27 100.63(16) 1_545 1_645 ?
O6 Cd1 C27 27.68(17) 1_645 1_645 ?
N1 Cd1 C27 107.17(18) . 1_645 ?
O1 Cd1 C27 151.45(17) . 1_645 ?
O2 Cd1 C27 104.32(17) . 1_645 ?
O5 Cd1 C27 27.07(17) 1_645 1_645 ?
O3 Cd1 C13 125.49(18) 1_545 . ?
O6 Cd1 C13 105.47(17) 1_645 . ?
N1 Cd1 C13 98.23(18) . . ?
O1 Cd1 C13 27.58(17) . . ?
O2 Cd1 C13 26.66(17) . . ?
O5 Cd1 C13 144.3(2) 1_645 . ?
C27 Cd1 C13 127.72(18) 1_645 . ?
O4 Cd2 O11 173.72(17) 1_545 1_565 ?
O4 Cd2 O8 88.74(19) 1_545 . ?
O11 Cd2 O8 97.44(19) 1_565 . ?
O4 Cd2 O1 86.64(17) 1_545 . ?
O11 Cd2 O1 93.44(16) 1_565 . ?
O8 Cd2 O1 99.2(2) . . ?
O4 Cd2 O9 91.03(17) 1_545 . ?
O11 Cd2 O9 88.24(16) 1_565 . ?
O8 Cd2 O9 86.5(2) . . ?
O1 Cd2 O9 173.76(15) . . ?
O4 Cd2 O7 93.21(16) 1_545 . ?
O11 Cd2 O7 80.64(16) 1_565 . ?
O8 Cd2 O7 177.75(19) . . ?
O1 Cd2 O7 79.81(17) . . ?
O9 Cd2 O7 94.55(17) . . ?
O12 Cd3 O13 109.4(2) 1_565 1_465 ?
O12 Cd3 N2 91.36(18) 1_565 1_564 ?
O13 Cd3 N2 129.6(2) 1_465 1_564 ?
O12 Cd3 O9 93.45(16) 1_565 . ?
O13 Cd3 O9 114.40(18) 1_465 . ?
N2 Cd3 O9 109.25(17) 1_564 . ?
O12 Cd3 O10 147.50(16) 1_565 . ?
O13 Cd3 O10 92.18(19) 1_465 . ?
N2 Cd3 O10 93.05(18) 1_564 . ?
O9 Cd3 O10 54.82(15) . . ?
O12 Cd3 O14 88.8(2) 1_565 1_465 ?
O13 Cd3 O14 54.04(18) 1_465 1_465 ?
N2 Cd3 O14 82.34(18) 1_564 1_465 ?
O9 Cd3 O14 168.11(17) . 1_465 ?
O10 Cd3 O14 123.73(19) . 1_465 ?
O12 Cd3 C57 99.9(2) 1_565 1_465 ?
O13 Cd3 C57 27.2(2) 1_465 1_465 ?
N2 Cd3 C57 106.4(2) 1_564 1_465 ?
O9 Cd3 C57 141.5(2) . 1_465 ?
O10 Cd3 C57 109.6(2) . 1_465 ?
O14 Cd3 C57 26.9(2) 1_465 1_465 ?
O12 Cd3 C43 121.06(18) 1_565 . ?
O13 Cd3 C43 103.25(18) 1_465 . ?
N2 Cd3 C43 103.81(18) 1_564 . ?
O9 Cd3 C43 27.70(17) . . ?
O10 Cd3 C43 27.19(17) . . ?
O14 Cd3 C43 148.9(2) 1_465 . ?
C57 Cd3 C43 127.7(2) 1_465 . ?
C13 O1 Cd2 128.7(4) . . ?
C13 O1 Cd1 93.1(4) . . ?
Cd2 O1 Cd1 104.58(17) . . ?
C13 O2 Cd1 92.1(4) . . ?
C20 O3 Cd1 124.8(4) . 1_565 ?
C20 O4 Cd2 137.3(4) . 1_565 ?
C27 O5 Cd1 86.4(4) . 1_465 ?
C27 O6 Cd1 95.9(4) . 1_465 ?
C40 O7 Cd2 131.8(4) . . ?
Cd2 O8 H1W 135.6 . . ?
Cd2 O8 H2W 112.9 . . ?
H1W O8 H2W 107.7 . . ?
C43 O9 Cd3 94.0(3) . . ?
C43 O9 Cd2 136.3(4) . . ?
Cd3 O9 Cd2 108.01(18) . . ?
C43 O10 Cd3 90.5(4) . . ?
C50 O11 Cd2 135.2(4) . 1_545 ?
C50 O12 Cd3 133.5(4) . 1_545 ?
C57 O13 Cd3 97.0(4) . 1_645 ?
C57 O14 Cd3 87.5(4) . 1_645 ?
C1 N1 C5 116.6(6) . . ?
C1 N1 Cd1 126.7(5) . . ?
C5 N1 Cd1 116.7(4) . . ?
C10 N2 C11 116.9(6) . . ?
C10 N2 Cd3 115.9(4) . 1_546 ?
C11 N2 Cd3 127.3(4) . 1_546 ?
C40 N3 C41 121.2(6) . . ?
C40 N3 C42 120.7(7) . . ?
C41 N3 C42 118.1(7) . . ?
N1 C1 C2 122.7(7) . . ?
N1 C1 H1A 118.7 . . ?
C2 C1 H1A 118.7 . . ?
C1 C2 C3 121.1(7) . . ?
C1 C2 H2A 119.4 . . ?
C3 C2 H2A 119.4 . . ?
C2 C3 C4 116.0(6) . . ?
C2 C3 C6 121.6(7) . . ?
C4 C3 C6 122.3(6) . . ?
C5 C4 C3 118.8(6) . . ?
C5 C4 H4A 120.6 . . ?
C3 C4 H4A 120.6 . . ?
N1 C5 C4 124.7(7) . . ?
N1 C5 H5A 117.7 . . ?
C4 C5 H5A 117.7 . . ?
C7 C6 C3 126.3(7) . . ?
C7 C6 H6A 116.8 . . ?
C3 C6 H6A 116.8 . . ?
C6 C7 C8 125.5(6) . . ?
C6 C7 H7A 117.3 . . ?
C8 C7 H7A 117.3 . . ?
C9 C8 C12 116.9(6) . . ?
C9 C8 C7 122.0(6) . . ?
C12 C8 C7 121.1(6) . . ?
C8 C9 C10 119.9(6) . . ?
C8 C9 H9A 120.0 . . ?
C10 C9 H9A 120.0 . . ?
N2 C10 C9 122.9(6) . . ?
N2 C10 H10A 118.6 . . ?
C9 C10 H10A 118.6 . . ?
N2 C11 C12 123.6(6) . . ?
N2 C11 H11A 118.2 . . ?
C12 C11 H11A 118.2 . . ?
C11 C12 C8 119.7(6) . . ?
C11 C12 H12A 120.1 . . ?
C8 C12 H12A 120.1 . . ?
O2 C13 O1 119.9(6) . . ?
O2 C13 C14 121.3(6) . . ?
O1 C13 C14 118.8(6) . . ?
O2 C13 Cd1 61.3(3) . . ?
O1 C13 Cd1 59.3(3) . . ?
C14 C13 Cd1 172.9(5) . . ?
C19 C14 C15 118.6(6) . . ?
C19 C14 C13 120.9(6) . . ?
C15 C14 C13 120.5(6) . . ?
C16 C15 C14 120.9(6) . . ?
C16 C15 H15A 119.5 . . ?
C14 C15 H15A 119.5 . . ?
C15 C16 C17 120.9(6) . . ?
C15 C16 H16A 119.6 . . ?
C17 C16 H16A 119.6 . . ?
C18 C17 C16 117.7(5) . . ?
C18 C17 C34 120.1(5) . . ?
C16 C17 C34 122.2(5) . . ?
C19 C18 C17 121.4(6) . . ?
C19 C18 H18A 119.3 . . ?
C17 C18 H18A 119.3 . . ?
C14 C19 C18 120.5(6) . . ?
C14 C19 H19A 119.8 . . ?
C18 C19 H19A 119.8 . . ?
O3 C20 O4 126.2(6) . . ?
O3 C20 C21 118.7(5) . . ?
O4 C20 C21 115.0(5) . . ?
C26 C21 C22 118.7(6) . . ?
C26 C21 C20 119.6(5) . . ?
C22 C21 C20 121.5(5) . . ?
C23 C22 C21 120.7(6) . . ?
C23 C22 H22A 119.7 . . ?
C21 C22 H22A 119.7 . . ?
C22 C23 C24 121.8(6) . . ?
C22 C23 H23A 119.1 . . ?
C24 C23 H23A 119.1 . . ?
C23 C24 C25 116.5(6) . . ?
C23 C24 C36 123.4(6) . . ?
C25 C24 C36 120.1(5) . . ?
C26 C25 C24 121.3(6) . . ?
C26 C25 H25A 119.3 . . ?
C24 C25 H25A 119.3 . . ?
C25 C26 C21 120.5(6) . . ?
C25 C26 H26A 119.8 . . ?
C21 C26 H26A 119.8 . . ?
O5 C27 O6 122.9(5) . . ?
O5 C27 C28 119.8(6) . . ?
O6 C27 C28 117.3(5) . . ?
O5 C27 Cd1 66.5(3) . 1_465 ?
O6 C27 Cd1 56.4(3) . 1_465 ?
C28 C27 Cd1 173.5(4) . 1_465 ?
C29 C28 C33 117.9(5) . . ?
C29 C28 C27 121.3(6) . . ?
C33 C28 C27 120.9(5) . . ?
C28 C29 C30 121.7(6) . . ?
C28 C29 H29A 119.1 . . ?
C30 C29 H29A 119.1 . . ?
C29 C30 C31 120.5(6) . . ?
C29 C30 H30A 119.8 . . ?
C31 C30 H30A 119.8 . . ?
C30 C31 C32 118.6(5) . . ?
C30 C31 C38 122.1(5) . . ?
C32 C31 C38 119.2(5) . . ?
C33 C32 C31 120.1(6) . . ?
C33 C32 H32A 119.9 . . ?
C31 C32 H32A 119.9 . . ?
C32 C33 C28 121.1(6) . . ?
C32 C33 H33A 119.4 . . ?
C28 C33 H33A 119.4 . . ?
C39 C34 C35 119.0(5) . . ?
C39 C34 C17 120.6(5) . . ?
C35 C34 C17 120.3(5) . . ?
C34 C35 C36 120.8(5) . . ?
C34 C35 H35A 119.6 . . ?
C36 C35 H35A 119.6 . . ?
C35 C36 C37 117.6(6) . . ?
C35 C36 C24 121.2(5) . . ?
C37 C36 C24 121.0(6) . . ?
C38 C37 C36 123.0(6) . . ?
C38 C37 H37A 118.5 . . ?
C36 C37 H37A 118.5 . . ?
C37 C38 C39 117.5(5) . . ?
C37 C38 C31 121.1(5) . . ?
C39 C38 C31 121.4(5) . . ?
C34 C39 C38 122.1(5) . . ?
C34 C39 H39A 118.9 . . ?
C38 C39 H39A 118.9 . . ?
O7 C40 N3 126.5(8) . . ?
O7 C40 H40A 116.7 . . ?
N3 C40 H40A 116.7 . . ?
N3 C41 H41A 109.5 . . ?
N3 C41 H41B 109.5 . . ?
H41A C41 H41B 109.5 . . ?
N3 C41 H41C 109.5 . . ?
H41A C41 H41C 109.5 . . ?
H41B C41 H41C 109.5 . . ?
N3 C42 H42A 109.5 . . ?
N3 C42 H42B 109.5 . . ?
H42A C42 H42B 109.5 . . ?
N3 C42 H42C 109.5 . . ?
H42A C42 H42C 109.5 . . ?
H42B C42 H42C 109.5 . . ?
O10 C43 O9 120.4(6) . . ?
O10 C43 C44 119.8(6) . . ?
O9 C43 C44 119.8(5) . . ?
O10 C43 Cd3 62.3(3) . . ?
O9 C43 Cd3 58.3(3) . . ?
C44 C43 Cd3 176.5(4) . . ?
C45 C44 C49 118.9(5) . . ?
C45 C44 C43 120.6(5) . . ?
C49 C44 C43 120.5(5) . . ?
C46 C45 C44 120.4(6) . . ?
C46 C45 H45A 119.8 . . ?
C44 C45 H45A 119.8 . . ?
C45 C46 C47 121.3(6) . . ?
C45 C46 H46A 119.3 . . ?
C47 C46 H46A 119.3 . . ?
C48 C47 C46 118.1(6) . . ?
C48 C47 C64 121.6(5) . . ?
C46 C47 C64 120.2(5) . . ?
C47 C48 C49 121.0(6) . . ?
C47 C48 H48A 119.5 . . ?
C49 C48 H48A 119.5 . . ?
C44 C49 C48 120.2(6) . . ?
C44 C49 H49A 119.9 . . ?
C48 C49 H49A 119.9 . . ?
O12 C50 O11 125.9(5) . . ?
O12 C50 C51 117.4(5) . . ?
O11 C50 C51 116.6(6) . . ?
C56 C51 C52 118.2(6) . . ?
C56 C51 C50 121.8(6) . . ?
C52 C51 C50 120.0(5) . . ?
C53 C52 C51 120.2(6) . . ?
C53 C52 H52A 119.9 . . ?
C51 C52 H52A 119.9 . . ?
C52 C53 C54 121.7(6) . . ?
C52 C53 H53A 119.1 . . ?
C54 C53 H53A 119.1 . . ?
C53 C54 C55 117.3(5) . . ?
C53 C54 C66 121.7(6) . . ?
C55 C54 C66 120.8(5) . . ?
C56 C55 C54 121.0(6) . . ?
C56 C55 H55A 119.5 . . ?
C54 C55 H55A 119.5 . . ?
C51 C56 C55 121.1(6) . . ?
C51 C56 H56A 119.5 . . ?
C55 C56 H56A 119.5 . . ?
O14 C57 O13 121.4(6) . . ?
O14 C57 C58 119.3(7) . . ?
O13 C57 C58 119.2(6) . . ?
O14 C57 Cd3 65.6(4) . 1_645 ?
O13 C57 Cd3 55.8(3) . 1_645 ?
C58 C57 Cd3 174.5(5) . 1_645 ?
C59 C58 C63 119.7(6) . . ?
C59 C58 C57 120.7(6) . . ?
C63 C58 C57 119.6(6) . . ?
C58 C59 C60 122.0(7) . . ?
C58 C59 H59A 119.0 . . ?
C60 C59 H59A 119.0 . . ?
C59 C60 C61 119.3(7) . . ?
C59 C60 H60A 120.3 . . ?
C61 C60 H60A 120.3 . . ?
C62 C61 C60 117.8(6) . . ?
C62 C61 C68 120.7(6) . . ?
C60 C61 C68 121.5(6) . . ?
C61 C62 C63 122.0(6) . . ?
C61 C62 H62A 119.0 . . ?
C63 C62 H62A 119.0 . . ?
C58 C63 C62 119.2(6) . . ?
C58 C63 H63A 120.4 . . ?
C62 C63 H63A 120.4 . . ?
C69 C64 C65 118.4(5) . . ?
C69 C64 C47 121.5(5) . . ?
C65 C64 C47 120.1(5) . . ?
C66 C65 C64 120.0(5) . . ?
C66 C65 H65A 120.0 . . ?
C64 C65 H65A 120.0 . . ?
C67 C66 C65 120.0(5) . . ?
C67 C66 C54 119.2(5) . . ?
C65 C66 C54 120.8(5) . . ?
C66 C67 C68 121.2(5) . . ?
C66 C67 H67A 119.4 . . ?
C68 C67 H67A 119.4 . . ?
C69 C68 C67 117.6(5) . . ?
C69 C68 C61 122.1(5) . . ?
C67 C68 C61 120.4(5) . . ?
C64 C69 C68 122.8(5) . . ?
C64 C69 H69A 118.6 . . ?
C68 C69 H69A 118.6 . . ?
loop_
_geom_bond_atom_site_label_1
_geom_bond_atom_site_label_2
_geom_bond_distance
_geom_bond_site_symmetry_2
_geom_bond_publ_flag
Cd1 O3 2.262(4) 1_545 ?
Cd1 O6 2.264(4) 1_645 ?
Cd1 N1 2.332(6) . ?
Cd1 O1 2.374(4) . ?
Cd1 O2 2.418(5) . ?
Cd1 O5 2.485(5) 1_645 ?
Cd1 C27 2.705(5) 1_645 ?
Cd1 C13 2.756(6) . ?
Cd2 O4 2.154(4) 1_545 ?
Cd2 O11 2.178(4) 1_565 ?
Cd2 O8 2.282(5) . ?
Cd2 O1 2.304(5) . ?
Cd2 O9 2.342(5) . ?
Cd2 O7 2.382(4) . ?
Cd3 O12 2.225(5) 1_565 ?
Cd3 O13 2.244(5) 1_465 ?
Cd3 N2 2.325(5) 1_564 ?
Cd3 O9 2.332(4) . ?
Cd3 O10 2.423(5) . ?
Cd3 O14 2.454(5) 1_465 ?
Cd3 C57 2.692(6) 1_465 ?
Cd3 C43 2.735(6) . ?
O1 C13 1.278(8) . ?
O2 C13 1.237(8) . ?
O3 C20 1.250(7) . ?
O4 C20 1.271(7) . ?
O5 C27 1.233(7) . ?
O6 C27 1.263(7) . ?
O7 C40 1.228(8) . ?
O8 H1W 0.8300 . ?
O8 H2W 0.8301 . ?
O9 C43 1.274(8) . ?
O10 C43 1.250(7) . ?
O11 C50 1.257(7) . ?
O12 C50 1.255(8) . ?
O13 C57 1.239(9) . ?
O14 C57 1.218(9) . ?
N1 C1 1.325(9) . ?
N1 C5 1.343(9) . ?
N2 C10 1.328(8) . ?
N2 C11 1.346(9) . ?
N3 C40 1.331(9) . ?
N3 C41 1.454(10) . ?
N3 C42 1.465(9) . ?
C1 C2 1.379(11) . ?
C1 H1A 0.9500 . ?
C2 C3 1.392(10) . ?
C2 H2A 0.9500 . ?
C3 C4 1.395(10) . ?
C3 C6 1.470(9) . ?
C4 C5 1.376(10) . ?
C4 H4A 0.9500 . ?
C5 H5A 0.9500 . ?
C6 C7 1.337(10) . ?
C6 H6A 0.9500 . ?
C7 C8 1.466(9) . ?
C7 H7A 0.9500 . ?
C8 C9 1.383(9) . ?
C8 C12 1.387(9) . ?
C9 C10 1.385(10) . ?
C9 H9A 0.9500 . ?
C10 H10A 0.9500 . ?
C11 C12 1.362(10) . ?
C11 H11A 0.9500 . ?
C12 H12A 0.9500 . ?
C13 C14 1.490(8) . ?
C14 C19 1.384(9) . ?
C14 C15 1.405(9) . ?
C15 C16 1.369(9) . ?
C15 H15A 0.9500 . ?
C16 C17 1.410(8) . ?
C16 H16A 0.9500 . ?
C17 C18 1.392(8) . ?
C17 C34 1.488(8) . ?
C18 C19 1.388(8) . ?
C18 H18A 0.9500 . ?
C19 H19A 0.9500 . ?
C20 C21 1.516(8) . ?
C21 C26 1.382(9) . ?
C21 C22 1.385(8) . ?
C22 C23 1.379(9) . ?
C22 H22A 0.9500 . ?
C23 C24 1.383(8) . ?
C23 H23A 0.9500 . ?
C24 C25 1.420(9) . ?
C24 C36 1.488(8) . ?
C25 C26 1.376(9) . ?
C25 H25A 0.9500 . ?
C26 H26A 0.9500 . ?
C27 C28 1.529(7) . ?
C28 C29 1.369(9) . ?
C28 C33 1.403(8) . ?
C29 C30 1.375(9) . ?
C29 H29A 0.9500 . ?
C30 C31 1.383(9) . ?
C30 H30A 0.9500 . ?
C31 C32 1.400(9) . ?
C31 C38 1.498(8) . ?
C32 C33 1.369(9) . ?
C32 H32A 0.9500 . ?
C33 H33A 0.9500 . ?
C34 C39 1.387(8) . ?
C34 C35 1.400(8) . ?
C35 C36 1.402(8) . ?
C35 H35A 0.9500 . ?
C36 C37 1.406(8) . ?
C37 C38 1.381(8) . ?
C37 H37A 0.9500 . ?
C38 C39 1.394(8) . ?
C39 H39A 0.9500 . ?
C40 H40A 0.9500 . ?
C41 H41A 0.9800 . ?
C41 H41B 0.9800 . ?
C41 H41C 0.9800 . ?
C42 H42A 0.9800 . ?
C42 H42B 0.9800 . ?
C42 H42C 0.9800 . ?
C43 C44 1.502(8) . ?
C44 C45 1.392(8) . ?
C44 C49 1.393(9) . ?
C45 C46 1.380(8) . ?
C45 H45A 0.9500 . ?
C46 C47 1.399(8) . ?
C46 H46A 0.9500 . ?
C47 C48 1.387(9) . ?
C47 C64 1.487(8) . ?
C48 C49 1.397(9) . ?
C48 H48A 0.9500 . ?
C49 H49A 0.9500 . ?
C50 C51 1.501(8) . ?
C51 C56 1.373(8) . ?
C51 C52 1.396(9) . ?
C52 C53 1.379(9) . ?
C52 H52A 0.9500 . ?
C53 C54 1.380(9) . ?
C53 H53A 0.9500 . ?
C54 C55 1.397(9) . ?
C54 C66 1.488(7) . ?
C55 C56 1.380(8) . ?
C55 H55A 0.9500 . ?
C56 H56A 0.9500 . ?
C57 C58 1.522(8) . ?
C58 C59 1.356(10) . ?
C58 C63 1.384(10) . ?
C59 C60 1.403(9) . ?
C59 H59A 0.9500 . ?
C60 C61 1.404(9) . ?
C60 H60A 0.9500 . ?
C61 C62 1.389(9) . ?
C61 C68 1.497(8) . ?
C62 C63 1.396(9) . ?
C62 H62A 0.9500 . ?
C63 H63A 0.9500 . ?
C64 C69 1.382(8) . ?
C64 C65 1.416(8) . ?
C65 C66 1.402(8) . ?
C65 H65A 0.9500 . ?
C66 C67 1.379(8) . ?
C67 C68 1.415(8) . ?
C67 H67A 0.9500 . ?
C68 C69 1.394(8) . ?
C69 H69A 0.9500 . ?
loop_
_publcif_info_exptl_table_extra_item
sin_theta_over_lambda_max
loop_
_publcif_info_exptl_table_header_item
?
