#------------------------------------------------------------------------------
#$Date: 2021-01-07 06:50:47 +0200 (Thu, 07 Jan 2021) $
#$Revision: 260677 $
#$URL: file:///home/coder/svn-repositories/cod/cif/7/12/73/7127301.cif $
#------------------------------------------------------------------------------
#
# This file is available in the Crystallography Open Database (COD),
# http://www.crystallography.net/
#
# All data on this site have been placed in the public domain by the
# contributors.
#
data_7127301
loop_
_publ_author_name
'Schneider, Matthew L.'
'Linder-Patton, Oliver M'
'Bloch, Witold M.'
_publ_section_title
;
 A covalent deprotection strategy for assembling supramolecular
 coordination polymers from metal-organic cages.
;
_journal_issue                   85
_journal_name_full
'Chemical communications (Cambridge, England)'
_journal_page_first              12969
_journal_page_last               12972
_journal_paper_doi               10.1039/d0cc05349j
_journal_volume                  56
_journal_year                    2020
_chemical_formula_moiety         'C19 H13 N3 O2 Pt, 0.67(H2 O)'
_chemical_formula_sum            'C19 H14.33 N3 O2.67 Pt'
_chemical_formula_weight         522.42
_space_group_crystal_system      trigonal
_space_group_IT_number           148
_space_group_name_Hall           '-R 3'
_space_group_name_H-M_alt        'R -3 :H'
_atom_sites_solution_hydrogens   geom
_atom_sites_solution_primary     dual
_audit_creation_date             2019-07-02
_audit_creation_method
;
Olex2 1.2
(compiled 2018.05.29 svn.r3508 for OlexSys, GUI svn.r5506)
;
_audit_update_record
;
2020-05-14 deposited with the CCDC.	2020-09-21 downloaded from the CCDC.
;
_cell_angle_alpha                90
_cell_angle_beta                 90
_cell_angle_gamma                120
_cell_formula_units_Z            18
_cell_length_a                   30.4714(3)
_cell_length_b                   30.4714(3)
_cell_length_c                   10.04190(10)
_cell_measurement_reflns_used    7984
_cell_measurement_temperature    150
_cell_measurement_theta_max      75.6470
_cell_measurement_theta_min      2.8780
_cell_volume                     8074.79(14)
_computing_cell_refinement       'CrysAlisPro 1.171.39.46 (Rigaku OD, 2018)'
_computing_data_collection       'CrysAlisPro 1.171.39.46 (Rigaku OD, 2018)'
_computing_data_reduction        'CrysAlisPro 1.171.39.46 (Rigaku OD, 2018)'
_computing_molecular_graphics    'Olex2 (Dolomanov et al., 2009)'
_computing_publication_material  'Olex2 (Dolomanov et al., 2009)'
_computing_structure_refinement  'ShelXL (Sheldrick, 2015)'
_computing_structure_solution    'ShelXT (Sheldrick, 2015)'
_diffrn_ambient_temperature      150
_diffrn_detector                 'CCD plate'
_diffrn_detector_type            HyPix
_diffrn_measured_fraction_theta_full 0.995
_diffrn_measured_fraction_theta_max 0.995
_diffrn_measurement_details
;
List of Runs (angles in degrees, time in seconds):

  # Type    Start    End  Width  t~exp~   \w     \q     \k     \f   Frames
#--------------------------------------------------------------------------
  1  \w     54.00 115.00   0.50    1.68    --   42.80 166.00-151.00  122
  2  \w   -131.00 -72.00   0.50    1.59    --  -84.50-123.00  68.00  118
  3  \w    -61.00 -36.00   0.50    1.59    --  -84.50  34.00-154.00   50
  4  \w    115.00 177.00   0.50    1.59    --  108.63 115.00  62.00  124
  5  \w     75.00 115.00   0.50    1.68    --   42.80 125.00-150.00   80
  6  \w     76.00 101.00   0.50    1.68    --   42.80 125.00 -90.00   50
  7  \w     31.00  63.00   0.50    1.59    --  108.63 -30.00-150.00   64
  8  \w     45.00  78.00   0.50    1.59    --  108.63 -45.00   0.00   66
  9  \w     36.00  77.00   0.50    1.59    --  108.63 -45.00 -60.00   82
 10  \w     31.00  57.00   0.50    1.59    --  108.63 -30.00 120.00   52
 11  \w     31.00  56.00   0.50    1.59    --  108.63 -34.00  48.00   50
 12  \w     39.00  65.00   0.50    1.59    --  108.63 -45.00  90.00   52
 13  \w     30.00  57.00   0.50    1.59    --  108.63 -30.00   0.00   54
 14  \w     30.00  60.00   0.50    1.59    --  108.63 -30.00-180.00   60
 15  \w     35.00  61.00   0.50    1.59    --  108.63 -30.00 -90.00   52
;
_diffrn_measurement_device       'four-circle diffractometer'
_diffrn_measurement_device_type
'XtaLAB Synergy, Single source at home/near, HyPix'
_diffrn_measurement_method       '\w scans'
_diffrn_orient_matrix_type
'CrysAlisPro convention (1999,Acta A55,543-557)'
_diffrn_orient_matrix_UB_11      0.0031769000
_diffrn_orient_matrix_UB_12      -0.0154949000
_diffrn_orient_matrix_UB_13      0.1441478000
_diffrn_orient_matrix_UB_21      -0.0346005000
_diffrn_orient_matrix_UB_22      0.0204672000
_diffrn_orient_matrix_UB_23      0.0464241000
_diffrn_orient_matrix_UB_31      -0.0468840000
_diffrn_orient_matrix_UB_32      -0.0524233000
_diffrn_orient_matrix_UB_33      -0.0245301000
_diffrn_radiation_monochromator  mirror
_diffrn_radiation_probe          x-ray
_diffrn_radiation_type           CuK\a
_diffrn_radiation_wavelength     1.54184
_diffrn_reflns_av_R_equivalents  0.0144
_diffrn_reflns_av_unetI/netI     0.0136
_diffrn_reflns_Laue_measured_fraction_full 0.995
_diffrn_reflns_Laue_measured_fraction_max 0.995
_diffrn_reflns_limit_h_max       32
_diffrn_reflns_limit_h_min       -36
_diffrn_reflns_limit_k_max       26
_diffrn_reflns_limit_k_min       -36
_diffrn_reflns_limit_l_max       11
_diffrn_reflns_limit_l_min       -11
_diffrn_reflns_number            8439
_diffrn_reflns_point_group_measured_fraction_full 0.995
_diffrn_reflns_point_group_measured_fraction_max 0.995
_diffrn_reflns_theta_full        67.044
_diffrn_reflns_theta_max         67.044
_diffrn_reflns_theta_min         2.900
_diffrn_source                   'micro-focus sealed X-ray tube'
_diffrn_source_type              'PhotonJet (Cu) X-ray Source'
_exptl_absorpt_coefficient_mu    14.812
_exptl_absorpt_correction_T_max  1.00000
_exptl_absorpt_correction_T_min  0.56460
_exptl_absorpt_correction_type   multi-scan
_exptl_absorpt_process_details
;
CrysAlisPro 1.171.39.46 (Rigaku Oxford Diffraction, 2018)
Empirical absorption correction using spherical harmonics,
 implemented in SCALE3 ABSPACK scaling algorithm.
;
_exptl_crystal_colour            orange
_exptl_crystal_colour_primary    orange
_exptl_crystal_density_diffrn    1.934
_exptl_crystal_description       block
_exptl_crystal_F_000             4476
_exptl_crystal_size_max          0.05
_exptl_crystal_size_mid          0.05
_exptl_crystal_size_min          0.05
_refine_diff_density_max         0.748
_refine_diff_density_min         -0.899
_refine_diff_density_rms         0.131
_refine_ls_extinction_method     none
_refine_ls_goodness_of_fit_ref   1.142
_refine_ls_hydrogen_treatment    constr
_refine_ls_matrix_type           full
_refine_ls_number_parameters     244
_refine_ls_number_reflns         3188
_refine_ls_number_restraints     6
_refine_ls_restrained_S_all      1.144
_refine_ls_R_factor_all          0.0216
_refine_ls_R_factor_gt           0.0212
_refine_ls_shift/su_max          0.005
_refine_ls_shift/su_mean         0.000
_refine_ls_structure_factor_coef Fsqd
_refine_ls_weighting_details
'w=1/[\s^2^(Fo^2^)+(0.0320P)^2^+29.8032P] where P=(Fo^2^+2Fc^2^)/3'
_refine_ls_weighting_scheme      calc
_refine_ls_wR_factor_gt          0.0579
_refine_ls_wR_factor_ref         0.0582
_reflns_Friedel_coverage         0.000
_reflns_number_gt                3137
_reflns_number_total             3188
_reflns_threshold_expression     'I > 2\s(I)'
_iucr_refine_instructions_details
;
TITL ptbimpic_a.res in R-3
    ptbimpic.res
    created by SHELXL-2018/3 at 17:33:43 on 02-Jul-2019
REM Old TITL Ptbimpic in R-3
REM SHELXT solution in R-3: R1 0.050, Rweak 0.007, Alpha 0.060
REM <I/s> 0.000 for 0 systematic absences, Orientation as input
REM Formula found by SHELXT: C19 N3 O2 Pt
CELL 1.54184 30.4714 30.4714 10.0419 90 90 120
ZERR 18 0.0003 0.0003 0.0001 0 0 0
LATT 3
SYMM -Y,+X-Y,+Z
SYMM +Y-X,-X,+Z
SFAC C H N O Pt
UNIT 342 258 54 48 18
ISOR 0.05 0.04 O4

L.S. 30
PLAN  20
SIZE 0.05 0.05 0.05
BOND
list 4
fmap 2 53
acta
REM <olex2.extras>
REM <HklSrc "%.\\Ptbimpic.hkl">
REM </olex2.extras>

WGHT    0.032000   29.803200
FVAR       0.04542
PT1   5    0.643532    0.657672    0.293531    11.00000    0.02550    0.03288 =
         0.02836    0.00212    0.00130    0.01521
O1    4    0.712010    0.656161    0.300133    11.00000    0.02775    0.03205 =
         0.03797    0.00085    0.00169    0.01666
O2    4    0.795777    0.708435    0.289451    11.00000    0.02882    0.03595 =
         0.05372    0.00201    0.00271    0.01940
N1    3    0.598038    0.582608    0.302022    11.00000    0.02415    0.03799 =
         0.03173    0.00065    0.00065    0.01098
N3    3    0.693911    0.733088    0.296735    11.00000    0.03202    0.03369 =
         0.03079    0.00115    0.00010    0.02018
N2    3    0.522545    0.515567    0.337818    11.00000    0.02565    0.03993 =
         0.04107   -0.00182   -0.00042    0.00587
AFIX  43
H2    2    0.490505    0.497416    0.352079    11.00000   -1.20000
AFIX   0
C18   1    0.742650    0.744196    0.282985    11.00000    0.03065    0.03369 =
         0.02494    0.00205    0.00171    0.01716
C19   1    0.751493    0.699880    0.289328    11.00000    0.03107    0.02960 =
         0.02865    0.00025    0.00277    0.01570
C1    1    0.575424    0.653611    0.289180    11.00000    0.03228    0.05127 =
         0.02904   -0.00471   -0.00175    0.02330
C7    1    0.548946    0.566375    0.323216    11.00000    0.02831    0.04299 =
         0.03197   -0.00288   -0.00091    0.01453
C8    1    0.603953    0.540470    0.301671    11.00000    0.03117    0.03180 =
         0.02780   -0.00093   -0.00332    0.00992
C9    1    0.646421    0.535686    0.280413    11.00000    0.03167    0.03530 =
         0.03976   -0.00081   -0.00348    0.01324
AFIX  43
H9    2    0.678015    0.563621    0.262328    11.00000   -1.20000
AFIX   0
C2    1    0.561949    0.690037    0.257920    11.00000    0.03776    0.05422 =
         0.03990   -0.00408   -0.00421    0.02773
AFIX  43
H2A   2    0.587151    0.722299    0.232789    11.00000   -1.20000
AFIX   0
C6    1    0.533729    0.604191    0.316088    11.00000    0.03126    0.05158 =
         0.03290   -0.00380   -0.00224    0.01981
C13   1    0.556144    0.497994    0.325776    11.00000    0.02902    0.04096 =
         0.03323   -0.00487   -0.00336    0.00896
C17   1    0.782160    0.793149    0.278193    11.00000    0.03591    0.03741 =
         0.03678    0.00674    0.00354    0.01837
AFIX  43
H17   2    0.815140    0.799532    0.267030    11.00000   -1.20000
AFIX   0
C14   1    0.685314    0.771585    0.313548    11.00000    0.03921    0.04434 =
         0.05187    0.00001   -0.00167    0.02698
AFIX  43
H14   2    0.652196    0.764363    0.327698    11.00000   -1.20000
AFIX   0
C12   1    0.549639    0.449658    0.335059    11.00000    0.03785    0.03240 =
         0.05379   -0.00323   -0.00181    0.00406
AFIX  43
H12   2    0.518166    0.421565    0.353245    11.00000   -1.20000
AFIX   0
C16   1    0.772928    0.832778    0.289920    11.00000    0.04475    0.03084 =
         0.05184    0.00758   -0.00069    0.01644
AFIX  43
H16   2    0.799108    0.866208    0.284047    11.00000   -1.20000
AFIX   0
C10   1    0.639249    0.487213    0.287554    11.00000    0.03985    0.03998 =
         0.05032   -0.00580   -0.00703    0.01830
AFIX  43
H10   2    0.666731    0.482466    0.272909    11.00000   -1.20000
AFIX   0
C15   1    0.723080    0.821211    0.310885    11.00000    0.05115    0.03644 =
         0.06671    0.00189   -0.00251    0.03027
AFIX  43
H15   2    0.715542    0.846989    0.322961    11.00000   -1.20000
AFIX   0
C11   1    0.592211    0.445312    0.315959    11.00000    0.04732    0.03238 =
         0.06104   -0.00424   -0.00561    0.01460
AFIX  43
H11   2    0.589350    0.413533    0.322257    11.00000   -1.20000
AFIX   0
C3    1    0.511899    0.679448    0.263292    11.00000    0.05213    0.07350 =
         0.04905   -0.00678   -0.00695    0.04528
AFIX  43
H3    2    0.504361    0.704756    0.243293    11.00000   -1.20000
AFIX   0
C5    1    0.483896    0.593613    0.322498    11.00000    0.03367    0.06159 =
         0.04827   -0.00475   -0.00045    0.02139
AFIX  43
H5    2    0.457968    0.561125    0.343098    11.00000   -1.20000
AFIX   0
C4    1    0.473338    0.631686    0.298064    11.00000    0.03130    0.07142 =
         0.05970   -0.00775   -0.00291    0.02883
AFIX  43
H4    2    0.440233    0.625355    0.304899    11.00000   -1.20000
AFIX   0

PART -1
O3    4    0.911663    0.923567    0.282251    10.33333    0.04730    0.12556 =
         0.22339    0.01740   -0.01948    0.02876
PART 0
PART -2
O4    4    0.967472    1.001082    0.256692    10.33333    0.14049    0.34179 =
         0.23039   -0.01058   -0.03312    0.16472
HKLF 4




REM  ptbimpic_a.res in R-3
REM wR2 = 0.0582, GooF = S = 1.142, Restrained GooF = 1.144 for all data
REM R1 = 0.0212 for 3137 Fo > 4sig(Fo) and 0.0216 for all 3188 data
REM 244 parameters refined using 6 restraints

END  
     
WGHT      0.0320     29.8096 

REM Highest difference peak  0.748,  deepest hole -0.899,  1-sigma level  0.131
Q1    1   0.6430  0.6529  0.3836  11.00000  0.05    0.75
Q2    1   0.9467  0.9430  0.2088  11.00000  0.05    0.71
Q3    1   0.9397  0.9486  0.3837  11.00000  0.05    0.59
Q4    1   0.9133  0.9537  0.2676  11.00000  0.05    0.53
Q5    1   0.6396  0.6583  0.2006  11.00000  0.05    0.50
Q6    1   0.9574  0.9571  0.3466  11.00000  0.05    0.49
Q7    1   0.9459  0.9539  0.1388  11.00000  0.05    0.47
Q8    1   0.6523  0.6869  0.2899  11.00000  0.05    0.42
Q9    1   0.9255  0.9276  0.3497  11.00000  0.05    0.41
Q10   1   0.8978  0.9132  0.2479  11.00000  0.05    0.39
Q11   1   1.0000  1.0000  0.2579  10.33333  0.05    0.36
Q12   1   0.8923  0.9274  0.2032  11.00000  0.05    0.32
Q13   1   0.9152  0.9025  0.2397  11.00000  0.05    0.31
Q14   1   0.6013  0.6437  0.3871  11.00000  0.05    0.31
Q15   1   0.9898  1.0290  0.0105  11.00000  0.05    0.30
Q16   1   1.0000  1.0000  0.0490  10.33333  0.05    0.30
Q17   1   0.9623  1.0033 -0.0008  11.00000  0.05    0.30
Q18   1   0.6317  0.6831  0.1982  11.00000  0.05    0.29
Q19   1   0.3769  0.6361  0.1864  11.00000  0.05    0.29
Q20   1   0.6203  0.6216  0.1924  11.00000  0.05    0.28

  REM The information below was added by Olex2.
  REM
  REM R1 = 0.0212 for 3137 Fo > 4sig(Fo) and 0.0216 for all 8439 data
  REM n/a parameters refined using n/a restraints
  REM Highest difference peak 0.75, deepest hole -0.90
  REM Mean Shift 0, Max Shift -0.005.

  REM +++ Tabular Listing of Refinement Information +++
  REM R1_all = 0.0216
  REM R1_gt = 0.0212
  REM wR_ref = 0.0582
  REM GOOF = 1.142
  REM Shift_max = -0.005
  REM Shift_mean = 0
  REM Reflections_all = 8439
  REM Reflections_gt = 3137
  REM Parameters = n/a
  REM Hole = -0.90
  REM Peak = 0.75
  REM Flack = n/a

  
;
_cod_data_source_file            d0cc05349j2.cif
_cod_data_source_block           1P
_cod_depositor_comments
'Adding full bibliography for 7127299--7127303.cif.'
_cod_original_cell_volume        8074.79(18)
_cod_original_sg_symbol_H-M      'R -3'
_cod_database_code               7127301
_shelx_shelxl_version_number     2018/3
_chemical_oxdiff_formula         C19H13N3O2Pt
_shelx_space_group_comment
;
The symmetry employed for this shelxl refinement is uniquely defined
by the following loop, which should always be used as a source of
symmetry information in preference to the above space-group names.
They are only intended as comments.
;
_shelx_estimated_absorpt_t_max   0.525
_shelx_estimated_absorpt_t_min   0.525
_reflns_odcompleteness_completeness 99.53
_reflns_odcompleteness_iscentric 1
_reflns_odcompleteness_theta     66.97
_olex2_refinement_description
;
1. Fixed Uiso
 At 1.2 times of:
  All C(H) groups, All N(H) groups
2. Uiso/Uaniso restraints and constraints
Uanis(O4) \\sim Ueq: with sigma of 0.05 and sigma for terminal atoms of 0.04
3. Others
 Fixed Sof: O3(0.33333) O4(0.33333)
4.a Aromatic/amide H refined with riding coordinates:
 N2(H2), C9(H9), C2(H2A), C17(H17), C14(H14), C12(H12), C16(H16), C10(H10),
 C15(H15), C11(H11), C3(H3), C5(H5), C4(H4)
;
_olex2_submission_special_instructions 'No special instructions were received'
_oxdiff_exptl_absorpt_empirical_details
;
Empirical correction (ABSPACK) includes:
- Absorption correction using spherical harmonics
- Frame scaling
;
_oxdiff_exptl_absorpt_empirical_full_max 1.447
_oxdiff_exptl_absorpt_empirical_full_min 0.750
loop_
_space_group_symop_operation_xyz
'x, y, z'
'-y, x-y, z'
'-x+y, -x, z'
'x+2/3, y+1/3, z+1/3'
'-y+2/3, x-y+1/3, z+1/3'
'-x+y+2/3, -x+1/3, z+1/3'
'x+1/3, y+2/3, z+2/3'
'-y+1/3, x-y+2/3, z+2/3'
'-x+y+1/3, -x+2/3, z+2/3'
'-x, -y, -z'
'y, -x+y, -z'
'x-y, x, -z'
'-x+2/3, -y+1/3, -z+1/3'
'y+2/3, -x+y+1/3, -z+1/3'
'x-y+2/3, x+1/3, -z+1/3'
'-x+1/3, -y+2/3, -z+2/3'
'y+1/3, -x+y+2/3, -z+2/3'
'x-y+1/3, x+2/3, -z+2/3'
loop_
_atom_site_label
_atom_site_type_symbol
_atom_site_fract_x
_atom_site_fract_y
_atom_site_fract_z
_atom_site_U_iso_or_equiv
_atom_site_adp_type
_atom_site_occupancy
_atom_site_site_symmetry_order
_atom_site_calc_flag
_atom_site_refinement_flags_posn
_atom_site_refinement_flags_adp
_atom_site_refinement_flags_occupancy
_atom_site_disorder_assembly
_atom_site_disorder_group
Pt1 Pt 0.64353(2) 0.65767(2) 0.29353(2) 0.02864(7) Uani 1 1 d . . . . .
O1 O 0.71201(9) 0.65616(9) 0.3001(2) 0.0318(5) Uani 1 1 d . . . . .
O2 O 0.79578(9) 0.70843(10) 0.2895(3) 0.0381(6) Uani 1 1 d . . . . .
N1 N 0.59804(11) 0.58261(12) 0.3020(3) 0.0333(6) Uani 1 1 d . . . . .
N3 N 0.69391(11) 0.73309(11) 0.2967(3) 0.0305(6) Uani 1 1 d . . . . .
N2 N 0.52254(12) 0.51557(13) 0.3378(3) 0.0402(7) Uani 1 1 d . . . . .
H2 H 0.490505 0.497416 0.352079 0.048 Uiso 1 1 calc R . . . .
C18 C 0.74265(13) 0.74420(13) 0.2830(3) 0.0293(7) Uani 1 1 d . . . . .
C19 C 0.75149(13) 0.69988(13) 0.2893(3) 0.0295(7) Uani 1 1 d . . . . .
C1 C 0.57542(14) 0.65361(15) 0.2892(4) 0.0365(8) Uani 1 1 d . . . . .
C7 C 0.54895(13) 0.56638(15) 0.3232(4) 0.0359(8) Uani 1 1 d . . . . .
C8 C 0.60395(13) 0.54047(13) 0.3017(3) 0.0328(7) Uani 1 1 d . . . . .
C9 C 0.64642(14) 0.53569(15) 0.2804(4) 0.0371(8) Uani 1 1 d . . . . .
H9 H 0.678015 0.563621 0.262328 0.045 Uiso 1 1 calc R . . . .
C2 C 0.56195(15) 0.69004(17) 0.2579(4) 0.0419(9) Uani 1 1 d . . . . .
H2A H 0.587151 0.722299 0.232789 0.050 Uiso 1 1 calc R . . . .
C6 C 0.53373(14) 0.60419(16) 0.3161(4) 0.0390(8) Uani 1 1 d . . . . .
C13 C 0.55614(14) 0.49799(15) 0.3258(4) 0.0382(8) Uani 1 1 d . . . . .
C17 C 0.78216(15) 0.79315(14) 0.2782(4) 0.0367(8) Uani 1 1 d . . . . .
H17 H 0.815140 0.799532 0.267030 0.044 Uiso 1 1 calc R . . . .
C14 C 0.68531(16) 0.77158(16) 0.3135(4) 0.0424(9) Uani 1 1 d . . . . .
H14 H 0.652196 0.764363 0.327698 0.051 Uiso 1 1 calc R . . . .
C12 C 0.54964(16) 0.44966(15) 0.3351(4) 0.0474(10) Uani 1 1 d . . . . .
H12 H 0.518166 0.421565 0.353245 0.057 Uiso 1 1 calc R . . . .
C16 C 0.77293(16) 0.83278(15) 0.2899(4) 0.0436(9) Uani 1 1 d . . . . .
H16 H 0.799108 0.866208 0.284047 0.052 Uiso 1 1 calc R . . . .
C10 C 0.63925(16) 0.48721(15) 0.2876(4) 0.0441(9) Uani 1 1 d . . . . .
H10 H 0.666731 0.482466 0.272909 0.053 Uiso 1 1 calc R . . . .
C15 C 0.72308(17) 0.82121(16) 0.3109(5) 0.0477(10) Uani 1 1 d . . . . .
H15 H 0.715542 0.846989 0.322961 0.057 Uiso 1 1 calc R . . . .
C11 C 0.59221(16) 0.44531(16) 0.3160(5) 0.0493(10) Uani 1 1 d . . . . .
H11 H 0.589350 0.413533 0.322257 0.059 Uiso 1 1 calc R . . . .
C3 C 0.51190(17) 0.6794(2) 0.2633(5) 0.0521(11) Uani 1 1 d . . . . .
H3 H 0.504361 0.704756 0.243293 0.062 Uiso 1 1 calc R . . . .
C5 C 0.48390(16) 0.59361(19) 0.3225(4) 0.0489(10) Uani 1 1 d . . . . .
H5 H 0.457968 0.561125 0.343098 0.059 Uiso 1 1 calc R . . . .
C4 C 0.47334(16) 0.63169(19) 0.2981(5) 0.0527(11) Uani 1 1 d . . . . .
H4 H 0.440233 0.625355 0.304899 0.063 Uiso 1 1 calc R . . . .
O3 O 0.9117(5) 0.9236(7) 0.282(2) 0.139(7) Uani 0.3333 1 d . . P A -1
O4 O 0.9675(11) 1.0011(16) 0.257(3) 0.218(12) Uani 0.3333 1 d . U P B -2
loop_
_atom_site_aniso_label
_atom_site_aniso_U_11
_atom_site_aniso_U_22
_atom_site_aniso_U_33
_atom_site_aniso_U_23
_atom_site_aniso_U_13
_atom_site_aniso_U_12
Pt1 0.02550(9) 0.03288(10) 0.02836(11) 0.00212(5) 0.00130(5) 0.01521(7)
O1 0.0277(12) 0.0321(13) 0.0380(13) 0.0008(10) 0.0017(10) 0.0167(10)
O2 0.0288(13) 0.0360(13) 0.0537(16) 0.0020(11) 0.0027(11) 0.0194(11)
N1 0.0242(14) 0.0380(16) 0.0317(15) 0.0006(12) 0.0007(11) 0.0110(13)
N3 0.0320(15) 0.0337(15) 0.0308(15) 0.0012(12) 0.0001(12) 0.0202(13)
N2 0.0256(15) 0.0399(18) 0.0411(18) -0.0018(13) -0.0004(13) 0.0059(13)
C18 0.0307(17) 0.0337(18) 0.0249(16) 0.0021(13) 0.0017(13) 0.0172(15)
C19 0.0311(18) 0.0296(17) 0.0286(17) 0.0002(13) 0.0028(13) 0.0157(15)
C1 0.0323(18) 0.051(2) 0.0290(18) -0.0047(16) -0.0018(14) 0.0233(17)
C7 0.0283(17) 0.043(2) 0.0320(18) -0.0029(15) -0.0009(14) 0.0145(16)
C8 0.0312(18) 0.0318(18) 0.0278(17) -0.0009(14) -0.0033(14) 0.0099(15)
C9 0.0317(18) 0.0353(19) 0.040(2) -0.0008(15) -0.0035(15) 0.0132(16)
C2 0.038(2) 0.054(2) 0.040(2) -0.0041(18) -0.0042(16) 0.0277(19)
C6 0.0313(19) 0.052(2) 0.0329(19) -0.0038(16) -0.0022(15) 0.0198(17)
C13 0.0290(18) 0.041(2) 0.0332(19) -0.0049(15) -0.0034(14) 0.0090(16)
C17 0.0359(19) 0.037(2) 0.0368(19) 0.0067(15) 0.0035(15) 0.0184(16)
C14 0.039(2) 0.044(2) 0.052(2) 0.0000(18) -0.0017(17) 0.0270(18)
C12 0.038(2) 0.032(2) 0.054(2) -0.0032(17) -0.0018(18) 0.0041(17)
C16 0.045(2) 0.0308(19) 0.052(2) 0.0076(17) -0.0007(18) 0.0164(17)
C10 0.040(2) 0.040(2) 0.050(2) -0.0058(17) -0.0070(17) 0.0183(18)
C15 0.051(2) 0.036(2) 0.067(3) 0.0019(19) -0.003(2) 0.030(2)
C11 0.047(2) 0.032(2) 0.061(3) -0.0042(18) -0.006(2) 0.0146(18)
C3 0.052(3) 0.074(3) 0.049(2) -0.007(2) -0.0070(19) 0.045(2)
C5 0.034(2) 0.062(3) 0.048(2) -0.005(2) -0.0005(17) 0.021(2)
C4 0.031(2) 0.071(3) 0.060(3) -0.008(2) -0.0029(18) 0.029(2)
O3 0.047(7) 0.126(14) 0.22(2) 0.017(14) -0.019(10) 0.029(8)
O4 0.140(18) 0.34(3) 0.23(2) -0.01(2) -0.033(17) 0.16(2)
loop_
_atom_type_symbol
_atom_type_description
_atom_type_scat_dispersion_real
_atom_type_scat_dispersion_imag
_atom_type_scat_source
C C 0.0181 0.0091 'International Tables Vol C Tables 4.2.6.8 and 6.1.1.4'
H H 0.0000 0.0000 'International Tables Vol C Tables 4.2.6.8 and 6.1.1.4'
N N 0.0311 0.0180 'International Tables Vol C Tables 4.2.6.8 and 6.1.1.4'
O O 0.0492 0.0322 'International Tables Vol C Tables 4.2.6.8 and 6.1.1.4'
Pt Pt -4.5932 6.9264 'International Tables Vol C Tables 4.2.6.8 and 6.1.1.4'
loop_
_geom_angle_atom_site_label_1
_geom_angle_atom_site_label_2
_geom_angle_atom_site_label_3
_geom_angle
_geom_angle_site_symmetry_1
_geom_angle_site_symmetry_3
_geom_angle_publ_flag
N1 Pt1 O1 95.81(11) . . ?
N1 Pt1 N3 174.78(12) . . ?
N1 Pt1 C1 80.04(15) . . ?
N3 Pt1 O1 80.08(10) . . ?
C1 Pt1 O1 175.83(13) . . ?
C1 Pt1 N3 104.04(14) . . ?
C19 O1 Pt1 113.6(2) . . ?
C7 N1 Pt1 116.0(3) . . ?
C7 N1 C8 107.3(3) . . ?
C8 N1 Pt1 136.5(2) . . ?
C18 N3 Pt1 113.3(2) . . ?
C14 N3 Pt1 128.9(3) . . ?
C14 N3 C18 117.8(3) . . ?
C7 N2 C13 107.7(3) . . ?
N3 C18 C19 115.9(3) . . ?
N3 C18 C17 122.1(3) . . ?
C17 C18 C19 121.6(3) . . ?
O1 C19 C18 116.2(3) . . ?
O2 C19 O1 125.3(3) . . ?
O2 C19 C18 118.4(3) . . ?
C2 C1 Pt1 131.1(3) . . ?
C2 C1 C6 114.8(3) . . ?
C6 C1 Pt1 114.0(3) . . ?
N1 C7 N2 110.9(3) . . ?
N1 C7 C6 116.3(3) . . ?
N2 C7 C6 132.6(3) . . ?
N1 C8 C9 131.2(3) . . ?
N1 C8 C13 107.4(3) . . ?
C9 C8 C13 121.4(3) . . ?
C10 C9 C8 116.5(3) . . ?
C3 C2 C1 122.0(4) . . ?
C1 C6 C7 112.3(3) . . ?
C5 C6 C1 123.1(4) . . ?
C5 C6 C7 124.3(4) . . ?
N2 C13 C8 106.7(3) . . ?
N2 C13 C12 131.9(4) . . ?
C12 C13 C8 121.5(4) . . ?
C18 C17 C16 119.9(4) . . ?
N3 C14 C15 122.9(4) . . ?
C11 C12 C13 116.7(4) . . ?
C17 C16 C15 117.8(4) . . ?
C9 C10 C11 122.1(4) . . ?
C14 C15 C16 119.4(4) . . ?
C12 C11 C10 121.8(4) . . ?
C4 C3 C2 120.6(4) . . ?
C4 C5 C6 119.2(4) . . ?
C5 C4 C3 120.0(4) . . ?
loop_
_geom_bond_atom_site_label_1
_geom_bond_atom_site_label_2
_geom_bond_distance
_geom_bond_site_symmetry_2
_geom_bond_publ_flag
Pt1 O1 2.111(2) . ?
Pt1 N1 1.997(3) . ?
Pt1 N3 2.028(3) . ?
Pt1 C1 2.017(4) . ?
O1 C19 1.277(4) . ?
O2 C19 1.240(4) . ?
N1 C7 1.337(5) . ?
N1 C8 1.383(5) . ?
N3 C18 1.355(4) . ?
N3 C14 1.334(5) . ?
N2 C7 1.349(5) . ?
N2 C13 1.378(5) . ?
C18 C19 1.505(5) . ?
C18 C17 1.371(5) . ?
C1 C2 1.398(6) . ?
C1 C6 1.429(6) . ?
C7 C6 1.443(6) . ?
C8 C9 1.389(5) . ?
C8 C13 1.404(5) . ?
C9 C10 1.383(6) . ?
C2 C3 1.393(6) . ?
C6 C5 1.387(6) . ?
C13 C12 1.388(6) . ?
C17 C16 1.375(6) . ?
C14 C15 1.368(6) . ?
C12 C11 1.382(6) . ?
C16 C15 1.393(6) . ?
C10 C11 1.391(6) . ?
C3 C4 1.382(7) . ?
C5 C4 1.372(7) . ?
loop_
_refln_index_h
_refln_index_k
_refln_index_l
_refln_F_squared_meas
_refln_F_squared_sigma
0 0 -3 9999 86.96
0 0 -6 149.68 2.48
0 0 -9 335.35 5.49
0 0 -9 347.81 5.25
-1 1 -11 2.23 0.4
-1 1 -8 9.3 0.7
0 -1 -8 9.65 0.8
-1 1 -8 10.1 0.82
1 0 -8 9.24 0.76
-1 1 -5 32.62 0.71
0 -1 -2 10.04 0.24
-1 0 -1 1.34 0.05
-1 0 -1 0.86 0.06
0 1 -4 2.56 0.17
-1 0 -4 3.31 0.2
0 1 -7 0.38 0.23
-1 0 -7 0.2 0.2
-1 0 -10 0.14 0.27
0 1 -10 0.18 0.28
-2 1 -9 167.92 3.34
-2 1 -9 162.16 3.58
1 1 -9 164.37 3.35
1 1 -9 169.46 3.54
-2 1 -6 2433.27 22.7
-2 1 -3 6535.88 57.12
-1 -1 0 1532.22 13.42
2 -1 -3 418.53 3.92
-1 -1 -3 444.71 4.14
-1 -1 -6 1681.86 16.1
-1 2 -6 1668.44 16.18
-1 2 -9 832.79 10.32
-1 2 -9 853.03 9.92
-1 -1 -9 838.22 10.34
-1 -1 -9 850.86 9.9
-2 2 -10 3.79 0.53
-2 2 -10 3.69 0.57
-2 2 -7 7.53 0.57
2 0 -4 3.08 0.15
-2 2 -4 3.43 0.23
-2 0 1 5.49 0.14
-2 0 -2 112.17 1.13
0 -2 2 111.35 1.1
0 2 -5 78.6 1.19
-2 0 -5 79.68 1.51
-2 0 -8 35.84 1.52
-2 0 -8 36.41 1.35
2 -2 -8 35.97 1.46
0 2 -8 35.58 1.45
0 2 -8 37.29 1.38
0 2 -11 6.87 0.62
2 -2 -11 8.32 0.65
-2 0 -11 7.45 0.63
-3 1 -10 0.9 0.4
2 -3 -10 1.24 0.35
-3 1 -10 0.44 0.31
1 2 -10 0.62 0.31
2 -3 -7 3.61 0.4
1 2 -7 2.8 0.4
-3 1 -7 3.05 0.39
-1 -2 4 6 0.2
-3 1 -4 5.57 0.29
-1 -2 1 75.92 0.82
-3 1 -1 74.31 0.85
-3 1 -1 74.2 0.91
-3 1 2 191.51 1.87
-2 3 -5 15.32 0.52
-2 3 -8 1.68 0.43
-1 -2 -8 0.24 0.32
-2 3 -8 1.12 0.34
3 -1 -8 1.59 0.41
3 -1 -11 2.96 0.44
-2 3 -11 2.08 0.4
-3 2 -11 3.49 0.46
1 -3 -11 3.28 0.44
-3 2 -8 0.73 0.42
2 1 -8 0.73 0.34
-3 2 -8 0.95 0.31
-2 -1 5 50.43 0.79
-3 2 -5 49.46 1
-3 2 -5 49.34 1.16
-2 -1 2 200.42 2
-2 -1 2 199.53 1.94
-2 -1 -1 190.52 1.87
-1 3 -7 2.43 0.38
-2 -1 -7 2.24 0.34
3 -2 -7 2.32 0.35
-2 -1 -7 2.84 0.43
-2 -1 -10 4.59 0.56
3 -2 -10 5.05 0.58
-1 3 -10 4.76 0.57
-3 3 -9 297.85 4.72
0 -3 -9 289.02 5
-3 3 -9 291.46 5.09
-3 3 -6 0.61 0.18
-3 3 -6 0.65 0.27
-3 0 3 1149.3 10.15
-3 0 0 2505.17 21.78
-3 0 0 2467.78 21.79
-3 0 -3 1012.71 9.16
0 -3 3 993.94 8.76
-3 0 -3 982.48 8.81
-3 0 -6 2.1 0.32
3 -3 -6 1.21 0.29
3 -3 -9 252.22 4.22
-3 0 -9 247.89 4.23
0 3 -9 243.67 4.4
0 3 -9 252.13 4.3
-3 0 -9 243.23 4.57
1 3 -11 16.49 0.91
-4 1 -11 16.64 0.89
3 -4 -11 16.3 0.88
3 -4 -8 10.02 0.72
-4 1 -8 11.42 0.76
-4 1 -8 9.28 0.81
1 3 -8 10.12 0.79
1 3 -8 10.32 0.76
1 3 -5 25.14 0.61
-4 1 -5 26.44 0.71
-4 1 -5 26.77 0.82
3 -4 -5 25.95 0.8
-4 1 -2 328.99 3.28
-4 1 -2 327.43 3.11
-4 1 1 362.14 3.44
-1 -3 -7 35.76 1.35
4 -1 -7 36.01 1.25
-3 4 -7 36.87 1.26
-3 4 -10 0.56 0.31
-3 4 -10 0.6 0.38
4 -1 -10 0.62 0.33
2 -4 -9 720.55 8.65
2 2 -9 718.78 8.82
-4 2 -9 714.93 8.67
-4 2 -9 702.08 9.28
-4 2 -6 917.92 9.63
2 -4 -6 952.43 9.62
-2 -2 3 17.99 0.37
-4 2 -3 18.14 0.34
-2 -2 0 611.85 5.59
-4 2 3 990.9 8.84
-2 -2 -6 448.33 5.35
-2 -2 -9 27.61 1.4
-2 4 -9 25.18 1.24
-2 -2 -9 24.47 1.25
-2 4 -9 26.79 1.38
4 -2 -9 28.51 1.32
1 -4 -10 8.08 0.69
-4 3 -10 7.21 0.68
-4 3 -10 7.5 0.78
1 -4 -7 1.71 0.32
1 -4 -7 1.52 0.35
-4 3 -7 0.86 0.25
-3 -1 4 68.38 0.96
-4 3 -4 66.99 1.15
-3 -1 1 157.5 1.67
-4 3 -1 156.98 1.58
-3 -1 -2 60.17 0.77
-3 -1 -5 29.68 0.88
-1 4 -5 29.43 0.74
-1 4 -8 2.81 0.5
4 -3 -8 3.48 0.45
-3 -1 -8 3.01 0.51
-3 -1 -8 2.76 0.41
-1 4 -8 2.66 0.42
-1 4 -11 1.69 0.37
-3 -1 -11 1.59 0.37
4 -3 -11 2.03 0.36
0 -4 -11 9.5 0.69
-4 4 -11 8.84 0.66
4 0 -11 10.21 0.72
0 -4 -8 53.49 1.82
-4 4 -8 51.23 1.85
-4 4 -8 55.36 1.68
0 -4 -5 56.8 1.26
-4 0 5 58.05 0.98
-4 4 -5 58.01 1.28
-4 4 -5 56.77 1.16
-4 0 2 29 0.49
-4 0 2 28.82 0.53
-4 0 -1 317.67 3.05
-4 0 -1 310.54 3.1
-4 4 4 164.06 1.6
-4 0 -4 181.38 2.14
-4 0 -7 51.17 1.49
4 -4 -7 51.38 1.61
-4 0 -7 51.38 1.67
4 -4 -7 48.71 1.41
-4 0 -10 4.7 0.66
4 -4 -10 4.47 0.54
-4 0 -10 3.77 0.52
0 4 -10 4.66 0.56
1 4 -9 60.33 1.93
4 -5 -9 60.15 1.82
-5 1 -9 56.05 1.82
1 4 -9 58.29 1.9
-5 1 -9 58.1 2.09
-5 1 -6 709.88 7.73
4 -5 -6 714.53 7.64
-5 1 -3 1198.81 10.75
-5 1 -3 1194.68 11.08
-5 1 0 187.59 1.97
-5 1 0 186.59 1.99
-5 1 0 187.24 1.92
-5 1 3 115.5 1.33
-4 5 -6 521.42 6
-4 5 -6 508.19 5.63
-4 5 -9 338.23 5.64
-4 5 -9 349.07 5.25
-1 -4 -9 344.6 5.58
3 -5 -10 0.64 0.29
-5 2 -10 0.75 0.38
-5 2 -10 0.49 0.31
2 3 -10 0.49 0.32
3 -5 -7 13.41 0.72
3 -5 -7 12.22 0.79
-5 2 -7 12.25 0.72
-2 -3 4 34.87 0.58
-5 2 -4 36.38 0.82
-5 2 -1 7.01 0.25
-2 -3 1 6.76 0.23
-5 2 -1 6.81 0.22
-5 2 2 36.8 0.6
5 -2 -8 18.04 0.96
-2 -3 -8 18.12 1.06
-3 5 -8 17.18 1.06
-3 5 -8 18.58 0.97
5 -2 -11 9.04 0.66
-3 5 -11 8.06 0.64
-5 3 -11 0.38 0.25
2 -5 -11 0.32 0.26
3 2 -8 40.26 1.49
2 -5 -8 39.16 1.54
-5 3 -8 37.97 1.39
-5 3 -8 36.7 1.58
2 -5 -8 38.23 1.38
-5 3 -5 116.94 1.81
2 -5 -5 118.94 1.92
-5 3 -5 113.53 1.91
-3 -2 5 114.73 1.42
-3 -2 2 12.74 0.32
-3 -2 2 11.62 0.3
-3 -2 -1 222.88 2.26
-5 3 1 219.34 2.07
-5 3 4 342.73 3.19
5 -3 -7 201.47 3.27
-3 -2 -7 200.57 3.28
-2 5 -7 200.53 3.36
-3 -2 -7 198.87 3.56
-3 -2 -10 53.32 1.75
5 -3 -10 53.17 1.72
-2 5 -10 52.94 1.75
-2 5 -10 52.94 1.83
1 -5 -9 77.97 2.15
-5 4 -9 80.08 2.17
-5 4 -9 79.46 2.47
-5 4 -6 975.81 10.03
1 -5 -6 992.34 10.04
-5 4 -6 962.36 9.71
-4 -1 3 1751.31 15.68
-4 -1 3 1750.76 15.53
-4 -1 0 255.36 2.55
-4 -1 0 247.93 2.54
-4 -1 -3 44.49 0.68
-4 -1 -6 327.91 4.33
5 -4 -6 339.63 4.27
-4 -1 -9 266.01 4.78
-4 -1 -9 263.71 4.38
-1 5 -9 260.27 4.55
-1 5 -9 264 4.43
5 -4 -9 265.1 4.33
-5 5 -10 18.08 1
5 0 -10 17.82 1
-5 5 -10 18.03 1.13
0 -5 -10 18.37 1.01
-5 5 -7 80.23 1.9
0 -5 -7 85.77 2.16
0 -5 -7 83.07 1.91
-5 0 4 41.44 0.8
-5 0 1 21.01 0.45
-5 0 -2 114.96 1.47
-5 0 -2 112.2 1.35
5 -5 -5 112.69 1.88
-5 0 -5 118.96 1.99
5 -5 -8 56.23 1.67
-5 0 -8 54.52 1.7
0 5 -8 57.62 1.79
-5 0 -8 55.64 1.92
0 5 -8 55.65 1.79
0 5 -11 4.08 0.5
5 -5 -11 4.36 0.46
-5 0 -11 4.4 0.49
5 -6 -10 47.43 1.56
1 5 -10 45.21 1.63
-6 1 -10 46.8 1.61
-6 1 -10 45.44 1.79
-6 1 -7 68.32 1.75
5 -6 -7 69.8 1.71
-6 1 -4 4.18 0.19
-6 1 -4 3.36 0.27
-6 1 -1 121.5 1.45
-6 1 -1 118.29 1.45
-6 1 2 333.38 3.35
-6 1 2 337.59 3.28
-5 6 -5 128.03 2.06
-1 -5 -5 127.22 2.1
-5 6 -8 4.81 0.63
6 -1 -8 4.84 0.55
-1 -5 -8 4.56 0.6
-5 6 -8 4.48 0.53
6 -1 -11 12.88 0.79
-1 -5 -11 13.58 0.78
-5 6 -11 12.91 0.76
-6 2 -11 22.19 1
2 4 -11 22.27 1.03
4 -6 -11 22.1 0.97
2 4 -8 0.87 0.35
4 -6 -8 0.35 0.27
-6 2 -8 0.5 0.35
-6 2 -8 1.36 0.34
2 4 -8 0.77 0.35
4 -6 -5 61.58 1.28
-6 2 -5 62.91 1.26
-6 2 -5 63.76 1.36
-6 2 -2 168.93 1.88
-6 2 -2 170.47 2.03
-6 2 1 151.06 1.72
-6 2 4 12.51 0.31
6 -2 -7 49.19 1.47
-4 6 -7 47.77 1.45
-4 6 -10 77 2.28
6 -2 -10 82.97 2.17
-4 6 -10 78.2 2.11
3 -6 -9 157.09 3.12
-6 3 -9 149.18 3.5
-6 3 -9 156.57 3.18
3 3 -9 152.9 3.26
-6 3 -6 29.77 1.01
-6 3 -6 28.71 0.87
3 -6 -6 29.05 0.97
-6 3 -3 1070.55 10.06
-6 3 -3 1064.74 9.73
-3 -3 3 1077.35 9.73
-3 -3 0 1566.88 13.98
-6 3 0 1555.86 13.89
-6 3 0 1560.98 13.94
-6 3 3 652.28 6.1
-3 6 -6 21.62 0.75
-6 3 6 22.45 0.69
-3 -3 -6 21.73 0.87
6 -3 -9 75.25 2.09
-3 6 -9 69 2.19
-3 -3 -9 72.31 2.04
-3 6 -9 72.22 2.09
-3 -3 -9 69.31 2.23
2 -6 -10 11.73 0.79
-6 4 -10 10.35 0.77
-6 4 -10 11.21 0.93
2 -6 -7 0.7 0.26
-6 4 -7 0.38 0.23
2 -6 -7 0.52 0.26
-4 -2 4 33.14 0.65
-6 4 -4 32.5 0.56
-4 -2 1 8.25 0.29
-4 -2 1 8.34 0.28
-4 -2 -2 25.23 0.51
-4 -2 -5 37.52 1.04
-4 -2 -8 29.11 1.22
-4 -2 -8 29.45 1.37
-2 6 -8 29.58 1.26
-2 6 -8 29.46 1.32
6 -4 -8 30.09 1.22
6 -4 -11 16.82 0.86
-2 6 -11 15.99 0.87
-4 -2 -11 17.08 0.89
-6 5 -11 87.06 2.04
1 -6 -11 92.8 2.1
5 1 -11 90.29 2.13
1 -6 -8 72.12 2.13
-6 5 -8 69.5 1.91
-6 5 -8 70.33 2.24
1 -6 -8 71.05 1.91
1 -6 -5 31.01 0.91
-6 5 -5 30.51 0.89
-6 5 -5 30.47 0.9
-5 -1 2 657.87 6.06
-5 -1 2 657.69 6.11
-5 -1 -1 520.73 4.97
-6 5 4 45.14 0.71
-5 -1 -7 22.17 0.98
6 -5 -7 21.88 0.92
6 -5 -10 69.69 1.94
-5 -1 -10 67.8 2.19
-5 -1 -10 67.88 1.96
-1 6 -10 68.35 1.98
-6 6 -9 157.64 3.16
-6 6 -9 154.82 3.56
0 -6 -9 161.99 3.15
6 0 -9 161.61 3.28
-6 6 -6 0.22 0.19
-6 6 -6 0.79 0.25
0 -6 -6 0.5 0.23
-6 0 3 735.69 6.96
-6 0 3 762.16 7.14
-6 0 0 1757.08 15.56
-6 0 0 1718.78 15.55
-6 0 -3 518.11 4.99
6 -6 -6 0.9 0.24
-6 0 -6 1.6 0.3
0 6 -9 125.55 2.84
-6 0 -9 131.36 2.85
0 6 -9 132.91 2.94
-6 0 -9 130.53 3.18
6 -6 -9 133.65 2.78
1 6 -11 43 1.41
6 -7 -11 44.96 1.34
-7 1 -11 47.49 1.45
-1 -6 8 107.29 2.29
-7 1 -8 112.6 2.84
1 6 -8 117.82 2.71
-7 1 -8 113.15 2.53
6 -7 -8 114.78 2.42
-7 1 -5 71.28 1.49
6 -7 -5 69.3 1.38
-7 1 -2 2.39 0.18
-7 1 -2 3.25 0.23
-7 1 1 200.62 2.27
-7 1 4 228.73 2.72
-1 -6 -4 230.98 2.93
-1 -6 -7 31.75 1.16
-7 1 7 31.9 1.11
-6 7 -7 29.71 1.12
6 -7 7 30.18 1.13
-1 -6 -10 8.52 0.69
-6 7 -10 8.26 0.78
7 -1 -10 8.57 0.7
-6 7 -10 7.85 0.67
-7 2 -9 297.09 5.24
2 5 -9 310.31 4.96
5 -7 -9 305.95 4.65
-7 2 -9 304.42 4.74
-7 2 -6 532.06 6.26
5 -7 -6 553.67 6.16
-7 2 -3 171.32 1.96
-7 2 -3 167.9 2.18
-7 2 0 199.25 2.19
-7 2 0 192.17 2.09
-7 2 0 195.46 2.17
-7 2 3 884.1 8.2
-5 7 -6 430.08 5.31
-5 7 -6 434.91 5.18
-2 -5 -9 36.94 1.59
7 -2 -9 35.03 1.41
-5 7 -9 34.02 1.55
-5 7 -9 31.33 1.35
-7 3 -10 17.26 1.12
-7 3 -10 16.48 0.95
3 4 -10 17.33 1
4 -7 -10 17.78 0.94
-3 -4 7 73.69 1.74
-7 3 -7 75.6 1.84
4 -7 -7 75.85 1.79
-7 3 -4 38.25 0.67
-7 3 -4 41.27 0.95
-7 3 -1 59.29 0.88
-3 -4 1 59.55 0.9
-7 3 2 94.56 1.26
7 -3 -8 16.26 0.91
-4 7 -8 16.67 0.94
-4 7 -8 18.33 1.08
-4 7 -11 1.53 0.34
7 -3 -11 1.59 0.33
3 -7 -11 50.48 1.47
-7 4 -11 50.36 1.49
3 -7 -8 195.8 3.38
-7 4 -8 190.98 3.41
-7 4 -8 188.07 3.89
-4 -3 8 184.8 3.15
-7 4 -5 164.58 2.45
-7 4 -5 161.25 2.39
3 -7 -5 164.25 2.41
-7 4 -2 4.18 0.19
-4 -3 2 3.74 0.2
-4 -3 2 3.9 0.21
-7 4 1 399.05 3.78
-4 -3 -1 413.72 4.01
-7 4 4 372.83 3.69
-4 -3 -4 371.86 4.27
7 -4 -7 78.71 1.88
-4 -3 -7 81 1.95
-3 7 -7 83.44 2
-3 7 -10 1.2 0.36
-4 -3 -10 1.44 0.4
-3 7 -10 1.27 0.39
7 -4 -10 1.26 0.37
-7 5 -9 371.1 5.45
2 -7 -9 384.08 5.41
-7 5 -9 370.22 6.07
-7 5 -6 573.05 6.42
-7 5 -6 577.24 6.59
-5 -2 3 94.26 1.3
-5 -2 3 95.99 1.26
-5 -2 0 247.92 2.63
-5 -2 -3 799.78 7.47
7 -5 -6 480.49 5.6
-5 -2 -6 477.19 5.76
-5 -2 -9 44.09 1.59
-2 7 -9 43 1.63
-5 -2 -9 44.4 1.77
-2 7 -9 41.86 1.58
7 -5 -9 46.31 1.57
6 1 -10 50.04 1.68
1 -7 -10 47.37 1.56
-7 6 -10 44.97 1.54
-7 6 -10 46.2 1.8
-6 -1 7 53.62 1.47
-7 6 -7 53.28 1.52
1 -7 -7 54.52 1.54
-6 -1 4 2.96 0.22
-7 6 -4 3.58 0.21
-6 -1 1 125.22 1.56
-6 -1 -2 213.84 2.37
7 -6 -5 45.34 1.08
-6 -1 -5 46 1.18
-1 7 -8 2.69 0.47
-1 7 -8 2.94 0.47
7 -6 -8 2.59 0.41
-6 -1 -8 3.56 0.46
-1 7 -11 23.45 1.02
-6 -1 -11 22.98 1.02
7 -6 -11 22.37 0.94
7 0 -11 38.67 1.3
0 -7 -11 40.44 1.31
-7 7 -11 36.66 1.22
0 -7 -8 249.41 4.05
-7 7 -8 250.7 4.04
-7 7 -5 375.34 4.52
-7 7 -5 369.06 4.39
0 -7 -5 376.49 4.5
-7 0 5 373.14 4.1
-7 0 2 19.97 0.51
-7 7 -2 19.63 0.4
-7 0 2 20.02 0.53
-7 0 -1 334.69 3.46
-7 0 -4 412.2 4.15
-7 0 -4 418.38 4.67
-7 0 -7 125.63 2.52
7 -7 -7 123.86 2.37
0 -7 7 119.3 2.36
0 7 -10 1.53 0.39
7 -7 -10 1.94 0.36
-7 0 -10 1.82 0.48
-7 0 -10 1.19 0.35
1 7 -9 14.88 0.98
-8 1 -9 15.29 1.08
7 -8 -9 18.29 0.95
-8 1 -9 15.46 0.94
-1 -7 9 14.51 0.82
7 -8 -6 337.51 4.27
-8 1 -6 343.05 4.52
-8 1 -3 897.3 8.46
-8 1 -3 901.45 8.67
-8 1 0 417.4 4.2
-8 1 0 407.71 4.21
-8 1 3 57.05 1.07
-8 1 3 60.29 1
-7 8 -6 311.2 4.14
-7 8 -6 318.18 4.22
-1 -7 -6 314.98 4.24
-1 -7 -9 158.5 3.12
-7 8 -9 150.43 3.5
-7 8 -9 153.94 3.06
-8 2 -10 26.63 1.36
-8 2 -10 25.12 1.15
2 6 -10 25.45 1.21
6 -8 -10 25.81 1.09
6 -8 -7 3.16 0.38
-8 2 -7 1.83 0.35
-2 -6 7 2.54 0.35
-8 2 -4 133.27 2.02
-8 2 -4 126.93 1.65
-8 2 -1 319.93 3.38
-8 2 -1 324.45 3.37
-8 2 2 77.4 1.17
-8 2 2 75.25 1.19
-8 2 5 13.5 0.54
-2 -6 -5 12.88 0.62
-6 8 -8 68.28 1.9
-6 8 -8 71.01 2.23
8 -2 -8 73.76 2
-2 -6 -11 53.19 1.53
-6 8 -11 49.73 1.43
8 -2 -11 53.4 1.52
3 5 -11 0.15 0.24
5 -8 -11 0.18 0.22
-8 3 -11 0.55 0.27
-3 -5 8 53.32 1.55
5 -8 -8 53.42 1.59
-8 3 -8 54.07 1.97
-8 3 -8 53.06 1.67
-8 3 -5 287.82 3.59
5 -8 -5 280.41 3.51
-8 3 -5 277.25 3.61
-8 3 -2 481.09 4.75
-8 3 -2 475.61 4.89
-8 3 1 143.77 1.78
-8 3 1 141.74 1.77
-8 3 4 88.77 1.24
-3 -5 -7 198.71 3.54
-5 8 -7 195.03 3.26
5 -8 7 187.46 3.29
-5 8 -10 60.31 1.94
-5 8 -10 62.3 1.82
-8 4 -9 45.5 1.88
4 -8 -9 45.64 1.54
4 4 -9 44.81 1.69
-8 4 -9 43.44 1.58
-8 4 -6 449.42 5.39
4 -8 -6 452.52 5.29
-8 4 -3 901.52 8.58
-8 4 -3 944.18 8.89
-4 -4 0 514.84 5
-8 4 0 512.4 4.97
-8 4 0 505.89 4.9
-8 4 3 2.34 0.19
-8 4 6 273.91 3.45
-4 8 -6 267.56 3.67
-4 -4 -6 277.07 3.87
8 -4 -9 237.61 3.98
-4 -4 -9 239.41 4.05
-4 8 -9 231.62 4.01
-4 8 -9 227.71 4.24
-8 5 -10 1.3 0.35
3 -8 -10 1.01 0.31
-8 5 -10 1.26 0.44
3 -8 -7 60.33 1.59
-5 -3 7 58.28 1.54
-8 5 -7 57.8 1.59
-5 -3 4 243.45 2.67
-8 5 -4 236.92 3.03
-8 5 -1 289.47 3.03
-5 -3 1 297.73 3.11
-5 -3 -2 17.48 0.47
-5 -3 -5 12.86 0.62
-3 8 -8 19.08 1.02
-3 8 -8 18.3 1.05
8 -5 -8 20.32 0.99
-5 -3 -8 19.4 1.02
-5 -3 -11 5.16 0.51
-3 8 -11 5.34 0.51
8 -5 -11 4.91 0.47
6 2 -11 2.58 0.41
-8 6 -11 3.02 0.37
2 -8 -11 3.18 0.41
-8 6 -8 113.32 2.5
-6 -2 8 112.05 2.34
2 -8 -8 115.07 2.47
-6 -2 5 710.5 6.98
-8 6 -5 714.51 7.58
2 -8 -5 733.3 7.51
-8 6 -5 711.93 7.48
-6 -2 2 931.43 8.58
-6 -2 2 912.72 8.6
-8 6 -2 913.61 8.41
-6 -2 -1 126.75 1.61
-8 6 4 113.42 1.5
-6 -2 -4 109.96 1.85
-6 -2 -7 242.01 3.8
2 -8 7 236.06 3.61
-6 -2 -7 237.8 4.06
8 -6 -7 243.03 3.6
-6 -2 -10 90.6 2.27
-2 8 -10 87.7 2.24
-6 -2 -10 94.69 2.55
8 -6 -10 95.5 2.21
7 1 -9 17.84 1.06
-8 7 -9 16.49 1.14
-8 7 -9 16.48 0.96
1 -8 -9 18.1 0.98
-8 7 -6 412.78 5.08
1 -8 -6 416.2 5.14
-8 7 -6 416.5 5.11
-7 -1 3 1085.31 10.21
-7 -1 3 1093.73 10.1
-7 -1 0 434.26 4.32
-7 -1 0 417.38 4.33
-7 -1 -3 33.98 0.71
8 -7 -6 310.62 4.01
-7 -1 -6 314.5 4.27
8 -7 -9 187.66 3.34
-1 8 -9 182.86 3.53
-7 -1 -9 186.57 3.52
-8 8 -10 24.46 1.29
-8 8 -10 24.49 1.07
8 0 -10 26.57 1.19
0 -8 -10 27.23 1.16
-8 8 -7 112.35 2.31
0 -8 -7 113.48 2.57
0 -8 -7 116.12 2.36
-8 0 7 114.7 2.29
0 -8 -4 141.02 2.14
-8 0 4 136.95 1.79
-8 0 1 40.29 0.8
-8 0 -2 80.78 1.23
8 -8 -5 208.65 2.8
-8 0 -5 213.31 3.06
8 -8 -8 59.64 1.66
0 -8 8 58.18 1.65
-8 0 -8 57.83 1.78
0 8 -11 0.25 0.23
-8 0 -11 0.53 0.26
-9 1 -10 120.55 2.6
8 -9 -10 117.93 2.39
1 8 -10 117.91 2.65
-9 1 -10 121.78 2.92
8 -9 -7 209.38 3.26
-1 -8 7 206.93 3.38
-9 1 -7 207.72 3.48
-9 1 -4 55.89 1.01
-9 1 -4 57.91 1.26
-9 1 -1 115.77 1.61
-9 1 -1 118.64 1.64
-9 1 2 623.04 6.06
-9 1 2 600.89 6.1
-9 1 5 286.54 3.43
-1 -8 -5 279.94 3.7
-1 -8 -8 11.19 0.78
-8 9 -8 11.31 0.77
9 -1 -11 15.49 0.78
-1 -8 -11 15.11 0.78
-9 2 -11 56.37 1.54
2 7 -11 54.74 1.56
-9 2 -8 21.63 1.23
7 -9 -8 21.5 0.98
-2 -7 8 21.89 1
-9 2 -8 23.3 1.1
-9 2 -5 37.59 1.08
7 -9 -5 36.18 0.97
-9 2 -2 344.55 3.76
-9 2 -2 344.06 3.67
-9 2 1 293.81 3.23
-2 -7 -4 13.73 0.6
-9 2 4 14.99 0.47
7 -9 7 59.36 1.68
-2 -7 -7 60.69 1.67
-7 9 -7 59.12 1.6
-2 -7 -7 61.17 1.82
9 -2 -10 100.21 2.32
-7 9 -10 94.7 2.21
-7 9 -10 91.68 2.44
-2 -7 -10 95.52 2.28
-9 3 -9 81.42 2.15
6 -9 -9 78.44 2.01
-9 3 -9 78.26 2.45
-3 -6 9 76.96 1.93
3 6 -9 82.05 2.31
6 -9 -6 2.67 0.33
-9 3 -6 1.62 0.3
-9 3 -3 361.29 4.02
-9 3 -3 355.52 3.78
-9 3 0 867.62 8.02
-9 3 0 872.38 8.16
-9 3 3 353.78 3.71
-9 3 3 340.03 3.84
-9 3 6 0.88 0.19
-6 9 -6 0.42 0.23
-6 9 -6 0.5 0.24
-6 9 -9 63.62 2.11
-6 9 -9 66.25 1.9
-9 4 -10 47.33 1.82
5 -9 -10 48.02 1.49
4 5 -10 49.68 1.69
-9 4 -10 47.94 1.57
5 -9 -7 27.75 1.04
-9 4 -7 28.09 1.12
-9 4 -7 26.73 1.33
-4 -5 7 26.95 1.05
-9 4 -4 22.23 0.57
-9 4 -4 23.11 0.74
-4 -5 1 181.36 2.12
-9 4 -1 175.42 2.11
-9 4 -1 175.25 2.14
-9 4 -1 177.28 2.14
-9 4 2 229.46 2.64
-9 4 5 97.48 1.71
9 -4 -8 3.46 0.46
-5 9 -8 4.13 0.57
-5 9 -8 2.64 0.44
-4 -5 -8 3.85 0.55
9 -4 -11 6.77 0.53
-5 9 -11 7.08 0.54
-9 5 -11 63.79 1.88
-9 5 -11 63.92 1.61
4 -9 -11 64.89 1.59
-9 5 -8 25.16 1.14
4 -9 -8 23.97 1.06
-5 -4 8 22.65 1.01
-9 5 -5 80.19 1.6
-9 5 -5 83.48 1.66
4 -9 -5 82.98 1.58
-9 5 -2 841.35 8.08
-5 -4 2 848.5 7.91
-9 5 -2 821.62 7.82
-5 -4 -1 1148.1 10.43
-9 5 1 1111.7 10.16
-5 -4 -4 291.9 3.74
-9 5 4 312.65 3.32
-4 9 -7 4.06 0.48
4 -9 7 2.56 0.37
-5 -4 -7 2.84 0.46
4 -9 7 3.49 0.44
-5 -4 -7 2.82 0.42
9 -5 -7 2.66 0.38
9 -5 -10 80.82 2
-5 -4 -10 81.22 2.11
-4 9 -10 80.17 2.07
-9 6 -9 89.38 2.24
3 -9 -9 90.93 2.22
-9 6 -9 89.08 2.67
3 -9 -6 0.47 0.22
-9 6 -6 1.11 0.26
-6 -3 3 307.69 3.3
-6 -3 3 308.88 3.36
-6 -3 0 1010.14 9.42
-6 -3 -3 691.32 6.69
9 -6 -6 22.38 0.86
-6 -3 -6 23.99 0.96
-3 9 -9 64.09 1.96
9 -6 -9 68.25 1.89
-6 -3 -9 70.23 2.02
-3 9 -9 68.06 1.99
-9 7 -10 7.48 0.62
7 2 -10 8.77 0.71
-9 7 -10 7.2 0.76
2 -9 -10 8.52 0.65
-7 -2 7 3.45 0.41
-9 7 -7 2.74 0.37
2 -9 -7 3.55 0.41
-9 7 -7 3.5 0.42
-7 -2 4 85.42 1.36
-9 7 -4 82.42 1.31
2 -9 -4 85.16 1.52
-9 7 -4 85.83 1.63
-7 -2 1 203.68 2.41
-7 -2 1 207.27 2.4
-9 7 -1 204.07 2.31
-7 -2 -2 101.65 1.45
-7 -2 -5 1.3 0.24
9 -7 -5 0.84 0.19
9 -7 -8 31.94 1.21
-7 -2 -8 31.03 1.42
2 -9 8 32.08 1.21
-7 -2 -8 31.93 1.29
-2 9 -8 31.18 1.32
-2 9 -11 15.9 0.81
-7 -2 -11 17.31 0.85
1 -9 -11 102.9 2.08
8 1 -11 101.05 2.15
1 -9 -8 63.32 1.8
-9 8 -8 61.96 1.76
-8 -1 8 57.47 1.63
-9 8 -5 51.42 1.32
-9 8 -5 46.98 1.16
1 -9 -5 48.23 1.22
-8 -1 5 50.13 1.06
-8 -1 2 709.96 6.81
-8 -1 2 710.99 6.84
-8 -1 -1 774.8 7.44
-8 -1 -4 168.09 2.5
-8 -1 -4 167.42 2.11
-8 -1 -7 6.33 0.56
-8 -1 -7 5.24 0.6
1 -9 7 5.91 0.53
9 -8 -7 6.6 0.53
-1 9 -10 77.93 2.07
9 -8 -10 76.08 1.86
-8 -1 -10 79.25 2.07
-9 9 -9 91.83 2.22
0 -9 -9 92.46 2.27
9 0 -9 93.89 2.39
-9 9 -9 86.13 2.59
-9 9 -6 5.9 0.51
0 -9 -6 5.99 0.5
-9 0 3 277.65 3.22
-9 0 3 271.42 3.1
-9 0 0 941.58 8.84
-9 0 0 916.65 8.83
-9 0 -3 479.03 4.92
9 -9 -6 19.97 0.77
-9 0 -6 19.04 0.87
9 -9 -9 31.77 1.21
0 -9 9 30.85 1.2
-9 0 -9 33.43 1.35
0 9 -9 32.76 1.39
9 -10 -11 57.2 1.59
1 9 -11 52.57 1.47
-10 1 -8 156.05 3.1
-1 -9 8 154.73 2.96
9 -10 -8 155.94 2.81
-10 1 -8 156.87 3.43
9 -10 -5 55.93 1.21
-10 1 -5 56.98 1.41
-10 1 -2 78.78 1.31
-10 1 1 369.8 4
-1 -9 -4 271.41 3.52
-10 1 4 272.08 3.14
-10 1 4 274.11 3.35
-9 10 -7 50.9 1.47
-1 -9 -7 52.72 1.55
9 -10 7 52.48 1.59
-1 -9 -7 51.71 1.7
-9 10 -10 4.1 0.43
-9 10 -10 3.12 0.54
10 -1 -10 2.95 0.44
-1 -9 -10 4.26 0.49
2 8 -9 152.94 3.24
-2 -8 9 153.64 2.92
-10 2 -9 156.59 3.11
8 -10 -9 154.66 2.86
8 -10 -6 175.62 2.74
-10 2 -6 193.52 3.06
-10 2 -3 0.91 0.16
-10 2 -3 4.69 0.33
-10 2 0 469.18 4.8
-10 2 0 455.94 4.79
-10 2 3 568.07 5.86
-10 2 3 558.66 5.7
-8 10 -6 143.7 2.49
-8 10 -6 148.67 2.71
-10 2 6 154.97 2.35
-2 -8 -6 150.16 2.67
-8 10 -9 3.32 0.45
-8 10 -9 2.86 0.55
-2 -8 -9 3.11 0.47
10 -2 -9 3.11 0.48
7 -10 -10 26.35 1.05
-10 3 -10 27.46 1.37
-10 3 -10 27.65 1.16
3 7 -10 27.48 1.23
-10 3 -7 191.58 3.89
-3 -7 7 185.69 3.19
7 -10 -7 192.48 3.08
-10 3 -7 195.04 3.32
-10 3 -4 294.47 3.33
-10 3 -4 305.17 3.72
-10 3 -4 296.18 3.63
-10 3 -1 40.61 0.84
-10 3 -1 41.45 0.86
-10 3 -1 42.23 0.86
-10 3 2 99.27 1.52
-10 3 2 100.37 1.55
-3 -7 -5 252.33 3.59
-10 3 5 271.98 3.41
10 -3 -8 123.63 2.66
-7 10 -8 118.67 2.55
-3 -7 -8 126.19 2.87
-3 -7 -11 15.3 0.78
-10 4 -11 53.43 1.68
4 6 -11 51.64 1.52
-4 -6 8 200.86 3.44
6 -10 -8 211.08 3.45
-10 4 -8 206.57 3.62
-10 4 -5 220.53 3.15
-10 4 -5 218.68 3.11
6 -10 -5 222.55 2.97
-10 4 -2 1.97 0.2
-10 4 1 579.1 5.8
-10 4 1 578.92 5.79
-10 4 4 707.98 6.96
-10 4 4 721.62 7.3
-6 10 -7 172.81 3.05
-4 -6 -7 184.5 3.38
6 -10 7 180.37 3.26
-6 10 -10 0.58 0.3
-6 10 -10 0.9 0.35
10 -4 -10 0.64 0.32
-10 5 -9 155.62 3.62
5 5 -9 164.44 3.39
-10 5 -9 159.39 3.11
5 -10 -9 158.92 2.99
-5 -5 9 149.78 2.87
5 -10 -6 227.38 3.23
-10 5 -6 218.16 3.29
-10 5 -3 42.86 0.89
-10 5 -3 43.06 1.01
-5 -5 0 179.28 2.19
-10 5 0 178.26 2.17
-10 5 0 174.45 2.08
-10 5 3 675.58 6.68
-10 5 6 410.96 4.84
-5 -5 -6 390.26 5.15
-5 10 -9 37.04 1.5
-5 10 -9 38.18 1.42
-5 -5 -9 38.06 1.46
10 -5 -9 39.27 1.41
-5 -5 -9 38.89 1.6
-10 6 -10 34.38 1.55
4 -10 -10 36.83 1.28
-10 6 -10 36.59 1.31
4 -10 -7 92.61 2.03
-6 -4 7 90.59 2.04
-10 6 -7 94.69 2.12
-10 6 -7 88.6 2.49
-10 6 -4 44.34 0.92
-10 6 -4 46.22 1.14
4 -10 -4 44.57 1.02
-6 -4 1 19.3 0.56
-10 6 -1 20.43 0.55
-6 -4 -2 97.84 1.45
-6 -4 -5 88.06 1.82
-4 10 -8 25.64 1.22
4 -10 8 27.18 1.12
10 -6 -8 26.71 1.12
-6 -4 -8 25.28 1.17
-6 -4 -8 26.84 1.3
-4 10 -8 25.28 1.15
-6 -4 -11 0.82 0.28
-10 7 -11 76.71 2.02
7 3 -11 82.55 1.92
-7 -3 8 257.77 4.03
-10 7 -8 263.13 4.15
3 -10 -8 266.47 4.11
3 -10 -5 160.02 2.45
-10 7 -5 161.18 2.61
-10 7 -5 154.33 2.41
-7 -3 2 39.89 0.84
-7 -3 2 39.91 0.85
-10 7 -2 39.72 0.77
-7 -3 -1 681.5 6.66
-7 -3 -4 699.76 7.45
-10 7 4 717.3 6.99
-7 -3 -7 211.33 3.53
3 -10 7 206.9 3.59
10 -7 -7 207.11 3.25
-7 -3 -7 210.82 3.74
10 -7 -10 2.31 0.38
-3 10 -10 2.29 0.42
-7 -3 -10 2.11 0.41
-10 8 -9 160.22 3.04
-10 8 -9 151.62 3.6
2 -10 -9 155.77 3.02
-10 8 -6 318.37 4.44
-10 8 -6 314.52 4.27
-8 -2 3 131.95 1.86
-8 -2 3 129.27 1.79
-8 -2 0 79.73 1.27
-8 -2 -3 503.35 5.16
-8 -2 -6 303.36 4.31
10 -8 -6 314.77 4.01
-8 -2 -9 36.59 1.58
-2 10 -9 34.6 1.39
2 -10 9 36.25 1.29
-8 -2 -9 38.4 1.45
10 -8 -9 35.29 1.27
-10 9 -10 36.81 1.25
-10 9 -10 35.06 1.52
9 1 -10 39.32 1.43
1 -10 -10 37.57 1.32
-9 -1 7 11.92 0.72
-10 9 -7 11.69 0.72
-10 9 -7 13.52 0.92
1 -10 -7 12.81 0.75
-10 9 -7 14.24 0.77
-9 -1 4 33.43 0.78
-9 -1 4 33.34 0.85
1 -10 -4 33.46 0.94
-9 -1 1 298.34 3.36
-9 -1 -2 341.58 3.74
-9 -1 -5 72.65 1.64
10 -9 -5 73.47 1.41
1 -10 8 2.79 0.42
10 -9 -8 2.1 0.36
-9 -1 -8 2.15 0.48
-9 -1 -8 2.9 0.46
10 -9 -11 29.28 1.12
-9 -1 -11 26.69 1.02
-10 10 -11 40.09 1.31
-10 10 -8 226.34 3.68
0 -10 -8 231.99 3.83
-10 10 -5 270.01 3.79
-10 0 5 264.2 3.32
0 -10 -5 262.42 3.59
-10 10 -2 1.23 0.14
-10 0 2 1.47 0.2
-10 0 -1 344.87 3.81
-10 0 -4 554.15 5.71
-10 0 -4 558.26 6.15
-10 0 -7 242.05 3.89
0 -10 7 235.17 3.78
10 -10 -7 239.26 3.51
0 10 -10 14.38 0.87
10 -10 -10 15.33 0.75
-10 0 -10 16.11 0.89
-11 1 -9 63.46 2.11
1 10 -9 61.55 1.93
10 -11 -9 61.01 1.6
-1 -10 9 63.37 1.77
-11 1 -9 64.48 1.89
-11 1 -6 294.12 4.18
-1 -10 6 283.08 4.09
-1 -10 6 278.54 4.17
-11 1 -6 291.82 4.71
10 -11 -6 284.13 3.74
-11 1 -3 343.33 3.84
-11 1 -3 334.08 4.03
-11 1 0 16.76 0.57
-11 1 0 16.44 0.57
-11 1 3 169.36 2.29
-1 -10 -3 169.65 2.48
-11 1 3 169.6 2.39
-10 11 -6 214.7 3.22
-1 -10 -6 221.38 3.46
-11 1 6 229.89 3.48
-10 11 -6 223.49 3.6
-1 -10 -6 225.5 3.64
-11 1 6 215.93 3.03
-10 11 -9 66.78 2.22
-10 11 -9 66.13 1.77
-1 -10 -9 67.53 1.9
2 9 -10 46.46 1.56
9 -11 -10 45.42 1.3
-11 2 -10 48.75 1.54
-11 2 -7 6.81 0.59
9 -11 -7 5.49 0.48
-2 -9 7 6.68 0.58
-11 2 -7 7.42 0.78
-11 2 -4 389.54 4.29
-11 2 -4 402.09 4.66
-11 2 -1 969.38 9.31
-11 2 -1 967.41 9.33
-11 2 2 324.65 3.78
-11 2 2 339.08 3.75
-9 11 -5 0.71 0.2
-2 -9 -5 0.57 0.22
-2 -9 -8 77.77 2.07
-9 11 -8 75.07 1.93
3 8 -11 1.65 0.33
8 -11 -11 1.49 0.36
-3 -8 8 96.32 2.24
-11 3 -8 97 2.33
8 -11 -8 96.61 2.12
-11 3 -5 498.27 5.7
8 -11 -5 480.78 5.36
-11 3 -2 511.77 5.31
-11 3 1 4.71 0.31
-11 3 1 5.63 0.33
-3 -8 -4 256.34 3.46
-11 3 4 258.18 3.07
8 -11 7 311.16 4.71
-8 11 -7 311.13 4.38
-3 -8 -7 318.76 4.8
-3 -8 -7 321.16 4.63
11 -3 -10 102.57 2.25
-8 11 -10 94.12 2.09
-8 11 -10 90.31 2.32
-3 -8 -10 103.25 2.32
4 7 -9 46.8 1.72
-11 4 -9 47.03 1.58
7 -11 -9 44.86 1.43
-4 -7 9 46.79 1.5
-11 4 -9 49.51 1.92
7 -11 -6 287.64 3.81
-11 4 -6 283.86 4.01
-11 4 -3 330.8 4.01
-11 4 -3 357.47 3.87
-11 4 0 29.17 0.67
-11 4 0 29.54 0.73
-11 4 0 28.59 0.73
-11 4 3 99.82 1.56
-11 4 3 96.28 1.64
-11 4 6 202.74 2.94
-7 11 -6 189.38 3.02
11 -4 -9 111.34 2.48
-7 11 -9 109.19 2.42
-7 11 -9 105.44 2.7
-11 5 -10 2.3 0.38
5 6 -10 2.39 0.43
-11 5 -10 2.12 0.51
6 -11 -10 2.43 0.38
-11 5 -7 51.94 1.54
-5 -6 7 53.03 1.53
6 -11 -7 51.14 1.44
-11 5 -7 50.38 1.88
-11 5 -4 302.83 3.77
6 -11 -4 300.64 3.5
-11 5 -4 297.36 3.39
-11 5 -1 413.91 4.4
-11 5 -1 411.52 4.37
-11 5 -1 411.83 4.36
-11 5 2 78.41 1.34
-11 5 5 13.87 0.63
-5 -6 -8 75.7 2.16
-6 11 -8 68.26 2.11
11 -5 -8 72.93 1.9
-6 11 -8 69.2 1.88
-11 6 -11 1.92 0.42
-11 6 -8 99.86 2.31
5 -11 -8 97.49 2.21
-6 -5 8 97.15 2.25
-11 6 -5 560.74 6.23
5 -11 -5 563.18 6.15
-11 6 -5 570.09 6.4
-11 6 -2 756.93 7.5
-6 -5 2 778.61 7.45
-11 6 -2 758.39 7.39
-11 6 1 100.7 1.32
-6 -5 -1 100.39 1.52
-6 -5 -4 197.85 2.92
-11 6 4 208.49 2.6
-5 11 -7 399.62 5.38
5 -11 7 395.8 5.36
-6 -5 -7 400.32 5.48
5 -11 7 402.35 5.61
11 -6 -7 412.34 5.23
-6 -5 -7 407.51 5.68
-6 -5 -10 160.53 3.08
-5 11 -10 155.98 2.91
11 -6 -10 160.23 2.84
4 -11 -9 7.28 0.61
-11 7 -9 6.84 0.62
-11 7 -9 8.16 0.83
4 -11 -6 168.64 2.74
-11 7 -6 171.64 2.79
-11 7 -6 172.84 2.91
-11 7 -3 566.11 5.88
-11 7 -3 579.22 6.12
-11 7 0 559.25 5.66
-7 -4 0 566.46 5.68
-11 7 3 2.02 0.22
-7 -4 -3 2.51 0.28
-11 7 6 204.24 3.07
11 -7 -6 200.79 2.99
-7 -4 -6 200.48 3.28
11 -7 -9 174.1 3.08
-7 -4 -9 174.89 3.55
-4 11 -9 162.89 3.19
-7 -4 -9 169.44 3.29
3 -11 -10 7.34 0.57
-11 8 -10 7.28 0.74
-11 8 -10 7.19 0.57
8 3 -10 6.9 0.63
-11 8 -7 51.64 1.53
-8 -3 7 52.68 1.54
-11 8 -7 54.97 1.54
3 -11 -7 51.4 1.5
-11 8 -7 51 1.85
3 -11 -4 53.46 1.19
-11 8 -4 56.69 1.34
-8 -3 4 55.63 1.11
-11 8 -4 53.38 1.1
-11 8 -1 4.78 0.28
-8 -3 1 5.11 0.31
-8 -3 -2 130.43 1.83
-11 8 2 127.32 1.46
11 -8 -5 127.48 2.04
-8 -3 -5 132.68 2.37
3 -11 8 52.17 1.61
11 -8 -8 52.1 1.52
-8 -3 -8 51.69 1.68
-3 11 -8 49.16 1.63
-8 -3 -8 53.14 1.83
11 -8 -11 6.72 0.56
-8 -3 -11 6.5 0.53
-11 9 -11 2.15 0.41
2 -11 -11 2.9 0.39
-11 9 -8 112.91 2.41
-9 -2 8 111.38 2.41
2 -11 -8 110.56 2.43
-9 -2 5 573.61 5.97
-11 9 -5 566.11 6.55
2 -11 -5 568.35 6.32
-9 -2 2 600.58 6.02
-9 -2 2 592.94 5.99
-9 -2 -1 48.96 1
-9 -2 -4 115.62 1.74
-9 -2 -4 122.86 2.12
11 -9 -7 265.44 3.8
-9 -2 -7 276.34 4.24
2 -11 7 264.66 4.29
2 -11 7 265.85 4.11
-11 9 7 267.37 3.87
-9 -2 -7 269.64 4.43
-9 -2 -10 132.7 2.92
11 -9 -10 120.7 2.3
-2 11 -10 123.02 2.58
-9 -2 -10 130.6 2.68
1 -11 -9 0.38 0.27
-11 10 -9 0.64 0.42
10 1 -9 0.39 0.32
-11 10 -9 0.97 0.28
-11 10 -6 137.09 2.64
-11 10 -6 130.79 2.33
-10 -1 6 136.91 2.55
1 -11 -6 129.71 2.45
1 -11 -3 422.58 4.78
-10 -1 3 430.72 4.62
-10 -1 3 426.75 4.69
-10 -1 0 300.93 3.46
-10 -1 -3 5.62 0.35
-10 -1 -3 5.77 0.4
1 -11 6 82.98 1.99
11 -10 -6 83.28 1.67
1 -11 6 84.41 1.95
-10 -1 -6 84.4 1.98
-10 -1 -9 110 2.78
-1 11 -9 106.63 2.53
11 -10 -9 107.37 2.22
-10 -1 -9 109.79 2.55
1 -11 9 105.29 2.36
-11 11 -10 53.07 1.8
0 -11 -10 56.45 1.6
-11 11 -7 184.3 3.35
-11 11 -7 190.49 3.12
0 -11 -7 194.05 3.31
11 -11 7 193.59 3.38
-11 0 4 130 1.95
0 -11 -4 133.4 2.22
-11 0 4 133.81 2.09
-11 0 1 12.41 0.51
-11 0 -2 343.65 3.9
-11 0 -5 353.91 4.55
11 -11 -5 336.28 3.99
-11 0 -8 77.54 2.31
0 -11 8 78.92 2.05
-11 0 -8 77.44 2.1
11 -11 -8 75.96 1.8
11 -11 -11 0.81 0.29
-1 -11 10 150.06 2.66
-12 1 -10 153.17 2.87
1 11 -10 153.6 2.96
-1 -11 7 318.12 4.66
-12 1 -7 313.87 5.36
-12 1 -7 321.23 4.72
11 -12 -7 309.1 4.17
-12 1 -4 113.28 2.05
-12 1 -4 110.56 1.79
-12 1 -1 112.71 1.78
-12 1 2 682.65 6.88
-12 1 2 654.89 6.88
-1 -11 -5 435.53 5.4
-12 1 5 443.86 5.14
-1 -11 -8 55.72 1.71
-1 -11 -11 3.84 0.38
10 -12 -11 86.84 1.9
-2 -10 8 27.31 1.18
10 -12 -8 28.05 1.05
-12 2 -8 29.85 1.45
-12 2 -8 28.39 1.23
10 -12 -5 83.52 1.53
-12 2 -5 86 1.83
-12 2 -2 689.8 6.98
-12 2 1 754.76 7.57
-12 2 1 760.79 7.58
-12 2 4 159.38 2.4
-12 2 4 153.84 2.21
-2 -10 -4 155.24 2.52
-2 -10 -7 17.77 0.92
-10 12 -7 17.41 0.95
10 -12 7 18.66 1
-10 12 -7 17.71 0.84
-2 -10 -10 89.55 2.08
12 -2 -10 89.42 2.05
-3 -9 9 5.1 0.54
9 -12 -9 5.98 0.51
-12 3 -9 6.6 0.62
3 9 -9 7.45 0.71
-12 3 -6 73.84 1.79
9 -12 -6 75.04 1.61
-3 -9 6 75.57 1.81
-12 3 -6 75.37 2.19
-12 3 -3 475.31 5.1
-12 3 0 424.52 4.6
-12 3 0 418.39 4.59
-12 3 3 41.67 1.04
-3 -9 -3 39.88 1.08
-3 -9 -6 15.99 0.85
9 -12 6 16.31 0.87
-3 -9 -6 16.92 0.85
-9 12 -6 17.65 0.9
-9 12 -6 16.45 0.74
-12 3 6 17.14 0.74
12 -3 -9 45.62 1.51
-9 12 -9 44.06 1.72
-3 -9 -9 49.75 1.63
-9 12 -9 45.81 1.43
4 8 -10 87.38 2.21
-12 4 -10 95.58 2.52
8 -12 -10 91.1 1.91
-12 4 -10 93.79 2.14
-12 4 -7 96.69 2.7
-12 4 -7 97.85 2.21
-4 -8 7 92.83 2.16
8 -12 -7 96.85 2.02
-12 4 -4 14.32 0.55
-12 4 -4 14.89 0.66
-12 4 -4 13.96 0.6
-12 4 -1 785.31 7.74
-12 4 -1 786.31 7.77
-12 4 -1 777.58 7.68
-12 4 2 1113.55 10.69
-12 4 5 332.97 4.11
-4 -8 -5 300.23 4.21
-8 12 -8 9.18 0.67
-4 -8 -8 9.76 0.78
12 -4 -8 9.76 0.7
12 -4 -11 12.98 0.64
-12 5 -11 121.06 2.53
-5 -7 8 86.5 2.13
-12 5 -8 89.81 2.2
7 -12 -8 86.05 1.99
-12 5 -5 36.46 1.13
-12 5 -5 35.86 1.07
7 -12 -5 37.35 1.01
-12 5 -2 963.28 9.27
-12 5 -2 946.32 9.19
-12 5 1 1401.27 13.19
-12 5 1 1412.89 13.19
-12 5 4 298.19 3.51
-12 5 4 304.53 3.79
12 -5 -7 18.19 0.88
-7 12 -7 17.31 0.87
-5 -7 -7 16.28 0.95
-7 12 -10 124.05 2.43
12 -5 -10 126.91 2.44
6 6 -9 35.47 1.5
6 -12 -9 33.74 1.22
-12 6 -9 33.34 1.28
-12 6 -9 34.26 1.61
-6 -6 9 31.65 1.23
-6 -6 6 0.72 0.24
6 -12 -6 0.39 0.19
-12 6 -6 0.58 0.3
-12 6 -6 0.48 0.22
-12 6 -6 1.01 0.25
-12 6 -3 134.08 1.99
-12 6 -3 139.43 2.16
-12 6 0 474.24 5.01
-6 -6 0 468.9 4.98
-12 6 0 479.25 4.85
-12 6 3 340.83 3.86
-12 6 3 339.61 3.99
-6 -6 -6 13.27 0.76
6 -12 6 13.79 0.79
-12 6 6 14.5 0.71
-6 -6 -9 28.44 1.34
-6 -6 -9 29.98 1.28
12 -6 -9 29.35 1.15
-6 12 -9 26.81 1.14
-12 7 -10 33.93 1.5
-12 7 -10 36.62 1.24
5 -12 -10 35.75 1.2
-12 7 -7 7.43 0.76
-12 7 -7 7.75 0.59
5 -12 -7 8.3 0.58
-7 -5 7 8.56 0.64
-12 7 -4 32.89 1.01
-12 7 -4 31.46 0.84
5 -12 -4 32.35 0.88
-7 -5 1 131.9 1.88
-12 7 -1 130.61 1.85
-12 7 -1 130.76 1.88
-7 -5 -2 84.77 1.42
-12 7 5 4.61 0.4
-7 -5 -5 4.78 0.45
5 -12 8 13.5 0.82
-5 12 -8 13.6 0.82
12 -7 -8 12.93 0.77
-7 -5 -8 15.31 0.97
-7 -5 -8 15.85 0.94
12 -7 -11 29.39 1.04
-12 7 11 23.69 0.8
-12 8 -11 101.56 2.28
4 -12 -11 117.81 2.22
-8 -4 8 45.38 1.49
4 -12 -8 47.18 1.48
-12 8 -8 46.25 1.49
-12 8 -5 57.01 1.33
-12 8 -5 61.09 1.54
4 -12 -5 59.55 1.38
-12 8 -2 679.65 6.8
-8 -4 2 709.06 6.94
-8 -4 -1 872.53 8.61
-12 8 1 893.06 8.32
-12 8 4 176.24 2.4
-8 -4 -4 167.64 2.68
4 -12 7 30.38 1.29
4 -12 7 28.43 1.18
-8 -4 -7 29.77 1.23
12 -8 -7 28.07 1.03
-8 -4 -7 27.4 1.25
-4 12 -10 142.7 2.72
12 -8 -10 142.27 2.52
-8 -4 -10 147.07 2.88
-12 9 -9 80.7 1.98
3 -12 -9 81.25 2.01
9 3 -9 84.22 2.3
-9 -3 6 22.7 0.95
-12 9 -6 22.03 0.88
-12 9 -6 22.84 0.99
-12 9 -6 20.11 1.09
3 -12 -6 24.36 0.94
-9 -3 3 41.93 0.96
-9 -3 3 43.76 0.99
-9 -3 0 283.22 3.31
-9 -3 -3 235.42 2.95
-9 -3 -3 237.61 3.23
-9 -3 -6 8.65 0.65
-9 -3 -6 8.45 0.63
3 -12 6 9.12 0.65
-9 -3 -6 10.02 0.77
12 -9 -6 9.02 0.52
3 -12 9 36.57 1.32
12 -9 -9 35.46 1.21
-3 12 -9 36.45 1.37
-9 -3 -9 39.13 1.57
-9 -3 -9 40.62 1.5
-12 10 -10 2.23 0.45
10 2 -10 2.31 0.4
2 -12 -10 2.2 0.34
-12 10 -7 35.41 1.33
-12 10 -7 33.95 1.49
-12 10 -7 39.28 1.27
-10 -2 7 35.95 1.28
2 -12 -7 37.12 1.29
-10 -2 4 231.11 2.92
-12 10 -4 238.01 3.39
2 -12 -4 233.91 3.17
-10 -2 4 238.81 3.07
-10 -2 1 247.77 2.98
-12 10 -1 232.98 2.85
-10 -2 -2 14.84 0.56
12 -10 -5 42.35 1.02
-10 -2 -5 46.88 1.35
2 -12 8 70.03 1.94
-10 -2 -8 73.47 2.05
-10 -2 -8 75.05 2.2
12 -10 -8 68.32 1.7
-2 12 -8 73.8 2.05
12 -10 -11 24.31 0.95
-12 11 -11 97.34 2.07
1 -12 -11 113.46 2.01
1 -12 -8 43.15 1.46
1 -12 -5 107.42 2.08
-12 11 -5 110 2.27
-11 -1 5 113.61 1.93
-11 -1 2 897.79 8.96
-12 11 -2 898.56 8.69
-11 -1 -1 1063.06 10.24
-11 -1 -4 272.81 3.72
-11 -1 -4 269.6 3.33
1 -12 7 3.84 0.5
-11 -1 -7 3.51 0.54
12 -11 -7 3.99 0.43
-11 -1 -7 4.58 0.54
-1 12 -10 95.68 2.18
-11 -1 -10 99.52 2.23
-11 -1 -10 101.97 2.46
12 0 -9 80 2.1
0 -12 -9 74.04 1.93
12 -12 6 28.36 1.16
-12 0 6 29.53 1.12
0 -12 -6 30.54 1.13
-12 12 -6 29.66 1.21
-12 0 3 51.61 1.16
-12 0 3 50.05 1.18
0 -12 -3 52.78 1.25
-12 0 0 362.39 4.15
-12 0 -3 288 3.78
-12 0 -3 300.22 3.59
0 -12 6 57.4 1.62
-12 0 -6 59.95 1.67
0 -12 9 0.51 0.28
-12 0 -9 0.77 0.4
0 12 -9 0.84 0.32
-12 0 -9 0.79 0.3
12 -13 -11 60.92 1.47
-13 1 -8 254.39 4.53
-1 -12 8 246.45 4.08
-13 1 -8 252.65 4.18
-13 1 -5 245.89 3.67
-13 1 -2 0.84 0.19
-13 1 1 348.54 4.1
-1 -12 -4 472.88 5.6
-13 1 4 480.41 5.42
-1 -12 -7 120.19 2.54
12 -13 7 113.71 2.58
13 -1 -10 0.5 0.27
-12 13 -10 0.73 0.33
-13 2 -9 71.03 2.21
-2 -11 9 66.71 1.83
-13 2 -9 69.3 1.91
2 11 -9 65.99 1.98
-2 -11 6 30.85 1.16
-13 2 -6 32.33 1.18
-13 2 -6 32.14 1.43
-13 2 -3 33.76 0.92
-13 2 -3 33.24 0.96
-13 2 0 331.44 3.89
-13 2 0 324.75 3.84
-2 -11 -3 286.57 3.82
-13 2 3 298.12 3.63
-13 2 3 297.56 3.73
11 -13 6 38.71 1.4
-13 2 6 40.22 1.16
-11 13 -6 40.6 1.44
-2 -11 -6 40.05 1.34
-11 13 -9 3.58 0.58
-2 -11 -9 4.37 0.51
13 -2 -9 4.06 0.5
3 10 -10 17.34 0.92
-13 3 -10 19.78 0.91
10 -13 -10 19.13 1
-13 3 -7 259.83 4.82
10 -13 -7 264.02 3.71
-3 -10 7 260.86 4.1
-13 3 -7 271.58 4.17
-13 3 -4 570.71 6.08
-13 3 -4 577.67 6.36
-13 3 -1 168.2 2.36
-13 3 -1 166.13 2.36
-13 3 2 127.74 2.04
-13 3 2 130.55 2.01
-3 -10 -5 378.72 4.95
-13 3 5 384.71 4.73
-3 -10 -8 188.04 3.48
10 -13 8 187.43 3.57
-13 3 11 25.86 0.89
9 -13 -11 88.23 1.87
9 -13 -8 325.28 4.44
-13 4 -8 335.21 4.89
-4 -9 8 318.54 4.78
9 -13 -5 312.29 3.8
-13 4 -5 311.56 4.12
-13 4 -2 0.52 0.17
-13 4 1 541.77 5.82
-13 4 1 558.68 5.85
-4 -9 -4 754.15 8.19
-13 4 4 743.94 7.71
9 -13 7 219.92 3.88
-9 13 -7 220.81 3.42
-4 -9 -7 223.86 3.76
-4 -9 -7 228.52 3.86
13 -4 -10 2.01 0.36
-9 13 -10 2.11 0.4
-4 -9 -10 2.41 0.41
8 -13 -9 48.96 1.42
-13 5 -9 49.74 1.92
5 8 -9 51.59 1.8
-5 -8 9 48.77 1.54
-13 5 -9 51.21 1.6
-13 5 -6 30.62 1.09
-5 -8 6 29.12 1.09
-13 5 -6 30.52 1.39
8 -13 -6 30.24 0.98
-13 5 -3 5.02 0.39
-13 5 -3 5.9 0.37
-13 5 0 79.02 1.44
-13 5 0 79.31 1.29
-13 5 0 81.38 1.43
-13 5 3 125.01 2.05
-13 5 3 127.6 1.98
8 -13 6 65.63 1.82
-8 13 -6 63.27 1.54
-5 -8 -6 65.66 1.76
-13 5 6 67.53 1.59
13 -5 -9 4.02 0.47
-8 13 -9 3.77 0.45
-8 13 -9 3.32 0.51
6 7 -10 38.46 1.41
-13 6 -10 38.15 1.55
7 -13 -10 37.39 1.16
-13 6 -10 39.39 1.27
-6 -7 7 172.24 3.09
-13 6 -7 169.98 3.73
7 -13 -7 172.72 2.89
-13 6 -7 171.96 3.06
-13 6 -4 236.4 2.99
-13 6 -4 237.71 3.28
-13 6 -1 16.37 0.57
-13 6 -1 16.25 0.58
-13 6 -1 16.31 0.6
-13 6 2 222.03 2.9
-13 6 5 346.98 4.43
-6 -7 -8 115.06 2.68
-7 13 -8 99.85 2.56
-7 13 -8 106.29 2.32
7 -13 8 107.46 2.43
13 -6 -8 108.03 2.29
-13 6 11 5.05 0.4
13 -6 -11 5.24 0.42
-13 7 -11 82.12 1.99
6 -13 -11 88.21 1.86
-7 -6 8 374.81 5.26
6 -13 -8 370.6 5.04
-13 7 -8 385.87 5.27
6 -13 -5 441.61 5.05
-13 7 -5 426.7 5.08
-13 7 -5 434.79 5.39
-13 7 -2 18.04 0.67
-13 7 -2 17.46 0.65
-13 7 1 590.73 6.25
-7 -6 -1 607.3 6.21
-13 7 1 608.72 5.9
-13 7 4 1064.64 10.62
-13 7 4 1071.06 10.33
13 -7 -7 306.45 4.24
-6 13 -7 296.02 4.38
-7 -6 -7 309.05 4.66
6 -13 7 311.5 4.82
-7 -6 -7 306.32 4.71
-6 13 -10 2.12 0.37
-7 -6 -10 3.39 0.46
13 -7 -10 2.46 0.37
-13 8 -9 60.97 1.69
5 -13 -9 60 1.64
-13 8 -9 60.38 2.16
-13 8 -6 161.17 2.7
5 -13 -6 165.18 2.7
-13 8 -6 168.98 2.98
-8 -5 6 163.11 2.87
-13 8 -3 139.81 2.28
-13 8 -3 143.57 2.14
-13 8 0 5.9 0.33
-13 8 0 5.39 0.34
-8 -5 0 5.14 0.34
-13 8 3 242.54 3.09
-8 -5 -3 236.94 3.31
-13 8 6 183.13 2.98
-8 -5 -6 178.62 3.16
5 -13 6 180.5 3.23
13 -8 -6 178.04 2.74
-8 -5 -6 176.45 3.14
5 -13 9 19.36 0.94
-5 13 -9 18.79 0.95
-8 -5 -9 19.49 1.09
13 -8 -9 19.19 0.88
-8 -5 -9 19.89 1.05
-13 9 -10 32.84 1.45
9 4 -10 34.43 1.31
4 -13 -10 33.01 1.12
4 -13 -7 46.81 1.41
-13 9 -7 48.01 1.41
-13 9 -7 45.79 1.48
-9 -4 7 45.7 1.47
-13 9 -7 42.64 1.73
-13 9 -4 3.38 0.37
4 -13 -4 3.77 0.32
-13 9 -4 3.16 0.3
-9 -4 1 43.43 1.01
-13 9 -1 45.34 0.99
-9 -4 -2 94.52 1.57
-13 9 2 88.53 1.18
13 -9 -5 40.47 1.02
-9 -4 -5 44.08 1.34
-4 13 -8 2.12 0.4
-9 -4 -8 3.34 0.49
-9 -4 -8 2.03 0.44
4 -13 8 3.64 0.47
13 -9 -8 1.89 0.34
13 -9 -11 4.23 0.42
-13 10 -11 96.92 2.11
3 -13 -11 114.48 2.03
3 -13 -8 377 5.18
3 -13 -5 298.93 3.96
-13 10 -5 303.02 4.28
-10 -3 2 2.56 0.27
-13 10 -2 2.47 0.23
-10 -3 -1 624.9 6.44
-13 10 4 873.8 8.79
-10 -3 -4 873.36 9.25
-10 -3 -7 278.39 4.52
3 -13 7 280.8 4.35
3 -13 7 288.64 4.56
-10 -3 -7 277.6 4.42
13 -10 -7 272.68 3.82
-13 10 7 282.77 4.13
-3 13 -10 3.13 0.43
-10 -3 -10 4.07 0.49
13 -10 -10 3.4 0.48
-13 11 -9 47.79 1.9
2 -13 -9 50.42 1.54
-13 11 -6 123.05 2.58
2 -13 -6 125.95 2.41
-11 -2 6 130.71 2.51
-11 -2 3 78.54 1.51
-11 -2 3 78.87 1.48
2 -13 -3 79.72 1.55
-11 -2 0 1.36 0.21
-11 -2 -3 89.45 1.77
-11 -2 -3 85.2 1.56
2 -13 6 112.18 2.46
-11 -2 -6 117.12 2.48
-11 -2 -6 114.23 2.71
-11 -2 -9 30.7 1.38
-11 -2 -9 30.55 1.27
-2 13 -9 29.8 1.23
2 -13 9 30.68 1.21
1 -13 -10 64.72 1.67
12 1 -10 68.7 1.78
-13 12 -7 30.72 1.27
1 -13 -7 32.61 1.23
-13 12 -7 29.72 1.35
-12 -1 4 32.19 0.92
-12 -1 4 35.37 1
1 -13 -4 33.67 1.04
-12 -1 1 388.74 4.45
-12 -1 -2 388.56 4.44
-12 -1 -5 42.95 1.34
-12 -1 -8 21.08 1.16
1 -13 8 19.69 1.03
-12 -1 -8 22.96 1.13
13 -12 -11 46.69 1.25
0 -13 -8 246.37 3.98
-13 0 5 173.03 2.69
0 -13 -5 169.73 2.88
-13 13 -5 174.96 3.14
-13 13 -2 46.65 0.99
-13 0 2 49.02 1.18
-13 0 2 50.58 1.18
-13 0 -1 806.81 8.17
-13 0 -1 798.7 8.31
-13 0 -4 922.29 9.35
-13 0 -4 946.07 9.8
0 -13 7 280.14 4.41
-13 0 -7 284.31 4.48
0 13 -10 6.07 0.55
0 -13 10 5.86 0.49
13 -13 -10 5.89 0.58
13 -14 -9 46.1 1.64
-1 -13 9 47.08 1.51
-14 1 -9 46.38 1.53
-14 1 -9 47.97 1.73
1 13 -9 46.17 1.58
-14 1 -6 91.03 2.15
-1 -13 6 91.06 2.18
-1 -13 6 88.06 2.12
-14 1 -3 29.54 0.91
-14 1 0 29.67 0.9
-14 1 0 30.85 0.92
-14 1 3 210.75 2.9
-14 1 3 196.53 2.92
-1 -13 -6 152.26 2.85
-13 14 -6 150.22 3.05
13 -14 6 149.78 3.02
-13 14 -9 23.3 1.26
14 -1 -9 29.96 1.2
12 -14 -10 70.29 1.86
-2 -12 10 67.01 1.62
2 12 -10 69.44 1.81
-14 2 -7 4.05 0.51
-2 -12 7 4.14 0.52
-14 2 -7 3.83 0.62
-14 2 -4 231.71 3.33
-14 2 -4 230.25 3.11
-14 2 -1 979.1 10.07
-14 2 -1 1000.02 9.84
-14 2 2 646.88 6.7
-14 2 2 607.08 6.67
-2 -12 -5 32 1.16
-14 2 5 35.89 1.11
12 -14 8 37.5 1.45
-2 -12 -8 39.01 1.42
-3 -11 8 82.2 2.12
-14 3 -8 85.58 2.48
-14 3 -8 85.1 2.18
-14 3 -5 492.2 5.92
-14 3 -2 748.08 7.69
-14 3 1 194.56 2.65
-14 3 1 178.99 2.61
-14 3 4 80.02 1.67
-14 3 4 73.93 1.49
-3 -11 -4 77.55 1.74
11 -14 7 240.99 4.11
-3 -11 -7 240.18 3.94
14 -3 -10 94.43 1.97
-11 14 -10 82.96 2.03
4 10 -9 29.68 1.34
-4 -10 9 30.57 1.22
-14 4 -9 30.11 1.21
-14 4 -6 78.52 2.33
-14 4 -6 84.02 1.94
-4 -10 6 81.33 1.95
-14 4 -3 19.18 0.7
-14 4 -3 19.2 0.69
-14 4 0 22.03 0.73
-14 4 0 22.07 0.75
-14 4 0 22.14 0.82
-14 4 3 79.76 1.61
-14 4 3 77.54 1.52
10 -14 6 63.48 1.85
-4 -10 -6 64.74 1.74
-14 4 6 64.83 1.58
-4 -10 -6 62.7 1.76
-10 14 -9 17.13 1.02
14 -4 -9 19.44 0.93
-4 -10 -9 18.77 0.98
5 9 -10 16.7 0.91
9 -14 -10 16.81 0.92
-14 5 -10 17.38 0.82
-5 -9 7 21.11 1.02
-14 5 -7 24.39 1.06
-14 5 -7 24.02 1.35
9 -14 -7 22.96 0.91
-14 5 -4 443.37 5.25
-14 5 -4 438.45 4.96
-14 5 -4 431.81 5.03
-14 5 -1 1025.66 10.08
-14 5 -1 1031.28 10.42
-14 5 -1 1042.74 10.08
-14 5 -1 1011.04 9.93
-14 5 2 322.09 3.91
-14 5 5 6.59 0.49
9 -14 8 93.05 2.44
9 -14 8 88.8 2.19
-14 5 11 52.75 1.23
-14 6 -11 5.56 0.53
-6 -8 8 113.01 2.49
8 -14 -8 107.08 2.2
-14 6 -8 113.18 2.46
8 -14 -5 731 7.58
-14 6 -5 727.66 7.83
-14 6 -5 723.21 8.03
-14 6 -2 1063.35 10.21
-14 6 -2 1044.5 10.26
-14 6 1 169.04 2.46
-14 6 1 171.15 2.45
-14 6 4 174.52 2.52
-14 6 4 175.41 2.76
-8 14 -7 404.29 5.3
14 -6 -7 420.35 5.36
-6 -8 -7 420.41 5.76
8 -14 7 421.85 5.98
14 -6 -10 174.34 2.79
14 -6 -10 174.11 2.99
-7 -7 9 1.96 0.36
-14 7 -9 1.71 0.34
-14 7 -9 1.62 0.49
7 -14 -9 2.13 0.34
7 -14 -6 37.48 1.13
-14 7 -6 36.54 1.55
-14 7 -6 37.89 1.19
-7 -7 6 37.3 1.25
-14 7 -3 105.06 1.82
-14 7 0 115.38 1.71
-14 7 0 113.51 1.88
-14 7 0 115.99 2.12
-14 7 0 117.32 1.86
-14 7 3 13.76 0.6
-14 7 3 13.79 0.63
7 -14 6 24.29 1.11
-7 -7 -6 25.23 1.06
-7 -7 -6 25.56 1.1
-14 7 6 25.5 1
14 -7 -9 33.91 1.17
-7 -7 -9 33.04 1.33
7 -14 9 31.6 1.19
-7 14 -9 31.86 1.17
6 -14 -10 0.16 0.19
-14 8 -10 0.82 0.38
6 -14 -10 0.41 0.3
-14 8 -7 33.67 1.19
-8 -6 7 32.04 1.24
-14 8 -7 31.07 1.52
6 -14 -7 33.32 1.15
-14 8 -4 131.57 2.34
6 -14 -4 132.09 2.07
-14 8 -4 131.44 2.12
-8 -6 1 174.37 2.43
-14 8 -1 178.89 2.74
-14 8 -1 171.97 2.41
-14 8 -1 181.13 2.46
-14 8 2 35.54 0.98
-14 8 2 37.04 0.99
-14 8 5 20.15 0.86
-8 -6 -5 20.43 0.93
14 -8 -8 55.08 1.51
-6 14 -8 52.85 1.58
-8 -6 -8 57.79 1.84
6 -14 8 55.07 1.71
-8 -6 -8 57.77 1.82
-14 8 11 16.1 0.59
14 -8 -11 19.52 0.73
5 -14 -11 4.17 0.41
-14 9 -11 3.56 0.46
-9 -5 8 126.53 2.63
5 -14 -8 119.28 2.45
-14 9 -5 790.39 8.67
5 -14 -5 772.58 8.22
-9 -5 2 1033.81 10.04
-14 9 -2 1040.95 9.95
-14 9 1 123.91 1.74
-14 9 1 128 2
-9 -5 -1 128.34 1.98
-9 -5 -4 269.12 3.83
-14 9 4 273.33 3.5
5 -14 7 541.21 7.11
5 -14 7 532.7 6.88
-9 -5 -7 548.65 6.98
14 -9 -7 520.81 6.22
-14 9 7 533.51 6.57
-9 -5 -7 563.65 7.05
-14 9 10 202.59 3.16
-5 14 -10 212.31 3.26
14 -9 -10 213.78 3.49
-14 10 -9 0.34 0.41
4 -14 -9 0.54 0.25
10 4 -9 0.97 0.38
4 -14 -6 42.15 1.27
-10 -4 6 42.94 1.37
-14 10 -6 38.74 1.58
-14 10 -6 43.21 1.44
4 -14 -3 134.41 2.09
-10 -4 3 139.4 2.11
-14 10 0 95.37 1.85
-10 -4 0 92.93 1.61
-14 10 0 91.48 1.61
-10 -4 -3 0.34 0.14
-10 -4 -6 65.93 1.97
-10 -4 -6 61.38 1.74
-14 10 6 64.89 1.7
4 -14 6 61.41 1.78
-10 -4 -6 65.79 1.82
4 -14 9 57.86 1.69
-4 14 -9 59.24 1.69
-10 -4 -9 64.21 1.95
-10 -4 -9 61.22 1.83
11 3 -10 13.2 0.78
-14 11 -10 12.05 0.86
3 -14 -10 13.25 0.76
-11 -3 7 72.19 1.9
3 -14 -7 75.48 1.88
-14 11 -7 76.63 2.05
-14 11 -4 97.4 2.02
3 -14 -4 94.99 1.81
-14 11 -4 91.07 1.75
-11 -3 1 10.52 0.51
-14 11 -1 11.9 0.51
-14 11 2 21.61 0.54
-11 -3 -2 21.58 0.73
-11 -3 -5 58.09 1.61
-3 14 -8 22.68 1.08
-11 -3 -8 23.45 1.19
3 -14 8 24.22 1.14
-11 -3 -8 23.78 1.16
2 -14 -8 162.14 3.01
-12 -2 5 790.65 8.62
2 -14 -5 777.02 8.47
-14 12 -5 769.49 8.83
-14 12 -2 787.67 7.88
-12 -2 2 798.43 8.12
-12 -2 -1 56.77 1.25
-12 -2 -4 275.61 3.87
-12 -2 -4 261.62 3.4
-14 12 7 542.78 6.73
-12 -2 -7 537.23 7.06
2 -14 7 531.42 7.04
-12 -2 -7 548.14 6.99
2 -14 7 521.17 6.85
-2 14 -10 213.87 3.34
14 -12 -10 218.76 3.5
1 -14 -9 1.33 0.34
13 1 -9 1.08 0.36
-14 13 -9 2.2 0.51
1 -14 -6 34.5 1.23
-13 -1 6 40.94 1.35
14 -13 6 34.44 1.3
-14 13 -6 34.63 1.42
-14 13 -6 39.08 1.44
-13 -1 3 175.73 2.59
-13 -1 3 174.71 2.65
-14 13 0 217.14 3.08
-13 -1 0 207.67 2.87
-13 -1 -3 88.29 1.67
-13 -1 -6 2.31 0.4
-13 -1 -6 3.06 0.51
-13 -1 -9 13.14 0.89
1 -14 9 12.17 0.77
-13 -1 -9 12.62 0.81
-1 14 -9 12.13 0.79
14 -13 -9 11.91 0.84
0 -14 -10 49.63 1.32
14 0 -10 53.01 1.44
-14 14 -7 153.14 3.16
14 -14 7 159.54 3.12
0 -14 -7 159.64 3.01
-14 0 4 100.82 1.96
-14 0 4 104 1.88
-14 14 -1 35.58 1.06
-14 0 1 34.79 1
-14 0 -2 420.53 5.1
-14 0 -2 426.74 4.92
0 -14 5 342.91 4.75
14 -14 -5 340.98 4.97
-14 0 -5 346.09 4.78
-14 0 -5 352.39 5.22
-14 0 -8 59.67 1.82
14 -14 -8 59.01 1.93
-14 0 -8 60.38 1.96
0 -14 8 58.23 1.79
-15 1 -10 110.45 2.36
-1 -14 10 101.14 1.99
1 14 -10 99.53 2.1
14 -15 -10 106.89 2.21
-15 1 -7 273.16 4.35
14 -15 -7 273.09 4.6
-1 -14 7 263.95 4.3
-15 1 -4 148.05 2.41
-15 1 -1 47.62 1.22
-15 1 -1 48.14 1.28
-14 15 -2 636.11 7.08
-15 1 2 643.01 6.95
-15 1 2 639.47 7
-15 1 5 552.91 6.46
14 -15 8 76.15 2.02
13 -15 -8 38.37 1.56
-15 2 -8 38.84 1.6
-2 -13 8 37.64 1.42
-15 2 -8 39.32 1.44
-15 2 -5 25.74 1.22
13 -15 -5 26.56 1.16
-2 -13 5 26.09 1.04
-15 2 -5 24.59 1
-15 2 -2 405.74 5.06
-15 2 -2 413.63 4.84
-13 15 -1 617.73 6.66
-15 2 1 624.05 6.69
-15 2 1 608.01 6.71
-15 2 4 150.99 2.4
-15 2 4 152.35 2.57
13 -15 7 8.3 0.71
-13 15 -7 6.51 0.65
-2 -13 -7 7.84 0.67
15 -2 -10 63.66 1.52
-13 15 -10 57.69 1.62
-15 3 -9 1.04 0.42
-15 3 -9 0.82 0.27
-3 -12 9 1.31 0.33
3 12 -9 1.04 0.37
12 -15 -9 0.71 0.36
-3 -12 6 74.43 1.92
-15 3 -6 73.97 2.29
-15 3 -6 75.78 1.9
-15 3 -3 222.51 3.09
-15 3 0 89.53 1.69
-15 3 0 89.1 1.8
-15 3 0 90.51 1.72
-15 3 3 7.18 0.48
-15 3 3 7.48 0.47
12 -15 6 65.17 1.93
-3 -12 -6 69.92 1.85
-12 15 -6 65.98 1.95
-15 3 6 68.08 1.66
-12 15 -9 37.52 1.51
15 -3 -9 42.15 1.35
4 11 -10 77.4 1.93
11 -15 -10 79.05 1.96
-15 4 -10 79.22 2.12
-15 4 -7 139.95 3.42
-4 -11 7 140.58 2.85
-15 4 -7 148.48 2.88
-15 4 -4 21.83 0.82
-15 4 -4 18.78 0.73
-15 4 -1 214.09 2.98
-15 4 -1 207.89 2.94
-15 4 2 648.08 6.91
-4 -11 -5 301.78 4.38
-15 4 5 314.91 4.24
11 -15 8 28.9 1.31
-4 -11 -8 28.32 1.23
15 -4 -8 28.93 1.15
-5 -10 8 48.59 1.6
-15 5 -8 53.07 1.64
-15 5 -5 38.36 1.5
-15 5 -5 38.68 1.18
-15 5 -2 567.09 6.17
-15 5 1 823.42 8.45
-15 5 1 830.51 8.49
-15 5 4 215.54 3.02
-5 -10 -4 213.4 3.35
10 -15 7 12.66 0.88
-5 -10 -7 12.72 0.84
-6 -9 9 3.47 0.44
-15 6 -9 3.4 0.43
-6 -9 6 1.65 0.33
9 -15 -6 1.43 0.26
-15 6 -6 2.46 0.5
-15 6 -6 1.52 0.29
-15 6 -3 5.98 0.41
-15 6 0 2.34 0.29
-15 6 0 3.34 0.32
-15 6 3 1.23 0.23
-15 6 3 0.9 0.21
9 -15 6 5.27 0.56
-6 -9 -6 5.7 0.53
-15 6 6 4.51 0.44
15 -6 -9 17.77 0.83
7 8 -10 37.89 1.35
-15 7 -10 39.14 1.51
-15 7 -7 38.54 1.71
-7 -8 7 41.07 1.42
-15 7 -7 43.23 1.38
8 -15 -7 41.96 1.25
-15 7 -4 1.5 0.28
-15 7 -4 2.25 0.27
-15 7 -1 271.29 3.41
-15 7 -1 263.15 3.44
-15 7 -1 272.25 3.35
-15 7 2 583.6 6.25
-15 7 2 557.83 6.24
-15 7 5 217.5 3.38
-7 -8 -8 9.24 0.75
8 -15 8 10.25 0.74
15 -7 -8 7.75 0.56
8 -15 8 8.69 0.76
-8 -7 8 70.78 1.93
7 -15 -8 70.29 1.73
-15 8 -5 99.04 2.13
7 -15 -5 93.46 1.79
-15 8 -2 1284.67 12.54
-15 8 -2 1271.47 12.52
-15 8 1 1765.91 16.08
-15 8 1 1752.11 16.55
-15 8 1 1761.7 16.62
-15 8 4 428.97 5.21
-8 -7 -4 416.21 5.35
-15 8 4 421.65 4.93
-8 -7 -7 16.07 0.94
-7 15 -7 14.91 0.79
-8 -7 -7 13.29 0.86
7 -15 7 15.47 0.97
15 -8 -7 14.49 0.73
15 -8 -10 149.18 2.66
-15 8 10 145.54 2.57
-15 9 -9 14.11 1.06
6 -15 -9 15.86 0.77
-15 9 -6 0.15 0.21
-15 9 -6 0.32 0.32
6 -15 -6 0.35 0.2
-9 -6 6 0.64 0.25
-15 9 -3 82.71 1.63
-15 9 0 197.09 2.73
-15 9 0 205.24 3.06
-15 9 0 200.52 2.6
-15 9 3 91.04 1.74
-15 9 6 5.61 0.5
-9 -6 -6 4.88 0.5
-9 -6 -6 5.1 0.54
6 -15 6 4.93 0.53
15 -9 -6 4.39 0.39
-9 -6 -9 6.78 0.63
6 -15 9 6.53 0.57
-6 15 -9 6.53 0.55
-15 10 -10 7.33 0.69
5 -15 -10 8.22 0.61
10 5 -10 8.35 0.64
5 -15 -7 0.55 0.24
-15 10 -7 0.99 0.4
-10 -5 7 0.55 0.29
-15 10 -4 27.08 0.9
5 -15 -4 28.03 0.89
-15 10 -4 28.72 1.05
-10 -5 1 62.06 1.32
-15 10 -1 63.57 1.31
-15 10 -1 61.34 1.31
-15 10 -1 61.78 1.5
-10 -5 -2 39.05 1.01
-15 10 2 37.4 0.72
5 -15 5 4.43 0.47
-10 -5 -5 4.29 0.46
-5 15 -8 6.48 0.57
-10 -5 -8 6.9 0.66
5 -15 8 6.78 0.62
-10 -5 -8 7.75 0.69
4 -15 -8 69.79 1.8
-15 11 -5 98.4 2.21
-11 -4 5 99.26 2.11
4 -15 -5 98.59 1.96
-11 -4 2 1253.82 11.96
-15 11 -2 1238.52 12.13
-11 -4 -1 1703.49 16.04
-15 11 1 1703.58 15.69
-11 -4 -4 414.14 5.34
-15 11 4 421.89 5
-11 -4 -7 19.98 1.06
4 -15 7 18.44 1.01
-15 11 7 18.69 0.94
4 -15 7 20.04 1.1
-4 15 -10 175.07 2.82
15 -11 -10 185.57 3.06
-15 12 -9 23.8 1.32
3 -15 -9 24.56 1.11
3 -15 -9 25.57 1.02
-12 -3 6 9.26 0.66
3 -15 -6 9.97 0.64
-15 12 -6 8.84 0.68
-12 -3 3 12.77 0.6
-12 -3 0 79.96 1.57
-15 12 0 85.83 1.78
-12 -3 -3 78.74 1.57
-15 12 6 24.49 1.06
-12 -3 -6 24.38 1.21
-12 -3 -6 22.89 1.08
-12 -3 -6 23.41 1.06
3 -15 6 24.32 1.12
15 -12 -9 0.11 0.29
-15 12 9 0.33 0.23
-3 15 -9 0.11 0.22
-12 -3 -9 0.46 0.31
3 -15 9 0.2 0.26
2 -15 -10 1.36 0.3
13 2 -10 1.3 0.31
-15 13 -10 1.39 0.37
2 -15 -7 32.86 1.22
-15 13 -7 31.23 1.42
-15 13 -7 32.34 1.35
-15 13 -4 185.99 3.16
-13 -2 4 183.9 2.71
-15 13 -1 189.38 2.65
-13 -2 1 190.25 2.75
-13 -2 -2 8.36 0.51
-13 -2 -2 8.76 0.5
-15 13 2 9.63 0.39
-13 -2 -5 45.48 1.45
15 -13 -5 46.8 1.54
-13 -2 -5 47.38 1.59
2 -15 5 44.05 1.41
-13 -2 -8 60.46 1.9
2 -15 8 57.57 1.78
15 -13 -8 57.21 1.89
-13 -2 -8 60.88 1.86
1 -15 -5 85.36 1.94
-14 -1 5 86.01 1.99
-15 14 -5 84.34 2.13
-15 14 -2 835.4 8.42
-14 -1 2 841.83 8.71
-15 14 -2 843.7 8.96
-14 -1 -1 1041.99 10.32
-14 -1 -1 1015.95 10.3
-14 -1 -4 209.67 3.02
15 -14 -7 24.64 1.24
-14 -1 -7 23 1.16
-14 -1 -7 23.22 1.14
1 -15 7 22.93 1.12
-15 14 7 23.17 1.08
15 -14 -10 135.17 2.52
1 -15 10 127.16 2.26
0 -15 -9 36.48 1.21
-15 15 -9 33.14 1.47
-15 15 -6 51.91 1.73
15 -15 6 50.45 1.68
-15 0 3 7.63 0.52
-15 0 3 9.66 0.55
-15 0 0 25.53 0.87
-15 0 -3 99.79 1.89
15 -15 -6 80.99 2.23
0 -15 6 82.2 2.09
0 -15 6 87.13 2.17
-15 0 -6 84.18 2.42
15 -15 -9 14.65 0.89
0 15 -9 15.38 0.86
-15 0 -9 15.95 0.94
0 -15 9 16.38 0.87
-1 -15 8 119.56 2.62
-16 1 -8 124.28 2.83
15 -16 -8 114.88 2.72
15 -16 -5 98.04 2.37
-1 -15 5 97.83 2.19
-16 1 -5 102.81 2.56
-16 1 -2 7.61 0.5
-16 1 -2 3.56 0.39
-16 1 1 249.05 3.46
-15 16 -1 251.81 3.47
-16 1 1 241.18 3.45
-16 1 4 382.08 4.77
-16 1 4 388.89 4.98
15 -16 7 111.23 2.61
-1 -15 -7 113.44 2.38
-15 16 -10 1.42 0.33
-16 1 10 1.43 0.31
-16 2 -9 16.64 0.98
-2 -14 9 14.23 0.81
14 -16 -9 15.03 0.9
2 14 -9 15.2 0.89
-16 2 -6 4.67 0.5
14 -16 -6 5.04 0.59
-2 -14 6 5.18 0.53
-16 2 -3 146.8 2.43
-16 2 0 308 4.05
-16 2 0 305.49 3.95
-16 2 3 94.02 1.93
-16 2 3 93.65 1.86
14 -16 6 2.04 0.42
-14 16 -6 1.78 0.41
-14 16 -9 26.96 1.26
16 -2 -9 29.18 1.1
-2 -14 -9 28.19 1.02
-16 3 -10 1.05 0.35
13 -16 -10 0.89 0.32
3 13 -10 0.7 0.27
-16 3 -7 94.22 2.25
-16 3 -7 91.54 2.71
-3 -13 7 94.44 2.28
13 -16 -7 92.19 2.46
-16 3 -4 296.29 3.9
-16 3 -1 208.14 3.03
-16 3 -1 212.01 3.2
-13 16 -2 1.96 0.28
-16 3 2 1.08 0.25
-16 3 5 183.3 3.02
13 -16 8 180.92 3.48
16 -3 -8 189.34 3.28
-16 4 -8 206.65 4.06
12 -16 -8 204.83 3.86
-16 4 -8 206.58 3.55
-4 -12 8 198.47 3.56
12 -16 -5 182.23 3.32
-16 4 -5 175.12 2.94
-16 4 -2 2.75 0.32
-16 4 -2 2.72 0.35
-16 4 1 242.57 3.32
-16 4 1 246.23 3.34
-16 4 4 470.66 5.71
-16 4 4 474.74 5.47
12 -16 7 148.76 3.16
-12 16 -7 142.4 3.09
-12 16 -10 0.95 0.27
-16 4 10 1.18 0.31
-16 4 10 0.9 0.24
-16 5 -9 14.94 1.01
11 -16 -9 14.77 0.92
-5 -11 9 14.57 0.83
-16 5 -6 2.33 0.52
-16 5 -6 1.09 0.28
-5 -11 6 2.37 0.4
-16 5 -3 31.87 0.99
-16 5 0 81.2 1.65
-16 5 0 81.89 1.77
-16 5 0 78.8 1.61
-16 5 3 36.07 1.07
-16 5 3 34.73 1.09
11 -16 6 0.24 0.33
-5 -11 -6 1.21 0.34
-16 5 6 0.87 0.25
16 -5 -9 6.82 0.53
-11 16 -9 6.21 0.6
6 10 -10 7.92 0.62
-6 -10 7 118.24 2.55
-16 6 -7 121.04 2.49
-16 6 -4 279.1 3.69
-16 6 -1 148.16 2.36
-16 6 -1 144.76 2.32
-16 6 -1 145.42 2.54
-16 6 2 5.67 0.43
-16 6 5 131.66 2.49
16 -6 -8 98.2 2.08
10 -16 8 94.88 2.48
10 -16 8 94.83 2.29
-7 -9 8 307.39 4.65
-16 7 -2 20.35 0.77
-16 7 -2 21.25 0.79
-16 7 -2 19.81 0.74
-16 7 1 665.99 7.12
-16 7 1 652.12 7.05
-16 7 4 914.31 9.57
-16 7 4 877.37 9.15
16 -7 -7 259.28 3.77
9 -16 7 261.42 4.47
-16 7 10 3.54 0.42
-8 -8 9 11.34 0.72
8 -16 -9 10.85 0.78
-16 8 -9 11.69 0.94
-8 -8 6 26.26 1.08
-16 8 -6 24.25 1.31
8 -16 -6 25.97 0.93
-16 8 -3 13.72 0.64
-16 8 0 7.18 0.47
-16 8 0 6.62 0.43
-16 8 0 6.4 0.38
-16 8 3 36.2 1.12
-16 8 3 38.25 1.1
-8 -8 -6 20.08 1.02
8 -16 6 19.53 1.04
-8 -8 -6 20.64 0.95
-16 8 6 21.52 0.96
16 -8 -6 19.76 0.79
8 -16 9 1.59 0.34
16 -8 -9 1.13 0.33
-16 9 -10 6.86 0.65
7 -16 -10 6.41 0.54
-9 -7 7 22.65 1.05
7 -16 -7 20.84 0.89
-16 9 -4 20.99 0.9
-16 9 -4 22.58 0.85
-16 9 -1 0.48 0.17
-16 9 -1 0.69 0.19
-16 9 -1 0.67 0.2
-16 9 -1 0.52 0.24
-16 9 2 39.5 1.13
-16 9 2 40.11 1.12
7 -16 5 69.13 1.87
-16 9 5 73.43 1.79
-9 -7 -5 71.19 1.87
-9 -7 -8 28.18 1.24
7 -16 8 28.27 1.22
-9 -7 -8 29.57 1.28
-10 -6 8 453.06 5.95
6 -16 -8 443.28 5.6
6 -16 -5 425.54 5.13
-16 10 -5 431.75 5.62
-16 10 -2 1.17 0.21
-16 10 -2 1.2 0.25
-16 10 1 849.33 8.91
-10 -6 -1 862.97 8.77
-16 10 1 868.76 8.38
-16 10 4 1308.01 13.28
-16 10 4 1317.43 12.94
-10 -6 -7 410.05 5.63
-16 10 7 408.93 5.46
-10 -6 -7 402.66 5.75
-6 16 -7 393.35 5.29
6 -16 7 403.43 5.89
-16 10 10 6.47 0.48
16 -10 -10 6.22 0.52
5 -16 -9 8.73 0.69
-16 11 -9 9.1 0.84
-11 -5 6 33.59 1.24
-16 11 -6 31.25 1.27
5 -16 -6 32.14 1.1
-16 11 -3 6.18 0.45
-16 11 0 53.02 1.18
-11 -5 0 54.43 1.28
-16 11 0 52.59 1.25
-16 11 3 117.77 2.13
-16 11 6 50.08 1.54
-11 -5 -6 49.07 1.62
-11 -5 -6 49.16 1.52
5 -16 6 51.51 1.67
16 -11 -9 6.87 0.62
-11 -5 -9 6.77 0.63
5 -16 9 6.39 0.57
-5 16 -9 6.87 0.54
-16 11 9 6.5 0.56
-16 12 -10 11.27 0.79
12 4 -10 12.4 0.73
4 -16 -10 12.08 0.67
-16 12 -7 6.67 0.63
-12 -4 7 7.41 0.63
4 -16 -7 7.62 0.58
-16 12 -7 6.33 0.71
-16 12 -4 1.93 0.28
-16 12 -4 1.95 0.34
-16 12 -1 33.92 0.99
-12 -4 1 33.46 0.99
-16 12 -1 35.33 0.98
-16 12 -1 34.74 1.14
-12 -4 -2 49.74 1.18
-12 -4 -2 49.97 1.24
16 -12 -5 20.48 1.01
-16 12 5 20.79 0.97
-12 -4 -5 20.81 1.03
16 -12 -8 1.04 0.34
-12 -4 -8 1.05 0.36
4 -16 8 1.53 0.37
-4 16 -8 0.75 0.3
3 -16 -8 370.52 5.28
3 -16 -5 317.81 4.56
-16 13 -5 328.94 4.83
-16 13 -2 0.42 0.16
-13 -3 2 0.28 0.19
-13 -3 -1 663.28 7.03
-16 13 1 668.69 6.72
-16 13 4 1033.23 10.63
-13 -3 -7 331.53 5.05
16 -13 -7 324.05 5.13
-13 -3 -7 330.02 4.96
3 -16 7 328.42 4.97
-16 13 7 334.29 4.91
-16 13 7 317.23 4.77
3 -16 7 334.87 5.13
3 -16 10 3 0.36
16 -13 -10 2.86 0.41
2 -16 -9 7.06 0.58
-16 14 -9 6.54 0.7
14 2 -9 7.97 0.65
-16 14 -6 54.9 1.88
-16 14 -6 60.12 1.85
-14 -2 3 116.7 2.09
-16 14 0 58.31 1.46
-14 -2 0 52.76 1.3
-14 -2 -3 0.51 0.18
-14 -2 -6 17.21 1.06
2 -16 6 19.25 0.99
-14 -2 -6 17.55 0.93
16 -14 -6 19.22 1.07
-16 14 6 18.69 0.96
2 -16 9 21.02 0.97
16 -14 -9 22.01 1.05
-2 16 -9 21.05 0.96
-14 -2 -9 20.96 1.03
-16 15 -10 35.65 1.26
1 -16 -7 4.86 0.5
-15 -1 4 81.07 1.71
-16 15 -4 81.27 2.03
-16 15 -1 412.88 5.04
-15 -1 1 404.36 4.87
-15 -1 -2 281.47 3.77
-15 -1 -2 287.92 3.88
1 -16 5 16.02 0.86
16 -15 -5 16.3 0.93
-15 -1 -5 16.92 0.99
16 -15 -8 18.36 1.04
1 -16 8 17.56 0.97
-15 -1 -8 18.97 1.03
0 -16 -8 320.41 4.5
-16 16 -5 320.55 4.91
-16 0 2 2.15 0.32
-16 16 -2 2.89 0.35
-16 0 -1 333.27 4.3
-16 0 -1 329.56 4.3
0 -16 4 476.67 5.78
-16 0 -4 450.43 5.49
16 -16 -4 455.77 6.07
-16 0 -4 478.99 6.27
-16 0 -7 153.64 3.15
0 -16 7 148.81 3.04
16 -16 -7 147.31 3.18
16 -16 -10 2.34 0.35
0 -16 10 1.23 0.27
16 -17 -9 53.82 1.61
1 16 -9 50.77 1.53
-1 -16 9 52.1 1.51
-17 1 -6 38.96 1.65
16 -17 -6 39.06 1.54
-1 -16 6 37.54 1.4
-17 1 -3 1.44 0.32
-17 1 -3 2.73 0.33
-17 1 0 116.13 2.17
-17 1 3 157.33 2.76
-17 1 3 160.11 2.68
-16 17 -3 161.32 2.84
-16 17 -6 26.77 1.27
16 -17 6 27.15 1.26
17 -1 -9 3.25 0.41
-16 17 -9 2.66 0.47
-17 2 -10 83.84 1.86
15 -17 -10 78.64 1.72
-2 -15 7 18.95 1.02
15 -17 -7 21.05 1.14
15 -17 -4 64.2 1.81
-17 2 -4 67.66 1.58
-2 -15 4 63.61 1.61
-2 -15 4 66.83 1.69
-17 2 -1 441.05 5.37
-17 2 -1 419.84 5.21
-17 2 2 410.55 5.08
-15 17 -2 394.88 4.97
-17 2 2 396.11 4.98
-17 2 5 28.85 1.09
15 -17 8 46.71 1.56
-2 -15 -8 44.84 1.34
-17 3 -8 44.98 1.7
-3 -14 8 44.82 1.54
-17 3 -5 246.03 4.35
-3 -14 5 244.77 3.78
14 -17 -5 232.63 4
-17 3 -2 291.72 3.92
-17 3 -2 288.1 4.1
-17 3 1 39.27 1.16
-17 3 1 39.98 1.18
-17 3 4 75.91 1.79
-17 3 4 68.95 1.59
14 -17 7 178.69 3.52
-14 17 -10 77.24 1.67
-17 3 10 77.91 1.54
-17 3 10 80.99 1.75
13 -17 -9 42.76 1.5
-17 4 -9 44.17 1.62
4 13 -9 40.78 1.48
-4 -13 9 44.58 1.42
-17 4 -6 54.58 2.01
-4 -13 6 56.03 1.67
13 -17 -6 56.74 1.84
-17 4 -3 2.61 0.32
-17 4 0 105.78 1.99
-17 4 0 104.77 2.02
-17 4 0 109.83 2.14
-17 4 3 180.33 2.92
-17 4 3 181.82 2.85
-17 4 6 42.92 1.35
13 -17 6 41.66 1.57
-13 17 -6 40.29 1.55
17 -4 -9 0.22 0.2
-13 17 -9 0.31 0.29
5 12 -10 30.12 1.11
-17 5 -10 34.23 1.28
12 -17 -10 33.31 1.16
-17 5 -7 4.44 0.68
-5 -12 7 4.61 0.54
12 -17 -7 5.53 0.63
-17 5 -7 4.69 0.51
-17 5 -4 34.67 1.08
-17 5 -1 156.73 2.55
-17 5 -1 157.29 2.54
-17 5 -1 159.33 2.73
-17 5 2 154.9 2.55
-17 5 5 24.65 1
12 -17 8 13.64 0.82
12 -17 8 12.74 0.89
17 -5 -8 13.54 0.74
-6 -11 8 83.25 2.13
-17 6 -2 395.28 4.79
-17 6 -2 386.02 5.07
-17 6 1 17.68 0.75
-17 6 1 19.77 0.8
-17 6 4 171.18 2.72
-17 6 4 175.16 2.94
17 -6 -7 324.79 4.4
11 -17 7 308.91 5.02
-17 6 10 121.9 2.24
-7 -10 9 3.68 0.45
-17 7 -6 6.1 0.73
-7 -10 6 6.98 0.58
-17 7 -3 7.51 0.49
-17 7 0 3.16 0.33
-17 7 0 6.54 0.44
-17 7 3 10.22 0.62
-17 7 3 11.04 0.6
10 -17 6 22.2 1.13
-7 -10 -6 22.21 0.98
-17 7 9 6.66 0.59
10 -17 9 5.96 0.52
8 9 -10 7.67 0.6
-17 8 -10 7.9 0.68
9 -17 -10 7.58 0.58
9 -17 -7 1.5 0.41
-17 8 -7 1.44 0.48
-8 -9 7 1.25 0.35
-17 8 -4 66.07 1.53
-17 8 -4 65.8 1.66
-17 8 -1 193.04 2.85
-17 8 -1 197.78 2.93
-17 8 -1 191.94 2.77
-17 8 2 145.73 2.44
-17 8 2 143.93 2.46
-17 8 5 20.25 0.93
9 -17 8 3.63 0.47
9 -17 8 1.49 0.42
8 -17 -8 166.55 3.31
-9 -8 8 169.68 3.17
8 -17 -5 801.19 9.31
-17 9 -5 828.7 9.21
-17 9 -2 771.01 8.1
-17 9 -2 779.26 8.56
-17 9 -2 775.78 8.28
-17 9 -2 780.27 8.21
-17 9 1 31.99 1.02
-17 9 1 25.63 0.91
-17 9 4 326.45 4.46
-17 9 4 311.78 4.16
17 -9 -7 516.49 6.84
8 -17 7 516.33 7.05
-9 -8 -7 528.12 6.64
-17 9 10 196.39 2.95
7 -17 -9 0.68 0.31
-17 10 -9 0.27 0.37
7 -17 -6 13.95 0.88
-10 -7 6 14.23 0.81
7 -17 -6 14.78 0.72
-17 10 -3 41.14 1.25
-17 10 -3 42 1.2
-17 10 0 13.59 0.63
-17 10 0 12.79 0.64
-17 10 0 12.01 0.55
-17 10 0 12.54 0.71
-17 10 3 6.04 0.46
17 -10 -6 19.85 1.04
-10 -7 -6 22.1 0.98
-17 10 6 21.57 1.01
7 -17 6 22.29 1.11
17 -10 -9 10.95 0.71
-17 10 9 9.31 0.67
7 -17 9 10.21 0.68
11 6 -10 0.57 0.28
6 -17 -10 0.63 0.25
-17 11 -10 1.4 0.36
6 -17 -7 3.94 0.53
-17 11 -7 2.74 0.53
6 -17 -7 3.25 0.39
-11 -6 7 3.68 0.48
-17 11 -4 0.76 0.23
-17 11 -4 3.69 0.42
-11 -6 1 14.87 0.66
-17 11 -1 16.83 0.8
-17 11 -1 15.55 0.67
-17 11 -1 14.59 0.65
-17 11 2 32.57 1.07
-17 11 2 33.43 1.08
17 -11 -5 31.38 1.24
-17 11 5 31.79 1.24
-17 11 5 30.85 1.18
-11 -6 -5 31.7 1.25
-17 11 8 20.94 1.04
-11 -6 -8 22.31 1.06
17 -11 -8 20.41 1.06
6 -17 8 19.97 1.03
5 -17 -8 161.09 3.12
5 -17 -5 892.23 9.96
-17 12 -5 909.02 10.09
-12 -5 2 1159.69 11.39
-17 12 -2 1145.14 11.79
-17 12 -2 1169.42 11.58
-17 12 1 147.86 2.45
-12 -5 -1 147.12 2.4
-17 12 1 146.13 2.11
-17 12 4 218.93 3.32
-17 12 4 227.36 3.55
17 -12 -7 516.82 6.91
-12 -5 -7 525.97 6.67
5 -17 7 503.46 6.76
-17 12 7 524.22 6.79
5 -17 7 509.58 6.94
5 -17 10 178.92 2.74
17 -12 -10 206.14 3
4 -17 -9 7.93 0.62
13 4 -9 7.71 0.66
4 -17 -6 0.41 0.29
-17 13 -6 0.32 0.34
-17 13 -6 0.23 0.25
-13 -4 6 0.94 0.32
-17 13 -3 45.86 1.4
-13 -4 3 48.61 1.27
-17 13 0 102.04 1.82
-13 -4 0 99.37 1.91
-17 13 0 100.43 1.9
-13 -4 -3 23.8 0.86
-13 -4 -6 0.57 0.34
-13 -4 -6 0.53 0.27
17 -13 -6 0.46 0.32
-17 13 6 0.47 0.25
-17 13 9 3.87 0.42
-13 -4 -9 4.13 0.49
4 -17 9 4.44 0.48
17 -13 -9 4.19 0.49
3 -17 -10 26.52 0.87
-17 14 -10 22.22 1.02
3 -17 -7 58.81 1.75
-17 14 -7 55.18 1.92
-17 14 -4 36.22 1.3
-14 -3 4 34.06 1.18
-17 14 -4 32.92 1.12
-14 -3 1 4.87 0.41
-17 14 -1 5.52 0.41
-17 14 -1 5.07 0.46
-14 -3 -2 71.6 1.58
-14 -3 -2 73.98 1.57
17 -14 -5 43.54 1.52
-14 -3 -5 47.42 1.61
3 -17 5 45 1.48
-17 14 5 46.12 1.49
17 -14 -8 3.9 0.51
-3 17 -8 3.18 0.44
-14 -3 -8 3.06 0.47
-17 14 8 3.36 0.45
3 -17 8 3.19 0.47
2 -17 -8 136.05 2.66
2 -17 -5 571.08 7.04
-17 15 -5 627.65 7.61
-15 -2 2 728.05 7.9
-17 15 -2 730.03 8.15
-15 -2 -1 82.93 1.66
-15 -2 -1 86.31 1.78
-15 -2 -4 135.77 2.75
-15 -2 -4 128.79 2.31
17 -15 -4 135.17 2.73
2 -17 4 138.11 2.58
-17 15 4 139.45 2.52
17 -15 -7 330.3 5.15
-15 -2 -7 334.6 4.95
2 -17 7 322.87 4.96
2 -17 10 131.47 2.21
17 -15 -10 148.72 2.41
-17 16 -9 26 1.24
1 -17 -9 27.38 0.97
16 1 -9 29.38 1.12
-17 16 -6 21.7 1.13
1 -17 -6 20.28 0.96
17 -16 6 21.09 1.08
-16 -1 3 5.73 0.46
-17 16 -3 4.7 0.49
-16 -1 0 124.11 2.26
-16 -1 -3 133.88 2.4
-16 -1 -3 135.88 2.51
-16 -1 -6 23.13 1.25
1 -17 6 20.27 1.04
1 -17 6 21.94 1.07
17 -16 -6 20.9 1.13
1 -17 9 3.17 0.41
-16 -1 -9 3.36 0.45
17 -16 -9 3.41 0.46
-1 17 -9 2.61 0.4
-17 0 10 66.71 1.5
-17 17 -10 65.35 1.55
-17 0 10 63.3 1.36
0 -17 -7 117.3 2.39
17 -17 7 122.24 2.66
-17 0 4 39.2 1.2
0 -17 -4 35.56 1.18
-17 17 -1 48.21 1.25
-17 17 -1 51.17 1.38
-17 0 1 47.45 1.35
-17 0 -2 247.46 3.59
-17 0 -2 252.64 3.67
17 -17 -5 160.51 3.25
0 -17 5 162.83 3.06
-17 0 -5 171.28 3.46
0 -17 5 169.85 3.08
-17 0 -8 16.19 0.93
17 -17 -8 17.5 1
0 -17 8 15.69 0.9
-18 1 -7 200.34 3.62
-1 -17 7 191.37 3.5
17 -18 -7 195.27 3.73
-18 1 -7 203.67 4.09
17 -18 -4 91.3 2.24
-18 1 -4 90 1.96
-18 1 -4 92.33 2.36
-18 1 -4 95.11 2.19
-1 -17 4 91.5 2.03
-18 1 -1 30.99 1.08
-18 1 -1 28.33 1.05
-18 1 2 403.06 5.18
-17 18 -2 413 5.22
-17 18 -5 401.68 5.86
17 -18 8 83.8 2
-18 2 -8 45.1 1.58
-2 -16 8 42.71 1.46
16 -18 -8 41.77 1.56
-2 -16 5 8.55 0.64
-18 2 -5 7.21 0.73
-2 -16 5 7.78 0.64
16 -18 -5 9 0.74
-18 2 -2 209.23 3.24
-18 2 -2 218.9 3.42
-16 18 -1 363.79 4.58
-18 2 1 364.59 4.72
-18 2 4 125.44 2.48
-2 -16 -4 121.84 2.36
-18 2 4 121.83 2.31
-16 18 -4 129.42 2.59
16 -18 7 2.03 0.46
-16 18 -10 34.93 1.01
-18 2 10 35.97 0.95
-18 2 10 37.39 1.08
3 15 -9 28.99 1.17
-18 3 -9 30.12 1.25
-3 -15 9 30.26 1.13
15 -18 -9 29.49 1.2
15 -18 -6 105.09 2.6
-18 3 -3 109.4 2.31
-18 3 -3 104.37 2.09
-18 3 0 2.1 0.31
-18 3 3 121.56 2.37
-15 18 -3 124.41 2.37
-18 3 3 120.75 2.28
-15 18 -6 137.53 3.06
15 -18 6 139.52 3.06
-18 3 9 31.19 1.17
-15 18 -9 31.05 1.23
14 -18 -10 38.21 1.16
-18 4 -10 40.95 1.28
14 -18 -7 110.08 2.71
-18 4 -7 112.39 3.04
-4 -14 7 111.19 2.51
-4 -14 4 76.23 1.76
-4 -14 4 76.96 1.82
-18 4 -4 71.41 1.68
14 -18 -4 77.24 2.01
-18 4 -1 1.2 0.28
-18 4 -1 1.32 0.3
-18 4 2 103.65 2.07
-18 4 5 195.98 3.3
18 -4 -8 64.32 1.63
14 -18 8 61.94 1.88
14 -18 8 63.7 1.75
-18 5 -8 49.75 1.83
-5 -13 8 51.04 1.63
13 -18 -8 52.04 1.75
-5 -13 5 28 1.11
13 -18 -5 26.23 1.2
-18 5 -2 408.5 5.3
-18 5 -2 402.44 5.04
-18 5 1 483.26 5.86
-18 5 1 512.98 5.91
-18 5 4 112.43 2.31
-18 5 4 110.38 2.12
13 -18 7 11.67 0.86
-18 5 10 80.35 1.68
-18 5 10 70.04 1.37
-18 6 -9 10.28 0.82
-6 -12 9 9.74 0.67
12 -18 -9 9.56 0.72
-18 6 -6 36.09 1.65
-18 6 -3 51.71 1.38
-18 6 -3 50.08 1.5
-18 6 0 20.25 0.84
-18 6 0 20.43 0.91
-18 6 0 22.89 0.87
-18 6 3 5.28 0.45
-18 6 3 5.62 0.48
-18 6 6 30.04 1.15
12 -18 6 27.51 1.28
-18 6 9 10.88 0.72
-18 6 9 11 0.64
7 11 -10 28.94 1.07
-18 7 -7 62.86 2.24
-7 -11 7 66.96 1.87
-18 7 -4 39.2 1.19
11 -18 -4 37.11 1.33
-7 -11 4 39.88 1.24
-18 7 -1 0.35 0.21
-18 7 -1 0.33 0.23
-18 7 -1 0.63 0.2
-18 7 2 37.94 1.17
-18 7 2 37.9 1.18
-18 7 5 77.81 1.93
-18 7 8 29.65 1.27
11 -18 8 29.82 1.23
11 -18 8 33.36 1.41
10 -18 -8 49.11 1.68
-8 -10 8 45.96 1.54
10 -18 -5 99.21 2.36
-8 -10 5 103.98 2.22
-18 8 -2 856.66 8.98
-18 8 -2 826.99 8.81
-18 8 1 864.63 9.22
-18 8 1 877.74 9.18
-18 8 4 151.38 2.57
-18 8 4 157.55 2.82
10 -18 7 27.9 1.32
-18 8 10 128.82 2.22
9 -18 -9 0.3 0.28
-18 9 -6 1.79 0.49
-9 -9 6 2.26 0.41
9 -18 -6 2.23 0.42
-18 9 -3 9.39 0.6
-18 9 -3 9.16 0.58
-18 9 0 16.54 0.76
-18 9 0 17.11 0.74
-18 9 0 18.28 0.86
-18 9 0 16.51 0.64
-18 9 3 4.13 0.41
-9 -9 -6 2.62 0.38
-18 9 6 2.27 0.38
9 -18 6 2.38 0.47
-18 9 9 6.24 0.55
9 -18 9 6.13 0.52
-18 10 -10 2.7 0.43
8 -18 -10 2.39 0.34
8 -18 -7 2.87 0.48
-18 10 -7 2.55 0.53
-10 -8 7 3.16 0.45
8 -18 -4 0.29 0.22
-18 10 -4 0.16 0.15
-10 -8 4 0.74 0.23
-18 10 -1 7.69 0.5
-18 10 -1 8.29 0.6
-18 10 -1 7.18 0.47
-18 10 2 2.76 0.34
-18 10 2 1.85 0.31
-18 10 5 1.75 0.36
8 -18 5 2.37 0.4
18 -10 -8 0.33 0.24
8 -18 8 0.63 0.29
8 -18 8 0.13 0.29
7 -18 -8 83.24 2.14
-11 -7 8 74.77 1.97
-11 -7 5 105.55 2.25
7 -18 -5 99.68 2.32
-18 11 -5 105 2.38
-18 11 -2 1178.26 11.78
-18 11 -2 1130.72 11.5
-18 11 -2 1157.51 12.02
-18 11 -2 1161.61 11.72
-18 11 1 1367.07 13.45
-18 11 1 1343.04 12.77
-18 11 1 1338.95 13.38
-18 11 4 276.4 4.08
-18 11 4 275.07 3.84
-11 -7 -7 22.32 1.03
-18 11 7 21.48 1.11
18 -11 -7 23.19 1.13
7 -18 7 22.02 1.17
-18 11 10 138.44 2.2
18 -11 -10 145.28 2.23
-18 12 -9 1.68 0.44
6 -18 -9 1.79 0.34
6 -18 -6 7.6 0.66
-12 -6 6 8.09 0.64
-18 12 -6 6.37 0.74
-18 12 -6 7.73 0.66
-18 12 -3 1.53 0.31
-18 12 -3 1.43 0.32
-18 12 0 7.81 0.51
-18 12 0 7.65 0.59
-18 12 0 6.35 0.42
-12 -6 0 6.33 0.46
-18 12 3 9.69 0.6
18 -12 -6 1.56 0.37
-18 12 6 1.62 0.35
-18 12 6 1.38 0.32
-12 -6 -6 1.22 0.3
6 -18 6 1.17 0.36
6 -18 9 0.27 0.23
18 -12 -9 0.08 0.24
-18 12 9 0.24 0.23
5 -18 -10 1.8 0.29
-18 13 -10 1.56 0.36
5 -18 -7 16.2 0.92
-18 13 -7 14.38 1.02
5 -18 -4 39.7 1.32
-13 -5 4 41.07 1.3
-18 13 -4 42.08 1.29
-13 -5 1 31.41 1.02
-18 13 -1 29.86 0.98
-18 13 -1 31.73 1.02
-18 13 -1 31.26 1.14
-18 13 2 0.64 0.22
-13 -5 -2 1.59 0.26
18 -13 -5 10.77 0.76
-18 13 5 10.55 0.74
-18 13 5 10.25 0.71
-13 -5 -5 10.03 0.73
5 -18 5 10.45 0.73
18 -13 -8 8.04 0.68
-13 -5 -8 8.47 0.66
5 -18 8 7.72 0.66
-18 13 8 7.97 0.64
4 -18 -8 67.71 1.82
4 -18 -5 76.94 1.94
-14 -4 5 76.35 1.93
-18 14 -5 79 2.09
-14 -4 2 989.36 10.26
-18 14 -2 997.2 10.43
-18 14 -2 995.22 10.6
-18 14 1 1258.62 12.85
-18 14 1 1282.57 12.3
-14 -4 -1 1294.82 12.72
18 -14 -4 267.03 4.18
-14 -4 -4 276.53 4.18
-18 14 4 278.73 3.97
-18 14 4 267.11 4.13
4 -18 4 272.09 4.08
-14 -4 -7 22.05 1.04
18 -14 -7 20.78 1.11
-18 14 7 20.83 1.04
4 -18 7 19.98 1.1
4 -18 7 19.85 1.06
4 -18 10 125.84 2.08
18 -14 -10 138.94 2.2
3 -18 -9 8.08 0.55
-18 15 -9 8.43 0.74
15 3 -9 7.79 0.62
3 -18 -6 57.63 1.68
-18 15 -6 56.31 1.8
-18 15 -3 86.54 2.04
-15 -3 3 84.78 1.83
-18 15 -3 86.33 2.04
-18 15 0 6.2 0.46
-15 -3 0 6.31 0.5
-18 15 0 6.66 0.46
-15 -3 -3 30.96 1.04
-15 -3 -3 30.1 1.04
18 -15 -6 40.9 1.55
-18 15 6 41.54 1.47
-15 -3 -6 40.92 1.62
-18 15 6 40.86 1.47
3 -18 6 43.12 1.54
-15 -3 -6 40.26 1.37
3 -18 6 41.92 1.5
-15 -3 -9 7.83 0.59
18 -15 -9 6.68 0.57
3 -18 9 7.06 0.56
-18 16 -10 7.57 0.56
2 -18 -7 83.56 2.02
-18 16 -4 185.56 3.16
2 -18 -4 189.55 3.07
2 -18 -4 187.56 3.09
-18 16 -1 81.87 1.86
-16 -2 1 78.06 1.76
-18 16 -1 78.07 1.68
-16 -2 -2 10.82 0.63
-16 -2 -2 11.02 0.61
-18 16 5 85.53 2.08
18 -16 -5 83.43 2.22
-16 -2 -5 83.86 2.27
2 -18 5 85.32 2.11
-2 18 -8 41.95 1.39
18 -16 -8 41.73 1.51
-16 -2 -8 42.94 1.44
2 -18 8 40.64 1.44
1 -18 -8 26.5 1
-18 17 -5 120.9 2.78
-17 -1 2 735.84 8.14
-18 17 -2 729.63 8.24
-17 -1 -1 706.95 7.84
-17 -1 -1 701.85 7.69
-17 -1 -4 158.03 3.09
18 -17 -4 156.13 3.01
-17 -1 -4 154.27 2.85
1 -18 4 153.58 2.79
18 -17 -7 4.62 0.59
-17 -1 -7 3.12 0.47
1 -18 7 3.75 0.51
18 0 -9 5.19 0.45
-18 18 -9 5.35 0.56
-18 18 -9 5.14 0.47
18 -18 6 90.78 2.35
-18 0 3 149 2.88
0 -18 -3 150.37 2.73
-18 18 -3 150.34 2.83
-18 0 3 157.06 2.75
-18 0 0 8.78 0.6
0 -18 3 83.7 1.92
-18 0 -3 81.49 1.89
18 -18 -3 85.64 2.07
-18 0 -3 88.57 2.02
0 -18 3 84.22 1.84
-18 0 -6 151.64 3.37
18 -18 -6 147.16 3.15
0 -18 6 152.6 3.03
-18 0 -9 57.78 1.5
0 -18 9 54 1.46
18 -18 -9 54.08 1.48
0 18 -9 53.51 1.42
-19 1 -8 148.82 2.82
-1 -18 8 146.83 2.79
18 -19 -8 145.98 2.86
-19 1 -8 138.02 2.72
18 -19 -5 179.25 3.45
-1 -18 5 185.98 3.26
-1 -18 5 181.03 3.28
-19 1 -5 184.4 3.71
-19 1 -5 175.02 3.3
-19 1 -2 21.31 0.93
-1 -18 2 21.09 0.94
18 -19 -2 20.58 0.96
-19 1 -2 20.83 0.94
-18 19 -1 61.86 1.5
-1 -18 -1 64.73 1.7
-19 1 1 65.62 1.69
-19 1 4 184.2 3.42
-1 -18 -4 178.51 3.07
-19 1 4 182.44 3.07
-18 19 -7 95.29 2.29
-19 1 7 89.16 2.28
18 -19 7 88.57 2.23
17 -19 -9 0.19 0.25
-19 2 -9 0.36 0.26
-19 2 -9 0.15 0.21
-2 -17 9 0.6 0.26
2 17 -9 0.24 0.24
-19 2 -6 53.07 1.96
17 -19 -6 55.12 1.84
-2 -17 3 182.86 3.08
-19 2 -3 191.72 3.52
-2 -17 3 184.97 3.06
-19 2 -3 188.77 3.1
17 -19 -3 188.13 3.31
-19 2 -3 194.49 3.3
-2 -17 3 187.97 2.97
-19 2 0 170.44 2.91
-2 -17 -3 6.09 0.52
-19 2 3 6.91 0.54
-19 2 3 4.44 0.5
-19 2 3 4.41 0.47
-17 19 -3 5.74 0.52
17 -19 6 52.2 1.78
-19 2 9 63.47 1.62
-19 2 9 60.4 1.48
-17 19 -9 58.26 1.65
16 -19 -7 76.86 2.2
-3 -16 7 79.69 2.08
-3 -16 4 280.39 4.04
-3 -16 4 291.61 4.19
16 -19 -4 287.08 4.43
-19 3 -4 293.34 4.43
-19 3 -1 240.57 3.6
-19 3 -1 247.24 3.71
-19 3 2 11.39 0.68
-19 3 5 58.06 1.66
-19 3 5 55.3 1.79
19 -3 -8 97.5 2.02
-19 3 8 92.93 2.26
16 -19 8 94.7 2.25
15 -19 -8 159.05 3.16
-19 4 -8 160.27 3.27
-4 -15 8 155 2.98
-19 4 -5 171.8 3.63
-4 -15 5 171.83 3.13
15 -19 -5 172.35 3.38
-19 4 -2 8.06 0.57
-19 4 -2 9.01 0.64
-19 4 1 163.12 2.78
-19 4 1 157.12 2.76
-19 4 4 353.38 4.83
-4 -15 -4 338.98 4.59
-19 4 4 337.07 5
-19 4 4 337.33 4.53
15 -19 7 128.83 2.91
-19 4 10 5.63 0.35
-19 4 10 6.27 0.45
5 14 -9 1.5 0.35
14 -19 -9 0.76 0.32
-19 5 -9 0.38 0.31
-5 -14 9 1.01 0.3
14 -19 -6 29.89 1.34
-19 5 -6 29.41 1.5
-19 5 -3 117.08 2.72
14 -19 -3 120.95 2.49
-19 5 -3 122.04 2.33
-19 5 -3 124.44 2.55
-19 5 0 117.98 2.28
-19 5 0 119.74 2.28
-19 5 3 6.01 0.51
-19 5 3 4.43 0.49
-19 5 3 5.25 0.51
-19 5 3 5.47 0.48
14 -19 6 28.6 1.32
-14 19 -6 30.26 1.38
-19 5 9 44.11 1.37
-19 5 9 40.59 1.2
-19 6 -10 0.86 0.29
13 -19 -10 0.84 0.26
13 -19 -7 14.83 0.96
-6 -13 7 14.8 0.89
-19 6 -7 14.68 1.09
-6 -13 4 88.75 1.98
-19 6 -4 85.95 1.9
-19 6 -1 125.12 2.35
-19 6 -1 132.14 2.54
-19 6 2 49.23 1.39
-19 6 5 3.26 0.42
-19 6 5 3.51 0.5
13 -19 8 47.45 1.52
-19 6 8 48.32 1.59
13 -19 8 45 1.6
-7 -12 8 266.05 4.16
-7 -12 5 229.76 3.68
-19 7 -2 2.56 0.34
-19 7 -2 2.72 0.39
-19 7 1 420.07 5.3
-19 7 1 435.26 5.37
-19 7 4 541.32 6.42
-19 7 4 541.42 6.92
-19 7 4 560.28 6.76
-19 7 7 148.6 3.09
12 -19 7 149.43 3.19
-19 7 10 0.63 0.23
-19 8 -9 0.1 0.32
11 -19 -6 8.06 0.71
-19 8 -6 6.43 0.76
-19 8 -3 16.87 0.79
-19 8 0 22.85 0.9
-19 8 0 23.04 0.94
-19 8 3 11.75 0.7
-19 8 3 12.49 0.68
-19 8 6 0.67 0.34
-19 8 6 0.73 0.27
11 -19 6 1.63 0.42
-19 8 9 6.59 0.56
11 -19 9 5.76 0.48
-19 8 9 6.43 0.47
10 -19 -10 0.67 0.24
10 -19 -7 24.52 1.2
-9 -10 7 26.83 1.15
10 -19 -4 76.9 1.98
-19 9 -4 77.5 1.78
-9 -10 4 75.43 1.81
-19 9 -1 68.91 1.61
-19 9 -1 70.33 1.67
-19 9 2 15.29 0.77
-19 9 2 13.81 0.74
-19 9 5 1.51 0.39
-19 9 5 0.91 0.29
-19 9 8 3.63 0.49
10 -19 8 3.83 0.54
10 -19 8 3.96 0.48
-19 9 8 3.09 0.4
9 -19 -8 340.59 5.01
-10 -9 8 353.76 4.88
9 -19 -5 259.8 4.18
-10 -9 5 250.9 3.91
-19 10 -2 12.39 0.65
-19 10 -2 13.7 0.72
-19 10 -2 11.92 0.72
-19 10 -2 12.53 0.68
-19 10 1 653.77 7.31
-19 10 1 640.11 7.35
-19 10 4 820.9 9.22
-19 10 4 839.62 8.84
-19 10 4 798.17 9.02
-19 10 4 785.84 9.27
-19 10 7 258.91 4.27
9 -19 7 249.37 4.36
-19 10 7 249.47 3.9
-19 10 10 4.18 0.36
8 -19 -9 1.11 0.3
-19 11 -9 0.83 0.41
8 -19 -6 1.72 0.39
-19 11 -6 1.52 0.45
-19 11 -3 0.45 0.22
-19 11 -3 0.94 0.31
-19 11 -3 0.65 0.21
-19 11 0 0.68 0.22
-19 11 0 0.26 0.25
-19 11 0 0.33 0.16
-19 11 0 0.23 0.19
-19 11 3 1.34 0.27
-19 11 6 1.6 0.34
8 -19 6 2.68 0.47
-19 11 6 1.77 0.36
-19 11 9 0.4 0.24
8 -19 9 0.7 0.27
7 -19 -10 0.45 0.21
-19 12 -10 0.58 0.3
7 -19 -7 4.35 0.53
-19 12 -7 2.82 0.56
-12 -7 7 4.2 0.51
7 -19 -4 11.52 0.74
-19 12 -4 11.55 0.68
-19 12 -1 19.79 0.81
-19 12 -1 21.82 0.87
-19 12 -1 20.8 0.9
-19 12 -1 21.83 0.99
-19 12 2 15.17 0.78
-19 12 2 13.12 0.73
-19 12 5 0.34 0.25
-19 12 5 0.4 0.33
-19 12 5 1.02 0.29
19 -12 -8 2.42 0.4
-19 12 8 1.79 0.38
7 -19 8 2.36 0.41
6 -19 -8 411.22 5.58
6 -19 -5 395.92 5.48
-13 -6 5 412.32 5.42
-19 13 -5 395.31 5.61
-19 13 -2 0.89 0.21
-19 13 -2 2.69 0.36
-19 13 -2 0.84 0.25
-19 13 -2 2.73 0.39
-19 13 1 641.25 7.12
-19 13 1 637.98 7.21
-19 13 4 887.52 10.09
-19 13 4 911.75 10.09
19 -13 -4 884.28 9.96
-13 -6 -4 912.9 9.91
-19 13 4 927.9 9.8
19 -13 -7 255.82 4.26
-19 13 7 259.72 4.24
-13 -6 -7 254.61 3.95
6 -19 7 261.07 4.29
6 -19 7 255.93 4.37
19 -13 -10 1.52 0.23
6 -19 10 1.93 0.26
5 -19 -9 7.45 0.55
14 5 -9 9.23 0.68
-19 14 -9 7.2 0.7
5 -19 -6 0.5 0.29
-19 14 -6 0.51 0.34
-19 14 -6 0.23 0.25
-19 14 -3 32.04 1.15
-19 14 -3 33.54 1.25
-19 14 -3 32.53 1.22
-19 14 0 52.16 1.41
-14 -5 0 51.01 1.38
-19 14 0 52.99 1.3
-19 14 3 11.48 0.69
-19 14 3 10.29 0.69
-19 14 6 0.5 0.3
-19 14 6 0.63 0.27
-14 -5 -6 0.78 0.27
19 -14 -6 0.69 0.31
19 -14 -9 3.08 0.41
5 -19 9 3.63 0.42
-15 -4 10 4.3 0.39
-19 15 -10 3.49 0.43
4 -19 -7 2.95 0.43
-19 15 -7 2.45 0.47
4 -19 -4 45.06 1.4
-15 -4 4 44.48 1.39
-19 15 -4 46.81 1.55
4 -19 -4 44.31 1.33
-19 15 -4 43.28 1.38
-15 -4 1 87.47 1.9
-19 15 -1 82.07 1.78
-19 15 -1 87.85 1.87
-19 15 -1 84.83 1.97
-19 15 2 34.45 1.21
-15 -4 -2 29.8 1.05
-15 -4 -5 1.01 0.35
4 -19 5 0.61 0.29
-19 15 5 1.22 0.36
-19 15 5 0.71 0.29
-19 15 8 9.39 0.65
-15 -4 -8 10.45 0.69
4 -19 8 9.41 0.72
19 -15 -8 9.84 0.73
3 -19 -8 274.57 4
3 -19 -5 211.45 3.49
-19 16 -5 213.88 3.85
-16 -3 2 12.28 0.71
-19 16 -2 12.07 0.73
-19 16 -2 11.75 0.72
-16 -3 -1 551.35 6.52
-19 16 1 557.75 6.13
-16 -3 -4 698.37 8.39
-19 16 4 699.84 8.25
19 -16 -4 696.68 8.33
-19 16 4 725.89 8.12
-16 -3 -4 690.64 7.96
3 -19 4 718.2 8.2
19 -16 -7 220.13 3.91
-16 -3 -7 217.22 3.59
3 -19 7 217.75 3.81
-17 -2 9 28.29 1.06
-19 17 -9 27.74 1.21
-19 17 -9 26.61 1.02
2 -19 -6 1.46 0.3
-19 17 -6 1.64 0.41
19 -17 6 1.87 0.4
-17 -2 3 94.76 2.16
-19 17 -3 97.02 2.28
2 -19 -3 98.46 2.11
-17 -2 3 98.45 2.07
-19 17 -3 95.96 2.21
-19 17 0 263.94 3.81
-17 -2 0 269.21 3.87
-17 -2 -3 86.91 1.94
2 -19 3 88.58 1.97
19 -17 -3 86.4 2.08
-19 17 3 88.1 2.06
-17 -2 -3 87.95 1.94
-17 -2 -3 87.17 2.08
2 -19 3 90.78 1.97
19 -17 -6 2.64 0.48
-17 -2 -6 1.92 0.47
-17 -2 -6 1.66 0.35
2 -19 6 1.91 0.41
2 -19 6 1.64 0.4
2 -19 9 24.81 0.96
19 -17 -9 25.58 0.97
1 -19 -7 8.42 0.59
-19 18 -7 11.9 0.82
-18 -1 4 144.89 2.9
-18 -1 4 140.3 2.56
1 -19 -4 141.1 2.64
-19 18 -4 142.23 2.88
-19 18 -1 270.34 3.83
1 -19 -1 281.91 4.12
-18 -1 1 272.78 4.02
1 -19 2 125.79 2.47
-18 -1 -2 128.76 2.46
19 -18 -2 125.24 2.51
-18 -1 -2 123.95 2.34
19 -18 -5 0.46 0.31
-18 -1 -5 1.18 0.39
-18 -1 -5 0.81 0.29
19 -18 -8 47.35 1.51
-1 19 -8 48.41 1.45
-18 -1 -8 49.23 1.46
1 -19 8 47.52 1.51
-18 -1 -8 45.24 1.39
-19 0 8 153.64 2.9
-19 19 -8 155.36 2.84
-19 0 5 73.4 2.06
-19 19 -5 70.19 2.11
-19 19 -5 75.75 2.07
-19 0 2 30.76 1.18
0 -19 -2 29.99 1.16
-19 0 2 31.34 1.16
-19 0 2 31.69 1.21
-19 19 -2 31.07 1.15
0 -19 1 326.96 4.63
-19 0 -1 337.22 4.62
19 -19 -1 338.15 4.6
-19 0 -4 358.15 5.32
19 -19 -4 358.77 5.18
-19 0 -4 348.35 4.95
0 -19 4 346.72 4.83
19 -19 -7 94.97 2.35
-19 0 -7 97.93 2.22
-19 0 -7 91.49 2.21
-1 -19 9 45.39 1.23
19 -20 -9 44.01 1.21
-20 1 -6 0.89 0.41
-20 1 -6 0.47 0.3
19 -20 -6 1.14 0.38
-20 1 -6 0.68 0.3
-1 -19 3 107.07 2.3
-1 -19 3 107.93 2.15
-20 1 -3 106.08 2.27
-1 -19 3 110.71 2.28
19 -20 -3 104.2 2.39
-20 1 -3 108.06 2.32
-1 -19 0 262.23 4.01
-20 1 0 259.6 4.03
19 -20 0 268.02 3.96
-20 1 3 126.79 2.67
-1 -19 -3 121.38 2.5
-20 1 3 118.65 2.6
-19 20 -3 124.15 2.52
-20 1 3 120.9 2.47
-20 1 6 0.86 0.34
-19 20 -6 0.49 0.28
19 -20 6 1.19 0.39
-19 20 -9 30.17 1.09
-20 1 9 28.61 0.95
-20 2 -7 9.03 0.85
-20 2 -7 9.73 0.72
18 -20 -7 10.18 0.78
-2 -18 7 8.55 0.69
-20 2 -7 8.95 0.71
-20 2 -4 63.71 2.01
-2 -18 4 66.5 1.7
18 -20 -4 60.6 1.83
-2 -18 4 64.83 1.75
-20 2 -4 63.56 1.81
-2 -18 1 333.73 4.67
-20 2 -1 324.81 4.8
-20 2 -1 335.81 4.64
18 -20 -1 337.82 4.61
18 -20 2 271.45 4.2
-2 -18 -2 275.37 4.13
-20 2 2 270.29 4.21
-20 2 2 269.34 4.06
-20 2 2 269.68 4.16
-18 20 -2 273.45 3.94
-20 2 5 29.56 1.31
-18 20 -5 31.56 1.28
-18 20 -5 28.86 1.33
18 -20 8 11.69 0.71
-20 2 8 11.3 0.71
17 -20 -8 26.93 1.16
-3 -17 8 27.13 1.11
-20 3 -8 25.72 1.12
-20 3 -8 27.47 1.17
17 -20 -5 231.32 4.02
-20 3 -5 237.89 4.38
-3 -17 5 229.47 3.79
-20 3 -5 223.84 3.91
-20 3 -2 365.92 5.32
-3 -17 2 357.53 4.86
17 -20 -2 349.72 4.96
-20 3 -2 352.95 4.82
-20 3 -2 366.95 4.99
-3 -17 -1 120.33 2.45
-20 3 1 117.65 2.47
17 -20 1 122.78 2.47
-20 3 1 121.64 2.42
-3 -17 -4 5.69 0.51
-20 3 4 4.18 0.45
-20 3 4 4.8 0.5
17 -20 7 64.75 1.92
16 -20 -9 46.41 1.36
4 16 -9 48.38 1.43
-20 4 -9 50.54 1.49
-4 -16 9 47.53 1.35
-20 4 -9 47.18 1.38
16 -20 -6 6.12 0.65
-20 4 -3 60.45 1.91
-4 -16 3 60.22 1.61
-4 -16 3 61.44 1.59
16 -20 -3 59.58 1.72
-20 4 -3 59.37 1.6
-20 4 -3 61.87 1.77
-20 4 0 231.69 3.6
-20 4 3 170.41 3.21
-4 -16 -3 177.73 3.06
-20 4 3 178.22 3.11
-20 4 3 167.64 3.14
-20 4 3 173.75 3
16 -20 6 12.91 0.9
-16 20 -9 13.29 0.71
-20 4 9 14.94 0.76
-20 4 9 13.84 0.67
15 -20 -7 15.2 0.98
-20 5 -7 14.3 1.06
-5 -15 7 14.47 0.87
15 -20 -4 12.84 0.83
-5 -15 4 13.34 0.77
-20 5 -4 12.43 0.71
-20 5 -4 12.81 0.84
-20 5 -1 172.98 2.99
-20 5 -1 184.98 3.15
-20 5 2 299.2 4.22
-20 5 2 282.99 4.33
-20 5 2 284.87 4.26
15 -20 2 290.88 4.32
-20 5 5 121.88 2.56
-20 5 8 5.89 0.57
15 -20 8 6.33 0.55
-20 5 8 5.23 0.5
15 -20 8 6.89 0.63
-20 6 -8 41.1 1.6
-6 -14 8 38.51 1.38
14 -20 -5 286.16 4.66
-6 -14 5 299.45 4.4
-20 6 -2 387.32 5.03
-20 6 -2 375.32 5.18
-20 6 1 32.14 1.16
-20 6 1 32.22 1.16
-20 6 4 106.64 2.34
-20 6 4 103.78 2.36
-6 -14 -4 105.29 2.19
-20 6 4 103.78 2.15
-20 6 7 220.63 3.9
14 -20 7 214.16 3.94
-20 7 -9 29.15 1.24
-20 7 -9 26.57 1.11
-7 -13 9 26.86 1.02
-20 7 -6 3.65 0.61
-20 7 -3 21.02 0.92
-20 7 -3 20.15 1.11
-20 7 -3 21.33 1.03
-7 -13 3 19.67 0.88
-20 7 0 78.92 1.83
-20 7 0 78.55 1.84
-20 7 3 66.06 1.76
-20 7 3 67.12 1.69
-20 7 3 64.13 1.75
-20 7 6 8.25 0.66
-20 7 6 9.16 0.76
13 -20 6 8.62 0.76
-20 7 9 2.89 0.39
-20 7 9 2.63 0.33
-8 -12 7 13.01 0.82
-20 8 -7 11.2 0.98
12 -20 -4 1.72 0.39
-20 8 -4 1.39 0.3
12 -20 -4 1.71 0.31
-20 8 -1 44.37 1.35
-20 8 -1 45.9 1.34
-20 8 2 94 2.1
-20 8 2 102.69 2.14
-20 8 5 45.86 1.5
-20 8 5 46.88 1.64
-20 8 5 47.86 1.55
-20 8 8 3.12 0.47
12 -20 8 3.05 0.44
12 -20 8 3.13 0.5
-20 8 8 2.45 0.38
-20 9 -8 96.21 2.72
-9 -11 8 97.46 2.26
11 -20 -5 544.03 7.12
-9 -11 5 555.62 6.78
-20 9 -2 640.94 7.39
-20 9 1 59.26 1.59
-20 9 1 61.39 1.62
-20 9 4 151.87 2.7
-20 9 4 147.19 2.99
-20 9 4 147.65 2.86
-20 9 4 156.83 2.95
-20 9 7 304.44 4.79
-20 9 7 301.33 4.45
11 -20 7 298.55 4.85
-20 9 10 113.67 1.89
10 -20 -9 11.02 0.69
-20 10 -9 12.42 0.78
10 -20 -6 0.66 0.32
-20 10 -6 0.38 0.38
10 -20 -3 17.53 0.88
-20 10 -3 14.16 0.95
-20 10 -3 17.04 0.83
-20 10 -3 15.63 0.89
-20 10 -3 17.34 0.84
-20 10 0 21.5 0.93
-20 10 0 21.1 0.89
-20 10 3 6.35 0.54
-20 10 3 6.65 0.53
-20 10 3 6.22 0.57
-20 10 6 0.72 0.33
-20 10 6 0.65 0.27
-20 10 6 0.77 0.28
10 -20 6 0.71 0.35
-20 10 9 0.57 0.24
10 -20 9 0.48 0.23
-20 11 -10 0.64 0.29
9 -20 -10 0.6 0.21
9 -20 -7 2.16 0.42
-20 11 -7 1.49 0.46
-11 -9 7 2.47 0.41
9 -20 -4 1.32 0.34
-20 11 -4 0.55 0.3
-11 -9 4 0.38 0.23
9 -20 -4 1.11 0.27
-20 11 -4 1.02 0.24
-20 11 -1 1.45 0.28
-20 11 -1 1.48 0.3
-20 11 -1 2.09 0.3
-20 11 -1 1.13 0.3
-20 11 2 4.65 0.46
-20 11 2 3.89 0.43
-20 11 5 6.88 0.61
-20 11 5 7.94 0.62
-20 11 5 7.94 0.68
9 -20 5 7.48 0.67
-20 11 8 8.45 0.66
9 -20 8 8.36 0.66
8 -20 -8 111.73 2.45
8 -20 -5 575.13 7.32
-20 12 -5 583.42 7.33
-20 12 -2 697.1 7.89
-20 12 -2 690.79 8.03
-20 12 -2 686 7.71
-20 12 -2 666.12 7.53
-20 12 1 73.13 1.79
-20 12 1 67.35 1.71
-20 12 4 174.89 3.26
-20 12 4 172.59 3.19
-12 -8 -4 165.15 2.96
-20 12 4 168.27 2.99
-20 12 4 176.37 2.99
-20 12 7 379.89 5.5
8 -20 7 385.01 5.66
7 -20 -9 0.79 0.26
-20 13 -9 0.61 0.35
-20 13 -9 0.74 0.3
7 -20 -6 8.01 0.68
-20 13 -6 6.73 0.75
7 -20 -3 7.13 0.56
-20 13 -3 7.31 0.71
-20 13 -3 7.2 0.56
-13 -7 3 9.16 0.6
7 -20 -3 7.26 0.55
-20 13 -3 8.14 0.66
-20 13 -3 6.91 0.57
-20 13 0 2.12 0.34
-20 13 0 2.11 0.28
-20 13 3 23.6 1.05
-20 13 3 24.69 1.02
7 -20 3 23.5 0.95
-20 13 3 22.96 0.97
-20 13 3 23.02 1.06
20 -13 -6 18.76 1
-20 13 6 17.36 0.99
7 -20 9 2.85 0.38
20 -13 -9 2.52 0.34
-20 13 9 2.71 0.36
6 -20 -7 1.72 0.37
-20 14 -7 0.28 0.35
6 -20 -4 10.34 0.69
-20 14 -4 7.91 0.6
-14 -6 4 8.36 0.61
6 -20 -4 9.72 0.63
-20 14 -4 10.13 0.76
-20 14 -1 31.88 1.08
-20 14 -1 31.48 1.18
-20 14 -1 32.47 1.2
-20 14 -1 31.9 1.08
-20 14 2 30.7 1.16
-20 14 2 32.66 1.19
20 -14 -5 10.78 0.77
-20 14 5 9.06 0.7
-14 -6 -5 9.44 0.71
-20 14 5 9.71 0.73
6 -20 5 10.39 0.75
20 -14 -8 0.54 0.28
6 -20 8 0.17 0.27
-20 14 8 0.48 0.26
5 -20 -8 143.24 2.67
-15 -5 5 691.56 7.96
-20 15 -5 676.08 8.27
-20 15 -2 795.62 8.87
-20 15 -2 787.42 8.89
-20 15 -2 780.01 8.76
-20 15 1 62.87 1.65
-15 -5 -1 62.03 1.57
-20 15 1 57.8 1.29
-15 -5 -4 232.65 3.77
-20 15 4 239.53 3.71
5 -20 4 230.89 3.77
20 -15 -4 229.08 3.78
-20 15 4 233.19 3.89
20 -15 -7 407.11 5.73
-20 15 7 416.27 5.65
-15 -5 -7 406.01 5.3
5 -20 7 402.94 5.71
16 4 -9 24.68 0.99
-16 -4 9 23.62 0.95
4 -20 -9 21.67 0.78
-20 16 -9 21.87 1.09
-20 16 -9 22.05 0.94
4 -20 -6 73.72 1.9
-20 16 -6 67.54 2.18
-16 -4 3 63.69 1.69
-20 16 -3 59.69 1.95
4 -20 -3 63.49 1.67
4 -20 -3 63.22 1.6
-20 16 -3 61.15 1.77
-20 16 -3 64.86 1.81
-20 16 -3 63.67 1.75
-20 16 0 0.83 0.22
-16 -4 0 1.09 0.26
-20 16 3 47.87 1.49
-20 16 3 48.79 1.55
20 -16 -3 44.87 1.43
-16 -4 -3 44.26 1.39
4 -20 3 47.22 1.41
-20 16 3 47.11 1.51
20 -16 -6 33.17 1.37
4 -20 6 34.97 1.38
-16 -4 -6 30.96 1.17
-20 16 6 36.27 1.37
4 -20 6 35.9 1.4
4 -20 9 2.55 0.35
20 -16 -9 2.38 0.34
3 -20 -7 15.74 0.81
-20 17 -7 13.5 0.9
-20 17 -7 15.83 0.95
-17 -3 4 10.78 0.74
3 -20 -4 10.48 0.66
3 -20 -4 10.86 0.67
-20 17 -4 11.08 0.79
-20 17 -1 111.58 2.25
-20 17 -1 109.11 2.16
-17 -3 1 108.74 2.24
3 -20 -1 108.16 2.27
-20 17 -1 110.81 2.33
-20 17 2 117.79 2.48
-17 -3 -2 108.98 2.07
-17 -3 -2 114 2.29
3 -20 2 113.8 2.33
-20 17 5 26.07 1.14
-20 17 5 25.74 1.18
-17 -3 -5 27.74 1.25
-17 -3 -5 24.7 1.04
20 -17 -5 26.32 1.2
3 -20 5 26.55 1.16
20 -17 -8 1.15 0.31
-17 -3 -8 0.62 0.25
3 -20 8 0.56 0.31
-18 -2 8 140.92 2.72
-20 18 -8 136.46 2.7
-18 -2 5 414.22 5.77
-20 18 -5 415.26 5.84
-18 -2 2 293.14 4.27
2 -20 -2 290.92 4.28
-20 18 -2 282.65 4.6
-20 18 -2 301.24 4.44
-18 -2 2 297.75 4.28
-18 -2 2 288.52 4.32
-20 18 -2 291.86 4.31
-20 18 1 9.13 0.65
2 -20 1 10.44 0.67
20 -18 -1 10.62 0.65
20 -18 -4 106.78 2.45
-20 18 4 106.6 2.36
-18 -2 -4 105.22 2.47
-20 18 4 102.11 2.3
-18 -2 -4 103.22 2.23
2 -20 4 104.51 2.28
20 -18 -7 184.9 3.37
-18 -2 -7 180.76 3.06
2 -20 7 179.08 3.3
-19 -1 9 54.99 1.4
-20 19 -9 56.45 1.59
-19 -1 9 53.72 1.33
-19 -1 6 117.28 2.66
-20 19 -6 121.57 2.71
20 -19 6 114.92 2.6
-19 -1 3 30.03 1.2
-20 19 -3 27.89 1.22
1 -20 -3 28.52 1.14
-19 -1 3 27.53 1.17
-19 -1 3 26.15 1.07
-20 19 -3 27.9 1.15
-20 19 0 66.89 1.71
1 -20 0 66.04 1.77
-19 -1 0 64.3 1.72
-19 -1 0 67.62 1.78
20 -19 0 68.34 1.72
-19 -1 -3 253.72 4.07
1 -20 3 248.47 3.72
-19 -1 -3 252.49 3.85
1 -20 3 249.97 3.87
-19 -1 -3 246.7 3.77
20 -19 -3 256.44 4.04
20 -19 -6 141.09 2.97
-19 -1 -6 146.34 3.21
1 -20 9 11.23 0.61
20 -19 -9 10.93 0.59
-20 0 7 28 1.2
-20 20 -7 30.58 1.2
20 -20 7 26.73 1.1
-20 0 4 1.1 0.33
0 -20 -4 0.71 0.25
-20 0 4 0.9 0.22
-20 20 -4 0.15 0.25
-20 20 -4 0.41 0.29
0 -20 -1 98.77 2.24
-20 0 1 95.25 2.17
-20 0 1 98.8 2.25
20 -20 1 96.18 2.18
-20 0 1 95.38 2.19
0 -20 2 239.09 3.8
-20 0 -2 235.41 3.75
-20 0 -2 243.28 3.94
20 -20 -2 230.87 3.68
-20 0 -2 240.1 3.66
-20 0 -5 141.97 3.13
0 -20 5 136.28 2.8
20 -20 -5 138.42 2.94
-20 0 -5 133.3 2.74
0 -20 5 145.86 2.82
20 -20 -8 7.97 0.61
0 -20 8 8.31 0.61
-20 0 -8 7 0.52
-21 1 -7 125.97 2.42
20 -21 -7 130.2 2.67
-21 1 -4 76.38 2.18
-1 -20 4 77.7 1.95
-1 -20 4 74.07 1.88
-21 1 -4 74.7 1.94
-1 -20 4 76.21 1.87
20 -21 -4 77.67 2.09
-1 -20 1 11.69 0.76
-21 1 -1 11.49 0.73
-21 1 -1 10.94 0.75
-21 1 -1 12.57 0.81
20 -21 -1 10.71 0.69
-1 -20 -2 209.29 3.55
-21 1 2 200.46 3.44
-21 1 2 200.58 3.54
-21 1 2 208.83 3.57
-21 1 5 201.84 3.7
-20 21 -5 203.11 3.56
-21 1 8 43.5 1.31
-21 1 8 45.35 1.38
19 -21 -8 26.36 1.06
-21 2 -8 28.49 1.05
-2 -19 8 27.12 1.06
-21 2 -8 25.97 1.01
-2 -19 5 5.17 0.54
-21 2 -5 4.77 0.63
19 -21 -5 4.89 0.57
-21 2 -5 5.89 0.58
-2 -19 2 131.47 2.66
-2 -19 2 133.82 2.44
-21 2 -2 126.34 2.57
19 -21 -2 130.76 2.6
-21 2 -2 133.52 2.63
-21 2 1 204.54 3.51
-2 -19 -1 202.06 3.49
-21 2 1 201.75 3.49
-21 2 1 198.27 3.4
19 -21 1 206.72 3.46
-21 2 4 63.6 1.9
-2 -19 -4 58.77 1.66
-21 2 4 60.71 1.65
-21 2 7 0.25 0.29
-21 2 7 0.26 0.3
19 -21 7 0.25 0.28
18 -21 -9 81.39 1.72
-21 3 -9 84.3 1.72
-3 -18 9 84.53 1.73
18 -21 -6 147.82 3.07
-21 3 -6 148.35 3.38
-3 -18 6 141.01 2.85
-21 3 -6 140.67 2.95
-3 -18 3 30.61 1.17
18 -21 -3 33.83 1.31
-3 -18 3 29.78 1.11
-21 3 -3 29.22 1.14
-21 3 -3 33.04 1.26
-3 -18 0 53.5 1.6
-21 3 0 52.51 1.61
18 -21 0 51.8 1.52
-21 3 0 53.4 1.57
-21 3 3 209.61 3.72
-3 -18 -3 216.8 3.58
-21 3 3 214.64 3.51
-21 3 6 128.94 2.85
18 -21 6 125.68 2.86
-21 3 9 11.47 0.63
-18 21 -9 10.74 0.6
-21 3 9 10.63 0.55
17 -21 -7 76.87 2.09
-21 4 -7 76.17 2.08
17 -21 -4 52.45 1.69
-4 -17 4 52.69 1.56
-21 4 -4 50.79 1.65
-21 4 -1 5.83 0.6
-4 -17 1 6.07 0.55
-21 4 -1 5.58 0.56
17 -21 -1 5.87 0.52
-21 4 -1 4.65 0.49
-21 4 -1 5.47 0.52
-4 -17 -2 125.59 2.55
-21 4 2 121.6 2.62
17 -21 2 123.49 2.59
-21 4 2 120.27 2.47
-21 4 5 137.35 3
-21 4 5 133.82 2.85
-21 4 8 42.9 1.41
17 -21 8 42.6 1.27
17 -21 8 43.94 1.41
-21 4 8 41.37 1.31
16 -21 -8 33.39 1.27
-21 5 -8 34.59 1.34
-5 -16 8 31.19 1.19
-21 5 -8 33.28 1.28
-21 5 -5 8.6 0.82
-5 -16 5 8.4 0.66
16 -21 -5 10.52 0.78
-21 5 -5 9.43 0.76
-21 5 -2 271.78 4.54
16 -21 -2 268.15 4.14
-5 -16 2 262.37 4.04
-21 5 -2 267.7 4.02
-21 5 1 473.51 5.99
-21 5 1 468.1 6.16
-5 -16 -1 481.29 6.04
16 -21 1 460.61 6
-21 5 1 463.67 5.97
-21 5 4 147.12 3.06
-5 -16 -4 143.51 2.72
-21 5 4 149.68 2.92
-21 5 4 149.74 2.73
-21 5 4 147.98 2.97
-21 5 7 0.2 0.27
16 -21 7 0.66 0.34
6 15 -9 74.88 1.82
-6 -15 9 74.3 1.68
15 -21 -9 75.01 1.73
-21 6 -9 70.51 1.73
15 -21 -6 144.84 3.07
-6 -15 6 147.11 2.89
-21 6 -6 136.87 3.04
-21 6 -3 56.41 1.57
-6 -15 3 56.28 1.57
15 -21 -3 57.75 1.7
-6 -15 3 55.51 1.5
-21 6 -3 58.47 1.74
-21 6 -3 55.77 1.89
-21 6 0 11.32 0.71
-21 6 0 11.42 0.71
-6 -15 0 11.67 0.72
-21 6 0 11.11 0.74
-21 6 3 106.14 2.35
-21 6 3 104.16 2.44
-6 -15 -3 105.34 2.26
-21 6 3 101.57 2.34
-21 6 3 104.06 2.24
-21 6 6 77.02 2.18
15 -21 6 78.65 2.22
-21 6 6 77.77 2.07
-21 6 9 10.96 0.65
-21 6 9 10.67 0.56
-21 7 -7 47.69 1.91
-21 7 -7 52.22 1.77
-7 -14 4 103.1 2.21
-21 7 -4 100.93 2.42
-7 -14 1 36.44 1.24
-21 7 -1 34.11 1.4
-21 7 -1 40.59 1.31
-21 7 -1 38.13 1.34
-7 -14 -2 17.38 0.88
-21 7 2 18.31 0.96
-21 7 2 17.35 0.87
-21 7 2 17.01 0.89
14 -21 2 17.47 0.9
-21 7 5 104.91 2.4
-21 7 5 99.23 2.51
-21 7 5 101.87 2.4
-21 7 8 58.94 1.72
14 -21 8 62.84 1.68
-21 7 8 58.74 1.57
14 -21 8 63.66 1.83
-8 -13 8 38.95 1.35
-21 8 -8 40.84 1.5
-8 -13 5 42.87 1.44
-21 8 -5 54.81 1.79
-8 -13 2 521.61 6.33
-21 8 -2 522.37 6.39
-21 8 -2 532.27 6.65
13 -21 -2 525.8 6.48
-21 8 1 656.47 7.63
-21 8 1 659.47 7.65
-21 8 1 660.2 7.78
-21 8 4 119.75 2.56
-21 8 4 111.95 2.61
-21 8 4 111.75 2.49
-21 8 4 113.4 2.3
-21 8 7 20.21 1.08
-21 8 7 20.56 0.99
13 -21 7 21.34 1.12
12 -21 -9 28.23 1.04
-21 9 -9 31.11 1.26
12 -21 -6 48.18 1.68
-21 9 -6 44.03 1.86
-9 -12 6 48.62 1.56
-9 -12 3 5.67 0.49
-21 9 -3 5.28 0.49
-9 -12 3 5.2 0.47
12 -21 -3 5.01 0.52
-21 9 0 34.62 1.2
-21 9 0 34.85 1.23
-21 9 3 96.62 2.32
-9 -12 -3 99.25 2.15
-21 9 3 94.7 2.12
12 -21 3 95.52 2.09
-21 9 3 94.13 2.19
-21 9 6 53.95 1.79
-21 9 6 52.94 1.66
12 -21 6 54.68 1.82
-21 9 9 7.65 0.55
12 -21 9 7.49 0.49
11 -21 -7 12.14 0.84
-21 10 -7 10.64 0.93
11 -21 -4 22.87 1.07
-21 10 -4 23.38 1.01
-10 -11 4 24.32 1.02
11 -21 -4 24.13 0.99
-21 10 -1 15.12 0.77
-21 10 -1 9.77 0.67
-21 10 2 0.96 0.27
-21 10 2 1.43 0.31
-10 -11 -2 1.02 0.27
-21 10 5 16.84 1
-21 10 5 16 0.89
-21 10 5 16.53 0.92
-21 10 8 17.86 0.93
11 -21 8 18.2 0.92
-21 10 8 17.38 0.79
11 -21 8 16.88 0.97
10 -21 -8 45.55 1.49
-21 11 -8 47.47 1.63
-11 -10 5 45.96 1.49
-21 11 -5 45.13 1.64
-21 11 -2 574.84 6.98
10 -21 -2 575.83 6.9
10 -21 -2 572.56 6.81
-21 11 -2 581.94 7.13
10 -21 -2 591.93 6.78
-21 11 -2 585.33 6.79
-21 11 1 890.29 9.71
-21 11 1 868.84 9.59
-21 11 4 237.51 3.95
-21 11 4 235.38 4.03
-21 11 4 239.14 3.7
-21 11 4 241.51 3.83
-21 11 7 6.01 0.63
10 -21 7 4.84 0.61
-21 11 7 5.46 0.52
9 -21 -9 16.34 0.76
-21 12 -9 16.21 0.84
9 -21 -6 19.06 1.02
-12 -9 6 20.11 0.99
-21 12 -3 1.5 0.36
-21 12 -3 1.87 0.36
-21 12 -3 1.25 0.39
-21 12 -3 2.31 0.36
-12 -9 3 1.47 0.29
9 -21 -3 1.62 0.3
-21 12 0 7.12 0.56
-21 12 0 7.36 0.59
-21 12 3 3.28 0.44
-21 12 3 3.31 0.4
9 -21 3 3 0.37
-21 12 3 2.45 0.4
-21 12 6 1.73 0.42
-21 12 6 2.64 0.39
9 -21 6 1.95 0.43
-21 12 9 3.79 0.39
9 -21 9 4.24 0.41
8 -21 -7 4.97 0.53
-21 13 -7 3.7 0.62
8 -21 -4 2.21 0.38
-21 13 -4 1.29 0.33
-13 -8 4 1.85 0.34
-21 13 -4 0.98 0.35
8 -21 -4 1.56 0.32
-21 13 -4 2.31 0.36
-21 13 -1 17.24 0.82
-21 13 -1 18.64 0.91
-21 13 -1 17.69 0.8
-21 13 -1 16.94 0.89
-21 13 2 23.44 1.09
-21 13 2 22.1 1.02
8 -21 2 18.89 0.89
-21 13 2 22.08 0.97
-21 13 2 20.14 0.96
-21 13 5 6.8 0.66
-21 13 5 6.91 0.58
-21 13 5 7.58 0.66
-21 13 8 0.42 0.28
8 -21 8 0.08 0.25
7 -21 -8 61.42 1.64
-21 14 -8 61.12 1.83
7 -21 -5 60.52 1.73
-14 -7 5 50.99 1.58
-21 14 -5 58.06 1.86
-21 14 -5 49.75 1.69
7 -21 -2 710.38 8.01
-21 14 -2 707.55 8.29
-21 14 -2 702.18 8.02
-21 14 -2 724.64 8.23
-21 14 1 982.41 10.67
7 -21 1 943.09 10.42
-21 14 4 202.34 3.64
-21 14 4 200.72 3.61
-14 -7 -4 203.42 3.4
-21 14 4 204.76 3.37
-21 14 4 215.37 3.49
21 -14 -7 22.85 1.05
-21 14 7 20.86 1.05
7 -21 7 21.53 1.09
7 -21 7 22.27 1.13
6 -21 -9 3.74 0.36
15 6 -9 4.29 0.47
-15 -6 9 3.7 0.4
-21 15 -9 3.81 0.51
-21 15 -9 3.73 0.43
6 -21 -6 0.78 0.33
-21 15 -6 0.9 0.4
-15 -6 3 27.15 1.04
6 -21 -3 27.77 1.08
-21 15 -3 27.32 1.13
-21 15 -3 28.16 1.19
-21 15 -3 25.96 1.31
6 -21 -3 28.55 1.01
-21 15 -3 26.61 1.13
6 -21 -3 27.37 1.07
-21 15 0 63.97 1.66
-21 15 0 61.34 1.73
6 -21 0 60.81 1.64
-21 15 0 58.83 1.44
-21 15 3 17.34 0.93
6 -21 3 16.5 0.83
-21 15 3 16 0.91
-21 15 3 15.72 0.81
-21 15 3 16.42 0.88
21 -15 -6 7.41 0.64
-21 15 6 5.26 0.58
6 -21 6 6.39 0.64
21 -15 -9 19.03 0.73
6 -21 9 19.5 0.81
5 -21 -7 37.75 1.28
-21 16 -7 36.79 1.54
-21 16 -7 40.5 1.53
5 -21 -4 9.47 0.66
5 -21 -4 10.61 0.68
-21 16 -4 9.83 0.75
-21 16 -4 9.88 0.74
-21 16 -1 16.55 0.8
-21 16 -1 15.38 0.96
5 -21 -1 18.09 0.88
-16 -5 1 18.12 0.87
-21 16 -1 20.67 0.9
-21 16 -1 18.03 0.92
-21 16 2 54.06 1.64
5 -21 2 54.33 1.56
-21 16 2 58.09 1.69
-21 16 2 54.27 1.52
-21 16 5 23.44 1.13
-16 -5 -5 22.64 1.1
21 -16 -5 24.52 1.13
5 -21 5 24.81 1.14
-21 16 5 22.68 1.1
21 -16 -8 2.13 0.35
-21 16 8 2.04 0.34
5 -21 8 3.16 0.43
4 -21 -8 15.67 0.72
-17 -4 8 15.62 0.84
-21 17 -8 17.19 0.9
4 -21 -5 103.44 2.23
-21 17 -5 109.67 2.6
-21 17 -5 105.82 2.56
-17 -4 2 632.02 7.52
-21 17 -2 628.1 8.28
-21 17 -2 667.4 7.75
4 -21 -2 652.56 7.63
-17 -4 2 660.98 7.66
-21 17 -2 654.16 7.75
-21 17 1 643.01 7.69
-17 -4 -1 656.58 7.56
4 -21 1 651 7.63
21 -17 -1 656.25 7.4
21 -17 -4 109.22 2.47
-21 17 4 116.47 2.55
-17 -4 -4 109.71 2.45
-21 17 4 117.28 2.48
4 -21 4 110.69 2.41
-21 17 7 21.11 0.97
4 -21 7 21.62 1.07
-18 -3 9 0.26 0.22
-21 18 -9 0.39 0.29
-18 -3 9 0.3 0.22
3 -21 -6 47.46 1.39
-21 18 -6 44.52 1.68
-18 -3 6 48.71 1.63
-21 18 -6 50.8 1.71
-18 -3 3 209.78 3.53
-21 18 -3 205.33 3.63
3 -21 -3 214.19 3.5
-21 18 -3 213.89 3.63
-21 18 -3 216.32 3.74
-21 18 0 180.48 3.14
-21 18 0 177.42 2.92
-18 -3 0 187.72 3.21
3 -21 0 183.98 3.23
-18 -3 0 190.62 3.18
21 -18 0 184.66 3.04
-21 18 3 16.02 0.92
-18 -3 -3 16.32 0.87
-21 18 3 15.57 0.87
21 -18 -3 15.5 0.86
3 -21 3 14.43 0.81
3 -21 3 15.32 0.8
-18 -3 -3 15.54 0.75
21 -18 -6 21.21 1.08
-18 -3 -6 20.67 1.13
3 -21 6 18.13 1
-18 -3 -6 17.61 0.86
3 -21 9 27.01 0.92
21 -18 -9 26.45 0.86
-19 -2 7 55.5 1.68
-21 19 -7 58.63 1.73
-19 -2 4 49.89 1.63
2 -21 -4 50.94 1.52
-21 19 -4 52.44 1.68
-21 19 -4 50.39 1.73
-21 19 -1 1.04 0.34
-19 -2 1 1.76 0.33
2 -21 -1 1.84 0.35
-19 -2 1 0.59 0.27
-21 19 -1 0.91 0.27
21 -19 1 1.34 0.31
-21 19 2 81.61 2.08
-19 -2 -2 80.21 1.97
2 -21 2 80.96 2.01
21 -19 -2 80.09 1.92
2 -21 2 81.56 1.8
21 -19 -5 125.86 2.74
-19 -2 -5 123.12 2.8
2 -21 5 124.48 2.66
-19 -2 -5 116.53 2.43
2 -21 5 120.07 2.58
21 -19 -8 45.25 1.34
2 -21 8 44.53 1.37
20 1 -8 3.63 0.4
-20 -1 8 3.65 0.43
-20 -1 8 2.32 0.36
-21 20 -8 3.65 0.4
-20 -1 5 55.72 1.78
-21 20 -5 54.1 1.72
-20 -1 2 218.09 3.65
1 -21 -2 222.63 3.7
-21 20 -2 223.53 3.79
-20 -1 2 224.08 3.69
-20 -1 2 223.02 3.73
-21 20 -2 216.37 3.87
-21 20 -2 233.75 3.7
-21 20 1 218.39 3.63
1 -21 1 214.98 3.59
-20 -1 -1 214.17 3.55
-20 -1 -1 213.66 3.6
21 -20 -1 214.45 3.45
-20 -1 -4 38.56 1.47
1 -21 4 38.02 1.3
1 -21 4 37.56 1.3
1 -21 4 38.02 1.35
-20 -1 -4 34.83 1.24
21 -20 -4 37.44 1.41
1 -21 7 12.3 0.78
21 -20 -7 12.99 0.8
-20 -1 -7 11.94 0.69
-21 0 6 102.12 2.41
-21 0 6 93.41 2.3
-21 21 -6 101.35 2.31
21 -21 6 97.34 2.32
-21 0 3 234.08 3.93
-21 0 3 228.88 3.74
0 -21 -3 231.86 3.81
-21 21 -3 235.64 4.08
-21 0 3 232.82 3.95
-21 21 -3 241.36 3.83
-21 21 0 125.54 2.51
-21 0 0 126.3 2.62
0 -21 0 129.09 2.67
-21 0 0 121.14 2.56
-21 0 0 125.82 2.64
21 -21 0 128 2.55
-21 21 0 123.81 2.41
-21 0 -3 1.22 0.29
-21 0 -3 1.76 0.39
-21 0 -3 1.97 0.32
0 -21 3 2.02 0.36
0 -21 3 0.81 0.28
0 -21 3 0.75 0.25
-21 0 -6 97.05 2.51
0 -21 6 90.11 2.2
-21 0 -6 86.78 2.05
21 -21 -6 94.65 2.3
21 -22 -8 27.33 0.97
-1 -21 8 29.59 1.03
-22 1 -5 58.94 1.94
-1 -21 5 59.2 1.72
-22 1 -5 57.39 1.66
21 -22 -5 58.71 1.8
-22 1 -2 19.17 1.02
-1 -21 2 20.13 1
-22 1 -2 18.55 0.95
-1 -21 2 18.44 0.84
21 -22 -2 18.77 0.93
-1 -21 -1 12.38 0.8
-22 1 1 12.2 0.78
-22 1 1 12.12 0.8
21 -22 1 12.13 0.77
-22 1 4 70.45 2.01
-1 -21 -4 66.81 1.79
-22 1 4 66.64 1.96
-22 1 7 41.98 1.4
-22 1 7 41.86 1.37
21 -22 7 41.08 1.3
20 -22 -6 150.44 3.01
-22 2 -6 154.32 3.34
-22 2 -6 147.76 2.73
-2 -20 6 147.68 2.88
-2 -20 3 233.4 3.78
-2 -20 3 240.37 3.67
-22 2 -3 234.46 3.77
-20 22 0 51.13 1.5
-22 2 0 49.97 1.65
-2 -20 0 48.79 1.6
-22 2 0 52.83 1.65
-22 2 0 50.05 1.57
20 -22 0 51.39 1.55
-22 2 3 26.56 1.2
-2 -20 -3 27.01 1.15
-22 2 3 26.74 1.12
-22 2 3 27.26 1.22
-22 2 6 113.78 2.6
20 -22 6 113.06 2.59
-22 2 6 113.41 2.54
19 -22 -7 31.83 1.26
-22 3 -7 32.6 1.47
-22 3 -7 30.54 1.16
-22 3 -7 28.49 1.16
-22 3 -4 151.44 3.26
-3 -19 4 142.09 2.72
19 -22 -4 143.43 2.97
-3 -19 4 145.6 2.79
-22 3 -4 140.79 2.86
-22 3 -1 117.05 2.67
-3 -19 1 111.58 2.46
-22 3 -1 110.9 2.43
19 -22 -1 118.64 2.44
-22 3 2 1.44 0.34
-3 -19 -2 1.15 0.35
-22 3 2 0.61 0.32
-22 3 5 56.76 1.84
-22 3 5 55.38 1.77
-22 3 8 59.63 1.51
19 -22 8 58.32 1.48
-22 4 -8 82.94 1.9
-4 -18 8 76.45 1.81
18 -22 -8 79.25 1.87
-22 4 -8 73.59 1.81
18 -22 -5 80.11 2.17
-4 -18 5 76.99 1.99
-22 4 -5 81.43 2.41
-22 4 -5 79.02 2.12
-22 4 -2 0.9 0.3
-22 4 -2 1.26 0.38
-4 -18 2 1.18 0.27
-4 -18 2 1.18 0.32
18 -22 -2 1.11 0.34
-4 -18 -1 97.78 2.28
-22 4 1 97.16 2.3
18 -22 1 100.34 2.29
-22 4 1 98.84 2.25
-22 4 4 177.8 3.44
-4 -18 -4 171.04 3.07
-22 4 4 169.4 3.03
-22 4 4 175.96 3.36
-22 4 7 55.61 1.63
18 -22 7 56.24 1.73
-22 5 -9 6.28 0.48
-5 -17 9 6.5 0.47
17 -22 -9 6.14 0.47
17 -22 -6 160.33 3.2
-5 -17 6 155.95 3
-22 5 -6 154.7 3.16
-22 5 -3 340.55 5.38
17 -22 -3 339 4.95
-5 -17 3 344.84 4.65
-22 5 -3 338.27 4.78
-22 5 -3 343.67 4.96
-5 -17 0 154.31 2.92
-22 5 0 149.65 2.97
17 -22 0 152.13 2.82
-22 5 0 147.01 2.84
-22 5 3 3.15 0.46
-22 5 3 2.16 0.4
-5 -17 -3 2.14 0.41
-22 5 3 1.85 0.4
-22 5 3 1.78 0.33
17 -22 6 82.25 2.24
-22 5 6 80.67 2.11
-22 5 9 61.88 1.45
-22 5 9 59.47 1.3
16 -22 -7 4.32 0.53
-22 6 -7 5.04 0.7
-22 6 -7 3.95 0.52
16 -22 -4 99.45 2.4
-6 -16 4 98.79 2.19
-22 6 -4 97.37 2.39
-22 6 -1 198.85 3.42
-6 -16 1 200.21 3.41
-22 6 -1 199.6 3.75
16 -22 -1 196.64 3.31
-6 -16 -2 72.12 1.91
-22 6 2 69.78 1.95
-22 6 2 74.97 1.95
-22 6 2 71.63 1.94
-22 6 2 74.27 1.9
-22 6 5 1.57 0.38
-22 6 8 35.17 1.26
16 -22 8 34.26 1.15
-22 6 8 34.09 1.14
16 -22 8 34.89 1.27
15 -22 -8 133.35 2.64
-7 -15 8 137.92 2.61
-22 7 -8 138.19 2.77
-7 -15 5 128.43 2.64
-22 7 -5 131.04 2.87
-22 7 -2 1.36 0.34
-22 7 -2 2.22 0.46
-7 -15 2 1.19 0.26
-7 -15 2 1.09 0.31
-22 7 -2 1.95 0.36
-22 7 1 293.56 4.36
-22 7 1 293.44 4.56
-22 7 1 303.54 4.42
-7 -15 -1 300.23 4.42
-22 7 1 290.04 4.44
15 -22 1 294.02 4.35
-22 7 4 443.33 5.93
-7 -15 -4 431.27 5.58
-22 7 4 433.21 5.91
-22 7 7 126.06 2.74
-22 7 7 125.66 2.57
15 -22 7 125.61 2.78
-22 8 -9 1.41 0.3
8 14 -9 1.89 0.35
-22 8 -9 1.64 0.36
-22 8 -6 77.25 2.48
-8 -14 6 76.93 2
-22 8 -6 78.84 2.22
-22 8 -3 204.22 3.44
-8 -14 3 203.48 3.36
-8 -14 3 214.57 3.32
-22 8 -3 212.6 3.68
-22 8 -3 194.39 3.92
-22 8 0 118.02 2.46
-8 -14 0 121.86 2.5
-22 8 0 120.27 2.49
-22 8 3 1.36 0.32
-8 -14 -3 0.97 0.31
-22 8 3 1.69 0.37
-22 8 6 34.32 1.42
-22 8 6 33.32 1.31
14 -22 6 34.55 1.44
-22 8 9 30.78 1.02
14 -22 9 29.16 0.86
-22 8 9 28.21 0.83
13 -22 -7 0.89 0.35
-22 9 -7 0.81 0.43
13 -22 -4 19.13 1.01
-9 -13 4 20.23 0.93
-9 -13 1 94.48 2.13
-22 9 -1 89.97 2.42
-22 9 -1 98.99 2.2
13 -22 -1 96.75 2.09
-22 9 -1 97.64 2.15
-22 9 2 60.04 1.71
-9 -13 -2 60.13 1.68
-22 9 2 57.76 1.66
-22 9 2 58.65 1.7
-22 9 5 1.32 0.37
-22 9 5 0.88 0.32
-22 9 8 11.47 0.74
13 -22 8 11.12 0.7
-22 9 8 11.61 0.65
13 -22 8 11.35 0.77
12 -22 -8 227.02 3.63
-10 -12 8 227.91 3.58
12 -22 -5 191.49 3.53
-10 -12 5 196.9 3.38
12 -22 -2 0.24 0.22
-10 -12 2 0.24 0.21
-22 10 -2 0.18 0.23
12 -22 -2 0.97 0.26
-22 10 1 343.97 4.83
-10 -12 -1 348.97 4.87
-22 10 1 346.11 4.95
-22 10 1 354.31 4.94
12 -22 1 350.29 4.79
-22 10 4 531.61 6.85
-22 10 4 540.74 6.77
-22 10 4 537.67 7.03
-22 10 7 169.37 3.27
-22 10 7 171.95 3.03
12 -22 7 174.79 3.38
11 -22 -9 3.5 0.38
-22 11 -9 3.45 0.46
-22 11 -9 3.73 0.43
11 -22 -6 42.13 1.52
-11 -11 6 42.65 1.46
-22 11 -6 45.16 1.67
-22 11 -3 59.83 2.05
-11 -11 3 69.64 1.69
11 -22 -3 66.66 1.8
-22 11 -3 63.57 1.74
11 -22 -3 67.81 1.72
-22 11 -3 60.86 1.82
-22 11 0 10.32 0.7
-22 11 0 11.14 0.69
-11 -11 0 9.73 0.67
-22 11 0 10.27 0.74
11 -22 0 10 0.64
-22 11 3 11.83 0.74
11 -22 3 10.61 0.69
-22 11 3 11.81 0.81
-22 11 6 26.02 1.24
-22 11 6 25.91 1.12
11 -22 6 27.11 1.26
-22 11 9 8.93 0.55
11 -22 9 9.3 0.53
10 -22 -7 6.84 0.62
-22 12 -7 6.49 0.74
-22 12 -7 7.67 0.72
-22 12 -4 0.29 0.3
10 -22 -4 0.83 0.32
-12 -10 4 0.24 0.22
10 -22 -4 0.69 0.25
-22 12 -1 24.25 1
-22 12 -1 22.92 1.03
-22 12 -1 23.3 1.19
10 -22 -1 24.03 1
10 -22 -1 24.19 0.96
-22 12 -1 24.69 1.1
-22 12 2 65.39 1.8
-22 12 2 61.66 1.76
-22 12 2 61.79 1.84
10 -22 2 61.62 1.67
-22 12 2 64.01 1.75
-22 12 5 31.69 1.37
-22 12 5 32.67 1.33
-22 12 5 33.26 1.27
-22 12 8 3.09 0.44
10 -22 8 3.39 0.43
9 -22 -8 226.08 3.52
-22 13 -8 230.69 3.85
-13 -9 5 214.33 3.58
9 -22 -5 208.55 3.63
-22 13 -5 211.35 3.89
-22 13 -2 1.64 0.36
-22 13 -2 2.24 0.45
-22 13 -2 1.81 0.35
-13 -9 2 2.32 0.32
9 -22 -2 2.4 0.36
9 -22 -2 1.75 0.31
-22 13 -2 2.36 0.36
-22 13 1 317.27 4.62
-22 13 1 329.67 4.75
-22 13 1 330.41 4.72
9 -22 1 323.81 4.55
9 -22 1 321.15 4.46
-22 13 4 642.55 7.96
-22 13 4 657.44 7.64
-22 13 4 639.08 8
-22 13 4 630.19 7.66
-22 13 7 245.47 4.07
9 -22 7 250.31 4.2
9 -22 7 252.45 4.11
8 -22 -9 4.9 0.39
14 8 -9 5.41 0.5
-14 -8 9 4.97 0.41
-22 14 -9 4.72 0.51
-22 14 -9 4.66 0.45
8 -22 -6 12.21 0.78
-22 14 -6 9.76 0.89
-14 -8 6 12.56 0.79
-22 14 -6 12.51 0.88
-22 14 -3 6.8 0.59
-22 14 -3 6.59 0.74
-14 -8 3 6.62 0.53
8 -22 -3 6.06 0.54
-22 14 -3 6.44 0.61
8 -22 -3 8.87 0.6
-22 14 -3 5.8 0.55
8 -22 -3 6.69 0.57
-22 14 0 5.7 0.52
8 -22 0 5.63 0.51
8 -22 0 5.68 0.48
-22 14 0 5.97 0.44
-22 14 0 6.09 0.56
-22 14 3 30.87 1.27
-22 14 3 28.47 1.17
-22 14 3 28.52 1.24
8 -22 3 28.64 1.12
-22 14 3 28.2 1.13
-22 14 6 10.3 0.78
8 -22 9 0.27 0.2
-22 14 9 0.63 0.19
7 -22 -7 39.57 1.33
-22 15 -7 38.58 1.6
-22 15 -7 41.68 1.55
7 -22 -4 55.63 1.61
-15 -7 4 55.46 1.6
7 -22 -4 58.17 1.6
-22 15 -4 53.61 1.76
-22 15 -4 56.4 1.75
-22 15 -1 9.65 0.63
-22 15 -1 9.58 0.69
-22 15 -1 8.99 0.78
7 -22 -1 8.8 0.63
7 -22 -1 10.69 0.62
-22 15 -1 8.64 0.58
-22 15 -1 9.19 0.69
-22 15 2 6.17 0.58
7 -22 2 6.67 0.56
-22 15 2 6.58 0.57
-22 15 2 7.56 0.63
-22 15 5 13.34 0.87
-22 15 5 12.63 0.85
7 -22 5 13.84 0.87
-22 15 8 1.33 0.31
7 -22 8 1.83 0.36
6 -22 -8 231.52 3.37
-16 -6 8 234.31 3.58
-22 16 -8 237.95 3.8
6 -22 -5 180.86 3.19
-22 16 -5 188.08 3.57
-22 16 -2 12.83 0.93
-22 16 -2 11.77 0.77
6 -22 -2 11.21 0.72
-16 -6 2 13.27 0.75
6 -22 -2 11.78 0.64
-22 16 -2 11.58 0.76
-22 16 -2 12.69 0.77
-22 16 1 503.85 6.42
6 -22 1 495.07 6.28
-22 16 1 499.76 6.5
-22 16 4 605.41 7.57
-22 16 4 599.59 7.34
-16 -6 -4 592.37 7.23
6 -22 4 603.79 7.4
22 -16 -4 602.72 7.33
-22 16 7 149.82 2.87
22 -16 -7 148.95 2.82
6 -22 7 150.57 2.97
-17 -5 9 35.11 1.03
-22 17 -9 34.37 1.24
5 -22 -6 43.53 1.37
-22 17 -6 43.82 1.6
-17 -5 3 10.15 0.67
-22 17 -3 8.8 0.83
5 -22 -3 9.3 0.68
5 -22 -3 8.38 0.54
-22 17 -3 8.28 0.68
-22 17 -3 8.7 0.68
-22 17 -3 8.81 0.69
5 -22 -3 9.46 0.62
-22 17 0 31.34 1.18
-17 -5 0 31.6 1.17
5 -22 0 30.23 1.18
-22 17 0 30.87 1.04
-17 -5 0 33.42 1.17
-22 17 0 33.79 1.32
5 -22 0 31.09 1.05
-22 17 3 103.41 2.44
5 -22 3 103.68 2.25
5 -22 3 98.88 2.22
-22 17 3 103.42 2.37
22 -17 -6 40.61 1.44
-22 17 6 41.85 1.47
5 -22 6 41.15 1.51
5 -22 6 41.67 1.5
5 -22 9 0.41 0.21
4 -22 -7 25.09 0.93
-18 -4 7 27.27 1.14
-22 18 -7 26.62 1.2
-22 18 -7 28.36 1.2
-18 -4 4 75.21 1.96
4 -22 -4 74.23 1.85
4 -22 -4 68.17 1.69
-22 18 -4 70.65 2.01
-22 18 -4 69.38 2.02
-18 -4 1 18.54 0.91
-22 18 -1 20.03 1.11
-22 18 -1 19.05 0.9
4 -22 -1 20.2 0.97
-18 -4 1 18.2 0.9
22 -18 1 18.73 0.84
-22 18 2 15.78 0.9
4 -22 2 17.09 0.9
-22 18 2 16.37 0.92
22 -18 -2 17.89 0.85
-22 18 5 55.68 1.71
-18 -4 -5 52.62 1.71
4 -22 5 52.38 1.66
22 -18 -5 55.21 1.72
4 -22 8 30.06 1.11
22 -18 -8 29.34 1.02
-19 -3 8 96.24 2.02
-22 19 -8 92.78 1.98
-19 -3 5 51.73 1.65
-22 19 -5 52.57 1.71
-19 -3 2 8.71 0.64
-19 -3 2 8.75 0.65
-22 19 -2 8.1 0.73
3 -22 -2 6.87 0.62
-19 -3 2 9.42 0.69
-22 19 -2 7.59 0.63
-22 19 -2 9.6 0.7
-22 19 1 169.89 3.13
-19 -3 -1 160.79 2.97
3 -22 1 165.29 3.08
-19 -3 -1 170.66 3.04
22 -19 -1 168.73 2.92
-22 19 4 237.84 4.1
-19 -3 -4 243.83 4.01
3 -22 4 235.24 3.73
22 -19 -4 252.04 4.03
-22 19 4 230.64 3.87
3 -22 4 246.32 3.86
3 -22 7 85.62 2.09
22 -19 -7 87.02 2.05
-20 -2 6 3.21 0.47
-22 20 -6 3 0.46
22 -20 6 2.79 0.42
-20 -2 3 53.61 1.62
-22 20 -3 48.33 1.64
2 -22 -3 48.46 1.54
-20 -2 3 50.83 1.64
-22 20 -3 51.07 1.61
-22 20 -3 48.39 1.65
-22 20 0 185.4 3.24
-22 20 0 191.28 3.59
-20 -2 0 177.95 3.26
2 -22 0 188.25 3.34
-20 -2 0 190.79 3.3
22 -20 0 184.91 3.15
-22 20 0 181.4 3.01
-22 20 3 139.62 2.94
-20 -2 -3 141.98 2.8
-22 20 3 133.78 2.82
2 -22 3 139.83 2.74
2 -22 3 135.86 2.56
-20 -2 -3 131.96 2.47
-20 -2 -6 14.34 0.93
2 -22 6 14.15 0.86
22 -20 -6 13.38 0.84
-21 -1 7 14.11 0.8
-21 -1 7 14.25 0.81
-22 21 -7 13.66 0.75
-21 -1 4 107.46 2.49
1 -22 -4 107.5 2.33
-21 -1 4 110.39 2.56
-22 21 -4 112.72 2.49
-22 21 -1 134.29 2.89
1 -22 -1 138.78 2.8
-21 -1 1 135 2.75
22 -21 1 140.98 2.7
-22 21 -1 133.02 2.67
-22 21 2 14.63 0.89
-21 -1 -2 13.33 0.79
1 -22 2 14.4 0.85
22 -21 -2 13.6 0.79
-21 -1 -5 32.87 1.38
1 -22 5 33.48 1.29
-21 -1 -5 30.2 1.13
1 -22 5 33.64 1.25
22 -21 -5 34.03 1.35
1 -22 8 61.65 1.52
22 -21 -8 60.55 1.45
-22 0 8 74.03 1.65
-22 0 8 71.48 1.6
-22 0 5 60.27 1.82
-22 22 -5 60.39 1.73
-22 0 2 1.91 0.37
-22 0 2 2.64 0.38
0 -22 -2 1.76 0.38
-22 0 2 1.72 0.39
-22 22 -2 1.54 0.36
-22 22 1 123.83 2.64
-22 0 -1 125.85 2.62
0 -22 1 120.66 2.63
22 -22 -1 124.91 2.52
-22 0 -4 181.14 3.46
0 -22 4 171.72 3.08
0 -22 4 181.27 3.18
0 -22 4 177.3 3.04
-22 0 -4 167.63 3
22 -22 -7 56.59 1.55
-23 1 -6 1.65 0.31
22 -23 -6 1.96 0.39
-23 1 -6 1.91 0.46
-23 1 -3 180.18 3.41
-1 -22 3 180.75 3.26
-1 -22 3 181.41 3.09
22 -23 -3 179.55 3.21
-23 1 0 346.91 5.05
-1 -22 0 357.75 5.16
-23 1 0 343.23 5.07
-23 1 0 346.02 5.11
22 -23 0 356.03 4.94
-1 -22 -3 139.82 2.82
-23 1 3 141.07 2.92
-23 1 3 139.11 2.92
-23 1 6 0.19 0.27
-23 1 6 0.28 0.29
-2 -21 7 6.26 0.55
-23 2 -7 6.63 0.52
21 -23 -7 7.7 0.6
-23 2 -4 42.51 1.61
-2 -21 4 40.94 1.37
-2 -21 4 44.25 1.43
-23 2 -4 42.19 1.41
-23 2 -1 252.13 4.17
-2 -21 1 243.88 4.01
21 -23 -1 244.13 3.85
-23 2 2 228.76 3.91
-2 -21 -2 230.46 3.86
-23 2 2 229.68 3.84
-23 2 2 227.04 3.92
-23 2 5 35.52 1.41
-23 2 8 4.42 0.42
-23 2 8 4.4 0.41
-3 -20 8 3.34 0.38
20 -23 -8 3.53 0.39
-23 3 -5 29.49 1.42
-3 -20 5 28.86 1.17
-23 3 -5 26.56 1.15
20 -23 -5 27.31 1.22
-23 3 -2 29.14 1.31
-3 -20 2 27.28 1.18
-3 -20 2 28.16 1.03
-23 3 -2 26.74 1.15
20 -23 -2 29.11 1.17
-3 -20 -1 0.57 0.3
-23 3 1 1.1 0.35
-23 3 4 36.23 1.45
-3 -20 -4 35.68 1.28
-23 3 7 64.18 1.76
-23 3 7 62.95 1.67
20 -23 7 64.17 1.71
-23 4 -6 0.45 0.27
-23 4 -6 0.26 0.34
19 -23 -6 0.24 0.29
-4 -19 6 0.59 0.3
-4 -19 3 173.14 3.15
-4 -19 3 178.42 3.02
-23 4 -3 167.67 3.12
19 -23 -3 172.79 3.15
-23 4 -3 172.14 3.2
-23 4 0 438.32 6.11
-4 -19 0 423.52 5.79
-23 4 0 424.26 5.89
-23 4 0 411.81 5.72
19 -23 0 434.93 5.69
-23 4 3 192.31 3.58
-4 -19 -3 190.44 3.39
-23 4 3 185.85 3.32
-23 4 6 1.82 0.41
-23 4 6 2.27 0.43
19 -23 6 2.24 0.45
18 -23 -7 36.67 1.33
-23 5 -7 33.31 1.26
-23 5 -7 34.83 1.3
-5 -18 4 3.19 0.43
18 -23 -4 2.84 0.46
-5 -18 1 44.86 1.51
18 -23 -1 45.37 1.46
-23 5 -1 45.3 1.5
-23 5 2 104.79 2.5
-5 -18 -2 107.63 2.43
-23 5 2 105.1 2.38
-23 5 5 44.95 1.64
-23 5 5 44.41 1.57
-23 5 8 0.47 0.25
18 -23 8 0.86 0.23
-23 5 8 0.57 0.23
18 -23 8 0.3 0.24
17 -23 -8 35.92 1.21
-23 6 -8 37.88 1.28
-6 -17 8 35.82 1.19
-23 6 -8 35.68 1.22
17 -23 -5 212.76 3.79
-23 6 -5 215.9 4.24
-6 -17 5 208.71 3.54
-23 6 -5 207.91 3.77
-23 6 -2 274.43 4.69
-6 -17 2 265.22 4.17
-6 -17 2 275.49 3.84
17 -23 -2 271.3 4.12
-23 6 -2 269.37 4.18
-23 6 -2 277.43 4.29
-6 -17 -1 45.02 1.51
17 -23 1 46.08 1.51
-23 6 1 45.49 1.5
-6 -17 -4 37.23 1.31
-23 6 4 39.66 1.53
-23 6 4 36.09 1.28
17 -23 4 36.69 1.26
-23 6 4 36.91 1.43
-23 6 4 36.95 1.4
-23 6 7 105.25 2.4
-23 6 7 102.59 2.24
17 -23 7 103.8 2.4
-23 7 -9 51.82 1.33
16 -23 -9 49.55 1.23
16 -23 -6 5.56 0.6
-7 -16 6 5.4 0.54
-23 7 -6 6.32 0.63
-7 -16 3 83.41 2.01
-23 7 -3 80.92 2.39
-7 -16 3 84.01 1.91
-23 7 -3 79.74 2
-23 7 -3 81.25 2.13
-23 7 0 280.27 4.34
-7 -16 0 284.93 4.36
16 -23 0 289.51 4.26
-23 7 3 157.29 3.1
-23 7 3 161.59 3.25
-7 -16 -3 164.07 3.05
-23 7 3 162.57 3.16
-23 7 3 165.91 3.05
-23 7 6 6.92 0.67
-23 7 6 6.73 0.63
16 -23 6 7.14 0.67
-23 7 9 13.92 0.55
-23 7 9 14.72 0.67
-23 8 -7 57.4 2.05
-23 8 -7 61.73 1.85
-8 -15 4 26.57 1.09
15 -23 -4 27.71 1.1
-23 8 -4 26.28 1.22
-23 8 -1 12.14 0.77
-8 -15 1 13.14 0.8
-23 8 -1 12.62 0.9
-23 8 2 108.08 2.44
-23 8 2 103.77 2.5
-23 8 2 105.18 2.37
-8 -15 -2 110.24 2.42
-23 8 2 105.78 2.43
-23 8 5 66.57 2.02
-23 8 5 67.39 1.92
-23 8 8 4.54 0.47
15 -23 8 5.05 0.46
-23 8 8 3.97 0.4
15 -23 8 4.13 0.49
-9 -14 8 70.29 1.74
-23 9 -8 70.74 1.87
14 -23 -5 345.81 5.16
-23 9 -5 335.57 5.72
-9 -14 5 354.52 4.96
-23 9 -5 352.95 5.3
-9 -14 2 358.72 4.99
-23 9 -2 361.02 5.09
-23 9 -2 353.27 5.63
14 -23 -2 357.77 4.93
-23 9 -2 372.74 5.24
-23 9 1 25.58 1.11
-9 -14 -1 25.29 1.11
-23 9 1 25.05 1.1
-23 9 1 25.78 1.15
-23 9 4 113.51 2.56
-23 9 4 110.41 2.65
-23 9 4 113.97 2.55
-23 9 4 108.25 2.34
-23 9 7 217.41 3.74
-23 9 7 216.76 3.48
14 -23 7 212.37 3.75
-23 10 -9 5.65 0.52
13 -23 -9 5.72 0.44
13 -23 -6 3.2 0.48
-10 -13 6 2.85 0.43
-23 10 -6 3.65 0.6
-23 10 -3 88.25 2.14
-10 -13 3 92.31 2.02
13 -23 -3 93.46 2.11
13 -23 -3 91.86 2.11
13 -23 -3 88.51 2.17
-23 10 0 197.25 3.41
-10 -13 0 203.22 3.47
-23 10 0 202.38 3.51
-23 10 0 207.45 3.66
13 -23 0 208.4 3.38
-23 10 3 94.74 2.39
-23 10 3 96.63 2.24
13 -23 3 90.46 2.12
-23 10 3 97.33 2.3
-23 10 6 3.32 0.52
13 -23 6 3.11 0.49
-23 10 6 2.88 0.43
-23 10 9 5.84 0.44
13 -23 9 5.52 0.38
12 -23 -7 22.26 1.04
-23 11 -7 18.2 1.15
12 -23 -4 31.11 1.26
-11 -12 4 29.43 1.16
12 -23 -4 32.49 1.18
-23 11 -4 29.38 1.29
-23 11 -1 2.09 0.36
12 -23 -1 2.03 0.36
-23 11 -1 2.23 0.37
12 -23 -1 1.96 0.34
-23 11 2 33.36 1.28
-23 11 2 32.58 1.35
-23 11 2 34.48 1.29
-23 11 2 34.65 1.31
12 -23 2 32.62 1.21
-23 11 5 62.03 1.94
-23 11 5 64.11 1.84
12 -23 5 63.89 1.94
-23 11 8 21.75 0.96
12 -23 8 22.18 0.95
-23 11 8 19.55 0.77
11 -23 -8 77.49 1.81
-23 12 -8 74.93 1.95
11 -23 -5 376.7 5.35
-12 -11 5 372.75 5.18
-23 12 -5 369.16 5.56
-23 12 -2 450.37 6.64
-12 -11 2 456.64 5.55
11 -23 -2 471.56 5.9
-23 12 -2 445.8 6
11 -23 -2 457.64 5.78
-23 12 -2 457.66 6.14
-23 12 1 83.93 2.06
-23 12 1 88.14 2.18
11 -23 1 86.53 2.06
11 -23 1 83.96 1.99
-23 12 1 91.13 2.21
-23 12 4 73.99 2.07
-23 12 4 74.32 2.12
-23 12 4 70.4 1.86
-23 12 4 76.63 1.99
-23 12 7 255.21 4.12
11 -23 7 255.98 4.22
-23 12 7 258.34 3.78
10 -23 -9 0.08 0.17
-13 -10 9 0.13 0.16
10 -23 -6 6.78 0.61
-23 13 -6 6.73 0.74
-13 -10 6 7.05 0.61
-23 13 -6 6.05 0.64
-23 13 -3 31.95 1.52
-13 -10 3 33.53 1.17
10 -23 -3 32.34 1.2
-23 13 -3 30.47 1.23
10 -23 -3 31.64 1.17
-23 13 -3 31.13 1.3
10 -23 -3 33.23 1.25
-23 13 0 31.78 1.19
-23 13 0 33.41 1.29
10 -23 0 29.61 1.16
10 -23 0 30.34 1.11
-23 13 3 1.65 0.41
-23 13 3 1.72 0.37
-23 13 3 2.85 0.45
-23 13 3 2.62 0.38
10 -23 3 2.04 0.37
-23 13 6 6 0.61
10 -23 6 5.1 0.59
-23 13 6 6.86 0.57
-23 13 9 8.09 0.47
10 -23 9 8.92 0.5
9 -23 -7 14.23 0.8
-23 14 -7 12.63 0.94
-23 14 -7 14.47 0.91
9 -23 -4 52.69 1.61
-14 -9 4 54.74 1.59
9 -23 -4 54.69 1.56
-23 14 -4 51.3 1.72
-23 14 -1 48 1.46
-23 14 -1 46.84 1.74
-23 14 -1 45.94 1.55
9 -23 -1 47.16 1.48
9 -23 -1 50.02 1.41
-23 14 -1 46.48 1.35
-23 14 -1 49.04 1.58
-23 14 2 0.88 0.3
9 -23 2 0.61 0.26
-23 14 5 25.04 1.21
-23 14 5 23.27 1.04
9 -23 5 24.5 1.16
-23 14 8 26.27 1.01
9 -23 8 27.62 1.06
8 -23 -8 69.99 1.61
-15 -8 8 71.79 1.68
-23 15 -8 71.89 1.86
8 -23 -5 418.56 5.64
-23 15 -5 428.28 6.05
-23 15 -2 458.68 6.77
-23 15 -2 471.75 6.3
8 -23 -2 474.63 6.05
-15 -8 2 485.79 5.95
8 -23 -2 474.9 5.8
-23 15 -2 474.21 6.08
-23 15 -2 471.94 6.25
-23 15 1 41.72 1.43
8 -23 1 43.61 1.43
-23 15 1 43.89 1.53
-23 15 4 140.54 2.97
8 -23 4 135.13 2.61
-23 15 4 137.25 2.69
-23 15 4 137.39 2.75
8 -23 4 141.33 2.87
-23 15 7 297.34 4.48
8 -23 7 306.52 4.55
-16 -7 9 5.76 0.4
-23 16 -9 5.88 0.53
7 -23 -6 29.38 1.13
-23 16 -6 26.72 1.36
-23 16 -6 30.36 1.33
-23 16 -3 54.62 1.71
7 -23 -3 57.15 1.63
7 -23 -3 56.74 1.5
-23 16 -3 55.7 1.75
-23 16 -3 60.69 1.78
-23 16 -3 53.12 1.98
-23 16 0 22.48 1.01
-23 16 0 22.84 1.1
7 -23 0 23.3 1.04
7 -23 0 22.82 0.93
-23 16 0 22.66 0.89
-23 16 3 11.12 0.8
-23 16 3 11.59 0.77
7 -23 3 12.56 0.76
-23 16 3 12.41 0.76
-23 16 6 62.88 1.85
7 -23 6 61.63 1.85
23 -16 -6 60.98 1.72
7 -23 9 25.9 0.84
6 -23 -7 6.11 0.49
-17 -6 7 6.54 0.55
-23 17 -7 5.8 0.62
-23 17 -7 5.67 0.58
-17 -6 4 54.85 1.6
6 -23 -4 55.88 1.59
6 -23 -4 53.71 1.42
-23 17 -4 51.78 1.71
-23 17 -4 54.22 1.75
6 -23 -4 54.87 1.54
-23 17 -1 67.15 2.09
-23 17 -1 64.94 1.89
6 -23 -1 61.86 1.75
-17 -6 1 62.41 1.67
6 -23 -1 63.18 1.55
-23 17 -1 62.25 1.64
-23 17 2 2.69 0.43
-23 17 2 2.73 0.45
6 -23 2 3.28 0.44
23 -17 -2 2.08 0.33
-23 17 5 18.2 1
6 -23 5 16.11 0.92
23 -17 -5 17.46 0.93
6 -23 8 16.21 0.8
23 -17 -8 15.21 0.67
-18 -5 8 52.27 1.4
-23 18 -8 49.89 1.42
-18 -5 5 259.62 4.07
-23 18 -5 260.86 4.3
-23 18 -2 225.07 4.19
-23 18 -2 218.55 3.85
5 -23 -2 216.8 3.64
-18 -5 2 222.59 3.62
-23 18 -2 214.12 3.65
-23 18 -2 221.21 3.73
-23 18 1 5.22 0.59
-23 18 1 5.71 0.57
23 -18 -1 5.38 0.47
-23 18 4 118.65 2.71
-18 -5 -4 116.02 2.46
5 -23 4 110.3 2.34
5 -23 4 112.36 2.45
5 -23 7 199.57 3.39
23 -18 -7 196.03 3.21
-19 -4 6 86.38 2.11
-23 19 -6 78.84 2.22
-23 19 -6 85.06 2.18
4 -23 -6 77.91 1.73
-23 19 -3 65.96 1.93
-19 -4 3 67.75 1.79
4 -23 -3 69.52 1.85
-19 -4 3 72.07 1.93
-23 19 -3 65.62 1.87
-23 19 -3 66.23 1.93
-23 19 0 9.17 0.66
-19 -4 0 8.68 0.66
-23 19 0 11.86 0.87
4 -23 0 8.47 0.68
-19 -4 0 11.76 0.73
23 -19 0 8.66 0.59
-23 19 3 21.89 1.07
-19 -4 -3 20.98 0.96
-23 19 3 18.63 1.02
4 -23 3 18.44 0.94
4 -23 3 18.75 0.9
4 -23 6 47.5 1.56
23 -19 -6 46.29 1.5
-20 -3 7 2.66 0.39
-23 20 -7 3.75 0.44
-20 -3 4 18.54 0.96
3 -23 -4 19.52 0.94
-20 -3 4 18.07 0.99
-23 20 -4 18.37 0.98
-23 20 -1 118.07 2.48
-20 -3 1 117.68 2.53
-23 20 -1 126.96 2.92
3 -23 -1 117.85 2.57
-20 -3 1 122.02 2.54
23 -20 1 119.12 2.39
-23 20 2 107.46 2.51
3 -23 2 106.76 2.4
-23 20 2 105.59 2.5
23 -20 -2 106.16 2.26
3 -23 2 105.06 2.13
-20 -3 -5 6.23 0.62
23 -20 -5 5.33 0.56
3 -23 5 5.93 0.58
3 -23 5 5.92 0.56
3 -23 8 13.65 0.7
-21 -2 8 13.2 0.65
-21 -2 8 12.11 0.65
-21 -2 5 80.28 2.07
-21 -2 5 77.27 2.08
-23 21 -5 79.44 2.05
-21 -2 2 108.99 2.36
-21 -2 2 108.23 2.41
-23 21 -2 106.95 2.62
2 -23 -2 110.19 2.46
-21 -2 2 110.23 2.47
-23 21 -2 113.65 2.54
-23 21 1 29.65 1.22
-21 -2 -1 26.21 1.13
2 -23 1 29.01 1.22
23 -21 -1 28.98 1.11
-21 -2 -4 14.66 0.88
2 -23 4 13.81 0.79
2 -23 4 14.11 0.83
2 -23 4 15.47 0.82
23 -21 -7 71.97 1.73
-22 -1 6 114.65 2.44
-23 22 -6 111.52 2.3
-22 -1 3 23.55 1.08
1 -23 -3 23.55 1.08
-22 -1 3 23.37 1.12
-23 22 0 43.38 1.53
-22 -1 0 41.31 1.46
1 -23 0 41.63 1.48
-22 -1 0 41.8 1.45
23 -22 0 42.5 1.38
-22 -1 -3 182.08 3.3
1 -23 3 181.03 3.26
1 -23 3 187.13 3.17
23 -22 -3 184.42 3.24
1 -23 3 178.78 2.99
1 -23 6 119.2 2.46
-23 0 7 1.39 0.32
-23 0 7 1.78 0.34
-23 0 4 22.93 1.11
0 -23 -4 25.2 1.06
-23 0 4 23 1.13
-23 0 1 141.26 2.78
-23 0 1 138.06 2.86
0 -23 -1 143.24 2.92
-23 0 1 139.99 2.86
23 -23 1 143.78 2.79
-23 23 -1 133.67 2.73
0 -23 2 130.66 2.74
0 -23 2 131.92 2.43
23 -23 -2 130.45 2.61
-23 0 -5 12.19 0.83
0 -23 5 13.48 0.79
-23 0 -5 10.64 0.64
23 -23 -8 9.76 0.52
-1 -23 7 52.71 1.38
23 -24 -7 52.55 1.36
-24 1 -4 26.61 1.22
-1 -23 4 25.38 1.05
-1 -23 4 25.81 1.05
23 -24 -4 27.59 1.14
-24 1 -1 8.17 0.66
-1 -23 1 9.77 0.74
23 -24 -1 9.53 0.68
-1 -23 -2 124.22 2.69
-24 1 2 123.73 2.7
-24 1 5 133.98 2.75
22 -24 -8 17.59 0.69
-24 2 -5 8.55 0.74
-2 -22 5 8.86 0.64
22 -24 -5 7.97 0.64
-24 2 -5 7.98 0.6
-24 2 -2 4.42 0.54
-2 -22 2 3.6 0.49
-2 -22 2 3.91 0.41
22 -24 -2 3.36 0.45
-24 2 1 50.71 1.65
-2 -22 -1 49.63 1.64
-24 2 1 52.34 1.67
-24 2 1 49.44 1.64
22 -24 1 47.8 1.55
-24 2 4 44.24 1.56
-2 -22 -4 45.75 1.45
-24 2 7 3.05 0.4
-24 2 7 3.79 0.43
22 -24 7 2.76 0.36
-24 3 -6 181.42 3.54
-3 -21 6 175.5 3.06
21 -24 -6 180.3 3.19
-3 -21 3 45.35 1.5
-3 -21 3 47.04 1.4
21 -24 -3 47.5 1.51
-24 3 -3 46.4 1.49
-24 3 0 44.55 1.58
-3 -21 0 44.21 1.55
-24 3 0 43.05 1.5
-24 3 0 42.42 1.53
21 -24 0 44.45 1.46
-24 3 3 230.11 3.98
-3 -21 -3 233.37 3.85
-24 3 3 225.25 3.95
-24 3 6 142.26 2.83
-24 3 6 136.57 2.72
21 -24 6 135.48 2.75
-24 4 -7 76.05 2.13
-4 -20 7 70.35 1.73
20 -24 -7 73.21 1.8
-4 -20 4 80.56 1.98
-24 4 -4 86.35 2.41
-4 -20 4 86.59 2.03
20 -24 -4 84.94 2.1
-24 4 -4 83.11 2.1
-24 4 -1 15.01 0.96
-4 -20 1 13 0.85
-24 4 -1 13.86 0.83
20 -24 -1 13.46 0.81
-24 4 2 21.46 1.09
-4 -20 -2 19.07 1.03
-24 4 2 21.71 1.05
-24 4 2 22.46 1.11
-24 4 5 63.76 1.93
-24 4 5 61.74 1.84
-24 4 8 31.15 0.98
19 -24 -8 8.55 0.55
-24 5 -5 10.35 0.87
-5 -19 5 9.74 0.69
-24 5 -5 9.2 0.71
19 -24 -5 9.84 0.75
-24 5 -2 90.25 2.44
-5 -19 2 90.96 2.21
-24 5 -2 84.69 2.13
19 -24 -2 90.38 2.13
-5 -19 -1 117.04 2.6
-24 5 1 116.41 2.62
19 -24 1 115.55 2.52
-24 5 1 111.55 2.52
-24 5 4 27.49 1.27
-5 -19 -4 26.48 1.1
-24 5 4 27.47 1.24
-24 5 7 3.13 0.41
19 -24 7 2.54 0.4
-24 6 -6 145.96 3.33
-6 -18 6 148.83 2.81
-24 6 -6 140.88 2.89
18 -24 -6 151.1 2.97
-6 -18 3 33.17 1.26
-6 -18 3 32.35 1.16
-24 6 -3 32.16 1.24
18 -24 -3 34.39 1.28
-24 6 -3 32.14 1.3
-6 -18 0 74.36 2.03
-24 6 0 72.39 2.16
-24 6 0 72.41 2.05
18 -24 0 76.77 1.95
-24 6 0 73.86 1.98
-24 6 3 292.93 4.7
-6 -18 -3 296.62 4.48
-24 6 3 287 4.58
-24 6 3 287.27 4.41
-24 6 6 159.57 3.04
18 -24 6 161.25 3.17
-24 7 -7 42.91 1.67
-7 -17 7 41.54 1.35
-24 7 -7 43.19 1.45
17 -24 -7 43.65 1.43
-7 -17 4 98.94 2.2
17 -24 -4 102.25 2.22
-24 7 -4 97.1 2.38
17 -24 -4 100.56 2.39
-7 -17 1 54.91 1.68
-24 7 -1 55.44 1.9
17 -24 -1 56.99 1.64
-24 7 -1 55.31 1.69
-24 7 2 0.96 0.29
-24 7 2 0.89 0.34
-24 7 2 1 0.31
-7 -17 -2 0.31 0.28
-24 7 2 0.66 0.32
-24 7 5 44.94 1.56
-24 7 8 39.15 1.23
17 -24 8 39.68 1.13
-24 7 8 38.5 1.11
17 -24 8 41.06 1.25
-24 8 -8 24.48 1.03
-24 8 -8 22.06 0.94
-8 -16 5 28.02 1.14
-24 8 -5 27.22 1.25
-24 8 -2 302.16 4.59
-8 -16 2 309.73 4.58
-24 8 -2 307.57 5.13
-24 8 -2 311.58 4.73
-24 8 1 400.55 5.59
-8 -16 -1 405.58 5.62
-24 8 1 401.58 5.67
16 -24 1 404.3 5.52
-24 8 1 399.48 5.59
16 -24 4 79.29 1.92
-24 8 4 83.95 2.19
-24 8 7 9.14 0.7
-24 8 7 8.89 0.63
16 -24 7 10.22 0.73
-24 9 -6 74.47 2.39
-9 -15 6 77.74 1.95
-24 9 -6 78.05 2.15
-24 9 -3 27.92 1.4
-24 9 -3 25 1.11
-9 -15 3 27.91 1.06
15 -24 -3 29.58 1.15
15 -24 -3 28.9 1.16
-24 9 -3 28.33 1.24
-9 -15 0 23.91 1.13
-24 9 0 23.28 1.1
-24 9 0 23.9 1.16
-24 9 0 25.32 1.12
15 -24 3 150.38 2.84
-24 9 3 153.71 3.05
-24 9 3 145.8 2.9
-24 9 6 105.77 2.54
15 -24 6 107.44 2.53
-24 9 6 106 2.37
14 -24 -7 14.06 0.82
-24 10 -7 13.22 0.99
-10 -14 7 14.62 0.81
-10 -14 4 73.87 1.86
14 -24 -4 76.98 1.88
14 -24 -4 71.29 1.99
-10 -14 1 83.24 2.09
-24 10 -1 82.13 2.38
-24 10 -1 85.27 2.14
14 -24 -1 86.93 2.06
-24 10 2 11.28 0.78
-10 -14 -2 12.34 0.8
-24 10 2 11.88 0.78
-24 10 2 11.2 0.78
14 -24 2 12.4 0.77
-24 10 5 10.55 0.81
-24 10 5 10.2 0.75
-24 10 8 23.88 0.97
14 -24 8 24.8 0.94
-24 10 8 23.19 0.82
13 -24 -8 26.85 1
13 -24 -5 43.09 1.51
-11 -13 5 43.99 1.46
13 -24 -2 376.34 5.12
13 -24 -2 379.05 5.07
-24 11 1 457.35 6.21
-24 11 1 478.4 6.28
-24 11 1 479.69 6.36
-11 -13 -1 473.3 6.23
13 -24 1 482.31 6.15
13 -24 1 475.41 6.09
-24 11 4 110.37 2.58
-24 11 4 113.47 2.7
13 -24 4 112.97 2.34
-24 11 4 114.96 2.55
-24 11 7 8.86 0.7
-24 11 7 8.62 0.6
13 -24 7 8.04 0.68
-24 12 -9 13.68 0.72
12 -24 -9 12.62 0.56
12 -24 -6 3.26 0.46
-24 12 -6 3.43 0.59
-12 -12 6 3.04 0.44
-24 12 -6 3.16 0.49
-24 12 -3 9.2 0.85
-24 12 -3 8.4 0.66
-12 -12 3 9.41 0.63
12 -24 -3 8.79 0.65
12 -24 -3 10.26 0.68
-24 12 -3 7.98 0.7
12 -24 -3 9.63 0.7
-24 12 0 68.17 1.86
12 -24 0 68.1 1.84
-24 12 0 70.41 1.96
12 -24 0 72.03 1.81
-24 12 3 86.68 2.24
-24 12 3 91.27 2.37
-24 12 3 89.92 2.2
12 -24 3 93.13 2.15
-24 12 3 90.71 2.23
-24 12 6 33.07 1.37
-24 12 6 35.65 1.28
12 -24 6 32.35 1.34
-24 12 9 1.09 0.21
12 -24 9 1.14 0.21
-24 13 -7 2.02 0.42
11 -24 -7 1.32 0.31
-24 13 -7 1.53 0.46
-13 -11 4 54.65 1.59
11 -24 -4 54.48 1.56
-24 13 -4 49.72 1.71
11 -24 -4 52.41 1.54
11 -24 -4 54.83 1.66
-24 13 -1 134.14 2.71
-24 13 -1 140.43 3.2
11 -24 -1 141.72 2.75
11 -24 -1 145.61 2.69
-24 13 -1 142.26 2.94
-24 13 2 87.62 2.23
11 -24 2 91.45 2.16
-24 13 2 89.65 2.22
-24 13 2 92.27 2.27
-24 13 5 4.26 0.55
-24 13 5 4.48 0.5
-24 13 8 11.82 0.68
11 -24 8 11.33 0.66
-14 -10 8 26.6 0.91
-24 14 -8 26.65 1.07
10 -24 -8 26.03 0.81
10 -24 -8 25.86 0.93
10 -24 -5 49.99 1.58
-14 -10 5 51 1.56
-24 14 -5 49.05 1.71
-24 14 -2 472.21 6.98
10 -24 -2 486.23 6.22
10 -24 -2 486.47 6.01
-24 14 -2 493.11 6.5
-24 14 -2 484.32 6.41
-24 14 1 721.68 8.56
10 -24 1 717.95 8.33
-24 14 1 716.42 8.48
10 -24 1 704.58 8.1
-24 14 4 210.42 3.84
10 -24 4 208.17 3.42
-24 14 4 212.41 3.59
-24 14 7 3.58 0.46
10 -24 7 3.18 0.48
10 -24 7 3.68 0.5
9 -24 -6 4.36 0.48
-15 -9 6 4.27 0.46
-24 15 -6 3.95 0.62
-24 15 -6 5.21 0.59
9 -24 -6 4.26 0.42
-24 15 -3 41.01 1.73
9 -24 -3 43.57 1.41
9 -24 -3 41.92 1.31
-24 15 -3 42.99 1.5
-24 15 -3 39.27 1.39
-24 15 -3 41.34 1.51
-24 15 0 74.86 1.95
-24 15 0 73.08 2.05
9 -24 0 71.57 1.93
9 -24 0 73.71 1.81
-24 15 3 35.95 1.42
9 -24 3 36.95 1.32
-24 15 3 37.81 1.36
-24 15 3 38.31 1.41
-24 15 6 1.04 0.36
-24 16 -7 1.12 0.33
8 -24 -7 1.14 0.29
-16 -8 7 1.59 0.32
-24 16 -7 1.57 0.42
8 -24 -7 1.17 0.24
8 -24 -4 7.39 0.59
8 -24 -4 7.79 0.6
8 -24 -4 7.15 0.54
-24 16 -4 8.32 0.71
-24 16 -1 37.3 1.59
-24 16 -1 41.6 1.52
8 -24 -1 39.13 1.38
8 -24 -1 37.84 1.23
-24 16 -1 36.77 1.24
-24 16 2 26.94 1.21
-24 16 2 29.7 1.26
8 -24 2 29.43 1.19
-24 16 2 28.28 1.17
-24 16 5 0.74 0.31
8 -24 5 0.58 0.3
8 -24 8 19.88 0.86
-17 -7 8 40.31 1.15
-24 17 -8 38.7 1.23
-17 -7 5 35.55 1.26
-24 17 -5 35.43 1.42
7 -24 -5 34.13 1.21
-24 17 -2 369.23 5.82
7 -24 -2 364.01 5.09
-24 17 -2 360.13 5.33
-17 -7 2 372.31 5.01
7 -24 -2 362.19 4.72
-24 17 -2 359.41 5.08
-24 17 -2 355.15 5.2
-24 17 1 372.51 5.34
7 -24 1 372.96 5.24
-24 17 1 383.41 5.51
7 -24 4 54.35 1.57
7 -24 4 53.46 1.66
7 -24 7 25.05 1.08
-18 -6 6 21.03 0.96
-24 18 -6 18.96 1.1
-24 18 -6 20.3 1.04
6 -24 -6 18.96 0.84
-24 18 -3 95.5 2.38
6 -24 -3 103.4 2.3
-18 -6 3 103.37 2.32
6 -24 -3 96.42 1.96
-24 18 -3 98.42 2.36
-24 18 -3 98.98 2.37
-24 18 0 123.37 2.59
-24 18 0 129.85 3.02
6 -24 0 128.25 2.66
-24 18 3 32.28 1.37
-24 18 3 30.34 1.27
6 -24 3 32.63 1.24
24 -18 -3 33.63 1.2
6 -24 3 33.84 1.25
6 -24 6 5.09 0.54
24 -18 -6 5.19 0.51
-19 -5 7 2.59 0.37
-24 19 -7 2.84 0.43
-19 -5 7 2.63 0.39
-24 19 -7 3.4 0.43
-19 -5 4 4.73 0.49
5 -24 -4 4.99 0.5
-19 -5 4 4.76 0.53
-24 19 -4 5 0.55
-24 19 -1 49.09 1.8
5 -24 -1 46.46 1.54
-24 19 -1 46.01 1.64
-19 -5 1 46.95 1.47
-24 19 -1 44.5 1.41
-24 19 2 57.94 1.83
-24 19 2 60.48 1.86
5 -24 2 59.97 1.76
24 -19 -2 62.45 1.63
5 -24 2 59.65 1.59
5 -24 5 18.7 0.96
5 -24 8 0.09 0.21
-20 -4 8 18.75 0.75
-20 -4 5 3.33 0.44
-24 20 -5 3.45 0.54
-20 -4 5 2.84 0.45
-24 20 -5 2.91 0.45
-24 20 -2 113.12 2.8
-24 20 -2 108.42 2.44
4 -24 -2 107.71 2.43
-24 20 -2 109.32 2.61
-20 -4 2 108.85 2.41
-24 20 1 216.87 3.79
4 -24 1 223.95 3.76
24 -20 -1 214.7 3.42
-24 20 1 212.39 3.87
-20 -4 -4 96.81 2.23
4 -24 4 99.05 2.2
4 -24 4 99.91 2.24
4 -24 7 0.6 0.29
-21 -3 6 52.74 1.55
-21 -3 6 52.53 1.59
-24 21 -6 52.75 1.57
-21 -3 3 94.35 2.16
3 -24 -3 93.84 2.22
-21 -3 3 91.32 2.24
-24 21 -3 91.68 2.22
-21 -3 0 24.09 1.09
-24 21 0 27.14 1.27
3 -24 0 24.48 1.13
-21 -3 0 25.48 1.09
24 -21 0 25.43 1.04
-21 -3 -3 6.11 0.56
3 -24 3 6.03 0.58
24 -21 -3 5.23 0.52
3 -24 3 6.56 0.53
3 -24 6 50.33 1.53
-22 -2 7 34.45 1.13
-22 -2 4 26.7 1.14
2 -24 -4 27.82 1.12
-22 -2 4 26.86 1.2
-24 22 -4 27.45 1.15
-22 -2 1 4.43 0.49
-24 22 -1 4.54 0.57
2 -24 -1 4.88 0.55
-22 -2 1 5.24 0.55
24 -22 1 5.69 0.52
-24 22 -1 4.5 0.49
2 -24 2 113.91 2.53
24 -22 -2 112 2.36
-22 -2 -5 119.93 2.59
2 -24 5 117.4 2.47
2 -24 5 116.55 2.39
2 -24 8 14.46 0.64
24 -22 -8 14.21 0.6
-23 -1 5 0.59 0.3
-23 -1 5 0.77 0.33
1 -24 -2 53.7 1.68
-23 -1 2 54.66 1.7
1 -24 1 107.59 2.49
24 -23 -1 105.87 2.3
-23 -1 -4 39.7 1.42
1 -24 4 38.69 1.3
1 -24 4 40.6 1.35
24 -23 -4 40.58 1.37
1 -24 4 38.62 1.25
1 -24 7 0.24 0.22
24 -23 -7 0.2 0.21
-24 0 6 217.55 3.42
24 -24 6 207.5 3.23
-24 0 3 373.48 5.28
0 -24 -3 385.86 5.31
-24 0 3 382.59 5.45
-24 0 0 118.77 2.47
0 -24 0 117.82 2.64
-24 0 0 112.71 2.54
24 -24 0 114.65 2.43
-24 0 -3 13.9 0.83
0 -24 3 13.65 0.83
0 -24 3 15.32 0.79
24 -24 -3 14.62 0.82
0 -24 6 125.1 2.37
24 -24 -6 123.26 2.35
-25 1 -5 64.76 1.82
-1 -24 5 63.21 1.62
24 -25 -5 62.65 1.66
-25 1 -2 65.15 1.8
-1 -24 2 67.87 1.9
24 -25 -2 66.32 1.76
-1 -24 -1 13.77 0.87
-25 1 1 14.07 0.88
-25 1 4 2.63 0.43
-1 -24 -4 3.15 0.4
-25 1 4 2.58 0.44
-25 1 7 13.37 0.65
-25 1 7 12.34 0.64
-25 2 -6 168.81 3.12
-2 -23 6 162.5 2.73
23 -25 -6 163.55 2.76
-25 2 -3 303.31 4.69
-2 -23 3 313.7 4.59
-2 -23 3 304.58 4.22
23 -25 -3 302.77 4.47
-25 2 0 127.91 2.73
-2 -23 0 125.87 2.76
-25 2 0 127.34 2.75
23 -25 0 124.7 2.57
-25 2 3 7.54 0.66
-2 -23 -3 7.98 0.68
-25 2 3 8.62 0.73
-25 2 6 144.32 2.7
-25 2 6 141.9 2.66
23 -25 6 140.84 2.59
-3 -22 7 20.66 0.84
22 -25 -7 19.67 0.82
-25 3 -4 85.22 2.28
-3 -22 4 81.27 1.95
-3 -22 4 84.96 1.95
22 -25 -4 82.53 2.02
-25 3 -4 79.48 1.94
-25 3 -1 107.63 2.54
-3 -22 1 104.81 2.47
22 -25 -1 106.12 2.34
-3 -22 -2 26.54 1.2
-25 3 2 26.06 1.2
-25 3 5 5.49 0.58
-25 3 5 5.2 0.57
21 -25 -8 13.95 0.6
-25 4 -5 11.13 0.87
-4 -21 5 10.79 0.69
-25 4 -5 9.48 0.67
21 -25 -5 10.37 0.72
-25 4 -2 0.41 0.33
-4 -21 2 0.35 0.29
21 -25 -2 0.23 0.25
-4 -21 -1 21.72 1.09
-25 4 1 19.22 1.01
-25 4 1 19.74 1.05
21 -25 1 19.39 0.98
-25 4 4 49.77 1.68
-4 -21 -4 50.17 1.52
-25 4 7 29.63 1.09
-25 4 7 29.29 1.04
21 -25 7 30.56 1.05
-5 -20 6 126.4 2.46
-25 5 -6 119.66 2.48
-5 -20 3 277.63 4.31
-5 -20 3 282.3 4.04
20 -25 -3 283.75 4.3
-25 5 -3 288.04 4.39
-5 -20 0 141.22 2.91
-25 5 0 138.54 3.04
-25 5 0 137.21 2.93
20 -25 0 137.66 2.76
-25 5 3 2.97 0.49
-5 -20 -3 3.39 0.49
-25 5 6 102.94 2.37
-25 5 6 100.95 2.26
20 -25 6 102.21 2.32
-25 6 -7 0.26 0.24
19 -25 -7 0.28 0.26
-25 6 -7 0.32 0.24
-6 -19 7 0.31 0.23
-25 6 -4 37.82 1.59
-6 -19 4 35.98 1.25
19 -25 -4 37.27 1.28
19 -25 -4 34.85 1.3
-25 6 -4 33.88 1.32
-6 -19 1 128.28 2.75
-25 6 -1 135.33 3.06
19 -25 -1 129.19 2.63
-6 -19 -2 108.56 2.5
-25 6 2 108.29 2.48
-25 6 5 14.06 0.9
-25 6 5 13.71 0.86
-25 6 8 6.07 0.47
19 -25 8 6.13 0.39
-25 6 8 6.84 0.44
-25 7 -8 82.48 1.69
18 -25 -8 77.3 1.57
-25 7 -5 70.39 2.25
-7 -18 5 70.51 1.82
-25 7 -5 69.9 1.95
18 -25 -5 71.86 1.97
-25 7 -2 1.38 0.33
-25 7 -2 0.38 0.35
-7 -18 2 0.81 0.33
18 -25 -2 0.48 0.27
-7 -18 -1 76.13 2.06
18 -25 1 76.85 2
-25 7 1 73.05 2.01
-25 7 4 125.65 2.85
18 -25 4 121.46 2.44
-25 7 4 125.86 2.76
-25 7 7 40.39 1.35
-25 7 7 40.27 1.26
18 -25 7 40.41 1.35
-8 -17 6 66.42 1.76
-25 8 -6 64.23 1.84
-8 -17 3 157.88 2.97
-25 8 -3 157.12 3.48
-8 -17 3 160.78 2.79
17 -25 -3 158.39 2.95
-25 8 -3 147.42 2.94
-25 8 -3 157.45 3.11
-25 8 0 64.5 1.87
-8 -17 0 64.59 1.89
-25 8 0 66.12 2.08
17 -25 0 65.41 1.81
-25 8 3 14.7 0.94
-8 -17 -3 13.04 0.82
-25 8 3 13.09 0.86
17 -25 3 12.78 0.78
-25 8 3 11.72 0.77
-25 8 6 117.43 2.64
-25 8 6 119.55 2.51
17 -25 6 124.31 2.68
-25 9 -7 4.73 0.62
-9 -16 7 5.59 0.51
-25 9 -7 5.33 0.54
-9 -16 4 6.27 0.54
16 -25 -4 5.9 0.54
16 -25 -4 6.17 0.57
-25 9 -4 6.01 0.6
-25 9 -1 59.35 1.78
-9 -16 1 58.33 1.76
-25 9 -1 59.49 1.99
-25 9 2 64.52 1.9
-25 9 2 65.03 1.88
-9 -16 -2 66.18 1.89
-25 9 2 64.39 1.9
-25 9 5 12.91 0.89
-25 9 5 12.46 0.82
-25 9 8 1.36 0.3
-25 9 8 1.6 0.26
-25 10 -8 128.82 2.46
15 -25 -8 113.84 2
-25 10 -8 117.83 2.28
15 -25 -8 124.04 2.19
-25 10 -5 81.85 2.5
-10 -15 5 86.1 2.05
-25 10 -5 84.74 2.23
15 -25 -5 87.94 2.19
-25 10 -2 5.69 0.55
-25 10 -2 6.6 0.72
15 -25 -2 6.55 0.59
15 -25 -2 6.07 0.55
-25 10 -2 4.98 0.56
-10 -15 -1 220.18 3.77
-25 10 1 213.09 3.73
-25 10 1 214.36 3.8
-25 10 4 291.9 4.76
15 -25 4 290.41 4.24
-25 10 4 294.49 4.57
-25 10 7 91.16 2.13
-25 10 7 90.31 1.94
15 -25 7 91.91 2.17
-25 11 -6 65.27 2.19
-11 -14 6 68.63 1.8
14 -25 -6 66.57 1.83
-25 11 -3 83.19 2.12
-11 -14 3 90.2 2
14 -25 -3 88.4 2.09
14 -25 -3 87.19 2.08
-25 11 0 33.73 1.32
-11 -14 0 34.63 1.34
-25 11 0 33.51 1.34
14 -25 0 34.4 1.3
14 -25 0 33.87 1.26
-25 11 3 2.98 0.5
-25 11 3 3.39 0.44
14 -25 3 4.24 0.49
-25 11 3 2.93 0.47
-25 11 6 35.03 1.39
-25 11 6 34.53 1.25
14 -25 6 35.08 1.38
-25 12 -7 17.88 1.08
13 -25 -7 19.11 0.81
13 -25 -7 19.26 0.9
-25 12 -4 0.36 0.31
13 -25 -4 0.07 0.25
-12 -13 4 0.2 0.23
13 -25 -4 0.44 0.26
13 -25 -4 1.17 0.3
-25 12 -1 61.17 2.06
-25 12 -1 62.95 1.85
13 -25 -1 62.65 1.77
13 -25 -1 65.12 1.73
-25 12 2 144.83 2.98
-25 12 2 149.18 2.99
13 -25 2 143.08 2.84
-25 12 2 141.88 2.94
-25 12 5 75.36 2.13
-25 12 5 70.9 1.91
-25 12 8 5.4 0.46
13 -25 8 4.85 0.43
12 -25 -8 141.63 2.17
-25 13 -8 145.57 2.61
12 -25 -8 147.84 2.39
-13 -12 5 114.8 2.43
-25 13 -5 117.87 2.7
12 -25 -5 112.36 2.33
12 -25 -5 117.96 2.52
-25 13 -2 1.89 0.4
-25 13 -2 2.59 0.52
12 -25 -2 2.38 0.42
-25 13 -2 1.45 0.36
12 -25 -2 1.22 0.31
-25 13 1 223.29 3.85
-25 13 1 239.47 4.01
12 -25 1 232.76 3.81
-25 13 1 227.42 3.97
12 -25 1 230.57 3.71
-25 13 4 375.78 5.62
12 -25 4 381.97 5.1
-25 13 4 375.2 5.31
-25 13 7 131.09 2.6
12 -25 7 133.69 2.6
-25 13 7 127.07 2.28
12 -25 7 132.94 2.66
-25 14 -6 31.07 1.48
-25 14 -6 32.59 1.34
11 -25 -6 32.96 1.12
11 -25 -6 32.24 1.21
-25 14 -3 4.93 0.66
-14 -11 3 3.64 0.43
-25 14 -3 4.04 0.48
11 -25 -3 4.59 0.5
11 -25 -3 4.26 0.47
-25 14 -3 4.92 0.56
-25 14 0 12.59 0.81
11 -25 0 13.37 0.82
11 -25 0 14.47 0.8
-25 14 0 13.82 0.89
-25 14 3 51.68 1.73
-25 14 3 51.89 1.64
11 -25 3 51.32 1.58
-25 14 3 52.02 1.64
-25 14 6 51.21 1.68
-25 14 6 54.08 1.51
-25 15 -7 24.6 1.22
10 -25 -7 26.8 0.89
-25 15 -7 27.68 1.16
10 -25 -7 27.72 1.01
10 -25 -4 7.75 0.6
10 -25 -4 6.63 0.54
-25 15 -4 6.48 0.65
-25 15 -1 15.57 0.93
-25 15 -1 15.19 1.02
10 -25 -1 16.38 0.9
10 -25 -1 16.28 0.83
-25 15 2 100.81 2.47
10 -25 2 102.56 2.34
-25 15 2 99.49 2.36
-25 15 2 104.19 2.49
-25 15 5 89.67 2.31
-25 15 5 87.1 2.06
10 -25 5 89.96 2.25
10 -25 8 10.34 0.6
-25 16 -8 173.49 2.84
9 -25 -5 141.63 2.52
-25 16 -5 145.54 3.03
9 -25 -5 142.25 2.7
-25 16 -2 3.47 0.48
-25 16 -2 4.82 0.64
9 -25 -2 4.55 0.51
-16 -9 2 4.46 0.45
-25 16 -2 4.06 0.52
-25 16 1 303.71 4.73
-25 16 1 312.59 4.85
9 -25 1 310.04 4.62
-25 16 4 421.79 5.56
9 -25 4 415.53 5.7
-25 16 7 128.77 2.5
9 -25 7 132.86 2.57
-17 -8 6 11.95 0.69
-25 17 -6 10.47 0.85
8 -25 -6 11.13 0.59
-25 17 -6 12.41 0.82
8 -25 -6 11.01 0.65
-25 17 -3 20.31 1.23
8 -25 -3 18.06 0.93
-17 -8 3 18.19 0.9
8 -25 -3 17.91 0.83
-25 17 -3 17.28 0.94
-25 17 -3 16.37 0.96
-25 17 -3 17.91 0.99
-25 17 0 143.17 2.88
-25 17 0 152.13 3.36
-25 17 0 142.7 3.05
8 -25 0 143.72 2.89
8 -25 0 145.37 2.64
8 -25 3 164.43 3.04
-25 17 3 157.98 2.99
-25 17 3 162.4 3.2
8 -25 6 42.65 1.46
8 -25 6 44.35 1.5
-18 -7 7 10 0.59
-25 18 -7 8.99 0.71
-25 18 -7 9.74 0.66
-25 18 -4 2.21 0.41
7 -25 -4 2.79 0.4
-18 -7 4 2.62 0.42
7 -25 -4 2.28 0.32
-25 18 -1 48.17 1.82
7 -25 -1 44.02 1.5
-18 -7 1 51.41 1.47
-25 18 -1 47.34 1.68
7 -25 -1 44.97 1.33
-25 18 -1 42.08 1.35
-25 18 2 71.85 2.07
-25 18 2 78.42 2.14
7 -25 2 76.04 1.99
7 -25 5 34.75 1.32
7 -25 8 3.22 0.36
-19 -6 8 95.18 1.71
-19 -6 8 96.47 1.83
-19 -6 5 103.23 2.2
-25 19 -5 97.37 2.6
-19 -6 5 101.09 2.32
-25 19 -5 99.31 2.38
-25 19 -2 1.48 0.41
-25 19 -2 2.44 0.38
6 -25 -2 1.99 0.39
6 -25 -2 1.66 0.29
-25 19 -2 1.64 0.35
-25 19 1 92.88 2.31
6 -25 1 99.78 2.34
-25 19 1 94.94 2.42
25 -19 -4 199.48 3.3
6 -25 4 194.84 3.35
6 -25 7 87.31 1.96
-20 -5 6 4.28 0.44
-25 20 -6 4.62 0.55
-20 -5 6 4.1 0.49
-25 20 -6 3.68 0.46
-25 20 -3 27.39 1.19
5 -25 -3 27.88 1.15
-20 -5 3 27.1 1.16
-25 20 0 95.32 2.52
-25 20 0 90.11 2.39
5 -25 0 91.79 2.26
-20 -5 0 93.51 2.11
5 -25 3 63.09 1.78
25 -20 -3 62.13 1.67
5 -25 3 61.15 1.65
5 -25 6 5.52 0.54
5 -25 6 5.7 0.54
-21 -4 7 26.4 0.95
-21 -4 7 26.82 1
-25 21 -7 24.65 0.92
-21 -4 4 41.16 1.36
4 -25 -4 43.19 1.38
-21 -4 4 43.28 1.49
-25 21 -4 42.5 1.47
-25 21 -1 17.52 1.05
4 -25 -1 16.21 0.92
-25 21 -1 15.93 0.98
-21 -4 1 16.83 0.88
25 -21 -2 4.03 0.45
4 -25 2 3.72 0.41
4 -25 5 41.48 1.39
25 -21 -5 39.71 1.33
4 -25 5 38.26 1.31
4 -25 8 27.63 0.88
25 -21 -8 27.53 0.8
-22 -3 5 87.45 2.03
-25 22 -5 84.58 2.17
-22 -3 5 89.2 2.16
-25 22 -5 89.26 2.09
-25 22 -2 40.68 1.58
3 -25 -2 43.35 1.49
-22 -3 2 41.71 1.44
-25 22 1 8.52 0.73
3 -25 1 8.6 0.7
25 -22 -1 8.67 0.62
-22 -3 -4 85.26 2.04
3 -25 4 84.09 1.98
3 -25 4 86.13 1.97
3 -25 4 87.25 2.05
25 -22 -4 88.27 2.05
25 -22 -7 60.6 1.43
-23 -2 6 0.69 0.28
-23 -2 6 0.61 0.29
-23 -2 3 145.76 2.79
2 -25 -3 149.21 2.89
-23 -2 3 153.5 3
-25 23 0 306.47 4.77
2 -25 0 295.75 4.63
-23 -2 0 300.84 4.5
25 -23 0 298.04 4.33
-23 -2 -3 100.27 2.22
2 -25 3 107.09 2.36
2 -25 3 103.35 2.18
25 -23 -3 104.62 2.26
2 -25 3 101.2 2.05
2 -25 6 0.84 0.28
25 -23 -6 0.45 0.26
-24 -1 7 27.54 0.91
-24 -1 4 46.79 1.47
1 -25 -4 48.52 1.44
-24 -1 4 47.33 1.56
1 -25 -1 18.42 1
-24 -1 1 17.12 0.94
1 -25 2 4.93 0.55
1 -25 2 5.15 0.45
25 -24 -2 4.7 0.49
-24 -1 -5 43.61 1.41
1 -25 5 40.27 1.29
25 -24 -5 41.15 1.31
-25 0 5 28.45 1.09
-25 0 5 28.89 1.15
0 -25 -2 0.84 0.31
-25 0 2 1.19 0.34
0 -25 1 25.82 1.17
25 -25 -1 24.35 1.05
-25 0 -4 35.26 1.27
0 -25 4 33.11 1.16
0 -25 4 35.33 1.17
25 -25 -4 32.82 1.19
0 -25 7 13.03 0.6
25 -25 -7 12.15 0.57
-1 -25 6 4.96 0.42
25 -26 -6 4.33 0.41
-26 1 -3 218.16 3.58
-1 -25 3 218.92 3.58
-1 -25 3 216.19 3.21
25 -26 -3 219.29 3.48
-26 1 0 475.38 6.05
-1 -25 0 488.94 6.43
25 -26 0 475.53 6.07
-1 -25 -3 238.09 3.76
-26 1 3 243.12 3.92
-26 1 6 4.56 0.43
25 -26 6 4.2 0.38
-2 -24 7 1.44 0.25
24 -26 -7 1.64 0.27
-26 2 -4 3.88 0.5
-2 -24 4 3.41 0.41
-2 -24 4 3.85 0.41
24 -26 -4 3.78 0.44
-26 2 -1 35.05 1.32
-2 -24 1 33.9 1.35
24 -26 -1 33.39 1.24
-2 -24 -2 48.6 1.6
-26 2 2 49.27 1.55
-26 2 2 52.16 1.67
-26 2 5 14.36 0.81
-26 3 -5 21.65 1.08
-3 -23 5 20.85 0.89
23 -26 -5 21.09 0.94
-3 -23 2 56.52 1.73
23 -26 -2 56.16 1.64
-3 -23 -1 36.61 1.42
-26 3 1 36.01 1.37
-26 3 1 35.85 1.41
-26 3 4 1.56 0.36
-3 -23 -4 1.79 0.32
23 -26 4 2.42 0.36
-26 3 7 4.71 0.42
-26 3 7 4.2 0.4
23 -26 7 4.33 0.36
-26 4 -6 0.78 0.24
-26 4 -6 1.55 0.41
-4 -22 6 0.67 0.26
22 -26 -6 0.81 0.29
-4 -22 3 111.98 2.45
-4 -22 3 112.67 2.19
22 -26 -3 112.18 2.4
-4 -22 0 340.21 5.1
-26 4 0 347.18 5.22
22 -26 0 341.67 4.91
-4 -22 -3 210.99 3.61
-26 4 6 8.52 0.63
-26 4 6 8.17 0.62
22 -26 6 7.82 0.59
-5 -21 7 20.09 0.81
21 -26 -7 20.09 0.81
-26 5 -4 4.93 0.6
-5 -21 4 4.52 0.46
21 -26 -4 4.86 0.48
21 -26 -4 3.96 0.48
-26 5 -4 4.38 0.49
-5 -21 1 9.39 0.74
-26 5 -1 9.31 0.76
21 -26 -1 9.22 0.68
-5 -21 -2 57.95 1.77
-26 5 2 56.8 1.8
-26 5 5 52.9 1.68
-26 5 5 52.63 1.63
-26 6 -5 54.61 1.89
-6 -20 5 54.6 1.52
20 -26 -5 54.01 1.57
-26 6 -5 49.52 1.54
-6 -20 2 65.74 1.87
-26 6 -2 66.51 2.08
20 -26 -2 62.69 1.77
-6 -20 -1 18.2 1
-26 6 1 17.23 1
20 -26 1 18.27 0.96
-26 6 4 2.25 0.44
-26 6 4 1.15 0.36
20 -26 4 1.56 0.32
-26 6 7 15.44 0.73
20 -26 7 16.03 0.78
-26 7 -6 0.89 0.3
-26 7 -6 0.69 0.36
-7 -19 6 0.66 0.27
-7 -19 3 102 2.33
-7 -19 3 104.02 2.13
19 -26 -3 105.23 2.33
-26 7 -3 104.25 2.4
-7 -19 0 265.61 4.34
-26 7 0 267.54 4.59
19 -26 0 270.98 4.19
-26 7 0 260.14 4.28
-26 7 3 115.56 2.73
-7 -19 -3 117.05 2.55
-26 7 3 121.09 2.69
19 -26 3 117.19 2.48
-26 7 6 0.66 0.3
19 -26 6 0.25 0.27
-26 8 -7 22.74 0.94
-8 -18 7 22.13 0.89
18 -26 -7 20.08 0.83
-26 8 -7 19.59 0.88
-8 -18 4 12.7 0.73
18 -26 -4 13.07 0.76
-26 8 -4 12.26 0.81
-26 8 -1 1.74 0.38
-26 8 -1 2.08 0.47
-8 -18 1 2.05 0.42
-8 -18 -2 55.94 1.74
-26 8 2 54.15 1.76
-26 8 5 76.04 2.01
-26 8 8 25 0.87
18 -26 8 24.18 0.76
-26 8 8 24.36 0.76
-26 9 -8 19.03 0.77
17 -26 -8 16.49 0.64
-9 -17 5 115.45 2.37
17 -26 -5 113.18 2.38
-26 9 -5 113.22 2.55
-9 -17 2 95.51 2.29
-26 9 -2 102.07 2.7
17 -26 -2 99.29 2.3
-9 -17 -1 0.69 0.32
-26 9 1 1.43 0.39
17 -26 1 1.13 0.32
17 -26 4 62.53 1.67
-26 9 4 61.65 1.84
-26 9 7 87.81 2
-26 9 7 86.36 1.82
17 -26 7 89.35 2.02
-26 10 -6 0.94 0.31
16 -26 -6 0.83 0.31
-26 10 -6 0.87 0.39
-10 -16 6 0.74 0.28
16 -26 -6 0.58 0.27
-26 10 -3 69.11 2.25
-10 -16 3 74.3 1.76
16 -26 -3 72.38 1.89
-26 10 -3 69.35 1.98
16 -26 -3 69.57 1.86
-26 10 0 160.05 3.2
-10 -16 0 166.34 3.21
-26 10 0 165.1 3.52
16 -26 3 93.23 2.17
-26 10 3 89.15 2.28
-26 10 6 2.91 0.46
-26 10 6 3.65 0.46
16 -26 6 2.58 0.44
-26 11 -7 32.92 1.39
15 -26 -7 33.22 1.05
-26 11 -7 32.66 1.21
15 -26 -7 34.35 1.15
-11 -15 4 54.51 1.55
15 -26 -4 55.53 1.57
15 -26 -4 52.21 1.56
-26 11 -1 10.54 0.76
15 -26 -1 12.01 0.78
15 -26 -1 12 0.76
-26 11 2 14.13 0.89
-26 11 2 15.32 0.9
-26 11 2 15.05 0.92
15 -26 2 15.42 0.87
-26 11 5 58.78 1.87
-26 11 5 58.47 1.72
15 -26 5 61.19 1.83
-26 11 8 32.88 1.02
15 -26 8 34.14 0.99
-26 12 -8 36.97 1.2
14 -26 -8 32.29 0.87
-26 12 -5 177.22 3.8
-12 -14 5 187.05 3.17
14 -26 -5 180.53 3.1
14 -26 -5 183.39 3.27
14 -26 -2 167.22 3.09
14 -26 -2 172.23 3.05
-26 12 1 5.84 0.58
-26 12 1 6.47 0.62
-26 12 1 6.93 0.67
14 -26 1 7.06 0.62
14 -26 1 7.59 0.63
-26 12 4 70.82 2.09
14 -26 4 71.63 1.81
-26 12 4 71.9 1.96
-26 12 7 137.33 2.61
-26 12 7 136.16 2.34
14 -26 7 140.58 2.66
-26 13 -6 32.66 1.49
13 -26 -6 33.76 1.12
-26 13 -6 32.22 1.29
13 -26 -6 34.02 1.21
-26 13 -3 88.06 2.61
-13 -13 3 90.83 1.99
13 -26 -3 91.55 2.14
13 -26 -3 89.55 2.07
-26 13 -3 87.45 2.25
-26 13 0 72.51 1.99
-26 13 0 77.24 2.31
-26 13 0 71.01 2.03
13 -26 0 74.51 1.97
13 -26 0 76.67 1.94
13 -26 3 15.85 0.88
-26 13 3 16.79 0.94
-26 13 6 1.39 0.36
-26 13 6 2.06 0.35
13 -26 6 2.03 0.4
-26 14 -7 61.53 1.89
12 -26 -7 59.3 1.36
-26 14 -7 61.29 1.68
12 -26 -7 62.78 1.53
-14 -12 4 135.04 2.61
12 -26 -4 135.89 2.58
-26 14 -4 131.45 2.87
-26 14 -1 77.75 2.35
12 -26 -1 77.97 2.02
-26 14 -1 72.89 2.06
12 -26 -1 78.11 1.92
-26 14 2 0.52 0.27
-26 14 2 0.12 0.24
12 -26 2 0.58 0.27
-26 14 2 0.44 0.28
-26 14 5 45.37 1.61
-26 14 5 45.94 1.47
12 -26 5 44.39 1.54
12 -26 8 45.74 1.2
-15 -11 8 53.83 1.26
11 -26 -5 277.95 3.94
-26 15 -5 283.3 4.49
-26 15 -2 308.85 5.27
11 -26 -2 314.22 4.61
11 -26 -2 312.22 4.37
-26 15 1 24.3 1.13
11 -26 1 24.87 1.12
-26 15 1 25.17 1.19
11 -26 4 81.72 1.95
-26 15 4 81.73 2.06
11 -26 4 86.15 2.17
11 -26 7 167.9 2.87
11 -26 7 158.01 2.87
-26 16 -6 68.27 2.13
10 -26 -6 67.8 1.52
-26 16 -6 73.07 1.95
-26 16 -3 86.9 2.59
10 -26 -3 93.6 2.17
-16 -10 3 92.66 2.05
10 -26 -3 88.03 1.98
-26 16 -3 87.34 2.25
-26 16 0 11.6 0.83
-26 16 0 10.33 0.74
-26 16 0 11.47 0.91
10 -26 0 9.96 0.74
10 -26 0 11.8 0.71
10 -26 3 18.26 0.93
-26 16 3 19.24 0.98
10 -26 6 49.17 1.56
-26 17 -7 21.12 1.04
-17 -9 7 21.43 0.88
-26 17 -7 21.54 0.95
9 -26 -4 40.2 1.34
-17 -9 4 39.25 1.34
9 -26 -4 37.22 1.19
-26 17 -4 38.03 1.44
-26 17 -1 8.49 0.72
-26 17 -1 10.3 0.87
9 -26 -1 9.44 0.72
9 -26 -1 9.57 0.63
9 -26 2 18.39 0.96
-26 17 2 18.01 1.01
9 -26 5 74.41 1.96
9 -26 8 53.05 1.27
-18 -8 8 27.6 0.88
-26 18 -5 182.69 3.76
-18 -8 5 203.61 3.37
8 -26 -5 189.29 2.87
-26 18 -5 196.79 3.5
-26 18 -2 218.29 4.23
8 -26 -2 218.54 3.69
-18 -8 2 216.46 3.47
8 -26 -2 217.46 3.32
-26 18 1 20.55 1.05
-26 18 1 18.28 1.04
8 -26 1 18.99 0.99
8 -26 4 48.65 1.47
8 -26 4 50.78 1.58
8 -26 7 120.44 2.3
26 -18 -7 119.56 2.06
-19 -7 6 94.17 1.92
-26 19 -6 91.38 2.34
-19 -7 6 94.94 2.09
-26 19 -6 92.53 2.15
7 -26 -3 61.58 1.74
-19 -7 3 60.71 1.7
7 -26 -3 58.28 1.45
-26 19 -3 60.25 1.79
-26 19 0 4.95 0.62
7 -26 0 3.69 0.5
-26 19 0 4.55 0.54
7 -26 3 91.42 2.17
7 -26 3 93.85 2.14
26 -19 -6 88.05 1.87
7 -26 6 85.9 2.02
-26 20 -7 21.25 0.9
-20 -6 7 21.05 0.86
-26 20 -7 19.96 0.83
6 -26 -4 41.19 1.34
-20 -6 4 39.81 1.39
-26 20 -4 38.07 1.39
-26 20 -1 8.02 0.76
6 -26 -1 7.72 0.66
-20 -6 1 9.96 0.65
6 -26 2 8.36 0.67
26 -20 -2 9.17 0.6
6 -26 2 10.06 0.64
6 -26 5 27.92 1.14
26 -20 -5 29.26 1.09
6 -26 5 28.77 1.14
-21 -5 5 87.75 1.93
-26 21 -5 86.57 2.28
-21 -5 5 89.37 2.1
-26 21 -5 86.85 2.09
-26 21 -2 217.68 4.08
5 -26 -2 208.61 3.62
-21 -5 2 211.32 3.53
-26 21 1 106.89 2.65
5 -26 1 107.2 2.46
26 -21 -1 103.44 2.14
5 -26 4 1.3 0.33
5 -26 4 0.46 0.27
26 -21 -4 1.01 0.3
5 -26 4 0.94 0.3
26 -21 -7 40.29 1.08
-22 -4 6 57.57 1.44
-22 -4 6 57.76 1.55
-26 22 -6 57.18 1.5
4 -26 -3 5.25 0.55
-22 -4 3 5.18 0.54
-26 22 0 61.3 1.94
4 -26 0 59.33 1.8
-22 -4 0 59.36 1.65
26 -22 0 56.38 1.54
4 -26 3 162.54 3.02
4 -26 3 156.08 2.83
26 -22 -3 165.11 2.89
4 -26 3 157.91 2.74
4 -26 6 85.29 1.91
26 -22 -6 89.94 1.87
-23 -3 7 9.38 0.5
-23 -3 7 8.91 0.55
-23 -3 4 63.34 1.65
3 -26 -4 63.91 1.67
-23 -3 4 66.56 1.82
-26 23 -1 89.79 2.34
3 -26 -1 92.3 2.28
-23 -3 1 96.44 2.22
3 -26 2 32.4 1.29
3 -26 2 31.44 1.08
26 -23 -2 31.09 1.16
3 -26 5 1.29 0.32
26 -23 -5 1.43 0.32
-24 -2 5 34.37 1.15
-24 -2 5 34.84 1.25
2 -26 -2 82.25 2.09
-24 -2 2 82.15 2.06
-26 24 1 35.69 1.36
2 -26 1 34.12 1.35
26 -24 -1 34.23 1.21
-24 -2 -4 0.51 0.27
2 -26 4 0.72 0.26
2 -26 4 0.53 0.25
26 -24 -4 1.02 0.3
2 -26 7 17.46 0.7
26 -24 -7 18.28 0.67
-25 -1 6 155.97 2.52
-25 -1 6 157.81 2.64
1 -26 -3 19.44 0.95
-25 -1 3 20.2 1
1 -26 0 112.83 2.54
26 -25 0 109.64 2.29
-25 -1 -3 298.82 4.26
1 -26 3 311.71 4.48
1 -26 3 303.11 4.11
26 -25 -3 309.17 4.34
1 -26 6 139.53 2.34
26 -25 -6 137.95 2.3
0 -26 -4 24.74 0.96
-26 0 4 24.65 1.06
0 -26 -1 20.99 1.05
-26 0 1 22.04 1.04
0 -26 2 3.81 0.49
26 -26 -2 3.92 0.45
0 -26 5 1.68 0.28
26 -26 -5 1.57 0.3
-27 1 -4 5.17 0.49
-1 -26 4 5.07 0.41
26 -27 -4 5.31 0.44
26 -27 -4 5.49 0.49
-1 -26 1 0.07 0.28
26 -27 -1 -0.01 0.27
-1 -26 -2 8.01 0.64
-27 1 2 7.01 0.62
-27 1 5 10.41 0.65
26 -27 5 10.14 0.59
-27 2 -5 13.54 0.76
-2 -25 5 12.17 0.62
25 -27 -5 13.37 0.69
-27 2 -2 0.19 0.25
-2 -25 2 0.39 0.28
25 -27 -2 0.69 0.28
-2 -25 -1 7.87 0.69
-27 2 1 7.77 0.61
-27 2 1 7.68 0.65
-27 2 4 12.55 0.78
25 -27 4 11.96 0.64
-3 -24 6 114.32 2.02
24 -27 -6 115.25 2.08
-27 3 -3 8.42 0.66
-3 -24 3 7.92 0.65
-3 -24 3 7.5 0.5
24 -27 -3 7.8 0.6
-27 3 0 108.4 2.44
-3 -24 0 112.96 2.55
24 -27 0 106.96 2.33
-3 -24 -3 337.69 4.77
-27 3 3 337.56 4.96
-27 3 6 196.63 2.99
24 -27 6 184.74 2.85
-4 -23 7 7.23 0.44
23 -27 -7 7.15 0.44
-27 4 -4 12.48 0.85
-4 -23 4 11.68 0.65
23 -27 -4 12.26 0.7
23 -27 -4 12.52 0.75
-27 4 -1 4.26 0.53
-4 -23 1 3.8 0.52
23 -27 -1 4.55 0.5
-4 -23 -2 4.15 0.51
-27 4 2 4.26 0.51
-27 4 2 4.16 0.54
-27 4 5 21.36 0.99
-27 4 5 20.89 0.98
-27 5 -5 0.23 0.31
-5 -22 5 0.52 0.23
22 -27 -5 0.38 0.26
-5 -22 2 21.65 1.06
-27 5 -2 24.25 1.18
22 -27 -2 22.29 1.02
-5 -22 -1 54.01 1.72
-27 5 1 51.77 1.72
-27 5 1 50.88 1.7
22 -27 4 28.12 1.04
-27 5 4 28.2 1.2
-27 5 7 2.3 0.32
-27 5 7 2.39 0.31
22 -27 7 1.84 0.27
-27 6 -6 161.11 3.11
-6 -21 6 156.08 2.59
21 -27 -6 154.19 2.61
-6 -21 3 29.17 1.18
-6 -21 3 31.3 1.05
21 -27 -3 30.45 1.18
-6 -21 0 54.99 1.77
-27 6 0 59.37 1.9
21 -27 0 56.11 1.67
-6 -21 -3 238.72 3.88
21 -27 3 241.15 3.8
-27 6 6 150.24 2.76
21 -27 6 152.73 2.71
-7 -20 7 12.44 0.62
-27 7 -4 49.44 1.79
-7 -20 4 49.04 1.39
20 -27 -4 50.2 1.44
20 -27 -4 49.4 1.5
-27 7 -4 46.34 1.5
-7 -20 1 36.68 1.41
-27 7 -1 37.46 1.54
20 -27 -1 39.27 1.37
-7 -20 -2 0.92 0.34
-27 7 5 23.04 1.1
-27 7 5 23.66 1.06
-27 8 -5 1.06 0.3
-27 8 -5 1.63 0.46
-8 -19 5 2 0.35
-8 -19 2 44.61 1.52
-27 8 -2 46.5 1.75
19 -27 -2 43.22 1.44
-8 -19 -1 65.22 1.93
-27 8 4 14.49 0.91
19 -27 4 14.24 0.77
-27 8 4 15.22 0.89
-27 8 7 1 0.28
-27 8 7 1.12 0.25
19 -27 7 1.38 0.29
-9 -18 6 90.39 1.93
18 -27 -6 89.41 1.92
-27 9 -6 85.99 2.03
-9 -18 3 5.79 0.49
18 -27 -3 7.24 0.59
-9 -18 0 79.05 2.13
-27 9 0 76.02 2.26
18 -27 0 72.1 1.94
18 -27 3 203.62 3.44
-27 9 3 200.72 3.65
-27 9 6 99.4 2.26
-27 9 6 99.63 2.12
18 -27 6 103.07 2.26
-27 10 -7 0.72 0.26
-27 10 -7 1.01 0.37
17 -27 -7 1 0.24
-10 -17 4 27.87 1.06
17 -27 -4 29.19 1.1
17 -27 -4 27.61 1.12
-27 10 -4 26.38 1.17
-27 10 -1 59.27 2.03
17 -27 -1 57.04 1.71
-27 10 2 22.04 1.11
17 -27 2 24.56 1.1
-27 10 5 1.3 0.39
-27 10 5 1.27 0.34
17 -27 5 1.62 0.39
-27 11 -5 22.71 1.26
-11 -16 5 23.88 0.98
16 -27 -5 22.28 0.97
-27 11 -5 22.45 1.07
-27 11 -2 165.65 3.58
16 -27 -2 163.55 3.06
16 -27 -2 163.31 3.01
-27 11 1 165.67 3.29
16 -27 1 159.65 3.08
-27 11 4 23.23 1.16
16 -27 4 22.44 0.97
-27 11 4 22.18 1.08
-27 11 7 9.68 0.63
-27 11 7 9.47 0.54
16 -27 7 9.48 0.63
-27 12 -6 49.41 1.78
15 -27 -6 47.5 1.33
-12 -15 3 2.81 0.36
15 -27 -3 3.87 0.46
15 -27 -3 3.33 0.44
-27 12 0 26.84 1.22
15 -27 0 25.45 1.15
15 -27 0 26.91 1.14
15 -27 3 70.23 1.86
-27 12 3 71.09 1.98
-27 12 6 33.77 1.29
-27 12 6 31.57 1.12
15 -27 6 33.41 1.24
-27 13 -7 0.11 0.3
14 -27 -7 0.2 0.18
-13 -14 4 60.18 1.6
14 -27 -4 62.18 1.66
14 -27 -4 59.45 1.63
14 -27 -1 153.88 2.98
14 -27 -1 153.03 2.86
14 -27 2 86.26 2.13
-27 13 2 84.8 2.22
-27 13 5 3.28 0.5
-27 13 5 4.6 0.5
14 -27 8 11.65 0.55
-27 14 -8 20.66 0.85
-14 -13 8 19.13 0.65
-27 14 -5 12.13 0.94
13 -27 -5 12.56 0.7
-27 14 -5 13.16 0.84
-27 14 -2 177.3 3.78
13 -27 -2 184.47 3.3
13 -27 -2 183.43 3.16
13 -27 1 213.57 3.67
13 -27 4 29.7 1.12
-27 14 4 30.23 1.22
13 -27 7 16.65 0.79
13 -27 7 17.08 0.82
-27 15 -6 0.89 0.31
-27 15 -6 0.96 0.41
12 -27 -6 0.52 0.22
12 -27 -3 43.3 1.43
12 -27 -3 40.51 1.31
-27 15 -3 40.13 1.49
-27 15 0 119.12 2.66
-27 15 0 126.94 3.06
12 -27 0 131.24 2.72
-27 15 0 118.24 2.75
12 -27 0 129.21 2.56
12 -27 3 94.04 2.18
-27 15 3 92.34 2.26
-27 15 6 15.45 0.73
-27 16 -7 0.83 0.28
-27 16 -7 0.6 0.31
-16 -11 7 0.66 0.24
11 -27 -4 43.84 1.38
-16 -11 4 41.94 1.31
11 -27 -4 40.85 1.26
-27 16 -4 40.16 1.46
-27 16 -1 158.98 3.53
11 -27 -1 148.83 2.98
11 -27 -1 156.38 2.83
11 -27 2 120.41 2.59
-27 16 5 9.39 0.63
11 -27 5 8.76 0.69
-27 17 -5 17.94 1.09
-17 -10 5 20.3 0.91
10 -27 -5 18.86 0.78
-27 17 -5 18.89 0.98
-27 17 -2 251.88 4.63
10 -27 -2 242.7 3.95
10 -27 -2 243.89 3.67
10 -27 1 305.8 4.64
10 -27 4 55.68 1.55
10 -27 4 56.22 1.68
10 -27 7 6.43 0.51
-27 18 -6 16.85 0.98
-18 -9 6 17.73 0.83
-27 18 -6 17.64 0.89
9 -27 -3 149.12 2.85
-18 -9 3 147.61 2.7
9 -27 -3 140.73 2.51
-27 18 0 137.25 3.17
9 -27 0 141.16 2.87
9 -27 3 10.8 0.73
9 -27 3 10.18 0.69
9 -27 6 12.84 0.75
-27 19 -7 1.96 0.35
-19 -8 7 1.89 0.29
-27 19 -7 1.72 0.31
8 -27 -4 56.47 1.56
-19 -8 4 58.04 1.61
8 -27 -4 51.89 1.32
-27 19 -4 56.4 1.71
-27 19 -1 87.65 2.5
8 -27 -1 84.03 2.15
8 -27 -1 84.26 1.86
8 -27 2 24.47 1.11
27 -19 -5 1.71 0.31
8 -27 5 1.86 0.37
-27 20 -5 1.45 0.34
-27 20 -5 1.11 0.38
-20 -7 5 1.28 0.34
-27 20 -2 107.6 2.79
7 -27 -2 103.74 2.37
-20 -7 2 107.45 2.25
7 -27 -2 103.27 2.01
-27 20 1 224.17 4.15
7 -27 1 223.39 3.81
7 -27 4 105.27 2.2
27 -20 -4 109.38 2.17
7 -27 4 105.29 2.25
27 -20 -7 2.36 0.27
-27 21 -6 28.4 1.12
-21 -6 6 28.6 1.04
-27 21 -6 28.96 1.05
6 -27 -3 100.41 2.25
-21 -6 3 99.98 2.22
-27 21 0 62.69 2.01
6 -27 0 61.09 1.82
6 -27 3 0.66 0.29
27 -21 -3 0.42 0.24
6 -27 3 0.38 0.24
6 -27 6 49.94 1.4
27 -21 -6 48.25 1.25
-22 -5 7 4.4 0.39
5 -27 -4 22.53 0.96
-22 -5 4 23.33 1.03
-27 22 -1 97.78 2.53
5 -27 -1 95.58 2.3
-22 -5 1 99.22 2.17
5 -27 2 72.06 1.94
27 -22 -2 70.16 1.71
5 -27 5 7.76 0.59
27 -22 -5 8.78 0.58
5 -27 5 7.82 0.56
-27 23 -5 4.52 0.5
-23 -4 5 5.64 0.53
4 -27 -2 28.28 1.19
-23 -4 2 28.9 1.15
-27 23 1 127.37 2.8
4 -27 1 125.08 2.69
27 -23 -1 124.36 2.39
4 -27 4 75.01 1.77
4 -27 4 78.01 1.83
27 -23 -4 77.51 1.8
4 -27 4 77.35 1.74
4 -27 7 5.03 0.39
27 -23 -7 5.15 0.35
-24 -3 6 120.08 2.19
3 -27 -3 227.01 3.66
-24 -3 3 234.88 3.72
-27 24 0 65.55 1.9
3 -27 0 65.09 1.88
3 -27 3 22.15 1.01
3 -27 3 21.7 0.89
27 -24 -3 23.72 0.97
3 -27 6 116.84 2.09
27 -24 -6 115.8 2.01
2 -27 -4 7.51 0.55
-25 -2 4 7.68 0.61
2 -27 -1 51.06 1.62
-25 -2 1 50.13 1.53
2 -27 2 37.88 1.35
27 -25 -2 36.76 1.22
2 -27 5 3.83 0.39
27 -25 -5 3.37 0.38
-26 -1 5 0.29 0.24
27 -26 5 0.42 0.21
1 -27 -2 14.83 0.86
-26 -1 2 14.93 0.84
1 -27 1 38.68 1.39
27 -26 -1 36.27 1.22
1 -27 4 22.01 0.87
1 -27 4 23.72 0.86
27 -26 -4 22.8 0.91
-27 0 6 131.77 2.15
0 -27 -3 262.02 3.86
-27 0 3 263.99 3.97
0 -27 0 87.74 2.17
0 -27 3 17.96 0.88
27 -27 -3 20.38 0.87
0 -27 6 148.23 2.15
27 -27 -6 142.6 2.14
27 -28 -5 8.75 0.5
-1 -27 2 29.18 1.14
27 -28 -2 26.99 1.01
-1 -27 -1 31.19 1.21
-28 1 4 7.14 0.55
27 -28 4 6.66 0.44
-2 -26 6 197.35 2.59
26 -28 -6 194.52 2.66
-28 2 -3 301.79 4.2
-2 -26 3 299.16 4.23
26 -28 -3 304.87 4.17
-28 2 0 70.9 1.74
-2 -26 0 72.66 1.95
-2 -26 -3 22.41 0.96
-28 2 3 22.97 1.02
26 -28 6 116.33 1.8
-28 3 -4 6.99 0.57
25 -28 -4 6.38 0.47
25 -28 -4 6.95 0.54
-3 -25 1 13.59 0.84
25 -28 -1 13.77 0.78
-3 -25 -2 7.84 0.63
-28 3 2 7.12 0.58
-28 3 2 7.66 0.65
25 -28 5 0.29 0.22
-28 4 -5 16.1 0.85
-4 -24 5 16.7 0.7
24 -28 -5 16.11 0.76
-4 -24 2 2.82 0.44
24 -28 -2 2.78 0.41
-4 -24 -1 3.75 0.51
-28 4 1 3.72 0.48
24 -28 4 10.39 0.6
-28 5 -6 190.43 3.14
-5 -23 6 186.98 2.71
23 -28 -6 180.46 2.76
-28 5 -3 303.58 4.63
23 -28 -3 293.96 4.26
23 -28 -3 296.19 4.29
-5 -23 0 94.06 2.33
-28 5 0 97.5 2.37
23 -28 0 95.95 2.19
-5 -23 -3 19.02 0.94
23 -28 3 18.26 0.89
-28 5 6 155.65 2.56
23 -28 6 150.93 2.5
-6 -22 7 3.51 0.32
22 -28 -7 3.43 0.32
-28 6 -4 1.37 0.38
-6 -22 4 1.63 0.29
22 -28 -4 2.01 0.34
22 -28 -4 1.72 0.36
-6 -22 1 24.68 1.15
-28 6 -1 25.08 1.2
22 -28 -1 26.39 1.09
-6 -22 -2 24.71 1.13
-28 6 2 25.51 1.2
-28 6 5 1.86 0.36
22 -28 5 1.82 0.36
-28 7 -5 26 1.21
-7 -21 5 25.68 0.94
21 -28 -5 24.65 0.98
-7 -21 2 7.32 0.64
-28 7 -2 8.1 0.73
21 -28 -2 7.15 0.61
-7 -21 -1 4.03 0.54
-28 7 1 4.05 0.53
-28 7 1 2.61 0.46
21 -28 4 22.83 0.92
-28 7 4 22.98 1.07
21 -28 7 13.82 0.58
-28 7 7 13.23 0.6
21 -28 7 13.08 0.61
-28 8 -6 193.82 3.43
-8 -20 6 189.23 2.85
20 -28 -3 263.6 3.98
20 -28 -3 254.64 3.94
-8 -20 0 60.45 1.84
-28 8 0 62.73 1.99
20 -28 0 63.53 1.78
20 -28 3 23.93 1.04
-28 8 3 23.9 1.13
-28 8 6 118.21 2.26
20 -28 6 122.24 2.33
19 -28 -7 10.67 0.54
-28 9 -4 1.58 0.45
-9 -19 4 1.36 0.29
19 -28 -4 1.49 0.32
-28 9 -1 50.56 1.82
19 -28 -1 49.73 1.59
-28 9 2 81.95 2.2
19 -28 2 86.99 2.11
-28 9 5 34.61 1.25
19 -28 5 34.54 1.28
-10 -18 5 19.23 0.84
18 -28 -5 20.32 0.9
-28 10 -5 18.56 0.93
-28 10 -2 2.68 0.51
18 -28 -2 2.61 0.42
-28 10 1 52.89 1.87
18 -28 1 53.05 1.65
18 -28 4 59.62 1.56
-28 10 4 58.07 1.74
18 -28 7 15.44 0.68
-28 10 7 13.66 0.61
18 -28 7 15.32 0.72
-28 11 -6 116.66 2.67
17 -28 -6 112.97 2.09
-28 11 -6 108.01 2.27
-11 -17 3 150.3 2.56
17 -28 -3 152.33 2.86
17 -28 -3 151.46 2.84
-28 11 0 34.52 1.52
17 -28 0 33.49 1.32
17 -28 0 37.15 1.34
17 -28 3 14.1 0.82
-28 11 3 11.91 0.83
-28 11 6 65.54 1.61
17 -28 6 68.43 1.73
-28 12 -7 44.42 1.45
16 -28 -7 42.89 1.06
-28 12 -7 40.93 1.21
-12 -16 4 9.41 0.6
16 -28 -4 10.76 0.66
16 -28 -4 9.05 0.65
16 -28 -1 27.75 1.18
16 -28 -1 28.38 1.16
16 -28 2 108.87 2.43
-28 12 2 111.65 2.59
-28 12 5 70.44 1.82
16 -28 5 70.54 1.89
-28 13 -5 41.36 1.65
15 -28 -5 40.73 1.25
15 -28 -2 2.24 0.4
15 -28 -2 2.98 0.4
15 -28 1 110.03 2.48
15 -28 4 136.79 2.54
-28 13 4 139.29 2.79
15 -28 7 34.97 1.07
-28 13 7 32.03 0.9
15 -28 7 33.91 1.1
-28 14 -6 69.6 2.04
14 -28 -6 66.36 1.49
-28 14 -6 67.71 1.76
14 -28 -3 67.22 1.79
14 -28 -3 64.95 1.7
-28 14 0 5.2 0.65
14 -28 0 4.22 0.52
14 -28 0 5.3 0.52
14 -28 3 25.16 1.08
-28 14 3 23.7 1.12
-28 14 6 45.82 1.27
-28 15 -7 79.81 1.96
-15 -13 7 84.03 1.56
13 -28 -7 78.6 1.42
-28 15 -7 80.26 1.76
13 -28 -4 36.83 1.24
-15 -13 4 33.5 1.07
13 -28 -4 34.38 1.16
-28 15 -4 31.99 1.3
-28 15 -1 11.63 0.93
13 -28 -1 11.35 0.77
13 -28 -1 12.07 0.74
13 -28 2 105.64 2.39
-28 15 5 88.72 2
13 -28 5 88.16 2.11
-28 16 -5 78.33 2.28
-16 -12 5 83.69 1.8
12 -28 -5 82.33 1.73
-28 16 -5 82.72 2.05
-28 16 -2 0.43 0.34
12 -28 -2 0.57 0.28
12 -28 -2 0.18 0.23
12 -28 1 99.76 2.35
12 -28 4 126.8 2.45
-28 16 4 132.29 2.63
12 -28 7 29.75 0.99
-28 17 -6 44.9 1.58
-17 -11 6 46 1.26
-28 17 -6 45.73 1.4
11 -28 -3 5.24 0.52
-17 -11 3 4.55 0.42
-28 17 0 34.89 1.54
11 -28 0 35.05 1.35
11 -28 3 84.05 2.05
11 -28 6 38.17 1.26
-28 18 -7 49.53 1.42
-18 -10 7 51.97 1.22
10 -28 -4 14.96 0.78
-18 -10 4 15.26 0.76
10 -28 -4 14.46 0.69
-28 18 -4 13.94 0.84
-28 18 -1 24.86 1.31
10 -28 -1 23.82 1.1
10 -28 -1 24.51 0.98
10 -28 2 127.06 2.66
10 -28 5 91.63 2.09
-28 19 -5 78.84 2.2
-19 -9 5 81.31 1.83
-28 19 -5 82.27 1.99
-28 19 -2 2.59 0.51
9 -28 -2 2.7 0.43
9 -28 -2 3.01 0.37
-28 19 1 80.79 2.32
9 -28 1 78.11 2.06
9 -28 4 164.46 2.84
9 -28 4 171.48 3
9 -28 7 76.82 1.6
-28 20 -6 27.28 1.11
-20 -8 6 27.04 0.96
-28 20 -6 27.6 1.01
8 -28 -3 4.82 0.5
-20 -8 3 5.83 0.5
8 -28 -3 4.63 0.4
-28 20 0 87.92 2.43
8 -28 0 83.56 2.14
8 -28 3 68.61 1.81
8 -28 3 69.22 1.73
8 -28 6 5.07 0.47
-21 -7 7 49.06 1.17
7 -28 -4 6.68 0.54
-21 -7 4 7.17 0.56
-28 21 -1 41.51 1.63
7 -28 -1 39.67 1.43
7 -28 2 114.48 2.5
7 -28 2 115.18 2.21
7 -28 5 75.17 1.79
28 -21 -5 76.9 1.64
7 -28 5 75.5 1.76
-28 22 -5 72.37 1.91
-22 -6 5 71.69 1.71
6 -28 -2 25.29 1.11
-22 -6 2 25.26 1.02
-28 22 1 13.62 0.91
6 -28 1 12 0.8
6 -28 4 81.04 1.83
6 -28 4 84.45 1.92
28 -22 -4 86.6 1.83
6 -28 4 82.01 1.83
28 -22 -7 49 0.97
-23 -5 6 0.37 0.22
5 -28 -3 59.17 1.65
-23 -5 3 60.81 1.63
-28 23 0 180.08 3.46
5 -28 0 177.06 3.29
5 -28 3 102.85 2.23
5 -28 3 99.98 2.05
28 -23 -3 106.15 2.09
5 -28 3 101.01 1.98
5 -28 6 1.87 0.31
28 -23 -6 1.71 0.26
-28 24 -4 38.55 1.35
4 -28 -4 40.09 1.21
-24 -4 4 40.27 1.28
-28 24 -1 4.84 0.56
4 -28 -1 4.6 0.54
-24 -4 1 4.76 0.48
-28 24 2 79.23 2.04
4 -28 2 80.26 2
4 -28 2 73.37 1.61
28 -24 -2 78.06 1.78
4 -28 5 61.07 1.47
28 -24 -5 61.57 1.42
-25 -3 5 31.51 1.06
3 -28 -2 13.55 0.81
-25 -3 2 13.82 0.77
-28 25 1 3.3 0.46
3 -28 1 2.57 0.43
28 -25 -1 3.28 0.39
3 -28 4 31.83 1.04
-28 25 4 32.48 1.12
3 -28 4 32.6 1.03
28 -25 -4 33.11 1.06
-26 -2 6 0.17 0.19
2 -28 -3 135.7 2.52
-26 -2 3 135.1 2.55
2 -28 0 307.72 4.58
2 -28 3 123.84 2.4
28 -26 -3 126.19 2.3
2 -28 6 0.27 0.18
28 -26 -6 1 0.2
-27 -1 4 9.22 0.6
28 -27 4 8.64 0.49
1 -28 -1 4.8 0.51
1 -28 2 35.3 1.25
28 -27 -2 35.91 1.15
1 -28 5 26.63 0.81
28 -27 -5 28.5 0.87
-28 0 5 5.58 0.42
28 -28 5 4.82 0.35
0 -28 -2 4.27 0.46
0 -28 1 0.51 0.3
28 -28 -4 3.86 0.37
28 -29 -3 167.03 2.64
28 -29 -3 165.44 2.61
-1 -28 0 313.14 4.46
-1 -28 -3 118.04 2.15
-29 1 3 118.95 2.25
28 -29 3 118.41 2.11
27 -29 -4 0.6 0.22
-2 -27 1 2.16 0.39
27 -29 -1 1.44 0.31
-2 -27 -2 1.11 0.29
-29 2 5 0.51 0.21
27 -29 5 0.17 0.17
26 -29 -5 0.83 0.23
-3 -26 2 5 0.51
26 -29 -2 5.21 0.49
-3 -26 -1 7.53 0.62
-29 3 1 6.65 0.53
26 -29 4 5.25 0.4
-29 3 4 5.38 0.49
-4 -25 6 4.65 0.32
25 -29 -6 6.62 0.41
-29 4 -3 208.63 3.36
25 -29 -3 201.78 3.17
25 -29 -3 201 3.18
-4 -25 0 398.85 5.49
-29 4 0 397.17 5.33
-29 4 3 159.39 2.79
-29 4 3 166.13 3.01
25 -29 3 165.46 2.78
-29 4 6 0.54 0.22
25 -29 6 0.48 0.19
-29 5 -4 3.04 0.43
24 -29 -4 2.51 0.34
24 -29 -4 2.85 0.37
-29 5 -1 0.39 0.27
-5 -24 1 0.47 0.31
24 -29 -1 0.92 0.31
-5 -24 -2 9.6 0.7
-29 5 2 10.86 0.74
-29 5 2 10.8 0.76
-29 5 5 13.25 0.72
24 -29 5 13.29 0.69
-29 6 -5 8.76 0.66
-6 -23 5 8.88 0.5
23 -29 -5 8.15 0.55
-6 -23 2 18.31 0.94
23 -29 -2 16.7 0.87
23 -29 -2 15.81 0.85
-6 -23 -1 3.4 0.49
-29 6 1 5.35 0.55
23 -29 4 1.62 0.3
-29 6 4 2.04 0.38
-29 7 -6 7.32 0.58
-7 -22 6 7.51 0.45
-29 7 -3 248.44 4.12
22 -29 -3 240.37 3.67
22 -29 -3 240.22 3.69
-7 -22 0 458.31 6.15
-29 7 0 459.66 6.32
22 -29 0 453.82 5.88
-29 7 3 184.49 3.34
22 -29 3 188.79 3.13
-29 7 6 0.91 0.25
22 -29 6 0.67 0.24
-29 8 -4 34.33 1.39
-8 -21 4 32.09 1
21 -29 -4 33.14 1.09
-29 8 -1 2.92 0.51
21 -29 -1 2.15 0.44
21 -29 -1 2.64 0.41
-29 8 2 15.7 0.97
21 -29 2 16.19 0.88
-29 8 5 32.24 1.16
21 -29 5 33.71 1.18
-29 9 -5 38.15 1.46
-9 -20 5 37.93 1.1
-29 9 -2 46.44 1.71
20 -29 -2 45.32 1.47
-29 9 1 12.32 0.88
20 -29 1 11.98 0.78
20 -29 4 1.18 0.29
-29 9 4 1.99 0.39
19 -29 -6 18.08 0.75
19 -29 -3 227.46 3.6
-29 10 0 311.5 5.01
19 -29 0 297.67 4.54
19 -29 3 98.49 2.16
-29 10 3 95.78 2.32
-29 10 6 0.6 0.24
19 -29 6 0.16 0.24
18 -29 -7 29.72 0.82
-11 -18 4 82.39 1.74
18 -29 -4 83.27 1.85
18 -29 -4 84.46 1.92
-29 11 -1 38.96 1.6
18 -29 -1 37.58 1.37
18 -29 -1 38.95 1.36
-29 11 2 6.78 0.65
18 -29 2 6.85 0.6
-29 11 5 72.33 1.78
18 -29 5 73.15 1.84
-29 12 -5 98.25 2.48
17 -29 -5 98.54 1.98
-29 12 -5 98.11 2.17
-29 12 -2 72.26 2.24
17 -29 -2 73.59 1.92
17 -29 -2 74.05 1.87
-29 12 1 1.87 0.45
17 -29 1 2.67 0.44
17 -29 4 25.49 0.97
-29 12 4 26.75 1.12
17 -29 7 38.57 1.03
17 -29 7 37.33 1.06
-29 13 -6 3.72 0.52
16 -29 -6 3.15 0.34
16 -29 -3 78.51 1.94
16 -29 -3 79.33 1.89
16 -29 0 120.95 2.61
16 -29 0 118.55 2.49
16 -29 3 30.35 1.16
-29 13 3 28.92 1.22
-29 13 6 3.35 0.37
16 -29 6 3.79 0.43
-29 14 -7 47.63 1.4
15 -29 -7 45.02 0.98
15 -29 -4 141.07 2.54
15 -29 -4 136.31 2.49
-29 14 -1 72.99 2.27
15 -29 -1 74.7 1.97
15 -29 -1 73.29 1.87
15 -29 2 0.83 0.31
-29 14 5 53.75 1.5
-29 15 -5 91.41 2.39
14 -29 -5 90.4 1.82
-29 15 -5 93.84 2.14
-29 15 -2 96.22 2.66
14 -29 -2 98.64 2.27
14 -29 -2 98.73 2.13
-29 15 1 5.13 0.63
14 -29 1 5.72 0.58
14 -29 4 37.6 1.2
-29 15 4 37.85 1.32
14 -29 4 37.69 1.34
14 -29 7 63.43 1.4
-29 16 -6 21.82 1.06
13 -29 -6 20.47 0.71
-29 16 -6 21.56 0.92
13 -29 -3 92.81 2.13
13 -29 -3 95.87 2.02
-29 16 0 83.46 2.4
13 -29 0 86.41 2.15
13 -29 3 6.64 0.57
13 -29 6 12.65 0.7
13 -29 6 12.94 0.71
-29 17 -7 44.7 1.3
12 -29 -4 150.6 2.64
12 -29 -4 145.05 2.47
-29 17 -1 89.32 2.51
12 -29 -1 90.61 2.19
12 -29 -1 90.75 2.03
12 -29 2 1.29 0.34
12 -29 5 78.16 1.87
-29 18 -5 124.12 2.78
-18 -11 5 129.79 2.23
11 -29 -5 122.6 2.04
-29 18 -2 150.28 3.34
11 -29 -2 146.23 2.85
11 -29 -2 149.68 2.62
-29 18 1 25.06 1.28
11 -29 1 24.92 1.13
11 -29 4 15.38 0.76
11 -29 4 16.27 0.84
11 -29 7 52.21 1.23
-29 19 -6 59.09 1.65
-19 -10 6 56.2 1.31
10 -29 -3 52.78 1.54
-19 -10 3 48.88 1.32
10 -29 -3 49.61 1.3
-29 19 0 2.2 0.47
10 -29 0 1.1 0.38
10 -29 3 22.2 0.98
10 -29 3 20.78 0.93
10 -29 6 23.5 0.91
9 -29 -4 144.43 2.54
-20 -9 4 137.87 2.45
-29 20 -1 74.68 2.22
9 -29 -1 73.36 1.96
9 -29 2 0.66 0.31
9 -29 2 0.68 0.25
9 -29 5 52.49 1.44
9 -29 5 52.07 1.42
-29 21 -5 92.22 2.21
-21 -8 5 93.23 1.88
8 -29 -2 144.76 2.78
-21 -8 2 137.88 2.45
-29 21 1 54.16 1.81
8 -29 1 53.9 1.66
8 -29 4 3.1 0.37
8 -29 4 3.21 0.39
8 -29 4 2.11 0.35
-29 22 -6 58.47 1.42
-22 -7 6 62.34 1.37
7 -29 -3 37.95 1.28
-22 -7 3 37.43 1.19
-29 22 0 2.49 0.45
7 -29 0 1.46 0.38
7 -29 3 58.7 1.62
7 -29 3 61.13 1.55
7 -29 3 58.08 1.46
7 -29 6 55 1.32
6 -29 -4 147.81 2.5
-23 -6 4 146.1 2.55
-29 23 -1 90.07 2.33
6 -29 -1 91.04 2.19
6 -29 2 0.14 0.2
6 -29 2 0.39 0.3
6 -29 5 51.19 1.32
29 -23 -5 51.97 1.21
-24 -5 5 24.45 0.89
5 -29 -2 56.88 1.63
-24 -5 2 55.99 1.49
-29 24 1 28.67 1.22
5 -29 1 28.57 1.18
5 -29 4 0.31 0.21
5 -29 4 0.09 0.23
29 -24 -4 0.16 0.2
-25 -4 6 84.41 1.55
4 -29 -3 11.35 0.68
-25 -4 3 10.89 0.66
-29 25 0 54.45 1.64
4 -29 0 58.26 1.7
4 -29 3 183.12 3.01
-29 25 3 184.11 3.07
4 -29 3 175.04 2.68
29 -25 -3 184.33 2.81
4 -29 6 102.58 1.69
29 -25 -6 94.69 1.5
-26 -3 4 52.25 1.37
3 -29 -1 39.89 1.36
3 -29 2 -0.13 0.28
29 -26 -2 0.65 0.24
3 -29 5 21.78 0.73
29 -26 -5 22.8 0.74
-27 -2 5 9.52 0.53
2 -29 -2 27.46 1.05
2 -29 1 28.04 1.12
29 -27 -4 5.81 0.42
1 -29 -3 20.67 0.83
-28 -1 3 19.5 0.83
1 -29 0 56.8 1.61
1 -29 3 197.26 2.99
29 -28 -3 198.94 2.88
-29 0 4 31.9 0.97
29 -29 4 31.42 0.9
0 -29 -1 15.67 0.8
0 -29 2 0.67 0.26
29 -29 -2 1 0.25
29 -30 -4 3.89 0.32
-1 -29 1 7.65 0.56
-1 -29 -2 3.46 0.38
29 -30 2 3.3 0.38
-2 -28 2 14.58 0.74
28 -30 -2 15.93 0.75
28 -30 -2 14.78 0.69
-2 -28 -1 5.69 0.52
28 -30 4 0.66 0.21
27 -30 -3 9.32 0.57
27 -30 -3 11.96 0.62
-3 -27 0 94.44 2.12
27 -30 3 239.96 3.32
-30 4 -4 1.32 0.29
26 -30 -4 1.39 0.28
-4 -26 1 1.36 0.33
26 -30 -1 1.45 0.31
26 -30 2 0.24 0.25
26 -30 5 0.31 0.18
-30 5 -5 0.3 0.21
25 -30 -5 0.06 0.18
-30 5 -2 0.73 0.28
25 -30 -2 1.13 0.32
25 -30 -2 1.11 0.29
-30 5 1 0.36 0.25
-5 -25 -1 0.82 0.33
25 -30 1 0.87 0.31
25 -30 4 0.34 0.18
-30 6 -3 18.2 0.9
24 -30 -3 16.57 0.8
24 -30 -3 18.04 0.82
-6 -24 0 104.21 2.35
-30 6 0 103.91 2.33
24 -30 0 104.09 2.28
-30 6 3 312.84 4.45
24 -30 3 322.18 4.26
-30 7 -4 17.08 0.91
23 -30 -4 16.46 0.71
23 -30 -4 16.44 0.77
-30 7 -1 28.24 1.21
23 -30 -1 27.6 1.12
23 -30 -1 26.38 1.07
-30 7 2 7.35 0.62
23 -30 2 6.09 0.56
-30 7 5 1.92 0.33
23 -30 5 2.3 0.34
-30 8 -5 0.62 0.3
22 -30 -2 13.89 0.79
22 -30 -2 13.24 0.77
-30 8 1 30.02 1.28
22 -30 1 27.17 1.14
22 -30 4 9.3 0.55
-30 8 4 9.88 0.68
-30 9 -6 97.1 2.04
21 -30 -6 88.16 1.63
21 -30 -3 0.74 0.3
-30 9 0 169.71 3.36
21 -30 0 158.24 2.98
21 -30 3 325.63 4.42
-30 9 3 314.28 4.68
-30 9 6 137.14 2.24
21 -30 6 140.03 2.29
-30 10 -4 38.18 1.46
20 -30 -4 39.26 1.15
20 -30 -4 36.06 1.18
-30 10 -1 103.53 2.59
20 -30 -1 102.12 2.29
-30 10 2 61.15 1.91
20 -30 2 59 1.67
-30 10 5 1.32 0.31
20 -30 5 0.88 0.28
19 -30 -5 13.65 0.67
-30 11 -2 52.12 1.81
19 -30 -2 54.36 1.6
19 -30 -2 53.19 1.54
-30 11 1 51.99 1.81
19 -30 1 54.06 1.62
19 -30 4 12.24 0.64
-30 11 4 12.82 0.79
-30 12 -6 46.81 1.46
18 -30 -6 45.71 1.11
18 -30 -3 0.77 0.31
18 -30 -3 1.11 0.3
-30 12 0 118.83 2.87
18 -30 0 116.71 2.52
18 -30 3 196.85 3.23
-30 12 3 195.38 3.44
-30 12 6 74.31 1.54
18 -30 6 79.43 1.7
17 -30 -4 41.51 1.22
17 -30 -4 40.28 1.22
17 -30 -1 175.42 3.18
17 -30 -1 176.43 3.1
17 -30 2 115.56 2.44
-30 13 5 3.27 0.41
-30 14 -5 28.22 1.25
16 -30 -5 27.39 0.92
16 -30 -2 126.14 2.56
16 -30 -2 127.22 2.47
16 -30 1 124.29 2.61
16 -30 4 18.32 0.8
16 -30 4 17.22 0.88
-30 15 -6 29.99 1.17
15 -30 -6 27.61 0.81
15 -30 -3 0.01 0.31
15 -30 -3 0.15 0.23
-30 15 0 67.14 2.12
15 -30 0 64.32 1.83
15 -30 3 103.73 2.21
15 -30 6 29.8 0.99
14 -30 -4 38.65 1.19
14 -30 -4 38.96 1.15
-30 16 -1 182.5 3.67
14 -30 -1 178.82 3.21
14 -30 -1 177.12 3.04
14 -30 2 131.86 2.64
14 -30 5 6 0.52
-30 17 -5 8.61 0.7
13 -30 -5 7.6 0.46
-30 17 -2 88.23 2.45
13 -30 -2 89.58 2.11
13 -30 -2 88.86 1.94
-30 17 1 114.05 2.8
13 -30 1 114.47 2.48
13 -30 4 30.83 1.04
13 -30 4 32.34 1.17
-30 18 -6 0.15 0.28
12 -30 -3 19.25 0.91
12 -30 -3 18.98 0.8
-30 18 0 53.71 1.88
12 -30 0 51.1 1.61
12 -30 3 22.88 0.99
12 -30 3 24.69 1.01
12 -30 6 0.65 0.23
11 -30 -4 52.19 1.37
11 -30 -4 47.23 1.17
-30 19 -1 215.73 4.03
11 -30 -1 214.81 3.62
-30 19 2 163.13 3.36
11 -30 2 166.98 3.04
11 -30 2 170.24 2.86
11 -30 5 11.11 0.65
11 -30 5 10.5 0.63
-30 20 -5 12.67 0.8
10 -30 -2 110.21 2.36
-30 20 1 174.75 3.46
10 -30 1 177.82 3.19
10 -30 1 166.83 2.73
10 -30 4 70.71 1.61
10 -30 4 77.07 1.74
-30 21 -6 22.76 0.87
-21 -9 6 23.13 0.73
9 -30 -3 78.36 1.84
-30 21 0 57.92 1.87
9 -30 0 54.51 1.66
9 -30 3 3.75 0.44
9 -30 3 3.36 0.38
9 -30 6 7.76 0.48
8 -30 -4 57.23 1.4
-22 -8 4 56.3 1.36
-30 22 -1 198.21 3.69
8 -30 -1 195.8 3.37
-30 22 2 153.6 3.08
8 -30 2 159.83 2.91
8 -30 5 16.39 0.72
-30 23 -5 0.54 0.25
-23 -7 5 0.54 0.21
7 -30 -2 33.64 1.22
-30 23 1 69.82 1.97
7 -30 1 67.38 1.82
7 -30 4 33.08 1.01
7 -30 4 33.47 1.04
7 -30 4 34.15 1.01
6 -30 -3 108.77 2.16
-24 -6 3 110.54 2.06
-30 24 0 62.62 1.8
6 -30 0 61 1.72
6 -30 3 0.67 0.22
6 -30 3 0.98 0.29
-30 25 -4 15.23 0.74
-25 -5 4 16.92 0.72
5 -30 -1 100.91 2.22
-30 25 2 81.48 1.94
5 -30 2 83.01 1.93
-30 25 5 6.46 0.42
5 -30 5 6.15 0.4
30 -25 -5 5.73 0.35
-26 -4 5 1.31 0.25
4 -30 -2 5.12 0.49
-30 26 1 23.47 0.96
4 -30 1 21.61 0.97
4 -30 4 18.81 0.68
30 -26 -4 20.28 0.7
3 -30 -3 206.46 3.03
-27 -3 3 199.96 2.97
3 -30 0 66.48 1.73
3 -30 3 4.79 0.43
30 -27 -3 5.46 0.4
-28 -2 4 12.73 0.59
30 -28 4 12.19 0.52
2 -30 -1 51.51 1.44
2 -30 2 39.61 1.21
1 -30 -2 0.56 0.24
1 -30 1 7.92 0.56
30 -29 -4 14.79 0.55
30 -30 3 186.47 2.54
0 -30 0 64.54 1.56
30 -30 -3 9.52 0.49
30 -31 -2 2.28 0.29
30 -31 1 17.85 0.74
29 -31 -3 189.88 2.6
-2 -29 0 56.31 1.45
29 -31 0 55.56 1.41
29 -31 3 10.48 0.5
28 -31 -4 0.5 0.19
28 -31 -1 2.27 0.35
28 -31 2 1.88 0.3
27 -31 -2 0.33 0.22
27 -31 -2 0.2 0.19
27 -31 1 5.24 0.48
27 -31 4 7.03 0.45
26 -31 -3 244.08 3.33
26 -31 -3 241.57 3.36
26 -31 0 85.76 1.93
26 -31 3 8.71 0.53
-31 6 -4 0.59 0.24
25 -31 -4 0.49 0.22
25 -31 -1 2.92 0.42
-31 6 2 9.26 0.62
25 -31 2 9.01 0.6
25 -31 5 5.31 0.39
-31 7 -5 0.99 0.27
24 -31 -5 0.98 0.23
-31 7 -2 0.54 0.28
24 -31 -2 0.34 0.26
24 -31 -2 1.14 0.29
-31 7 1 3.49 0.45
24 -31 1 3.42 0.43
-31 7 4 1.61 0.3
-31 7 4 1.78 0.34
-31 8 -3 238.53 3.79
23 -31 -3 239.96 3.45
23 -31 -3 243.09 3.5
-31 8 0 61.52 1.77
23 -31 0 59.68 1.65
-31 8 3 35.53 1.25
23 -31 3 34.85 1.11
-31 9 -4 5.36 0.55
-31 9 -1 9.45 0.73
22 -31 -1 8.22 0.63
22 -31 -1 9.17 0.64
-31 9 2 38.11 1.39
22 -31 2 38.18 1.26
-31 9 5 23.41 0.88
22 -31 5 24.17 0.88
-31 10 -5 5.76 0.53
21 -31 -5 5.28 0.41
21 -31 -2 0.72 0.27
-31 10 1 15.13 0.93
21 -31 1 13.83 0.79
21 -31 4 18.03 0.71
-31 10 4 19.56 0.9
20 -31 -6 120.6 1.87
20 -31 -3 157.22 2.71
20 -31 -3 160.2 2.72
-31 11 0 23.12 1.17
20 -31 0 23.46 1.05
20 -31 3 37.31 1.2
20 -31 6 115.03 1.96
-31 12 -4 25.93 1.17
19 -31 -4 26.02 0.9
19 -31 -4 26.81 0.95
-31 12 -1 15.57 0.99
19 -31 -1 15.72 0.86
19 -31 -1 15.87 0.83
-31 12 2 133.3 2.89
19 -31 2 128.1 2.53
19 -31 5 102.25 2.01
-31 13 -5 4.37 0.52
18 -31 -5 4.53 0.38
18 -31 -2 12.36 0.74
18 -31 -2 12.49 0.72
-31 13 1 60.52 1.91
18 -31 1 58.09 1.67
18 -31 4 51.2 1.28
18 -31 4 52.82 1.48
-31 14 -6 63.36 1.6
17 -31 -6 55.53 1.14
17 -31 -3 81.67 1.86
17 -31 -3 81.4 1.8
17 -31 0 10.44 0.74
17 -31 3 29.48 1.08
17 -31 6 86.28 1.66
17 -31 6 80.74 1.64
-31 15 -4 45.05 1.58
16 -31 -4 47.76 1.26
16 -31 -4 45.49 1.23
-31 15 -1 9.26 0.79
16 -31 -1 8.98 0.68
16 -31 -1 9.53 0.65
-31 15 2 130.39 2.91
16 -31 2 132.53 2.58
16 -31 5 119.62 2.21
-31 16 -5 18.62 0.96
15 -31 -5 17.21 0.66
-31 16 -2 2.22 0.46
15 -31 -2 2.55 0.4
15 -31 -2 1.9 0.33
-31 16 1 60.69 1.95
15 -31 1 62.57 1.74
15 -31 4 80.98 1.68
15 -31 4 85.87 1.9
-31 17 -6 49.51 1.38
14 -31 -3 50.95 1.44
14 -31 -3 49.92 1.32
-31 17 0 3.53 0.57
14 -31 0 3.78 0.49
14 -31 3 18.65 0.87
14 -31 3 20.37 0.9
14 -31 6 28.22 0.9
13 -31 -4 35.13 1.06
13 -31 -4 33.36 0.96
-31 18 -1 24.82 1.25
13 -31 -1 24.39 1.07
-31 18 2 183.33 3.5
13 -31 2 183 3.16
13 -31 5 147.7 2.48
-31 19 -5 27.06 1.1
12 -31 -2 0.27 0.26
-31 19 1 34.43 1.42
12 -31 1 31.17 1.22
12 -31 4 73.13 1.57
12 -31 4 77.92 1.72
-31 20 -6 5.66 0.45
11 -31 -3 4.53 0.45
-31 20 0 28.25 1.3
11 -31 0 27.61 1.15
-31 20 3 25.62 1.16
11 -31 3 25.44 0.99
11 -31 3 26.11 0.95
11 -31 6 8.56 0.48
-31 21 -4 35.4 1.31
-31 21 -1 15.74 0.97
10 -31 -1 15.66 0.85
-31 21 2 154.09 3.07
10 -31 2 159.14 2.85
10 -31 2 154.48 2.5
10 -31 5 159.4 2.47
10 -31 5 150.5 2.38
-31 22 -5 21.29 0.89
9 -31 -2 0.53 0.27
-31 22 1 27.66 1.23
9 -31 1 27.46 1.11
9 -31 4 63.04 1.4
-31 22 4 68.78 1.75
9 -31 4 68.6 1.52
9 -31 4 66.17 1.45
8 -31 -3 17.49 0.8
-31 23 0 87.8 2.19
8 -31 0 90.28 2.09
-31 23 3 72.96 1.84
8 -31 3 72.45 1.66
8 -31 3 69.64 1.51
-31 24 -4 25.58 0.98
7 -31 -1 8.54 0.64
-31 24 2 102.64 2.23
7 -31 2 98.93 2.1
-31 24 5 88.71 1.69
7 -31 5 94.44 1.62
6 -31 -2 2.62 0.38
-31 25 1 2.78 0.41
6 -31 1 2.8 0.41
-31 25 4 13 0.64
5 -31 -3 63.6 1.46
5 -31 0 157.78 2.8
5 -31 3 82.22 1.69
-31 26 3 80.76 1.69
-27 -4 4 12.09 0.53
4 -31 -1 2.42 0.38
4 -31 2 43.02 1.25
3 -31 -2 11.05 0.61
3 -31 1 0.9 0.27
31 -29 3 96.03 1.63
2 -31 0 191.96 2.99
31 -29 -3 76.78 1.46
1 -31 -1 16.35 0.72
1 -31 2 39.21 1.06
31 -30 -2 38.24 1.05
31 -31 2 3.62 0.32
31 -31 -1 1.61 0.28
31 -32 0 180.47 2.59
30 -32 -1 0.23 0.2
30 -32 2 0.83 0.2
29 -32 -2 14.71 0.63
29 -32 1 3.33 0.35
28 -32 -3 101.35 1.68
28 -32 0 210.86 3.11
28 -32 3 97.71 1.62
27 -32 -1 2.99 0.38
27 -32 2 2.24 0.31
26 -32 -2 2.73 0.35
26 -32 -2 2.21 0.33
26 -32 1 0.86 0.29
26 -32 4 0.43 0.19
-32 7 -3 107.26 2.06
25 -32 -3 104.31 1.87
25 -32 -3 104.61 1.93
-32 7 0 246.5 3.67
25 -32 0 246.97 3.63
-32 7 3 114.91 2.1
25 -32 3 110.73 1.94
-32 8 -4 18.41 0.8
24 -32 -4 17.63 0.7
24 -32 -1 7.23 0.56
-32 8 2 0.91 0.29
24 -32 2 0.77 0.26
-32 9 -5 5.46 0.45
23 -32 -2 2.47 0.35
23 -32 -2 2.01 0.33
-32 9 1 2.23 0.4
23 -32 1 2.29 0.38
-32 9 4 9.63 0.59
23 -32 4 10.47 0.59
-32 10 -3 126.93 2.54
22 -32 -3 124.44 2.21
-32 10 0 232.71 3.83
22 -32 0 225.48 3.53
-32 10 3 87.74 2.03
22 -32 3 85.39 1.76
-32 11 -4 81.61 1.95
21 -32 -4 78.7 1.62
-32 11 -1 58.46 1.78
21 -32 -1 56.83 1.56
-32 11 2 1.17 0.35
21 -32 2 1.21 0.3
-32 11 5 25.76 0.92
21 -32 5 25.44 0.87
20 -32 -5 14.34 0.6
20 -32 -2 5.98 0.52
20 -32 -2 6.18 0.52
-32 12 1 1.16 0.37
20 -32 1 1.27 0.34
-32 12 4 12.27 0.74
20 -32 4 12.4 0.55
19 -32 -3 99.79 1.97
19 -32 -3 95.01 1.91
-32 13 0 162.5 3.23
19 -32 0 159.12 2.89
-32 13 3 56.54 1.7
19 -32 3 54.53 1.41
18 -32 -4 140.78 2.29
18 -32 -1 101.74 2.19
18 -32 2 0.52 0.27
-32 15 -5 44.35 1.38
17 -32 -5 41.07 1
17 -32 -2 23.62 0.98
17 -32 -2 24.39 0.94
17 -32 1 1.61 0.37
17 -32 4 32.32 0.93
17 -32 4 34.68 1.12
16 -32 -3 58.26 1.49
16 -32 -3 59.51 1.42
-32 16 0 93.3 2.39
16 -32 0 90.52 2.09
-32 16 3 26.07 1.17
16 -32 3 25.48 0.96
16 -32 3 24.83 0.97
-32 17 -4 192.17 3.35
15 -32 -4 185.62 2.65
-32 17 -1 128.32 2.86
15 -32 -1 125.8 2.5
-32 17 2 1.04 0.39
15 -32 2 0.44 0.26
15 -32 5 68.8 1.5
-32 18 -5 32.94 1.17
14 -32 -2 40.51 1.29
-32 18 1 9.96 0.79
14 -32 1 9.85 0.68
14 -32 4 3.27 0.32
14 -32 4 3.21 0.37
13 -32 -3 32.08 1.07
-32 19 0 15.91 0.97
13 -32 0 16.49 0.87
-32 19 3 0.36 0.32
13 -32 3 0.22 0.2
-32 20 -4 194.87 3.31
-32 20 -1 116.24 2.65
12 -32 -1 115.57 2.35
12 -32 2 0.11 0.25
12 -32 2 0.11 0.19
12 -32 5 79.84 1.56
12 -32 5 78.91 1.53
-32 21 -5 24.2 0.92
11 -32 -2 40.59 1.27
-32 21 1 14.46 0.89
11 -32 1 14.08 0.79
-32 21 4 1.66 0.34
11 -32 4 1.68 0.27
11 -32 4 1.24 0.23
11 -32 4 1.73 0.27
10 -32 -3 14.17 0.7
-32 22 0 1.53 0.38
10 -32 0 1.41 0.35
-32 22 3 21.54 0.98
10 -32 3 20.3 0.83
10 -32 3 21.16 0.77
-32 23 -4 149.89 2.61
9 -32 -1 95.15 2.06
-32 23 2 0.65 0.28
9 -32 2 -0.04 0.26
-32 23 5 66.38 1.4
9 -32 5 64.13 1.26
8 -32 -2 13.38 0.71
-32 24 1 4.17 0.47
8 -32 1 4.29 0.46
-32 24 4 1.77 0.31
8 -32 4 1.57 0.23
7 -32 -3 16.78 0.7
-32 25 0 8.81 0.62
7 -32 0 9.01 0.61
7 -32 3 70.37 1.51
-32 25 3 71.32 1.61
6 -32 -1 52.13 1.41
-32 26 2 1.09 0.26
6 -32 2 0.43 0.24
5 -32 -2 12.18 0.62
5 -32 1 12.2 0.67
4 -32 -3 5.17 0.36
32 -28 3 4.46 0.33
4 -32 0 33.06 1.07
4 -32 3 84.27 1.5
3 -32 -1 16.65 0.72
3 -32 2 1.37 0.26
32 -30 2 4.9 0.36
2 -32 1 14.93 0.65
32 -31 0 55.73 1.26
29 -33 -1 0.88 0.23
28 -33 -2 8.32 0.47
28 -33 1 19.09 0.74
27 -33 -3 7.77 0.42
27 -33 0 41.75 1.16
27 -33 3 129.27 1.89
26 -33 -1 7.39 0.51
26 -33 2 8.54 0.51
-33 8 -2 1.83 0.3
25 -33 -2 2.24 0.32
-33 8 1 1.03 0.27
25 -33 1 0.91 0.28
-33 9 -3 6.13 0.48
24 -33 -3 6.05 0.42
24 -33 -3 6.41 0.44
-33 9 0 56.58 1.54
24 -33 0 58.48 1.49
-33 9 3 160.13 2.61
24 -33 3 159.45 2.37
-33 10 -4 9.69 0.59
23 -33 -1 45.07 1.29
-33 10 2 37.5 1.24
23 -33 2 35.6 1.1
22 -33 -2 8.99 0.56
-33 11 1 1.43 0.35
22 -33 1 1.49 0.32
-33 11 4 3.4 0.37
22 -33 4 3.12 0.35
-33 12 -3 4.46 0.49
21 -33 -3 4.28 0.39
21 -33 -3 5.19 0.42
-33 12 0 44.7 1.49
21 -33 0 42.54 1.3
-33 12 3 125.1 2.42
21 -33 3 117.91 2.06
-33 13 -4 28.8 1.09
20 -33 -4 28.34 0.86
-33 13 -1 137.56 2.79
20 -33 -1 133.24 2.47
-33 13 2 119.06 2.49
20 -33 2 113.75 2.18
19 -33 -2 33.4 1.1
19 -33 -2 30.29 1.01
-33 14 1 15.81 0.91
19 -33 1 14.65 0.77
-33 14 4 -0.01 0.21
19 -33 4 0.35 0.21
18 -33 -3 2.13 0.31
18 -33 -3 1.39 0.27
18 -33 0 34.38 1.18
18 -33 3 84.44 1.72
18 -33 3 85.92 1.8
-33 16 -4 33.96 1.21
17 -33 -4 32.27 0.89
-33 16 -1 170.27 3.25
17 -33 -1 176 2.94
-33 16 2 152.79 2.96
17 -33 2 155.02 2.65
-33 16 5 16.09 0.72
17 -33 5 16.37 0.66
-33 17 -5 8.07 0.56
16 -33 -2 35.22 1.15
-33 17 1 31.79 1.3
16 -33 1 30.9 1.13
-33 17 4 3.13 0.4
16 -33 4 3.5 0.35
15 -33 -3 3.07 0.36
-33 18 0 39.5 1.45
15 -33 0 39.65 1.28
-33 18 3 42.36 1.39
15 -33 3 40.33 1.14
15 -33 3 40.62 1.14
-33 19 -4 63.92 1.66
-33 19 -1 251.93 4.09
14 -33 -1 246.58 3.68
-33 19 2 195.16 3.37
14 -33 2 193.59 3.02
13 -33 -2 14.63 0.74
-33 20 1 28.61 1.19
13 -33 1 26.74 1.03
-33 20 4 17.32 0.81
13 -33 4 17.46 0.68
13 -33 4 17.1 0.66
12 -33 -3 24.16 0.85
-33 21 0 22.94 1.06
12 -33 0 21.11 0.93
-33 21 3 7.26 0.57
12 -33 3 7.36 0.49
12 -33 3 7.16 0.44
-33 22 -4 64.57 1.55
11 -33 -1 251.41 3.65
-33 22 2 197.07 3.28
11 -33 2 191.79 3
10 -33 -2 2.36 0.34
-33 23 1 11.79 0.73
10 -33 1 12.66 0.7
-33 23 4 6.3 0.46
10 -33 4 6.19 0.37
9 -33 -3 48.62 1.17
-33 24 0 32.18 1.15
9 -33 0 31.51 1.09
-33 24 3 0.29 0.23
9 -33 3 0.25 0.19
8 -33 -1 156.54 2.59
-33 25 2 113.31 2.1
8 -33 2 113.13 2.05
7 -33 -2 0.35 0.21
-33 26 1 5.69 0.44
7 -33 1 5.75 0.46
6 -33 -3 62.59 1.22
6 -33 0 26.43 0.93
6 -33 3 1.99 0.24
5 -33 -1 85.23 1.68
5 -33 2 65.18 1.36
4 -33 1 1.25 0.25
27 -34 1 0.37 0.2
26 -34 0 36.84 1.06
25 -34 -1 1.11 0.25
-34 9 2 16.85 0.7
25 -34 2 17.29 0.68
-34 10 -2 21.78 0.83
24 -34 -2 23.1 0.8
-34 10 1 16.1 0.76
24 -34 1 15.19 0.7
-34 11 -3 133.52 2.3
23 -34 -3 123.58 1.96
-34 11 0 43.39 1.32
23 -34 0 43.66 1.23
-34 11 3 5.38 0.44
23 -34 3 4.64 0.35
22 -34 -1 3.95 0.4
-34 12 2 62.76 1.6
22 -34 2 60 1.39
21 -34 -2 8.1 0.52
-34 13 1 11.48 0.72
21 -34 1 12.52 0.66
-34 13 4 3.68 0.38
-34 14 -3 76.2 1.79
20 -34 -3 75.65 1.49
-34 14 0 24.76 1.07
20 -34 0 22.11 0.9
-34 14 3 4.67 0.45
20 -34 3 4.55 0.36
20 -34 3 4.84 0.4
19 -34 -1 6.83 0.51
19 -34 2 92.08 1.84
18 -34 -2 14.8 0.69
18 -34 1 30.09 1.04
18 -34 4 13.21 0.58
17 -34 -3 33.1 0.95
-34 17 0 5.17 0.55
17 -34 0 4.83 0.46
-34 17 3 9.26 0.62
17 -34 3 7.65 0.47
17 -34 3 8.28 0.49
-34 18 -4 38.58 1.19
16 -34 -1 11.85 0.67
-34 18 2 144.43 2.72
16 -34 2 142.88 2.4
16 -34 2 137.82 2.23
15 -34 -2 1.71 0.29
-34 19 1 13.88 0.81
15 -34 1 13.71 0.7
-34 19 4 19.68 0.8
15 -34 4 19.14 0.67
15 -34 4 18.07 0.64
14 -34 -3 1.77 0.26
-34 20 0 3.47 0.45
14 -34 0 3.27 0.39
-34 20 3 13.05 0.71
14 -34 3 11.91 0.57
14 -34 3 12.39 0.55
14 -34 3 12.27 0.53
-34 21 -4 39.08 1.13
13 -34 -1 17.28 0.78
-34 21 2 172.82 2.94
13 -34 2 169.88 2.66
12 -34 -2 3.69 0.36
-34 22 1 0.2 0.24
12 -34 1 0.64 0.26
-34 23 -3 3.16 0.37
11 -34 -3 2.91 0.3
-34 23 0 15.29 0.78
11 -34 0 15.77 0.75
-34 23 3 12.92 0.64
11 -34 3 12.07 0.54
10 -34 -1 24.32 0.88
-34 24 2 169.92 2.7
10 -34 2 169.59 2.57
9 -34 -2 6.33 0.43
-34 25 1 0.38 0.22
9 -34 1 0.54 0.22
8 -34 0 54.38 1.32
7 -34 -1 11.25 0.57
25 -35 0 137.12 2.18
-35 11 -1 35.95 1.01
24 -35 -1 34.08 0.98
-35 11 2 1.56 0.26
24 -35 2 2.06 0.26
-35 12 -2 3.27 0.36
23 -35 -2 3.48 0.33
-35 12 1 17.85 0.78
23 -35 1 17.58 0.71
22 -35 0 109.95 1.98
21 -35 -1 55.72 1.32
-35 14 2 0.56 0.25
21 -35 2 0.5 0.21
21 -35 2 0.82 0.21
20 -35 -2 0.15 0.19
-35 15 1 5.54 0.49
20 -35 1 6.47 0.46
19 -35 -3 24.02 0.73
19 -35 0 55.48 1.37
19 -35 3 28.4 0.78
19 -35 3 29.65 0.84
18 -35 -1 62.34 1.44
-35 17 2 0.35 0.24
18 -35 2 0.29 0.2
18 -35 2 0.51 0.19
17 -35 -2 0.83 0.22
-35 18 1 5.44 0.5
17 -35 1 5.55 0.44
-35 19 -3 14.77 0.72
16 -35 -3 14.78 0.57
-35 19 0 12.6 0.73
16 -35 0 12.45 0.64
-35 19 3 1.21 0.28
16 -35 3 1.06 0.19
16 -35 3 1.22 0.19
16 -35 3 1.27 0.2
15 -35 -1 98.21 1.87
-35 20 2 0.64 0.26
15 -35 2 0.55 0.21
14 -35 -2 3.01 0.32
-35 21 1 1.87 0.32
14 -35 1 1.71 0.29
13 -35 0 0.46 0.22
12 -35 -1 115.68 2
-35 23 2 0.72 0.23
12 -35 2 1.2 0.24
11 -35 -2 8.9 0.47
-35 24 1 6.9 0.48
11 -35 1 6.99 0.46
10 -35 0 3.19 0.33
21 -36 0 13.62 0.61
20 -36 -1 84.15 1.58
19 -36 1 0.42 0.2
18 -36 0 6.74 0.44
17 -36 -1 137.2 2.15
-36 20 1 2.83 0.35
16 -36 1 2.38 0.29
15 -36 0 3.46 0.34
