#------------------------------------------------------------------------------
#$Date: 2020-12-16 03:49:19 +0200 (Wed, 16 Dec 2020) $
#$Revision: 259910 $
#$URL: file:///home/coder/svn-repositories/cod/cif/7/12/76/7127600.cif $
#------------------------------------------------------------------------------
#
# This file is available in the Crystallography Open Database (COD),
# http://www.crystallography.net/
#
# All data on this site have been placed in the public domain by the
# contributors.
#
data_7127600
loop_
_publ_author_name
'Perlata, Ricardo A.'
'Huxley, Michael T.'
'Shi, Zhaolin'
'Zhang, Yue-Biao'
'Sumby, Christopher J.'
'Doonan, Christian J.'
_publ_section_title
;
 A metal-organic framework supported iridium catalyst for the gas phase
 hydrogenation of ethylene.
;
_journal_issue                   97
_journal_name_full
'Chemical communications (Cambridge, England)'
_journal_page_first              15313
_journal_page_last               15316
_journal_paper_doi               10.1039/d0cc06058e
_journal_volume                  56
_journal_year                    2020
_chemical_formula_moiety         'C76 H68 Cl0.5 Ir0.6 Mn3 N12 O12, 0.1(Cl)'
_chemical_formula_sum            'C90.88 H116.1 Cl0.6 Ir0.6 Mn3 N12 O20.02'
_chemical_formula_weight         1998.36
_space_group_crystal_system      monoclinic
_space_group_IT_number           11
_space_group_name_Hall           '-P 2yb'
_space_group_name_H-M_alt        'P 1 21/m 1'
_atom_sites_solution_hydrogens   geom
_atom_sites_solution_primary     dual
_audit_creation_date             2020-10-02
_audit_creation_method
;
Olex2 1.3
(compiled 2020.07.31 svn.rc2a77460 for OlexSys, GUI svn.r6145)
;
_audit_update_record
;
2020-10-02 deposited with the CCDC.	2020-10-27 downloaded from the CCDC.
;
_cell_angle_alpha                90
_cell_angle_beta                 97.29(3)
_cell_angle_gamma                90
_cell_formula_units_Z            2
_cell_length_a                   12.364(3)
_cell_length_b                   33.500(7)
_cell_length_c                   12.912(3)
_cell_measurement_reflns_used    68881
_cell_measurement_temperature    100(2)
_cell_measurement_theta_max      29.048
_cell_measurement_theta_min      1.216
_cell_volume                     5305(2)
_computing_cell_refinement       'XDS (Kabsch, 1993)'
_computing_data_collection       'BluIce (McPhillips, 2002)'
_computing_data_reduction        'XDS (Kabsch, 1993)'
_computing_molecular_graphics    'Olex2 1.3 (Dolomanov et al., 2009)'
_computing_publication_material  'Olex2 1.3 (Dolomanov et al., 2009)'
_computing_structure_refinement  'SHELXL 2018/3 (Sheldrick, 2015)'
_computing_structure_solution    'SHELXT 2014/5 (Sheldrick, 2014)'
_diffrn_ambient_temperature      100(2)
_diffrn_measured_fraction_theta_full 0.944
_diffrn_measured_fraction_theta_max 0.750
_diffrn_measurement_device_type  'ADSC Quantum 210r'
_diffrn_measurement_method       'Phi Scan'
_diffrn_radiation_monochromator  'Silicon Double Crystal'
_diffrn_radiation_type           Synchrotron
_diffrn_radiation_wavelength     0.71073
_diffrn_reflns_av_R_equivalents  0.0390
_diffrn_reflns_av_unetI/netI     0.0280
_diffrn_reflns_Laue_measured_fraction_full 0.944
_diffrn_reflns_Laue_measured_fraction_max 0.750
_diffrn_reflns_limit_h_max       15
_diffrn_reflns_limit_h_min       -14
_diffrn_reflns_limit_k_max       39
_diffrn_reflns_limit_k_min       -39
_diffrn_reflns_limit_l_max       16
_diffrn_reflns_limit_l_min       -16
_diffrn_reflns_number            67414
_diffrn_reflns_point_group_measured_fraction_full 0.944
_diffrn_reflns_point_group_measured_fraction_max 0.750
_diffrn_reflns_theta_full        25.000
_diffrn_reflns_theta_max         28.912
_diffrn_reflns_theta_min         1.216
_diffrn_source                   'MX1 Beamline Australian Synchrotron'
_exptl_absorpt_coefficient_mu    1.181
_exptl_absorpt_correction_type   multi-scan
_exptl_absorpt_process_details   'XDS (Kabsch, 1993)'
_exptl_crystal_colour            'pale yellow'
_exptl_crystal_density_diffrn    1.251
_exptl_crystal_description       plate
_exptl_crystal_F_000             2074
_exptl_crystal_size_max          0.28
_exptl_crystal_size_mid          0.13
_exptl_crystal_size_min          0.02
_platon_squeeze_details
;
The structure contains large solvent accessible voids containing
disordered solvent, in this case ethanol. To account for the 
removed electron density, 8 ethanol molecules (26e) per 
formula unit were added to the formula (16 ethanol molecules
per unit cell).
;
_refine_diff_density_max         1.710
_refine_diff_density_min         -0.525
_refine_diff_density_rms         0.115
_refine_ls_extinction_method     none
_refine_ls_goodness_of_fit_ref   1.359
_refine_ls_hydrogen_treatment    constr
_refine_ls_matrix_type           full
_refine_ls_number_parameters     576
_refine_ls_number_reflns         10667
_refine_ls_number_restraints     199
_refine_ls_restrained_S_all      1.355
_refine_ls_R_factor_all          0.1004
_refine_ls_R_factor_gt           0.0924
_refine_ls_shift/su_max          0.000
_refine_ls_shift/su_mean         0.000
_refine_ls_structure_factor_coef Fsqd
_refine_ls_weighting_details
'w=1/[\s^2^(Fo^2^)+(0.2000P)^2^] where P=(Fo^2^+2Fc^2^)/3'
_refine_ls_weighting_scheme      calc
_refine_ls_wR_factor_gt          0.3047
_refine_ls_wR_factor_ref         0.3129
_reflns_Friedel_coverage         0.000
_reflns_number_gt                8625
_reflns_number_total             10667
_reflns_threshold_expression     'I > 2\s(I)'
_cod_data_source_file            d0cc06058e2.cif
_cod_data_source_block           MnMOF-1-IrClrev
_cod_depositor_comments
;
The following automatic conversions were performed:

data item '_exptl_absorpt_correction_type' value 'Multi-Scan' was
changed to 'multi-scan' in accordance with the
/home/data/users/saulius/crontab/automatic-downloads/rss-feeds/RSC/lib/dictionaries/cif_core.dic
dictionary named 'cif_core.dic' version 2.4.2 last updated on
2011-04-26.

Automatic conversion script
Id: cif_fix_values 7556 2019-12-06 15:28:31Z antanas 
;
_cod_original_cell_volume        5304.8(19)
_cod_original_formula_sum        'C90.88 H116.10 Cl0.60 Ir0.60 Mn3 N12 O20.02'
_cod_database_code               7127600
_shelx_shelxl_version_number     2018/3
_shelx_space_group_comment
;
The symmetry employed for this shelxl refinement is uniquely defined
by the following loop, which should always be used as a source of
symmetry information in preference to the above space-group names.
They are only intended as comments.
;
_shelx_estimated_absorpt_t_max   0.977
_shelx_estimated_absorpt_t_min   0.733
_olex2_refinement_description
;
1. Fixed Uiso
 At 1.2 times of:
  All C(H) groups, All C(H,H) groups
 At 1.5 times of:
  All C(H,H,H) groups
2. Restrained distances
 N62A-Ir3A
 2.15 with sigma of 0.02
 Ir3B-C85
 2.25 with sigma of 0.02
 Ir3B-C86
 2.25 with sigma of 0.02
 C85-C86
 1.3 with sigma of 0.02
 C85-C85_$1
 -2.6 with sigma of 0.02
 C63A-C66A
 1.54 with sigma of 0.02
 C65B-C67B
 -1.5 with sigma of 0.02
 C63B-C66B
 1.54 with sigma of 0.02
 N61B-C65B
 1.35 with sigma of 0.02
 N62B-C51B
 1.45 with sigma of 0.02
 C51A-N61A
 1.45 with sigma of 0.02
 N61A-N62A
 1.35 with sigma of 0.02
 C63A-C64A
 1.35 with sigma of 0.02
 C65A-C67A
 1.54 with sigma of 0.02
3. Restrained planarity
 C71A, C72A, C73A, C74A, C75A, C76A
 with sigma of 0.1
4. Uiso/Uaniso restraints and constraints
C51A \\sim N61A \\sim N62A \\sim C63A \\sim C64A \\sim C65A \\sim C66A \\sim
C67A \\sim N61B \\sim C65B \\sim C64B \\sim C63B \\sim C67B \\sim C71A \\sim
C72A \\sim C73A \\sim C74A \\sim C75A \\sim C76A \\sim Ir3A \\sim Ir3B \\sim
Cl81 \\sim Cl82: within 2A with sigma of 0.04 and sigma for terminal atoms of
0.08 within 2A
: with sigma of 0.1 and sigma for terminal atoms of 0.2
Uiso(C85) = Uiso(C86)
5. Same fragment restrains
{C51B, N62B, N61B, C65B, C64B, C63B, C67B, C66B, C71B, C72B, C73B, C74B, C75B,
C76B} sigma for 1-2: 0.02, 1-3: 0.04
as in
{C51A, N61A, N62A, C63A, C64A, C65A, C66A, C67A, C71A, C72A, C73A, C74A, C75A,
C76A}
6. Others
 Sof(C22B)=Sof(H22B)=Sof(C23B)=Sof(H23B)=Sof(C25B)=Sof(H25B)=Sof(C26B)=
 Sof(H26B)=1-FVAR(1)
 Sof(C22A)=Sof(H22A)=Sof(C23A)=Sof(H23A)=Sof(C25A)=Sof(H25A)=Sof(C26A)=
 Sof(H26A)=FVAR(1)
 Fixed Sof: C51B(0.375) H51A(0.375) H51B(0.375) N62B(0.75) N61B(0.75)
 C65B(0.75) C64B(0.75) C63B(0.75) C67B(0.75) H67A(0.75) H67B(0.75) H67C(0.75)
 C66B(0.75) H66A(0.75) H66B(0.75) H66C(0.75) C71B(0.75) C72B(0.75) H72B(0.75)
 C73B(0.75) H73B(0.75) C74B(0.75) C75B(0.75) H75B(0.75) C76B(0.75) H76B(0.75)
 C51A(0.125) H51C(0.125) H51D(0.125) N61A(0.25) N62A(0.25) C63A(0.25)
 C64A(0.25) C65A(0.25) C66A(0.25) H66D(0.25) H66E(0.25) H66F(0.25) C67A(0.25)
 H67D(0.25) H67E(0.25) H67F(0.25) C71A(0.25) C72A(0.25) H72A(0.25) C73A(0.25)
 H73A(0.25) C74A(0.25) C75A(0.25) H75A(0.25) C76A(0.25) H76A(0.25) Ir3A(0.05)
 Ir3B(0.25) Cl82(0.25) C85(0.25) H85A(0.25) H85B(0.25) Cl81(0.05) C86(0.25)
 H86A(0.25) H86B(0.25)
7.a Secondary CH2 refined with riding coordinates:
 C1(H1A,H1B), C51B(H51A,H51B), C51A(H51C,H51D), C85(H85A,H85B), C86(H86A,H86B)
7.b Aromatic/amide H refined with riding coordinates:
 C22A(H22A), C22B(H22B), C23A(H23A), C23B(H23B), C25A(H25A), C25B(H25B),
 C26A(H26A), C26B(H26B), C42(H42), C43(H43), C45(H45), C46(H46), C72B(H72B),
 C73B(H73B), C75B(H75B), C76B(H76B), C72A(H72A), C73A(H73A), C75A(H75A),
 C76A(H76A)
7.c Fitted hexagon refined as free rotating group:
 C71B(C72B,C73B,C74B,C75B,C76B)
7.d Idealised Me refined as rotating group:
 C16(H16A,H16B,H16C), C17(H17A,H17B,H17C), C36(H36A,H36B,H36C), C37(H37A,H37B,
 H37C), C67B(H67A,H67B,H67C), C66B(H66A,H66B,H66C), C66A(H66D,H66E,H66F),
 C67A(H67D,H67E,H67F)
;
_shelx_res_file
;
TITL test_a.res in P2(1)/m
    2test_sq.res
    created by SHELXL-2018/3 at 14:58:35 on 02-Oct-2020
CELL 0.71073 12.364 33.5 12.912 90 97.29 90
ZERR 2 0.0025 0.0067 0.0026 0 0.03 0
LATT 1
SYMM -X,0.5+Y,-Z
SFAC C H Cl Ir Mn N O
UNIT 181.75 232.2 1.2 1.2 6 24 40.05
EQIV $1 +X,0.5-Y,+Z
SIMU C51A > C67A N61B > C67B C71A > C76A Ir3A Ir3B Cl81 Cl82
DFIX 2.15 N62A Ir3A
ISOR C85 C71A C72A C73A
EADP C85 C86
DFIX 2.25 Ir3B C85
FLAT C71A C72A C73A C74A C75A C76A
DFIX 2.25 Ir3B C86
DFIX 1.3 C85 C86
DFIX -2.6 C85 C85_$1
DFIX 1.54 C63A C66A
DFIX -1.5 C65B C67B
DFIX 1.54 C63B C66B
DFIX 1.35 N61B C65B
DFIX 1.45 N62B C51B
DFIX 1.45 C51A N61A
DFIX 1.35 N61A N62A
DFIX 1.35 C63A C64A
DFIX 1.54 C65A C67A

L.S. 20 0 119
PLAN  6 0 0
SIZE 0.02 0.13 0.28
TEMP -173(2)
CONF
BOND $H
ABIN
GRID
MORE -1
fmap 2 1 53
acta 50
MERG 2
REM <olex2.extras>
REM <HklSrc "%.\\test_sq.hkl">
REM </olex2.extras>

WGHT    0.200000
FVAR       0.30218   0.63647
MN1   5    0.797490    0.568748    0.396989    11.00000    0.05344    0.06968 =
         0.03109    0.00119    0.00495    0.00352
C1    1    0.705932    0.649800    1.266751    11.00000    0.06134    0.06311 =
         0.04861    0.00124    0.01620    0.00323
AFIX  23
H1A   2    0.681023    0.674863    1.230697    11.00000   -1.20000
H1B   2    0.765780    0.656500    1.322451    11.00000   -1.20000
AFIX   0
MN2   5    1.000000    0.500000    0.500000    10.50000    0.06334    0.08753 =
         0.03372    0.00193    0.00726    0.01840
N11   6    0.746404    0.622902    1.192859    11.00000    0.07134    0.06860 =
         0.03619    0.00641    0.01539    0.00875
N12   6    0.798030    0.588812    1.228475    11.00000    0.06839    0.06438 =
         0.03884    0.00333    0.01203    0.01004
C13   1    0.825420    0.569828    1.145389    11.00000    0.07369    0.07549 =
         0.03547    0.00488    0.01060    0.01359
C14   1    0.789950    0.592041    1.053617    11.00000    0.08177    0.07801 =
         0.03411    0.00559    0.00968    0.01464
C15   1    0.739255    0.625389    1.086821    11.00000    0.07208    0.08283 =
         0.03781    0.00740    0.01140    0.01366
C16   1    0.885718    0.531259    1.155603    11.00000    0.12850    0.08947 =
         0.03719    0.00657    0.01886    0.04616
AFIX 137
H16A  2    0.921735    0.528316    1.227300    11.00000   -1.50000
H16B  2    0.940632    0.530913    1.107146    11.00000   -1.50000
H16C  2    0.834469    0.509168    1.139086    11.00000   -1.50000
AFIX   0
C17   1    0.682278    0.659092    1.026848    11.00000    0.14073    0.10134 =
         0.05570    0.02640    0.02622    0.04164
AFIX 137
H17A  2    0.613570    0.664801    1.054308    11.00000   -1.50000
H17B  2    0.667080    0.651713    0.952990    11.00000   -1.50000
H17C  2    0.728811    0.682868    1.033908    11.00000   -1.50000
AFIX   0
C21   1    0.805300    0.581955    0.945268    11.00000    0.07598    0.09574 =
         0.03504    0.00527    0.01167    0.01942
PART 1
C22A  1    0.790860    0.542045    0.909795    21.00000    0.09760    0.07183 =
         0.03707    0.00578    0.01340    0.00498
AFIX  43
H22A  2    0.769985    0.522215    0.955974    21.00000   -1.20000
AFIX   0
PART 2
C22B  1    0.910068    0.566209    0.924021   -21.00000    0.06205    0.12276 =
         0.03826    0.00194    0.00972    0.03353
AFIX  43
H22B  2    0.968174    0.562929    0.978987   -21.00000   -1.20000
AFIX   0
PART 1
C23A  1    0.806992    0.531085    0.806462    21.00000    0.08156    0.08051 =
         0.03835   -0.00260    0.00707    0.01182
AFIX  43
H23A  2    0.800069    0.504162    0.783469    21.00000   -1.20000
AFIX   0
PART 2
C23B  1    0.923701    0.556096    0.822544   -21.00000    0.07206    0.10018 =
         0.03141    0.00733    0.01009    0.02847
AFIX  43
H23B  2    0.991292    0.545701    0.806998   -21.00000   -1.20000
AFIX   0
PART 0
C24   1    0.833459    0.561560    0.740093    11.00000    0.06865    0.09906 =
         0.03157    0.00265    0.00854    0.01238
PART 1
C25A  1    0.834288    0.599496    0.770688    21.00000    0.09103    0.07874 =
         0.03631    0.00512    0.00447    0.00469
AFIX  43
H25A  2    0.841932    0.619946    0.721164    21.00000   -1.20000
AFIX   0
PART 2
C25B  1    0.749174    0.582999    0.769569   -21.00000    0.06367    0.15058 =
         0.04151   -0.00364   -0.00703    0.03516
AFIX  43
H25B  2    0.699416    0.594687    0.715982   -21.00000   -1.20000
AFIX   0
PART 1
C26A  1    0.824221    0.610059    0.873669    21.00000    0.07833    0.07691 =
         0.04081   -0.00034    0.00554    0.00440
AFIX  43
H26A  2    0.830688    0.637292    0.894031    21.00000   -1.20000
AFIX   0
PART 2
C26B  1    0.731013    0.588881    0.868463   -21.00000    0.07853    0.20939 =
         0.04574    0.01090    0.01080    0.06950
AFIX  43
H26B  2    0.661801    0.598366    0.882099   -21.00000   -1.20000
AFIX   0
PART 0
C27   1    0.848751    0.551134    0.629551    11.00000    0.07392    0.08497 =
         0.03820    0.00041    0.01216    0.01041
O28   7    0.908690    0.523557    0.615549    11.00000    0.14968    0.12893 =
         0.05060    0.01665    0.04195    0.06410
O29   7    0.798139    0.572046    0.558483    11.00000    0.08356    0.13385 =
         0.02938   -0.00272    0.00907    0.03249
N31   6    0.616226    0.632178    1.313317    11.00000    0.05569    0.07232 =
         0.04716    0.00787    0.01599    0.00853
N32   6    0.638480    0.600148    1.376232    11.00000    0.05712    0.07855 =
         0.04677    0.01311    0.01421    0.00515
C33   1    0.542546    0.587678    1.401362    11.00000    0.06161    0.08471 =
         0.05650    0.01263    0.01621    0.00204
C34   1    0.458166    0.612654    1.355331    11.00000    0.05616    0.08673 =
         0.06469    0.00458    0.01208    0.00536
C35   1    0.507628    0.640921    1.298384    11.00000    0.05793    0.08634 =
         0.05705    0.00809    0.01360    0.00898
C36   1    0.533806    0.552437    1.470216    11.00000    0.06865    0.11057 =
         0.09024    0.04058    0.02111   -0.00345
AFIX 137
H36A  2    0.513136    0.528881    1.427207    11.00000   -1.50000
H36B  2    0.478251    0.557569    1.516370    11.00000   -1.50000
H36C  2    0.604284    0.547683    1.512355    11.00000   -1.50000
AFIX   0
C37   1    0.463300    0.674670    1.234083    11.00000    0.07640    0.10468 =
         0.12376    0.03588    0.01847    0.02618
AFIX 137
H37A  2    0.469216    0.699097    1.276185    11.00000   -1.50000
H37B  2    0.386500    0.669582    1.208471    11.00000   -1.50000
H37C  2    0.504576    0.677874    1.174643    11.00000   -1.50000
AFIX   0
C41   1    0.341440    0.608669    1.366549    11.00000    0.05536    0.09201 =
         0.07311    0.00396    0.01236    0.00001
C42   1    0.279711    0.640507    1.396033    11.00000    0.06340    0.09877 =
         0.09928   -0.01036    0.01621   -0.00257
AFIX  43
H42   2    0.312695    0.665989    1.407859    11.00000   -1.20000
AFIX   0
C43   1    0.171500    0.635560    1.408283    11.00000    0.06223    0.09555 =
         0.10211   -0.01239    0.01781    0.00335
AFIX  43
H43   2    0.130348    0.657645    1.427822    11.00000   -1.20000
AFIX   0
C44   1    0.122419    0.598566    1.392264    11.00000    0.05298    0.09908 =
         0.07062   -0.00104    0.00971    0.00490
C45   1    0.182527    0.566695    1.360847    11.00000    0.06147    0.09390 =
         0.06912   -0.00313    0.01483    0.00088
AFIX  43
H45   2    0.148721    0.541415    1.347774    11.00000   -1.20000
AFIX   0
C46   1    0.291526    0.571586    1.348482    11.00000    0.06393    0.09733 =
         0.07219   -0.00177    0.02172    0.00420
AFIX  43
H46   2    0.332259    0.549607    1.327647    11.00000   -1.20000
AFIX   0
C47   1    0.005535    0.591978    1.407174    11.00000    0.05892    0.09775 =
         0.05157   -0.00029    0.01089    0.00259
O48   7   -0.056558    0.621058    1.415562    11.00000    0.05116    0.09763 =
         0.08294   -0.01001    0.00970    0.00169
O49   7   -0.029542    0.555710    1.406062    11.00000    0.05323    0.09345 =
         0.04488    0.00708    0.00915    0.00490
PART 2
C51B  1    0.409530    0.250000    0.129650    10.37500    0.13137    0.04738 =
         0.09645    0.00000   -0.02762    0.00000
AFIX  23
H51A  2    0.448927    0.250001    0.067516    10.37500   -1.20000
H51B  2    0.330359    0.250000    0.105067    10.37500   -1.20000
AFIX   0
N62B  6    0.437205    0.285578    0.189989    10.75000    0.12961    0.06401 =
         0.10146    0.00145   -0.02978   -0.00008
N61B  6    0.369013    0.292595    0.270519    10.75000    0.15241    0.06993 =
         0.08832   -0.00263    0.01233    0.00834
C65B  1    0.411722    0.327207    0.313392    10.75000    0.14137    0.06517 =
         0.08975   -0.00664    0.01083    0.00979
C64B  1    0.496014    0.341114    0.261116    10.75000    0.11954    0.05681 =
         0.08989   -0.00970   -0.02474    0.00092
C63B  1    0.513039    0.312783    0.183064    10.75000    0.09308    0.05491 =
         0.07018   -0.00098   -0.02621   -0.00050
C67B  1    0.368120    0.345296    0.406233    10.75000    0.21833    0.08872 =
         0.11247   -0.02786    0.01284    0.01046
AFIX 137
H67A  2    0.383645    0.373991    0.408748    10.75000   -1.50000
H67B  2    0.403143    0.332621    0.470260    10.75000   -1.50000
H67C  2    0.289140    0.341070    0.400230    10.75000   -1.50000
AFIX   0
C66B  1    0.596779    0.311447    0.106672    10.75000    0.14250    0.06731 =
         0.09776    0.00774   -0.03787   -0.00708
AFIX 137
H66A  2    0.645006    0.288449    0.122636    10.75000   -1.50000
H66B  2    0.640002    0.336050    0.112716    10.75000   -1.50000
H66C  2    0.559371    0.308979    0.035365    10.75000   -1.50000
AFIX  66
C71B  1    0.570248    0.377447    0.281804    10.75000    0.11004    0.05983 =
         0.08217   -0.00476   -0.03520    0.00060
C72B  1    0.679984    0.373266    0.319783    10.75000    0.18245    0.06146 =
         0.14429   -0.01283   -0.10030    0.02182
AFIX  43
H72B  2    0.711574    0.347425    0.327904    10.75000   -1.20000
AFIX  65
C73B  1    0.743499    0.406892    0.345880    10.75000    0.15830    0.07807 =
         0.13566   -0.02458   -0.08837    0.02688
AFIX  43
H73B  2    0.818498    0.404035    0.371837    10.75000   -1.20000
AFIX  65
C74B  1    0.697278    0.444701    0.333998    10.75000    0.08409    0.06400 =
         0.04468   -0.00821   -0.00979    0.00671
C75B  1    0.587542    0.448882    0.296019    10.75000    0.12599    0.06051 =
         0.06285    0.00113    0.00107   -0.00170
AFIX  43
H75B  2    0.555953    0.474723    0.287898    10.75000   -1.20000
AFIX  65
C76B  1    0.524026    0.415256    0.269921    10.75000    0.11499    0.06800 =
         0.07936    0.00166   -0.01673   -0.00631
AFIX  43
H76B  2    0.449027    0.418114    0.243964    10.75000   -1.20000
AFIX   0
SAME 0.02 0.04 C51B > C76B
PART 1
C51A  1    0.465933    0.250000    0.074489    10.12500    0.09487
AFIX  23
H51C  2    0.512858    0.250001    0.017803    10.12500   -1.20000
H51D  2    0.388732    0.250000    0.042705    10.12500   -1.20000
AFIX   0
N61A  6    0.488307    0.284515    0.139874    10.25000    0.12411
N62A  6    0.408375    0.287805    0.209611    10.25000    0.11474
C63A  1    0.445969    0.321778    0.263629    10.25000    0.09212
C64A  1    0.538294    0.336934    0.228588    10.25000    0.11047
C65A  1    0.567438    0.310075    0.151498    10.25000    0.10731
C66A  1    0.385097    0.338090    0.348881    10.25000    0.10297
AFIX 137
H66D  2    0.346274    0.316315    0.378940    10.25000   -1.50000
H66E  2    0.332581    0.358268    0.319440    10.25000   -1.50000
H66F  2    0.436987    0.350256    0.403508    10.25000   -1.50000
AFIX   0
C67A  1    0.652536    0.319493    0.077834    10.25000    0.12177
AFIX 137
H67D  2    0.698491    0.295984    0.071803    10.25000   -1.50000
H67E  2    0.698067    0.341893    0.106011    10.25000   -1.50000
H67F  2    0.615276    0.326604    0.008749    10.25000   -1.50000
AFIX   0
C71A  1    0.618117    0.372244    0.244207    10.25000    0.14899
C72A  1    0.723027    0.369393    0.297007    10.25000    0.18758
AFIX  43
H72A  2    0.755997    0.343921    0.309088    10.25000   -1.20000
AFIX   0
C73A  1    0.779950    0.403504    0.332204    10.25000    0.15775
AFIX  43
H73A  2    0.851906    0.401125    0.367482    10.25000   -1.20000
AFIX   0
C74A  1    0.733126    0.441115    0.316549    10.25000    0.07945
C75A  1    0.626648    0.443520    0.268381    10.25000    0.09993
AFIX  43
H75A  2    0.587619    0.467970    0.267494    10.25000   -1.20000
AFIX   0
C76A  1    0.578029    0.409743    0.221574    10.25000    0.11812
AFIX  43
H76A  2    0.514765    0.412684    0.172121    10.25000   -1.20000
AFIX   0
PART 0
C77   1    0.768881    0.480679    0.368507    11.00000    0.09567    0.07269 =
         0.04273    0.00269   -0.00157   -0.00482
O78   7    0.863534    0.474010    0.412095    11.00000    0.10609    0.08839 =
         0.08933    0.00708   -0.02506   -0.00231
O79   7    0.727183    0.513589    0.350634    11.00000    0.08610    0.07075 =
         0.06410    0.00085    0.00611   -0.00337
PART 1
IR3A  4    0.280892    0.250000    0.259803    10.05000    0.10722
PART 2
IR3B  4    0.256844    0.250000    0.313187    10.25000    0.16537    0.05357 =
         0.13222    0.00000    0.05761    0.00000
CL82  3    0.375470    0.250000    0.498747    10.25000    0.47268    0.09926 =
         0.13405    0.00000    0.03711    0.00000
C85   1    0.119079    0.211256    0.239001    10.25000    0.17935
AFIX  23
H85A  2    0.052750    0.225407    0.207241    10.25000   -1.20000
H85B  2    0.139832    0.188690    0.196108    10.25000   -1.20000
AFIX   0

CL81  3    0.646764    0.750000    1.157572    10.05000    0.08045
C86   1    0.126644    0.205202    0.336204    10.25000    0.17935
AFIX  23
H86A  2    0.152412    0.178403    0.360444    10.25000   -1.20000
H86B  2    0.065377    0.215101    0.371571    10.25000   -1.20000
AFIX   0
HKLF 4




REM  test_a.res in P2(1)/m
REM wR2 = 0.3129, GooF = S = 1.359, Restrained GooF = 1.355 for all data
REM R1 = 0.0924 for 8625 Fo > 4sig(Fo) and 0.1004 for all 10667 data
REM 576 parameters refined using 199 restraints

END

WGHT      0.2000      0.0000

REM Highest difference peak  1.710,  deepest hole -0.525,  1-sigma level  0.115
Q1    1   0.3085  0.2500  0.3610  10.50000  0.05    1.71
Q2    1   0.6840  0.7500  1.2377  10.50000  0.05    1.50
Q3    1   0.4846  0.2500 -0.0828  10.50000  0.05    1.50
Q4    1   0.3002  0.2500  0.2010  10.50000  0.05    1.15
Q5    1   0.1774  0.2500  0.1745  10.50000  0.05    0.94
Q6    1   0.6015  0.7500  1.1377  10.50000  0.05    0.87
;
_shelx_res_checksum              31931
_shelx_fab_file
;
    0    2    0   -142.15      0.00
    0    4    0    101.37      0.00
    0    6    0    -72.31      0.00
    0    8    0     11.57      0.00
    0   10    0    -50.92      0.00
    0   12    0     30.67      0.00
    0   14    0    -41.24      0.00
    0   16    0     29.80      0.00
    0   18    0    -18.57      0.00
    0   20    0     18.24      0.00
    0   22    0    -13.85      0.00
    0   24    0      6.03      0.00
    0   26    0     -7.88      0.00
    0   28    0      3.19      0.00
    0   30    0     -3.27      0.00
    0   32    0      2.07      0.00
    0   34    0     -1.72      0.00
    0   36    0      1.67      0.00
    0   38    0     -2.10      0.00
    0   39    1      0.21      0.00
    0   38    1      0.31      0.00
    0   37    1     -0.14      0.00
    0   36    1     -0.06      0.00
    0   35    1     -0.54      0.00
    0   34    1     -0.72      0.00
    0   33    1      0.09      0.00
    0   32    1      1.57      0.00
    0   31    1     -0.06      0.00
    0   30    1     -1.72      0.00
    0   29    1      0.59      0.00
    0   28    1      1.16      0.00
    0   27    1     -1.08      0.00
    0   26    1     -2.90      0.00
    0   25    1      3.98      0.00
    0   24    1     -1.48      0.00
    0   23    1     -2.45      0.00
    0   22    1     -0.35      0.00
    0   21    1      4.96      0.00
    0   20    1     -3.39      0.00
    0   19    1     -5.86      0.00
    0   18    1     11.26      0.00
    0   17    1      8.55      0.00
    0   16    1     -2.58      0.00
    0   15    1    -12.13      0.00
    0   14    1     -3.68      0.00
    0   13    1     10.89      0.00
    0   12    1     -6.94      0.00
    0   11    1     -0.62      0.00
    0   10    1     -3.94      0.00
    0    9    1     15.50      0.00
    0    8    1    -38.45      0.00
    0    7    1      5.27      0.00
    0    6    1      8.16      0.00
    0    5    1     53.98      0.00
    0    4    1    -46.61      0.00
    0    3    1     -9.95      0.00
    0    2    1     86.86      0.00
    0    1    1     48.56      0.00
    0    0    1    109.28      0.00
    0   38    2     -0.17      0.00
    0   37    2     -0.22      0.00
    0   36    2      0.77      0.00
    0   35    2     -0.38      0.00
    0   34    2     -0.34      0.00
    0   33    2      1.07      0.00
    0   32    2      0.55      0.00
    0   31    2     -1.43      0.00
    0   30    2      1.04      0.00
    0   29    2      1.91      0.00
    0   28    2     -0.28      0.00
    0   27    2     -0.73      0.00
    0   26    2      0.08      0.00
    0   25    2      2.13      0.00
    0   24    2     -1.16      0.00
    0   23    2      3.05      0.00
    0   22    2     -3.02      0.00
    0   21    2     -2.00      0.00
    0   19    2      5.04      0.00
    0   18    2      1.03      0.00
    0   17    2     -4.16      0.00
    0   16    2     10.66      0.00
    0   15    2     -1.53      0.00
    0   14    2     -7.18      0.00
    0   13    2      4.86      0.00
    0   12    2     -0.57      0.00
    0   10    2     -1.93      0.00
    0    9    2     19.89      0.00
    0    8    2    -14.97      0.00
    0    7    2     31.91      0.00
    0    6    2    -34.36      0.00
    0    4    2     16.57      0.00
    0    3    2     33.61      0.00
    0    2    2     10.22      0.00
    0    0    2     56.81      0.00
    0    5    2     12.47      0.00
    0   11    2     -4.46      0.00
    0   39    2      0.07      0.00
    0   38    3     -0.02      0.00
    0   37    3     -0.08      0.00
    0   36    3      0.19      0.00
    0   35    3      0.38      0.00
    0   34    3      0.94      0.00
    0   33    3     -0.03      0.00
    0   32    3      0.38      0.00
    0   31    3      0.09      0.00
    0   30    3      0.23      0.00
    0   29    3      0.04      0.00
    0   28    3      1.91      0.00
    0   27    3      0.14      0.00
    0   26    3     -0.55      0.00
    0   25    3      2.45      0.00
    0   24    3      0.51      0.00
    0   23    3     -1.72      0.00
    0   22    3     -2.93      0.00
    0   21    3      5.05      0.00
    0   18    3      2.14      0.00
    0   16    3      6.75      0.00
    0   15    3     -4.57      0.00
    0   13    3     -2.14      0.00
    0   12    3      2.78      0.00
    0   11    3     -0.25      0.00
    0   10    3     -4.84      0.00
    0    9    3     12.68      0.00
    0    8    3     -4.88      0.00
    0    7    3     12.83      0.00
    0    6    3    -20.16      0.00
    0    5    3      6.85      0.00
    0    4    3     -0.44      0.00
    0    3    3     16.21      0.00
    0    1    3     32.47      0.00
    0    0    3    -20.11      0.00
    0   17    3      2.68      0.00
    0   19    3     -2.55      0.00
    0   20    3      1.39      0.00
    0   39    3     -0.33      0.00
    0   37    4     -0.37      0.00
    0   36    4     -0.41      0.00
    0   35    4     -0.58      0.00
    0   34    4      0.77      0.00
    0   33    4      0.98      0.00
    0   32    4      0.33      0.00
    0   31    4     -1.71      0.00
    0   30    4      0.22      0.00
    0   29    4      1.20      0.00
    0   28    4      0.08      0.00
    0   27    4     -1.66      0.00
    0   26    4      2.81      0.00
    0   25    4      1.05      0.00
    0   24    4     -3.59      0.00
    0   23    4     -0.96      0.00
    0   22    4      1.81      0.00
    0   21    4      1.13      0.00
    0   20    4     -3.56      0.00
    0   19    4     -1.15      0.00
    0   17    4      3.09      0.00
    0   15    4     -7.50      0.00
    0   14    4      5.12      0.00
    0   13    4      3.53      0.00
    0   12    4     -4.31      0.00
    0   11    4     -7.97      0.00
    0    9    4      3.30      0.00
    0    8    4    -12.49      0.00
    0    7    4     -8.02      0.00
    0    6    4      1.42      0.00
    0    5    4      6.58      0.00
    0    4    4    -14.02      0.00
    0    3    4     -5.80      0.00
    0    2    4     12.55      0.00
    0    1    4     18.14      0.00
    0    0    4    -31.98      0.00
    0   10    4      8.39      0.00
    0   16    4      1.62      0.00
    0   18    4      3.93      0.00
    0   38    4      0.00      0.00
    0   37    5     -0.35      0.00
    0   36    5     -1.34      0.00
    0   35    5     -0.33      0.00
    0   34    5      0.27      0.00
    0   33    5     -0.81      0.00
    0   32    5     -0.46      0.00
    0   31    5      0.30      0.00
    0   30    5      0.45      0.00
    0   29    5     -1.03      0.00
    0   28    5      0.21      0.00
    0   27    5     -0.96      0.00
    0   26    5     -0.14      0.00
    0   25    5     -0.37      0.00
    0   24    5     -1.61      0.00
    0   22    5      0.35      0.00
    0   20    5     -2.69      0.00
    0   19    5      0.75      0.00
    0   16    5     -4.68      0.00
    0   14    5      3.24      0.00
    0   13    5     -3.03      0.00
    0   11    5      0.04      0.00
    0   10    5      1.23      0.00
    0    8    5     -3.70      0.00
    0    7    5     -0.91      0.00
    0    6    5      1.39      0.00
    0    4    5     -1.05      0.00
    0    3    5      2.85      0.00
    0    2    5      0.80      0.00
    0   12    5     -0.11      0.00
    0   18    5      4.83      0.00
    0   36    6     -0.72      0.00
    0   35    6      0.21      0.00
    0   34    6     -0.61      0.00
    0   33    6     -0.11      0.00
    0   32    6     -0.36      0.00
    0   31    6     -0.71      0.00
    0   30    6      0.54      0.00
    0   29    6     -0.60      0.00
    0   28    6     -1.36      0.00
    0   27    6     -0.05      0.00
    0   26    6      0.33      0.00
    0   25    6     -0.88      0.00
    0   24    6     -2.50      0.00
    0   23    6     -0.20      0.00
    0   21    6     -2.26      0.00
    0   20    6      1.98      0.00
    0   19    6     -0.24      0.00
    0   17    6     -0.36      0.00
    0   16    6     -1.67      0.00
    0   15    6      2.52      0.00
    0   13    6     -2.54      0.00
    0   12    6     -3.11      0.00
    0   11    6      1.97      0.00
    0   10    6     -0.25      0.00
    0    9    6    -13.52      0.00
    0    8    6     -4.39      0.00
    0    7    6     -3.42      0.00
    0    6    6      6.42      0.00
    0    5    6    -10.24      0.00
    0    4    6      1.97      0.00
    0    3    6     -0.67      0.00
    0    2    6      7.82      0.00
    0    1    6     -6.43      0.00
    0   22    6     -0.57      0.00
    0   37    6     -0.99      0.00
    0   34    7      0.36      0.00
    0   33    7     -0.13      0.00
    0   32    7     -0.49      0.00
    0   31    7      0.18      0.00
    0   30    7     -0.24      0.00
    0   29    7     -1.11      0.00
    0   28    7     -1.02      0.00
    0   27    7      0.40      0.00
    0   26    7     -0.33      0.00
    0   25    7     -0.06      0.00
    0   24    7     -1.32      0.00
    0   23    7     -0.66      0.00
    0   22    7      0.09      0.00
    0   21    7      0.46      0.00
    0   20    7     -0.39      0.00
    0   19    7     -0.17      0.00
    0   18    7      0.94      0.00
    0   17    7     -0.45      0.00
    0   16    7     -2.20      0.00
    0   14    7      1.32      0.00
    0   12    7     -4.11      0.00
    0   11    7      0.73      0.00
    0   10    7     -5.85      0.00
    0    9    7     -4.03      0.00
    0    8    7     -0.22      0.00
    0    7    7     -3.30      0.00
    0    6    7      3.38      0.00
    0    5    7     -5.25      0.00
    0    4    7      7.70      0.00
    0    3    7     -4.70      0.00
    0    2    7      5.03      0.00
    0    1    7      1.49      0.00
    0    0    7      6.17      0.00
    0   15    7      0.76      0.00
    0   35    7      0.21      0.00
    0   36    7     -0.82      0.00
    0   33    8     -0.78      0.00
    0   32    8      0.01      0.00
    0   31    8      0.35      0.00
    0   30    8     -0.68      0.00
    0   29    8     -0.54      0.00
    0   28    8     -0.57      0.00
    0   27    8      0.17      0.00
    0   26    8      0.33      0.00
    0   25    8     -0.72      0.00
    0   24    8     -1.15      0.00
    0   23    8      1.46      0.00
    0   22    8      0.44      0.00
    0   21    8     -0.05      0.00
    0   20    8     -0.21      0.00
    0   19    8      1.48      0.00
    0   18    8      0.35      0.00
    0   17    8     -1.94      0.00
    0   16    8     -0.25      0.00
    0   15    8      1.66      0.00
    0   14    8      0.23      0.00
    0   13    8      0.79      0.00
    0   12    8     -3.39      0.00
    0   11    8      2.53      0.00
    0   10    8     -4.20      0.00
    0    9    8     -2.41      0.00
    0    8    8     -1.58      0.00
    0    7    8      3.72      0.00
    0    6    8      2.49      0.00
    0    5    8     -5.01      0.00
    0    4    8      6.12      0.00
    0    3    8      2.29      0.00
    0    2    8      4.90      0.00
    0    1    8     -5.52      0.00
    0    0    8      2.35      0.00
    0   34    8     -0.19      0.00
    0   31    9     -1.18      0.00
    0   30    9     -0.20      0.00
    0   29    9     -0.08      0.00
    0   28    9      0.25      0.00
    0   27    9      0.56      0.00
    0   26    9     -0.54      0.00
    0   25    9     -0.14      0.00
    0   24    9      0.42      0.00
    0   23    9     -0.08      0.00
    0   22    9     -0.77      0.00
    0   21    9      1.54      0.00
    0   20    9      1.58      0.00
    0   19    9     -1.07      0.00
    0   18    9     -0.37      0.00
    0   17    9      0.97      0.00
    0   16    9      0.29      0.00
    0   15    9     -0.01      0.00
    0   14    9     -0.45      0.00
    0   13    9      1.99      0.00
    0   12    9     -0.88      0.00
    0   11    9     -0.38      0.00
    0   10    9     -2.70      0.00
    0    9    9      2.47      0.00
    0    8    9     -0.47      0.00
    0    7    9      1.06      0.00
    0    6    9     -0.09      0.00
    0    5    9      1.12      0.00
    0    4    9      3.23      0.00
    0    3    9      2.55      0.00
    0    2    9      3.29      0.00
    0    1    9     -3.69      0.00
    0    0    9     -0.75      0.00
    0   32    9     -0.19      0.00
    0   33    9      0.84      0.00
    0   29   10      0.26      0.00
    0   28   10      0.01      0.00
    0   27   10      0.36      0.00
    0   26   10      0.16      0.00
    0   25   10      0.13      0.00
    0   24   10     -0.31      0.00
    0   23   10     -0.21      0.00
    0   22   10      0.86      0.00
    0   21   10      0.27      0.00
    0   20   10     -0.34      0.00
    0   19   10      0.28      0.00
    0   18   10      0.24      0.00
    0   17   10     -0.43      0.00
    0   16   10      1.31      0.00
    0   15   10      0.59      0.00
    0   14   10     -0.56      0.00
    0   13   10     -0.11      0.00
    0   12   10     -0.79      0.00
    0   11   10      0.42      0.00
    0   10   10     -1.31      0.00
    0    9   10      1.13      0.00
    0    8   10      0.49      0.00
    0    7   10      0.70      0.00
    0    6   10     -1.23      0.00
    0    5   10      2.18      0.00
    0    4   10      1.07      0.00
    0    3   10      2.19      0.00
    0    2   10     -1.06      0.00
    0    1   10     -1.28      0.00
    0    0   10      0.64      0.00
    0   30   10     -0.11      0.00
    0   31   10     -0.26      0.00
    0   27   11      0.12      0.00
    0   26   11      0.36      0.00
    0   25   11     -0.02      0.00
    0   24   11      0.31      0.00
    0   23   11     -0.41      0.00
    0   22   11     -0.29      0.00
    0   21   11      1.11      0.00
    0   20   11     -0.26      0.00
    0   19   11     -0.19      0.00
    0   18   11      0.25      0.00
    0   17   11     -0.37      0.00
    0   16   11      0.68      0.00
    0   15   11     -0.80      0.00
    0   14   11      1.10      0.00
    0   13   11     -0.24      0.00
    0   12   11     -1.62      0.00
    0   11   11     -1.28      0.00
    0   10   11     -0.49      0.00
    0    9   11      1.46      0.00
    0    8   11      0.21      0.00
    0    7   11     -0.44      0.00
    0    6   11     -0.39      0.00
    0    5   11      2.04      0.00
    0    4   11     -1.32      0.00
    0    3   11      0.44      0.00
    0    2   11     -0.58      0.00
    0    1   11     -0.43      0.00
    0    0   11     -2.45      0.00
    0   28   11      0.49      0.00
    0   29   11      0.37      0.00
    0   25   12     -0.09      0.00
    0   24   12      0.23      0.00
    0   23   12      0.23      0.00
    0   22   12      0.02      0.00
    0   21   12     -0.09      0.00
    0   20   12     -0.55      0.00
    0   19   12      0.61      0.00
    0   18   12      0.31      0.00
    0   17   12      0.02      0.00
    0   16   12      0.06      0.00
    0   15   12     -0.68      0.00
    0   14   12      0.38      0.00
    0   13   12     -1.70      0.00
    0   12   12      0.35      0.00
    0   10   12     -0.85      0.00
    0    9   12      0.46      0.00
    0    8   12      0.70      0.00
    0    7   12     -0.44      0.00
    0    6   12     -0.50      0.00
    0    5   12      0.73      0.00
    0    4   12     -0.37      0.00
    0    3   12     -0.76      0.00
    0    2   12     -1.25      0.00
    0    1   12     -0.47      0.00
    0    0   12     -1.99      0.00
    0   11   12     -0.96      0.00
    0   26   12      0.40      0.00
    0   27   12     -0.28      0.00
    0   21   13     -0.36      0.00
    0   20   13      0.47      0.00
    0   19   13     -0.38      0.00
    0   18   13      0.04      0.00
    0   17   13      1.21      0.00
    0   16   13     -0.74      0.00
    0   15   13     -0.24      0.00
    0   14   13      0.07      0.00
    0   13   13     -1.26      0.00
    0   12   13     -0.27      0.00
    0   11   13     -1.13      0.00
    0   10   13      0.94      0.00
    0    9   13     -0.31      0.00
    0    8   13      0.07      0.00
    0    7   13     -0.33      0.00
    0    6   13      0.32      0.00
    0    5   13     -0.52      0.00
    0    4   13     -0.18      0.00
    0    3   13     -1.00      0.00
    0    2   13     -0.29      0.00
    0    1   13     -0.23      0.00
    0    0   13     -0.32      0.00
    0   22   13     -0.31      0.00
    0   23   13      0.59      0.00
    0   24   13      0.90      0.00
    0   18   14      0.62      0.00
    0   17   14     -0.43      0.00
    0   16   14     -1.00      0.00
    0   15   14      0.78      0.00
    0   14   14     -0.89      0.00
    0   13   14     -0.10      0.00
    0   12   14      0.19      0.00
    0   11   14     -1.21      0.00
    0   10   14     -0.07      0.00
    0    9   14     -0.32      0.00
    0    8   14      0.97      0.00
    0    7   14     -0.08      0.00
    0    6   14      0.03      0.00
    0    5   14     -0.48      0.00
    0    4   14      0.03      0.00
    0    3   14     -0.27      0.00
    0    2   14      0.87      0.00
    0    1   14     -0.49      0.00
    0    0   14      1.42      0.00
    0   19   14      0.15      0.00
    0   20   14      0.65      0.00
    0   12   15     -0.64      0.00
    0   11   15     -0.19      0.00
    0   10   15      0.95      0.00
    0    9   15     -0.10      0.00
    0    8   15     -0.32      0.00
    0    7   15      0.59      0.00
    0    6   15      0.41      0.00
    0    5   15      0.24      0.00
    0    4   15     -0.11      0.00
    0    3   15      0.03      0.00
    0    2   15      1.02      0.00
    0    1   15      0.39      0.00
    0    0   15      1.40      0.00
    0   13   15      0.22      0.00
    0   14   15     -0.71      0.00
    0   15   15     -0.27      0.00
    0    2   16      0.44      0.00
    0    1   16      0.63      0.00
    0    0   16      0.10      0.00
    0    3   16      0.13      0.00
    0    4   16     -0.19      0.00
    0    5   16      0.19      0.00
    0    6   16     -0.45      0.00
   -1   14   15      0.50      0.00
   -1   13   15      0.28      0.00
   -1   12   15      0.29      0.00
   -1   11   15     -0.18      0.00
   -1   10   15      0.71      0.00
   -1    9   15     -0.38      0.00
   -1    8   15     -1.10      0.00
   -1    7   15      0.87      0.00
   -1    6   15      0.71      0.00
   -1    5   15     -0.86      0.00
   -1    4   15     -0.67      0.00
   -1    3   15     -0.33      0.00
   -1    2   15     -0.03      0.00
   -1    1   15      0.76      0.00
   -1    0   15     -1.43      0.00
   -1   19   14      1.15      0.00
   -1   18   14     -0.28      0.00
   -1   17   14      0.22      0.00
   -1   16   14      0.27      0.00
   -1   15   14      0.67      0.00
   -1   14   14      0.56      0.00
   -1   13   14      0.35      0.00
   -1   12   14      0.35      0.00
   -1   11   14     -0.27      0.00
   -1   10   14     -0.77      0.00
   -1    9   14      0.94      0.00
   -1    8   14      0.23      0.00
   -1    7   14      0.23      0.00
   -1    6   14     -0.06      0.00
   -1    5   14      0.54      0.00
   -1    4   14      0.13      0.00
   -1    3   14      0.51      0.00
   -1    2   14     -0.20      0.00
   -1    1   14      0.53      0.00
   -1    0   14     -0.42      0.00
   -1   23   13      1.08      0.00
   -1   22   13      0.08      0.00
   -1   21   13     -0.76      0.00
   -1   20   13      0.15      0.00
   -1   19   13      0.14      0.00
   -1   18   13      0.33      0.00
   -1   17   13      0.87      0.00
   -1   16   13      0.53      0.00
   -1   15   13      0.54      0.00
   -1   14   13     -0.20      0.00
   -1   13   13      0.33      0.00
   -1   12   13     -0.66      0.00
   -1   11   13      0.77      0.00
   -1   10   13     -1.05      0.00
   -1    9   13      0.22      0.00
   -1    8   13      0.38      0.00
   -1    7   13     -0.26      0.00
   -1    6   13      0.20      0.00
   -1    5   13      0.99      0.00
   -1    4   13      0.45      0.00
   -1    3   13      0.98      0.00
   -1    2   13      1.48      0.00
   -1    1   13      0.45      0.00
   -1    0   13      0.21      0.00
   -1   26   12      0.22      0.00
   -1   25   12      0.41      0.00
   -1   24   12     -1.03      0.00
   -1   23   12     -0.72      0.00
   -1   22   12      0.52      0.00
   -1   21   12     -0.61      0.00
   -1   20   12     -0.70      0.00
   -1   19   12      0.24      0.00
   -1   18   12      0.97      0.00
   -1   17   12     -0.03      0.00
   -1   16   12     -0.33      0.00
   -1   15   12      1.26      0.00
   -1   14   12     -0.34      0.00
   -1   13   12      0.43      0.00
   -1   12   12     -0.50      0.00
   -1   11   12      0.40      0.00
   -1   10   12     -0.66      0.00
   -1    9   12     -0.91      0.00
   -1    8   12      0.31      0.00
   -1    7   12     -0.77      0.00
   -1    6   12     -0.20      0.00
   -1    5   12      0.24      0.00
   -1    4   12      0.78      0.00
   -1    3   12      0.93      0.00
   -1    2   12      2.57      0.00
   -1    1   12     -1.61      0.00
   -1    0   12      0.98      0.00
   -1   29   11      0.88      0.00
   -1   28   11      0.09      0.00
   -1   27   11     -0.68      0.00
   -1   26   11      0.00      0.00
   -1   25   11     -0.42      0.00
   -1   24   11      0.41      0.00
   -1   23   11     -0.66      0.00
   -1   22   11     -0.87      0.00
   -1   21   11      0.11      0.00
   -1   20   11      0.36      0.00
   -1   19   11     -0.34      0.00
   -1   18   11     -0.67      0.00
   -1   17   11      0.07      0.00
   -1   16   11      0.31      0.00
   -1   14   11     -0.02      0.00
   -1   13   11      0.76      0.00
   -1   12   11      0.45      0.00
   -1   11   11     -1.38      0.00
   -1   10   11     -0.04      0.00
   -1    9   11     -0.41      0.00
   -1    8   11      0.55      0.00
   -1    7   11     -1.74      0.00
   -1    6   11     -1.06      0.00
   -1    5   11     -0.42      0.00
   -1    4   11      0.64      0.00
   -1    3   11     -1.46      0.00
   -1    2   11      1.73      0.00
   -1    1   11     -1.03      0.00
   -1    0   11      1.05      0.00
   -1   15   11      0.54      0.00
   -1   31   10      1.26      0.00
   -1   30   10      0.34      0.00
   -1   29   10      0.34      0.00
   -1   28   10     -0.40      0.00
   -1   27   10     -0.31      0.00
   -1   26   10      0.87      0.00
   -1   25   10      0.39      0.00
   -1   24   10     -0.76      0.00
   -1   23   10     -0.77      0.00
   -1   22   10      1.02      0.00
   -1   21   10     -0.11      0.00
   -1   20   10     -1.06      0.00
   -1   19   10      0.19      0.00
   -1   18   10      0.46      0.00
   -1   17   10     -0.63      0.00
   -1   16   10     -0.33      0.00
   -1   15   10      0.55      0.00
   -1   14   10      1.07      0.00
   -1   13   10     -0.38      0.00
   -1   12   10      0.27      0.00
   -1   11   10     -1.34      0.00
   -1   10   10      1.38      0.00
   -1    9   10     -0.62      0.00
   -1    8   10      0.19      0.00
   -1    7   10     -1.90      0.00
   -1    6   10     -0.17      0.00
   -1    5   10     -2.93      0.00
   -1    4   10     -1.32      0.00
   -1    3   10     -0.14      0.00
   -1    2   10      0.74      0.00
   -1    1   10     -2.07      0.00
   -1    0   10     -3.48      0.00
   -1   32    9      0.67      0.00
   -1   31    9     -1.50      0.00
   -1   30    9      0.40      0.00
   -1   29    9      0.58      0.00
   -1   28    9      0.73      0.00
   -1   27    9      0.71      0.00
   -1   26    9      0.04      0.00
   -1   25    9      0.30      0.00
   -1   24    9     -0.26      0.00
   -1   23    9     -0.02      0.00
   -1   22    9     -0.43      0.00
   -1   21    9     -0.28      0.00
   -1   20    9      1.59      0.00
   -1   19    9     -0.99      0.00
   -1   18    9     -0.57      0.00
   -1   17    9      0.13      0.00
   -1   16    9      0.19      0.00
   -1   15    9      0.18      0.00
   -1   14    9      0.61      0.00
   -1   13    9      0.21      0.00
   -1   12    9      1.37      0.00
   -1   11    9     -0.91      0.00
   -1   10    9      1.80      0.00
   -1    9    9     -2.39      0.00
   -1    8    9      1.81      0.00
   -1    7    9     -0.75      0.00
   -1    6    9     -0.39      0.00
   -1    5    9     -3.51      0.00
   -1    4    9     -1.82      0.00
   -1    3    9      2.73      0.00
   -1    2    9     -3.87      0.00
   -1    1    9     -2.03      0.00
   -1    0    9     -6.42      0.00
   -1   34    8     -0.21      0.00
   -1   33    8     -0.60      0.00
   -1   32    8     -0.21      0.00
   -1   31    8     -0.25      0.00
   -1   30    8      0.77      0.00
   -1   29    8      0.58      0.00
   -1   28    8     -0.06      0.00
   -1   27    8      0.10      0.00
   -1   26    8      0.17      0.00
   -1   25    8      1.51      0.00
   -1   24    8      0.06      0.00
   -1   23    8     -0.89      0.00
   -1   22    8      0.59      0.00
   -1   21    8      0.41      0.00
   -1   20    8     -0.03      0.00
   -1   19    8     -1.65      0.00
   -1   18    8      0.60      0.00
   -1   17    8      0.92      0.00
   -1   16    8     -0.71      0.00
   -1   15    8     -1.51      0.00
   -1   14    8      2.27      0.00
   -1   13    8      4.04      0.00
   -1   12    8      1.11      0.00
   -1   11    8     -2.94      0.00
   -1   10    8      4.61      0.00
   -1    9    8      0.04      0.00
   -1    8    8      0.59      0.00
   -1    7    8     -1.35      0.00
   -1    6    8      3.31      0.00
   -1    5    8      3.36      0.00
   -1    4    8     -8.48      0.00
   -1    3    8      0.34      0.00
   -1    2    8     -1.46      0.00
   -1    1    8      3.18      0.00
   -1    0    8    -11.97      0.00
   -1   35    7     -0.45      0.00
   -1   34    7     -0.01      0.00
   -1   33    7     -0.57      0.00
   -1   32    7      0.25      0.00
   -1   31    7     -0.85      0.00
   -1   30    7     -0.71      0.00
   -1   29    7      0.30      0.00
   -1   28    7     -0.40      0.00
   -1   27    7      1.39      0.00
   -1   26    7     -0.30      0.00
   -1   25    7      0.42      0.00
   -1   24    7      1.75      0.00
   -1   23    7     -0.04      0.00
   -1   22    7      0.37      0.00
   -1   21    7     -0.56      0.00
   -1   20    7      0.40      0.00
   -1   19    7      0.47      0.00
   -1   18    7     -1.20      0.00
   -1   17    7     -0.62      0.00
   -1   16    7     -0.39      0.00
   -1   15    7      0.24      0.00
   -1   13    7      0.92      0.00
   -1   12    7      4.41      0.00
   -1   11    7      2.75      0.00
   -1    9    7     -0.41      0.00
   -1    8    7      2.09      0.00
   -1    7    7      5.71      0.00
   -1    6    7      0.64      0.00
   -1    5    7      2.99      0.00
   -1    4    7     -4.79      0.00
   -1    3    7      3.50      0.00
   -1    2    7     -6.07      0.00
   -1    1    7      0.67      0.00
   -1    0    7     -4.50      0.00
   -1   36    6      0.31      0.00
   -1   35    6     -0.15      0.00
   -1   34    6     -0.46      0.00
   -1   33    6     -0.57      0.00
   -1   32    6     -0.19      0.00
   -1   31    6     -0.85      0.00
   -1   30    6     -0.83      0.00
   -1   29    6      1.28      0.00
   -1   28    6     -0.65      0.00
   -1   27    6      0.21      0.00
   -1   26    6      0.09      0.00
   -1   25    6      0.80      0.00
   -1   24    6      0.55      0.00
   -1   23    6      0.99      0.00
   -1   22    6      1.69      0.00
   -1   21    6     -1.08      0.00
   -1   20    6      1.00      0.00
   -1   19    6      0.75      0.00
   -1   18    6     -1.72      0.00
   -1   16    6     -2.46      0.00
   -1   14    6      2.27      0.00
   -1   12    6      2.11      0.00
   -1   11    6      3.52      0.00
   -1   10    6      5.17      0.00
   -1    9    6      5.85      0.00
   -1    8    6     -5.59      0.00
   -1    7    6      1.18      0.00
   -1    6    6      4.78      0.00
   -1    4    6     -4.16      0.00
   -1    3    6     -6.58      0.00
   -1    2    6      1.82      0.00
   -1    0    6     -9.34      0.00
   -1   37    5      0.47      0.00
   -1   36    5      0.01      0.00
   -1   35    5      0.22      0.00
   -1   34    5     -0.38      0.00
   -1   33    5     -0.35      0.00
   -1   32    5     -0.94      0.00
   -1   31    5      0.61      0.00
   -1   30    5     -0.63      0.00
   -1   29    5      0.46      0.00
   -1   28    5     -0.08      0.00
   -1   27    5     -0.76      0.00
   -1   25    5      1.50      0.00
   -1   24    5      0.19      0.00
   -1   23    5      0.57      0.00
   -1   21    5     -0.62      0.00
   -1   20    5     -1.34      0.00
   -1   19    5     -1.02      0.00
   -1   17    5      1.11      0.00
   -1   15    5     -1.18      0.00
   -1   14    5     -2.05      0.00
   -1   13    5      4.94      0.00
   -1   12    5      0.97      0.00
   -1   11    5      2.76      0.00
   -1   10    5      0.01      0.00
   -1    9    5      5.00      0.00
   -1    8    5     -3.52      0.00
   -1    7    5     -1.89      0.00
   -1    3    5     -3.40      0.00
   -1    2    5      1.21      0.00
   -1    1    5      1.05      0.00
   -1    0    5      0.52      0.00
   -1    5    5      6.82      0.00
   -1    6    5      1.27      0.00
   -1   38    4      0.11      0.00
   -1   37    4      0.01      0.00
   -1   36    4     -0.18      0.00
   -1   35    4      0.46      0.00
   -1   34    4     -1.11      0.00
   -1   33    4      0.48      0.00
   -1   32    4      0.36      0.00
   -1   31    4     -0.48      0.00
   -1   30    4     -3.01      0.00
   -1   29    4      0.06      0.00
   -1   28    4      1.55      0.00
   -1   27    4     -0.25      0.00
   -1   26    4     -1.83      0.00
   -1   25    4      0.25      0.00
   -1   24    4      0.89      0.00
   -1   23    4     -1.04      0.00
   -1   22    4      0.51      0.00
   -1   21    4     -0.54      0.00
   -1   20    4      0.73      0.00
   -1   19    4     -2.01      0.00
   -1   18    4     -5.20      0.00
   -1   17    4      2.35      0.00
   -1   16    4      3.17      0.00
   -1   15    4     -1.16      0.00
   -1   14    4    -10.46      0.00
   -1   13    4      5.97      0.00
   -1   12    4      1.17      0.00
   -1   11    4     -0.48      0.00
   -1   10    4     -7.96      0.00
   -1    8    4      5.79      0.00
   -1    7    4    -11.51      0.00
   -1    6    4     -8.56      0.00
   -1    5    4    -11.70      0.00
   -1    4    4     16.94      0.00
   -1    3    4     -5.99      0.00
   -1    2    4      0.02      0.00
   -1    1    4      3.15      0.00
   -1    0    4     14.95      0.00
   -1   38    3     -0.07      0.00
   -1   37    3      0.20      0.00
   -1   36    3     -0.81      0.00
   -1   35    3      0.75      0.00
   -1   34    3     -0.51      0.00
   -1   33    3     -0.05      0.00
   -1   32    3     -0.46      0.00
   -1   31    3     -0.66      0.00
   -1   30    3     -1.86      0.00
   -1   29    3     -1.05      0.00
   -1   28    3      0.51      0.00
   -1   27    3      0.81      0.00
   -1   26    3     -1.30      0.00
   -1   25    3     -1.04      0.00
   -1   24    3      1.92      0.00
   -1   23    3     -2.89      0.00
   -1   22    3     -0.78      0.00
   -1   21    3     -0.35      0.00
   -1   20    3      0.15      0.00
   -1   19    3     -2.12      0.00
   -1   18    3     -5.67      0.00
   -1   17    3      2.22      0.00
   -1   16    3      1.36      0.00
   -1   15    3      3.64      0.00
   -1   13    3      0.07      0.00
   -1   12    3      3.20      0.00
   -1   11    3     -4.69      0.00
   -1   10    3    -13.24      0.00
   -1    9    3      7.94      0.00
   -1    6    3    -10.51      0.00
   -1    5    3    -36.57      0.00
   -1    3    3    -30.39      0.00
   -1    2    3      6.25      0.00
   -1    0    3      7.88      0.00
   -1    4    3     10.54      0.00
   -1   14    3     -6.25      0.00
   -1   39    2     -0.58      0.00
   -1   38    2     -0.68      0.00
   -1   37    2     -0.05      0.00
   -1   36    2      0.41      0.00
   -1   35    2      1.12      0.00
   -1   34    2     -1.35      0.00
   -1   33    2     -0.70      0.00
   -1   32    2      0.29      0.00
   -1   31    2      0.02      0.00
   -1   30    2     -0.83      0.00
   -1   29    2     -0.94      0.00
   -1   28    2      0.21      0.00
   -1   27    2      0.34      0.00
   -1   26    2      0.06      0.00
   -1   25    2     -1.80      0.00
   -1   24    2      2.16      0.00
   -1   23    2      0.39      0.00
   -1   22    2     -1.16      0.00
   -1   21    2     -5.63      0.00
   -1   20    2      0.24      0.00
   -1   19    2      5.01      0.00
   -1   18    2     -6.53      0.00
   -1   17    2     -4.06      0.00
   -1   16    2      4.87      0.00
   -1   15    2     10.33      0.00
   -1   14    2     -4.18      0.00
   -1   13    2     -3.71      0.00
   -1   11    2     -3.24      0.00
   -1   10    2      4.57      0.00
   -1    9    2     -5.74      0.00
   -1    7    2      0.80      0.00
   -1    6    2     -5.06      0.00
   -1    5    2    -73.54      0.00
   -1    3    2    -41.68      0.00
   -1    2    2    -25.72      0.00
   -1    1    2    -23.92      0.00
   -1    0    2      8.06      0.00
   -1   12    2      5.41      0.00
   -1   39    1      0.34      0.00
   -1   38    1      0.31      0.00
   -1   37    1     -0.35      0.00
   -1   36    1     -0.89      0.00
   -1   35    1      0.39      0.00
   -1   34    1      0.10      0.00
   -1   33    1     -0.31      0.00
   -1   32    1      0.31      0.00
   -1   31    1      0.35      0.00
   -1   30    1     -0.59      0.00
   -1   29    1     -0.36      0.00
   -1   28    1      1.64      0.00
   -1   27    1     -0.02      0.00
   -1   26    1     -0.17      0.00
   -1   25    1     -0.37      0.00
   -1   24    1      2.73      0.00
   -1   23    1     -0.13      0.00
   -1   22    1     -0.03      0.00
   -1   21    1     -1.50      0.00
   -1   20    1     -4.52      0.00
   -1   19    1     -1.05      0.00
   -1   18    1      1.61      0.00
   -1   17    1      5.44      0.00
   -1   16    1      0.56      0.00
   -1   15    1      0.11      0.00
   -1   14    1     -2.05      0.00
   -1   13    1      4.88      0.00
   -1   12    1     23.85      0.00
   -1   11    1     -2.52      0.00
   -1   10    1     -6.63      0.00
   -1    8    1     25.64      0.00
   -1    7    1    -24.35      0.00
   -1    6    1     -1.67      0.00
   -1    5    1      0.67      0.00
   -1    4    1    -23.31      0.00
   -1    3    1   -108.83      0.00
   -1    2    1    -48.63      0.00
   -1    1    1    -14.96      0.00
   -1    0    1    -16.91      0.00
    1   39    0     -0.47      0.00
    1   38    0     -0.84      0.00
    1   37    0      0.17      0.00
    1   36    0     -0.06      0.00
    1   35    0      0.10      0.00
    1   34    0      0.34      0.00
    1   33    0      0.75      0.00
    1   32    0     -0.51      0.00
    1   31    0     -1.53      0.00
    1   30    0      0.55      0.00
    1   29    0      2.41      0.00
    1   28    0      0.12      0.00
    1   27    0     -3.56      0.00
    1   26    0      1.51      0.00
    1   25    0      3.35      0.00
    1   24    0      1.59      0.00
    1   23    0     -4.64      0.00
    1   22    0     -2.60      0.00
    1   21    0      5.28      0.00
    1   20    0      1.74      0.00
    1   19    0     -4.57      0.00
    1   18    0     -8.29      0.00
    1   17    0      6.18      0.00
    1   16    0      6.37      0.00
    1   15    0    -17.79      0.00
    1   14    0      1.92      0.00
    1   13    0     16.51      0.00
    1   12    0     11.37      0.00
    1   11    0    -30.92      0.00
    1   10    0     27.45      0.00
    1    9    0     23.52      0.00
    1    8    0    -15.41      0.00
    1    7    0    -40.30      0.00
    1    6    0     40.19      0.00
    1    5    0     38.74      0.00
    1    4    0    -21.14      0.00
    1    3    0      2.78      0.00
    1    2    0   -148.40      0.00
    1    1    0    109.53      0.00
    1    0    0     93.15      0.00
    1   39    1      0.32      0.00
    1   38    1      0.65      0.00
    1   37    1     -0.21      0.00
    1   36    1     -0.51      0.00
    1   35    1      0.01      0.00
    1   34    1     -0.14      0.00
    1   33    1      0.08      0.00
    1   32    1      0.15      0.00
    1   31    1      0.29      0.00
    1   30    1     -1.24      0.00
    1   29    1     -0.60      0.00
    1   28    1      0.15      0.00
    1   27    1     -0.09      0.00
    1   26    1      1.19      0.00
    1   25    1     -0.71      0.00
    1   24    1     -0.55      0.00
    1   23    1     -2.18      0.00
    1   22    1      1.70      0.00
    1   21    1      2.14      0.00
    1   20    1     -7.28      0.00
    1   18    1      0.84      0.00
    1   17    1      4.20      0.00
    1   16    1     -4.41      0.00
    1   15    1     -8.85      0.00
    1   14    1      1.87      0.00
    1   13    1     -5.89      0.00
    1   12    1     12.99      0.00
    1   11    1      8.62      0.00
    1   10    1     12.58      0.00
    1    9    1    -40.81      0.00
    1    8    1      7.93      0.00
    1    7    1     11.84      0.00
    1    6    1     13.79      0.00
    1    5    1    -41.26      0.00
    1    4    1    -23.27      0.00
    1    3    1     40.28      0.00
    1    2    1    -50.16      0.00
    1    1    1     -6.92      0.00
    1    0    1    -15.06      0.00
    1   19    1     -0.66      0.00
    1   38    2     -0.06      0.00
    1   37    2     -1.26      0.00
    1   36    2      0.38      0.00
    1   35    2      0.55      0.00
    1   34    2     -0.61      0.00
    1   33    2     -0.89      0.00
    1   32    2     -1.22      0.00
    1   31    2     -0.18      0.00
    1   30    2      0.12      0.00
    1   29    2      0.11      0.00
    1   28    2     -2.13      0.00
    1   27    2      0.27      0.00
    1   26    2      1.37      0.00
    1   25    2     -2.59      0.00
    1   24    2     -0.22      0.00
    1   23    2      1.57      0.00
    1   22    2      0.07      0.00
    1   20    2     -3.16      0.00
    1   19    2      9.89      0.00
    1   18    2     -2.63      0.00
    1   17    2     -5.95      0.00
    1   16    2     -6.20      0.00
    1   15    2      1.58      0.00
    1   14    2      3.88      0.00
    1   13    2     -0.88      0.00
    1   12    2     -8.22      0.00
    1   11    2     -8.92      0.00
    1   10    2     30.41      0.00
    1    9    2    -10.45      0.00
    1    8    2    -11.00      0.00
    1    7    2     -3.65      0.00
    1    6    2      7.74      0.00
    1    5    2    -29.70      0.00
    1    4    2     -1.66      0.00
    1    3    2     -3.06      0.00
    1    2    2     14.72      0.00
    1    1    2      7.69      0.00
    1    0    2    -50.78      0.00
    1   21    2     -5.15      0.00
    1   39    2      0.09      0.00
    1   38    3      0.09      0.00
    1   37    3     -0.75      0.00
    1   36    3     -0.23      0.00
    1   35    3     -0.19      0.00
    1   34    3     -0.04      0.00
    1   33    3     -1.23      0.00
    1   32    3     -1.67      0.00
    1   31    3      0.29      0.00
    1   30    3     -0.17      0.00
    1   29    3     -0.33      0.00
    1   28    3     -1.36      0.00
    1   27    3      1.29      0.00
    1   26    3      0.54      0.00
    1   25    3     -1.19      0.00
    1   24    3      0.06      0.00
    1   23    3     -1.49      0.00
    1   22    3      0.79      0.00
    1   21    3      1.16      0.00
    1   20    3      0.28      0.00
    1   19    3      2.21      0.00
    1   18    3     -2.88      0.00
    1   16    3     -3.38      0.00
    1   15    3      2.38      0.00
    1   14    3     -3.52      0.00
    1   13    3     -5.26      0.00
    1   11    3      9.53      0.00
    1    9    3     -9.29      0.00
    1    8    3      7.69      0.00
    1    7    3     10.38      0.00
    1    6    3     -8.65      0.00
    1    4    3     23.49      0.00
    1    3    3     -2.29      0.00
    1    2    3     14.76      0.00
    1    1    3      2.74      0.00
    1   10    3      3.79      0.00
    1   17    3      0.50      0.00
    1   39    3     -1.08      0.00
    1   37    4     -1.40      0.00
    1   36    4     -0.05      0.00
    1   35    4     -0.35      0.00
    1   34    4     -0.02      0.00
    1   33    4     -0.40      0.00
    1   32    4     -0.53      0.00
    1   31    4      0.22      0.00
    1   30    4     -1.18      0.00
    1   29    4      0.08      0.00
    1   28    4     -0.09      0.00
    1   27    4      2.35      0.00
    1   26    4      1.13      0.00
    1   25    4     -1.69      0.00
    1   24    4     -0.35      0.00
    1   23    4      2.92      0.00
    1   22    4      2.08      0.00
    1   21    4     -1.47      0.00
    1   19    4      4.28      0.00
    1   18    4      0.46      0.00
    1   17    4     -2.42      0.00
    1   16    4     -2.30      0.00
    1   15    4      1.70      0.00
    1   14    4     -0.82      0.00
    1   13    4      0.07      0.00
    1   12    4     -5.82      0.00
    1   11    4     12.57      0.00
    1   10    4      3.61      0.00
    1    9    4      0.25      0.00
    1    8    4     -0.63      0.00
    1    7    4     12.14      0.00
    1    6    4      3.41      0.00
    1    5    4     -2.58      0.00
    1    4    4      3.44      0.00
    1    3    4      3.29      0.00
    1    1    4     -2.82      0.00
    1    0    4    -18.73      0.00
    1   38    4     -0.27      0.00
    1   36    5     -0.06      0.00
    1   35    5     -0.03      0.00
    1   34    5      0.55      0.00
    1   33    5     -1.02      0.00
    1   32    5     -0.72      0.00
    1   31    5      1.11      0.00
    1   30    5      0.03      0.00
    1   29    5      0.47      0.00
    1   28    5      0.71      0.00
    1   27    5      1.30      0.00
    1   25    5      1.42      0.00
    1   24    5      1.02      0.00
    1   23    5      2.75      0.00
    1   21    5     -0.14      0.00
    1   20    5      1.54      0.00
    1   19    5      1.54      0.00
    1   18    5      2.60      0.00
    1   17    5     -3.30      0.00
    1   15    5      3.05      0.00
    1   14    5      0.15      0.00
    1   13    5     -1.55      0.00
    1   12    5     -0.03      0.00
    1   11    5     12.58      0.00
    1   10    5     -3.84      0.00
    1    9    5     -0.32      0.00
    1    8    5     -0.23      0.00
    1    7    5     17.51      0.00
    1    6    5     -1.70      0.00
    1    5    5      1.95      0.00
    1    3    5      5.93      0.00
    1    1    5     -3.79      0.00
    1    0    5      3.28      0.00
    1   16    5     -2.50      0.00
    1   26    5      0.76      0.00
    1   37    5     -1.13      0.00
    1   38    5      0.43      0.00
    1   35    6     -0.38      0.00
    1   34    6     -0.22      0.00
    1   33    6     -0.36      0.00
    1   32    6      0.49      0.00
    1   31    6     -0.14      0.00
    1   30    6      0.12      0.00
    1   29    6      0.56      0.00
    1   28    6      1.58      0.00
    1   27    6      2.09      0.00
    1   26    6      0.63      0.00
    1   25    6      1.70      0.00
    1   24    6      1.63      0.00
    1   22    6     -0.89      0.00
    1   21    6      1.34      0.00
    1   20    6      4.40      0.00
    1   18    6     -3.00      0.00
    1   16    6      2.07      0.00
    1   15    6     -0.87      0.00
    1   14    6     -0.68      0.00
    1   13    6     -0.60      0.00
    1   12    6      5.36      0.00
    1   11    6      4.47      0.00
    1   10    6     -8.18      0.00
    1    9    6      2.55      0.00
    1    8    6      5.38      0.00
    1    7    6     12.03      0.00
    1    6    6    -12.47      0.00
    1    5    6      5.05      0.00
    1    4    6      7.84      0.00
    1    3    6      3.02      0.00
    1    2    6    -17.57      0.00
    1    0    6      9.23      0.00
    1   19    6     -3.35      0.00
    1   23    6      1.03      0.00
    1   36    6      0.85      0.00
    1   37    6     -0.51      0.00
    1   34    7      0.01      0.00
    1   33    7     -0.26      0.00
    1   32    7      0.80      0.00
    1   31    7      0.04      0.00
    1   30    7      0.78      0.00
    1   29    7     -0.13      0.00
    1   28    7      0.67      0.00
    1   27    7      1.67      0.00
    1   26    7      1.23      0.00
    1   25    7      1.37      0.00
    1   24    7      0.09      0.00
    1   23    7     -0.18      0.00
    1   21    7     -0.25      0.00
    1   20    7     -0.25      0.00
    1   19    7     -2.21      0.00
    1   17    7     -0.92      0.00
    1   16    7     -0.77      0.00
    1   15    7     -0.11      0.00
    1   14    7      4.25      0.00
    1   13    7     -0.98      0.00
    1   12    7     -0.06      0.00
    1   11    7     -0.83      0.00
    1    9    7      2.54      0.00
    1    8    7      0.13      0.00
    1    7    7      6.16      0.00
    1    6    7     -2.84      0.00
    1    5    7      4.62      0.00
    1    4    7     -5.41      0.00
    1    3    7     -3.78      0.00
    1    2    7     -2.83      0.00
    1    1    7     -0.06      0.00
    1    0    7     -6.05      0.00
    1   10    7      0.10      0.00
    1   18    7      0.66      0.00
    1   22    7      0.59      0.00
    1   35    7     -0.01      0.00
    1   36    7      0.29      0.00
    1   33    8      0.40      0.00
    1   32    8      0.94      0.00
    1   31    8      0.23      0.00
    1   30    8      0.21      0.00
    1   29    8     -0.07      0.00
    1   28    8      1.08      0.00
    1   27    8      0.16      0.00
    1   26    8     -0.49      0.00
    1   25    8      0.34      0.00
    1   24    8      0.32      0.00
    1   23    8      0.24      0.00
    1   22    8     -1.49      0.00
    1   21    8     -0.60      0.00
    1   20    8      0.72      0.00
    1   19    8     -1.48      0.00
    1   18    8     -1.11      0.00
    1   17    8     -2.29      0.00
    1   16    8      2.82      0.00
    1   15    8      0.12      0.00
    1   14    8     -0.30      0.00
    1   13    8     -0.34      0.00
    1   12    8      2.16      0.00
    1   11    8     -1.53      0.00
    1   10    8     -1.51      0.00
    1    9    8      0.30      0.00
    1    8    8      4.84      0.00
    1    7    8      2.05      0.00
    1    6    8     -4.63      0.00
    1    5    8      1.17      0.00
    1    4    8      0.31      0.00
    1    2    8     -5.07      0.00
    1    1    8     -2.61      0.00
    1    0    8      0.45      0.00
    1    3    8     -3.74      0.00
    1   34    8      0.37      0.00
    1   35    8      0.23      0.00
    1   31    9     -0.04      0.00
    1   30    9      0.39      0.00
    1   29    9     -0.49      0.00
    1   28    9      0.24      0.00
    1   27    9     -0.08      0.00
    1   26    9     -0.53      0.00
    1   25    9     -0.04      0.00
    1   24    9     -0.91      0.00
    1   23    9     -0.26      0.00
    1   22    9     -0.54      0.00
    1   21    9      0.47      0.00
    1   20    9     -0.70      0.00
    1   19    9     -1.41      0.00
    1   18    9      0.48      0.00
    1   17    9     -0.27      0.00
    1   16    9     -0.05      0.00
    1   15    9     -1.08      0.00
    1   14    9      0.91      0.00
    1   13    9      0.76      0.00
    1   12    9     -0.13      0.00
    1   11    9     -1.88      0.00
    1   10    9      0.73      0.00
    1    9    9      1.93      0.00
    1    8    9      1.28      0.00
    1    7    9     -2.14      0.00
    1    6    9     -0.03      0.00
    1    5    9     -1.03      0.00
    1    4    9     -0.05      0.00
    1    3    9     -0.51      0.00
    1    2    9     -0.35      0.00
    1    1    9     -5.24      0.00
    1    0    9      0.00      0.00
    1   32    9      0.07      0.00
    1   33    9      1.13      0.00
    1   34    9      0.95      0.00
    1   29   10     -0.14      0.00
    1   28   10      0.06      0.00
    1   27   10      0.03      0.00
    1   26   10     -1.04      0.00
    1   25   10     -0.02      0.00
    1   24   10      0.06      0.00
    1   23   10     -0.84      0.00
    1   22   10      0.33      0.00
    1   21   10      0.36      0.00
    1   20   10     -0.66      0.00
    1   19   10     -0.37      0.00
    1   18   10     -0.54      0.00
    1   17   10      1.71      0.00
    1   16   10      0.30      0.00
    1   15   10     -0.31      0.00
    1   14   10     -0.08      0.00
    1   13   10     -0.18      0.00
    1   12   10      0.07      0.00
    1   11   10      0.42      0.00
    1   10   10      0.43      0.00
    1    9   10      1.30      0.00
    1    8   10     -0.10      0.00
    1    7   10     -2.35      0.00
    1    5   10      0.87      0.00
    1    4   10     -0.62      0.00
    1    3   10     -2.68      0.00
    1    2   10      2.02      0.00
    1    1   10      0.72      0.00
    1    0   10      0.87      0.00
    1    6   10      1.84      0.00
    1   30   10     -0.39      0.00
    1   31   10     -0.43      0.00
    1   32   10      0.70      0.00
    1   27   11      0.35      0.00
    1   26   11      0.15      0.00
    1   25   11     -0.14      0.00
    1   24   11     -0.36      0.00
    1   23   11     -0.43      0.00
    1   22   11      1.13      0.00
    1   21   11     -0.40      0.00
    1   20   11      0.22      0.00
    1   19   11      0.60      0.00
    1   18   11      0.30      0.00
    1   17   11      0.76      0.00
    1   16   11     -0.89      0.00
    1   15   11      1.83      0.00
    1   14   11      0.81      0.00
    1   13   11      0.04      0.00
    1   12   11     -1.57      0.00
    1   11   11      0.35      0.00
    1   10   11      1.24      0.00
    1    9   11      1.15      0.00
    1    8   11     -0.36      0.00
    1    7   11      0.11      0.00
    1    6   11      0.49      0.00
    1    5   11     -0.01      0.00
    1    4   11      0.66      0.00
    1    3   11     -0.11      0.00
    1    2   11      1.50      0.00
    1    1   11     -0.91      0.00
    1    0   11      1.73      0.00
    1   28   11     -0.38      0.00
    1   29   11     -0.18      0.00
    1   30   11     -0.35      0.00
    1   25   12      0.37      0.00
    1   24   12      0.40      0.00
    1   23   12      0.10      0.00
    1   22   12      0.05      0.00
    1   21   12      0.04      0.00
    1   20   12      1.14      0.00
    1   19   12     -0.90      0.00
    1   18   12      1.16      0.00
    1   17   12      0.75      0.00
    1   16   12     -0.51      0.00
    1   15   12      0.80      0.00
    1   14   12     -0.95      0.00
    1   13   12      0.43      0.00
    1   12   12     -0.27      0.00
    1   11   12      0.81      0.00
    1   10   12     -0.18      0.00
    1    9   12      0.95      0.00
    1    8   12     -0.13      0.00
    1    7   12      0.90      0.00
    1    6   12     -0.42      0.00
    1    5   12      0.33      0.00
    1    4   12      0.53      0.00
    1    3   12      0.46      0.00
    1    2   12      1.29      0.00
    1    1   12     -0.56      0.00
    1    0   12      0.61      0.00
    1   26   12     -0.50      0.00
    1   27   12     -0.01      0.00
    1   28   12      0.36      0.00
    1   22   13     -0.12      0.00
    1   21   13      0.44      0.00
    1   20   13      0.32      0.00
    1   19   13     -1.18      0.00
    1   18   13      0.84      0.00
    1   17   13     -0.23      0.00
    1   16   13     -0.02      0.00
    1   15   13     -0.47      0.00
    1   14   13     -0.80      0.00
    1   13   13      0.43      0.00
    1   12   13     -0.67      0.00
    1   11   13      1.14      0.00
    1   10   13      0.25      0.00
    1    9   13      0.24      0.00
    1    8   13     -0.51      0.00
    1    7   13      1.05      0.00
    1    6   13     -0.96      0.00
    1    5   13      0.32      0.00
    1    4   13      0.92      0.00
    1    3   13      0.50      0.00
    1    2   13     -1.58      0.00
    1    1   13      1.32      0.00
    1    0   13      1.63      0.00
    1   23   13      0.79      0.00
    1   24   13      0.12      0.00
    1   25   13     -0.44      0.00
    1   18   14     -0.28      0.00
    1   17   14     -1.15      0.00
    1   16   14      0.11      0.00
    1   15   14     -0.17      0.00
    1   14   14     -0.75      0.00
    1   13   14      0.59      0.00
    1   12   14      0.88      0.00
    1   11   14      0.32      0.00
    1   10   14     -0.87      0.00
    1    9   14     -0.10      0.00
    1    8   14      0.27      0.00
    1    7   14      0.03      0.00
    1    6   14     -0.09      0.00
    1    5   14      0.00      0.00
    1    4   14     -1.25      0.00
    1    3   14      0.79      0.00
    1    2   14     -0.74      0.00
    1    1   14      0.98      0.00
    1    0   14     -1.18      0.00
    1   19   14      0.27      0.00
    1   20   14      0.23      0.00
    1   21   14      0.07      0.00
    1   13   15      0.66      0.00
    1   12   15      0.35      0.00
    1   11   15     -0.19      0.00
    1   10   15      0.14      0.00
    1    9   15     -0.13      0.00
    1    8   15     -0.08      0.00
    1    7   15     -1.13      0.00
    1    6   15     -0.09      0.00
    1    5   15     -0.42      0.00
    1    4   15     -0.41      0.00
    1    3   15      0.19      0.00
    1    2   15     -1.50      0.00
    1    1   15      0.23      0.00
    1    0   15     -0.33      0.00
    1   14   15     -0.51      0.00
    1   15   15     -0.34      0.00
    1   16   15      0.11      0.00
    1   17   15      0.91      0.00
    1    5   16     -0.54      0.00
    1    4   16     -0.71      0.00
    1    3   16     -0.77      0.00
    1    2   16      0.72      0.00
    1    1   16      0.80      0.00
    1    0   16     -1.09      0.00
    1    6   16     -0.26      0.00
    1    7   16     -1.06      0.00
    1    8   16      0.58      0.00
    1    9   16      0.38      0.00
   -2   12   15      0.91      0.00
   -2   11   15     -0.22      0.00
   -2   10   15      0.04      0.00
   -2    9   15     -0.12      0.00
   -2    8   15     -0.24      0.00
   -2    7   15      0.16      0.00
   -2    6   15      1.18      0.00
   -2    5   15      0.03      0.00
   -2    4   15     -0.77      0.00
   -2    3   15     -0.83      0.00
   -2    2   15      0.10      0.00
   -2    1   15      1.80      0.00
   -2    0   15      0.17      0.00
   -2   18   14     -1.31      0.00
   -2   17   14     -1.01      0.00
   -2   16   14      0.43      0.00
   -2   15   14      0.96      0.00
   -2   14   14     -0.13      0.00
   -2   13   14     -0.64      0.00
   -2   12   14      0.33      0.00
   -2   11   14     -0.49      0.00
   -2   10   14      0.00      0.00
   -2    9   14     -0.95      0.00
   -2    8   14      0.91      0.00
   -2    7   14      0.08      0.00
   -2    6   14     -1.22      0.00
   -2    5   14     -0.32      0.00
   -2    4   14     -0.05      0.00
   -2    3   14     -0.85      0.00
   -2    2   14     -1.37      0.00
   -2    1   14      0.24      0.00
   -2    0   14      1.33      0.00
   -2   22   13      0.12      0.00
   -2   21   13      0.45      0.00
   -2   20   13     -1.09      0.00
   -2   19   13     -0.84      0.00
   -2   18   13     -0.76      0.00
   -2   17   13      0.73      0.00
   -2   16   13      0.54      0.00
   -2   15   13      0.38      0.00
   -2   14   13      0.36      0.00
   -2   13   13     -0.65      0.00
   -2   12   13      0.70      0.00
   -2   11   13     -0.16      0.00
   -2   10   13      0.11      0.00
   -2    9   13     -0.65      0.00
   -2    8   13      0.80      0.00
   -2    7   13      0.27      0.00
   -2    6   13     -1.60      0.00
   -2    5   13     -0.13      0.00
   -2    4   13     -1.40      0.00
   -2    3   13     -0.66      0.00
   -2    2   13     -0.18      0.00
   -2    1   13     -1.07      0.00
   -2    0   13     -1.92      0.00
   -2   25   12      1.28      0.00
   -2   24   12     -0.34      0.00
   -2   23   12      0.03      0.00
   -2   22   12     -0.23      0.00
   -2   21   12     -0.02      0.00
   -2   20   12     -0.47      0.00
   -2   19   12      0.34      0.00
   -2   18   12     -0.10      0.00
   -2   17   12     -0.51      0.00
   -2   16   12      0.87      0.00
   -2   15   12      0.13      0.00
   -2   14   12      0.12      0.00
   -2   13   12      0.36      0.00
   -2   12   12      0.64      0.00
   -2   11   12      0.27      0.00
   -2   10   12      0.35      0.00
   -2    8   12     -0.29      0.00
   -2    7   12      0.60      0.00
   -2    6   12     -0.69      0.00
   -2    5   12      0.54      0.00
   -2    4   12     -0.68      0.00
   -2    3   12     -0.07      0.00
   -2    2   12     -0.50      0.00
   -2    1   12     -1.54      0.00
   -2    0   12     -3.31      0.00
   -2    9   12      1.08      0.00
   -2   28   11      1.98      0.00
   -2   27   11     -0.88      0.00
   -2   26   11     -0.22      0.00
   -2   25   11      0.68      0.00
   -2   24   11      0.29      0.00
   -2   23   11      0.42      0.00
   -2   22   11     -0.92      0.00
   -2   21   11      0.52      0.00
   -2   20   11      0.41      0.00
   -2   19   11     -0.23      0.00
   -2   18   11     -0.14      0.00
   -2   17   11     -0.69      0.00
   -2   16   11      0.69      0.00
   -2   15   11     -0.11      0.00
   -2   14   11     -0.40      0.00
   -2   13   11      0.56      0.00
   -2   12   11      0.53      0.00
   -2   11   11      1.49      0.00
   -2   10   11     -1.29      0.00
   -2    9   11      1.49      0.00
   -2    8   11      0.62      0.00
   -2    7   11      1.83      0.00
   -2    6   11     -0.22      0.00
   -2    5   11      0.50      0.00
   -2    4   11      0.52      0.00
   -2    3   11      1.35      0.00
   -2    2   11     -0.58      0.00
   -2    1   11     -0.62      0.00
   -2    0   11     -1.57      0.00
   -2   30   10      1.04      0.00
   -2   29   10      0.25      0.00
   -2   28   10     -0.96      0.00
   -2   27   10      0.05      0.00
   -2   26   10      0.21      0.00
   -2   25   10      0.34      0.00
   -2   24   10     -0.56      0.00
   -2   23   10     -0.23      0.00
   -2   22   10      0.37      0.00
   -2   21   10     -0.51      0.00
   -2   20   10     -0.25      0.00
   -2   19   10      0.69      0.00
   -2   18   10     -0.39      0.00
   -2   17   10     -1.17      0.00
   -2   16   10      0.02      0.00
   -2   15   10     -0.41      0.00
   -2   14   10     -0.25      0.00
   -2   13   10      1.12      0.00
   -2   12   10     -0.66      0.00
   -2   11   10      0.12      0.00
   -2   10   10     -1.31      0.00
   -2    9   10      3.03      0.00
   -2    8   10      0.14      0.00
   -2    7   10      1.01      0.00
   -2    6   10      0.03      0.00
   -2    5   10      2.08      0.00
   -2    4   10      0.84      0.00
   -2    3   10      1.16      0.00
   -2    2   10      1.80      0.00
   -2    1   10      2.02      0.00
   -2    0   10      1.62      0.00
   -2   32    9      1.35      0.00
   -2   31    9     -1.56      0.00
   -2   30    9     -1.75      0.00
   -2   29    9     -0.04      0.00
   -2   28    9     -0.10      0.00
   -2   27    9      0.84      0.00
   -2   26    9     -1.04      0.00
   -2   25    9     -0.47      0.00
   -2   24    9      0.27      0.00
   -2   23    9     -0.86      0.00
   -2   22    9     -0.15      0.00
   -2   21    9     -0.14      0.00
   -2   20    9      0.52      0.00
   -2   19    9     -0.27      0.00
   -2   18    9     -0.35      0.00
   -2   17    9     -1.11      0.00
   -2   16    9     -1.01      0.00
   -2   15    9     -0.24      0.00
   -2   14    9     -0.49      0.00
   -2   13    9      0.30      0.00
   -2   12    9     -1.04      0.00
   -2   11    9      0.66      0.00
   -2   10    9     -1.92      0.00
   -2    9    9     -0.05      0.00
   -2    8    9     -1.31      0.00
   -2    7    9      2.70      0.00
   -2    5    9      1.03      0.00
   -2    4    9      2.09      0.00
   -2    3    9      1.27      0.00
   -2    2    9      4.15      0.00
   -2    1    9      0.66      0.00
   -2    0    9      5.57      0.00
   -2    6    9     -0.21      0.00
   -2   33    8      0.12      0.00
   -2   32    8     -0.73      0.00
   -2   31    8     -0.20      0.00
   -2   30    8     -0.77      0.00
   -2   29    8      0.44      0.00
   -2   28    8     -0.62      0.00
   -2   27    8     -0.43      0.00
   -2   26    8     -0.35      0.00
   -2   25    8     -1.48      0.00
   -2   24    8      1.22      0.00
   -2   23    8      0.54      0.00
   -2   22    8     -1.19      0.00
   -2   21    8     -0.26      0.00
   -2   20    8      1.81      0.00
   -2   19    8     -0.42      0.00
   -2   18    8     -0.77      0.00
   -2   17    8     -0.81      0.00
   -2   16    8      0.43      0.00
   -2   15    8     -1.91      0.00
   -2   14    8     -3.03      0.00
   -2   13    8      2.68      0.00
   -2   12    8     -0.62      0.00
   -2   11    8     -2.08      0.00
   -2   10    8     -3.93      0.00
   -2    9    8     -1.49      0.00
   -2    8    8     -1.92      0.00
   -2    6    8      0.13      0.00
   -2    5    8      0.94      0.00
   -2    4    8      2.20      0.00
   -2    3    8     -1.57      0.00
   -2    2    8      5.78      0.00
   -2    1    8     -0.95      0.00
   -2    0    8      4.89      0.00
   -2    7    8     -0.33      0.00
   -2   35    7     -0.13      0.00
   -2   34    7      1.25      0.00
   -2   33    7      0.13      0.00
   -2   32    7      0.25      0.00
   -2   31    7      1.16      0.00
   -2   30    7     -0.94      0.00
   -2   29    7     -0.63      0.00
   -2   28    7      0.43      0.00
   -2   27    7      0.05      0.00
   -2   26    7     -0.12      0.00
   -2   25    7     -1.60      0.00
   -2   24    7      0.85      0.00
   -2   23    7      0.33      0.00
   -2   22    7      0.36      0.00
   -2   21    7     -0.24      0.00
   -2   20    7      0.37      0.00
   -2   18    7      0.97      0.00
   -2   17    7     -1.19      0.00
   -2   16    7     -1.02      0.00
   -2   15    7     -0.27      0.00
   -2   14    7     -2.16      0.00
   -2   12    7      0.06      0.00
   -2   11    7     -0.55      0.00
   -2   10    7     -4.61      0.00
   -2    9    7     -3.34      0.00
   -2    8    7     -3.05      0.00
   -2    6    7      1.45      0.00
   -2    5    7      0.29      0.00
   -2    4    7     -0.19      0.00
   -2    2    7      5.01      0.00
   -2    1    7      1.79      0.00
   -2    0    7     -0.93      0.00
   -2   13    7     -0.94      0.00
   -2   36    6      1.32      0.00
   -2   35    6      0.20      0.00
   -2   34    6      0.06      0.00
   -2   33    6     -0.14      0.00
   -2   32    6      0.23      0.00
   -2   31    6     -0.09      0.00
   -2   30    6      0.57      0.00
   -2   29    6      0.23      0.00
   -2   28    6      0.28      0.00
   -2   27    6     -0.10      0.00
   -2   26    6     -0.04      0.00
   -2   25    6     -1.14      0.00
   -2   24    6     -0.47      0.00
   -2   23    6      0.42      0.00
   -2   22    6      0.82      0.00
   -2   21    6     -0.40      0.00
   -2   20    6      1.00      0.00
   -2   19    6      3.33      0.00
   -2   18    6     -0.15      0.00
   -2   17    6      1.10      0.00
   -2   15    6     -0.05      0.00
   -2   14    6      0.22      0.00
   -2   13    6     -3.92      0.00
   -2   11    6      1.14      0.00
   -2   10    6      0.92      0.00
   -2    9    6     -3.47      0.00
   -2    8    6     -4.55      0.00
   -2    7    6     -7.93      0.00
   -2    6    6     -2.82      0.00
   -2    5    6     -1.54      0.00
   -2    4    6      2.81      0.00
   -2    3    6     -1.61      0.00
   -2    2    6     -2.93      0.00
   -2    1    6      2.58      0.00
   -2    0    6     -3.25      0.00
   -2   16    6     -1.08      0.00
   -2   37    5      0.27      0.00
   -2   36    5     -0.31      0.00
   -2   35    5     -0.10      0.00
   -2   34    5      0.62      0.00
   -2   33    5     -0.78      0.00
   -2   32    5     -0.10      0.00
   -2   31    5     -0.09      0.00
   -2   30    5      0.57      0.00
   -2   29    5      0.40      0.00
   -2   28    5      0.72      0.00
   -2   27    5     -0.81      0.00
   -2   26    5     -1.26      0.00
   -2   25    5      0.55      0.00
   -2   24    5     -0.54      0.00
   -2   23    5      0.33      0.00
   -2   22    5      0.47      0.00
   -2   21    5      0.65      0.00
   -2   20    5     -1.69      0.00
   -2   19    5      3.51      0.00
   -2   18    5      2.49      0.00
   -2   17    5      1.21      0.00
   -2   15    5     -1.01      0.00
   -2   14    5      1.71      0.00
   -2   13    5     -1.80      0.00
   -2   12    5      6.72      0.00
   -2   11    5      0.59      0.00
   -2   10    5      4.26      0.00
   -2    9    5      1.87      0.00
   -2    8    5      3.04      0.00
   -2    7    5     -9.39      0.00
   -2    6    5     -8.57      0.00
   -2    5    5      3.76      0.00
   -2    4    5      2.63      0.00
   -2    3    5      0.94      0.00
   -2    2    5     -8.45      0.00
   -2    0    5     -4.84      0.00
   -2   16    5     -0.11      0.00
   -2   37    4     -0.30      0.00
   -2   36    4     -0.66      0.00
   -2   35    4     -0.24      0.00
   -2   34    4      1.27      0.00
   -2   33    4     -0.09      0.00
   -2   32    4      0.28      0.00
   -2   31    4     -0.10      0.00
   -2   30    4     -0.25      0.00
   -2   29    4     -0.26      0.00
   -2   28    4     -0.33      0.00
   -2   27    4      1.65      0.00
   -2   25    4     -0.92      0.00
   -2   24    4     -2.17      0.00
   -2   23    4      2.69      0.00
   -2   22    4     -0.25      0.00
   -2   21    4      1.12      0.00
   -2   20    4     -1.58      0.00
   -2   19    4      3.16      0.00
   -2   18    4      0.53      0.00
   -2   17    4     -2.58      0.00
   -2   16    4      6.41      0.00
   -2   15    4     -0.03      0.00
   -2   14    4      2.98      0.00
   -2   13    4     -3.05      0.00
   -2   12    4      4.35      0.00
   -2   11    4      7.26      0.00
   -2    9    4      0.48      0.00
   -2    7    4      6.03      0.00
   -2    5    4     -4.12      0.00
   -2    3    4     22.87      0.00
   -2    2    4    -12.17      0.00
   -2    1    4     -4.69      0.00
   -2    0    4     -5.11      0.00
   -2    6    4     -3.07      0.00
   -2   38    3     -0.72      0.00
   -2   37    3      0.06      0.00
   -2   36    3     -0.60      0.00
   -2   35    3     -0.04      0.00
   -2   34    3      0.62      0.00
   -2   33    3     -0.37      0.00
   -2   32    3      1.45      0.00
   -2   31    3      0.59      0.00
   -2   30    3     -1.65      0.00
   -2   29    3     -0.04      0.00
   -2   28    3      0.13      0.00
   -2   27    3      1.85      0.00
   -2   26    3     -0.07      0.00
   -2   25    3      1.37      0.00
   -2   24    3     -2.72      0.00
   -2   23    3      0.58      0.00
   -2   22    3      0.93      0.00
   -2   21    3      3.60      0.00
   -2   20    3     -3.69      0.00
   -2   19    3     -0.76      0.00
   -2   18    3      4.46      0.00
   -2   17    3     -5.07      0.00
   -2   16    3      1.59      0.00
   -2   15    3     -0.02      0.00
   -2   14    3      8.34      0.00
   -2   12    3      2.84      0.00
   -2   11    3      2.50      0.00
   -2   10    3     -3.83      0.00
   -2    7    3      7.86      0.00
   -2    5    3      9.11      0.00
   -2    4    3     -3.62      0.00
   -2    3    3     24.79      0.00
   -2    2    3     -7.76      0.00
   -2    0    3    -13.85      0.00
   -2   38    2     -0.57      0.00
   -2   37    2     -0.09      0.00
   -2   36    2     -0.66      0.00
   -2   35    2     -0.18      0.00
   -2   34    2      0.96      0.00
   -2   33    2     -0.18      0.00
   -2   32    2     -1.11      0.00
   -2   31    2      0.68      0.00
   -2   30    2      1.05      0.00
   -2   29    2      0.12      0.00
   -2   28    2     -1.86      0.00
   -2   27    2      1.14      0.00
   -2   26    2     -0.76      0.00
   -2   25    2      2.62      0.00
   -2   24    2     -1.29      0.00
   -2   23    2     -0.26      0.00
   -2   22    2     -1.62      0.00
   -2   21    2      1.93      0.00
   -2   20    2      1.64      0.00
   -2   19    2     -3.85      0.00
   -2   18    2     -0.47      0.00
   -2   17    2     -4.64      0.00
   -2   16    2      2.08      0.00
   -2   15    2     -5.42      0.00
   -2   14    2      5.43      0.00
   -2   13    2     -0.14      0.00
   -2   12    2     -5.74      0.00
   -2   10    2      1.49      0.00
   -2    9    2     14.98      0.00
   -2    8    2     -4.35      0.00
   -2    7    2     24.48      0.00
   -2    6    2     14.64      0.00
   -2    4    2     14.30      0.00
   -2    2    2     -8.90      0.00
   -2    1    2     16.35      0.00
   -2    0    2     -3.29      0.00
   -2    3    2     26.97      0.00
   -2   39    2      0.34      0.00
   -2   38    1      1.02      0.00
   -2   37    1     -0.04      0.00
   -2   36    1     -0.98      0.00
   -2   35    1     -0.63      0.00
   -2   34    1      0.32      0.00
   -2   33    1      1.09      0.00
   -2   32    1     -0.41      0.00
   -2   31    1     -0.50      0.00
   -2   30    1     -0.18      0.00
   -2   29    1      0.76      0.00
   -2   28    1     -0.61      0.00
   -2   27    1      0.78      0.00
   -2   26    1     -1.32      0.00
   -2   25    1      0.01      0.00
   -2   24    1     -1.97      0.00
   -2   23    1      2.69      0.00
   -2   22    1      2.41      0.00
   -2   21    1     -4.28      0.00
   -2   20    1     -3.46      0.00
   -2   19    1     -0.56      0.00
   -2   18    1      7.03      0.00
   -2   17    1     -7.16      0.00
   -2   16    1     -6.38      0.00
   -2   15    1     -6.34      0.00
   -2   14    1      0.93      0.00
   -2   13    1     -7.51      0.00
   -2   12    1      0.82      0.00
   -2   11    1      4.47      0.00
   -2   10    1    -20.46      0.00
   -2    9    1     -2.21      0.00
   -2    8    1     -5.88      0.00
   -2    7    1     17.83      0.00
   -2    6    1     14.20      0.00
   -2    5    1     35.27      0.00
   -2    3    1      6.24      0.00
   -2    2    1     46.50      0.00
   -2    1    1    -15.32      0.00
   -2    0    1    -38.09      0.00
   -2   39    1      1.05      0.00
    2   38    0     -0.05      0.00
    2   37    0     -1.51      0.00
    2   36    0      0.22      0.00
    2   35    0      1.29      0.00
    2   34    0      0.34      0.00
    2   33    0     -2.05      0.00
    2   32    0     -0.73      0.00
    2   31    0      0.54      0.00
    2   30    0      2.17      0.00
    2   29    0     -0.77      0.00
    2   28    0     -2.53      0.00
    2   27    0      0.86      0.00
    2   26    0      2.28      0.00
    2   25    0     -2.38      0.00
    2   24    0     -3.10      0.00
    2   23    0      3.86      0.00
    2   22    0      3.17      0.00
    2   21    0     -4.50      0.00
    2   20    0      1.89      0.00
    2   19    0      9.44      0.00
    2   18    0      0.84      0.00
    2   17    0     -3.42      0.00
    2   16    0     -2.08      0.00
    2   15    0     13.98      0.00
    2   14    0      4.66      0.00
    2   13    0      1.33      0.00
    2   12    0    -16.65      0.00
    2   11    0      6.16      0.00
    2   10    0      8.68      0.00
    2    9    0     -9.18      0.00
    2    8    0    -55.02      0.00
    2    7    0     18.80      0.00
    2    6    0     51.41      0.00
    2    5    0    -52.02      0.00
    2    4    0     -7.66      0.00
    2    3    0     40.45      0.00
    2    2    0      6.65      0.00
    2    1    0      2.41      0.00
    2    0    0     53.35      0.00
    2   39    0      0.34      0.00
    2   38    1     -0.03      0.00
    2   37    1     -0.51      0.00
    2   36    1      0.29      0.00
    2   35    1     -0.29      0.00
    2   34    1     -0.11      0.00
    2   33    1     -1.02      0.00
    2   32    1      1.68      0.00
    2   31    1      0.77      0.00
    2   30    1      0.18      0.00
    2   29    1     -1.81      0.00
    2   28    1      2.08      0.00
    2   27    1      2.43      0.00
    2   26    1     -1.41      0.00
    2   25    1     -1.82      0.00
    2   24    1      2.49      0.00
    2   23    1      0.99      0.00
    2   22    1      0.62      0.00
    2   21    1      0.66      0.00
    2   20    1      3.95      0.00
    2   19    1     -1.92      0.00
    2   18    1      1.18      0.00
    2   17    1      6.59      0.00
    2   16    1      3.91      0.00
    2   15    1     -2.43      0.00
    2   14    1     -2.60      0.00
    2   13    1      4.64      0.00
    2   12    1      2.90      0.00
    2   11    1     13.67      0.00
    2   10    1    -14.81      0.00
    2    9    1    -19.52      0.00
    2    8    1     -3.38      0.00
    2    7    1     23.17      0.00
    2    6    1    -15.90      0.00
    2    5    1     -9.57      0.00
    2    4    1     26.24      0.00
    2    3    1     31.40      0.00
    2    2    1    -15.41      0.00
    2    1    1     -0.50      0.00
    2    0    1     52.59      0.00
    2   39    1      0.23      0.00
    2   38    2     -0.36      0.00
    2   37    2     -0.16      0.00
    2   36    2      0.95      0.00
    2   35    2     -0.09      0.00
    2   34    2     -0.78      0.00
    2   33    2      0.31      0.00
    2   32    2      2.55      0.00
    2   31    2     -0.60      0.00
    2   30    2      0.60      0.00
    2   29    2      0.58      0.00
    2   28    2      1.71      0.00
    2   27    2      0.09      0.00
    2   26    2     -0.86      0.00
    2   25    2      0.27      0.00
    2   24    2      2.64      0.00
    2   23    2      0.69      0.00
    2   22    2     -0.86      0.00
    2   21    2     -3.01      0.00
    2   20    2      5.66      0.00
    2   19    2      4.19      0.00
    2   18    2     -2.80      0.00
    2   17    2     -7.08      0.00
    2   16    2      8.49      0.00
    2   15    2      1.92      0.00
    2   14    2     -1.02      0.00
    2   13    2      0.71      0.00
    2   12    2      2.55      0.00
    2   11    2     -0.06      0.00
    2   10    2      2.30      0.00
    2    9    2     -7.17      0.00
    2    8    2     -1.93      0.00
    2    7    2     14.23      0.00
    2    6    2    -30.17      0.00
    2    5    2     -4.23      0.00
    2    4    2     13.84      0.00
    2    3    2     33.35      0.00
    2    2    2      6.91      0.00
    2    1    2    -15.97      0.00
    2    0    2    -14.49      0.00
    2   39    2      0.26      0.00
    2   38    3     -0.35      0.00
    2   37    3      0.52      0.00
    2   36    3      0.36      0.00
    2   35    3      0.47      0.00
    2   34    3      0.47      0.00
    2   33    3     -0.26      0.00
    2   32    3      0.85      0.00
    2   31    3      0.82      0.00
    2   30    3      1.31      0.00
    2   29    3     -1.04      0.00
    2   28    3      0.98      0.00
    2   27    3      2.18      0.00
    2   26    3     -1.24      0.00
    2   25    3     -1.51      0.00
    2   24    3      0.84      0.00
    2   22    3     -0.77      0.00
    2   21    3     -0.14      0.00
    2   20    3      0.90      0.00
    2   19    3     -1.30      0.00
    2   17    3     -3.03      0.00
    2   16    3     -0.29      0.00
    2   15    3     -2.43      0.00
    2   14    3      8.46      0.00
    2   13    3     -5.19      0.00
    2   12    3      0.18      0.00
    2   11    3      1.20      0.00
    2   10    3      8.57      0.00
    2    8    3     -6.32      0.00
    2    6    3    -17.79      0.00
    2    4    3     -1.10      0.00
    2    3    3     -0.14      0.00
    2    2    3      6.49      0.00
    2    0    3    -25.53      0.00
    2   18    3     -0.67      0.00
    2   23    3      0.15      0.00
    2   39    3      0.10      0.00
    2   37    4      0.46      0.00
    2   36    4      0.00      0.00
    2   35    4      0.01      0.00
    2   34    4      0.16      0.00
    2   33    4      0.68      0.00
    2   32    4      1.19      0.00
    2   31    4     -0.81      0.00
    2   30    4     -0.30      0.00
    2   29    4      0.95      0.00
    2   28    4      1.30      0.00
    2   27    4     -0.36      0.00
    2   26    4     -1.20      0.00
    2   25    4     -0.36      0.00
    2   24    4     -1.12      0.00
    2   23    4     -1.12      0.00
    2   22    4     -2.98      0.00
    2   21    4      0.04      0.00
    2   20    4      0.64      0.00
    2   19    4     -0.73      0.00
    2   17    4     -2.82      0.00
    2   16    4      3.81      0.00
    2   15    4     -0.90      0.00
    2   14    4      0.23      0.00
    2   13    4     -4.46      0.00
    2   12    4      7.79      0.00
    2   11    4      0.34      0.00
    2   10    4     -1.60      0.00
    2    9    4    -11.33      0.00
    2    6    4    -18.20      0.00
    2    5    4      1.60      0.00
    2    4    4      6.75      0.00
    2    3    4     -0.34      0.00
    2    2    4     -3.11      0.00
    2    1    4     -1.36      0.00
    2    0    4     -7.23      0.00
    2    8    4      6.22      0.00
    2   18    4     -5.01      0.00
    2   38    4     -0.28      0.00
    2   39    4      0.21      0.00
    2   36    5      0.01      0.00
    2   35    5      0.22      0.00
    2   34    5     -0.11      0.00
    2   33    5     -0.30      0.00
    2   32    5      0.02      0.00
    2   31    5      0.54      0.00
    2   30    5      0.59      0.00
    2   29    5     -0.20      0.00
    2   28    5      0.81      0.00
    2   27    5     -0.47      0.00
    2   26    5     -1.54      0.00
    2   25    5     -1.51      0.00
    2   24    5     -1.85      0.00
    2   23    5     -0.10      0.00
    2   22    5     -3.06      0.00
    2   21    5      0.00      0.00
    2   20    5     -1.96      0.00
    2   18    5      0.60      0.00
    2   17    5      1.13      0.00
    2   16    5      0.28      0.00
    2   14    5     -0.05      0.00
    2   13    5      0.02      0.00
    2   12    5      4.88      0.00
    2   10    5     -0.21      0.00
    2    8    5      2.15      0.00
    2    6    5     -0.82      0.00
    2    4    5      0.50      0.00
    2    2    5      0.25      0.00
    2    0    5      6.01      0.00
    2    7    5     -8.21      0.00
    2    9    5     -8.96      0.00
    2   11    5     -1.87      0.00
    2   15    5      0.34      0.00
    2   19    5     -1.63      0.00
    2   37    5      0.12      0.00
    2   38    5     -0.62      0.00
    2   35    6     -0.04      0.00
    2   34    6     -0.19      0.00
    2   33    6      0.43      0.00
    2   32    6     -0.35      0.00
    2   31    6     -0.43      0.00
    2   30    6      0.54      0.00
    2   29    6      0.77      0.00
    2   28    6      0.26      0.00
    2   27    6     -1.95      0.00
    2   26    6     -0.99      0.00
    2   25    6      0.23      0.00
    2   24    6     -1.73      0.00
    2   23    6     -1.90      0.00
    2   22    6     -2.92      0.00
    2   21    6      2.45      0.00
    2   20    6     -0.45      0.00
    2   19    6     -1.35      0.00
    2   17    6      3.88      0.00
    2   16    6     -0.50      0.00
    2   15    6     -0.03      0.00
    2   14    6      2.87      0.00
    2   13    6      1.62      0.00
    2   12    6     -0.89      0.00
    2   11    6     -2.07      0.00
    2   10    6     -0.07      0.00
    2    9    6     -2.68      0.00
    2    8    6      3.47      0.00
    2    7    6     -6.58      0.00
    2    5    6      3.45      0.00
    2    3    6     -3.59      0.00
    2    2    6     -3.72      0.00
    2    1    6      2.10      0.00
    2    4    6      3.92      0.00
    2   36    6      0.16      0.00
    2   37    6      0.50      0.00
    2   34    7      0.52      0.00
    2   33    7      0.79      0.00
    2   32    7     -0.70      0.00
    2   31    7      0.10      0.00
    2   30    7      0.33      0.00
    2   29    7     -0.96      0.00
    2   28    7     -0.90      0.00
    2   27    7     -0.20      0.00
    2   26    7      0.30      0.00
    2   25    7     -0.25      0.00
    2   24    7     -0.38      0.00
    2   23    7     -1.06      0.00
    2   22    7     -1.73      0.00
    2   21    7      2.41      0.00
    2   20    7     -0.22      0.00
    2   19    7      1.64      0.00
    2   18    7      0.28      0.00
    2   17    7      2.48      0.00
    2   16    7      2.30      0.00
    2   14    7      0.70      0.00
    2   13    7     -0.36      0.00
    2   12    7     -0.21      0.00
    2   11    7      0.22      0.00
    2   10    7     -3.22      0.00
    2    9    7     -0.71      0.00
    2    8    7      3.22      0.00
    2    7    7     -0.92      0.00
    2    6    7     -1.90      0.00
    2    5    7      0.27      0.00
    2    4    7     -2.45      0.00
    2    2    7      4.46      0.00
    2    1    7      1.14      0.00
    2    0    7      4.94      0.00
    2   15    7     -0.15      0.00
    2   35    7     -0.26      0.00
    2   36    7      0.15      0.00
    2   33    8     -0.14      0.00
    2   32    8      0.12      0.00
    2   31    8      0.23      0.00
    2   30    8     -0.88      0.00
    2   29    8     -0.67      0.00
    2   28    8      0.11      0.00
    2   27    8     -0.46      0.00
    2   26    8      0.32      0.00
    2   25    8      0.37      0.00
    2   24    8      0.79      0.00
    2   23    8     -0.08      0.00
    2   22    8     -0.05      0.00
    2   21    8      1.53      0.00
    2   20    8     -0.25      0.00
    2   19    8      2.20      0.00
    2   18    8     -0.41      0.00
    2   17    8      0.70      0.00
    2   16    8      1.96      0.00
    2   15    8     -0.43      0.00
    2   14    8      0.63      0.00
    2   13    8     -0.42      0.00
    2   11    8     -1.07      0.00
    2   10    8     -1.12      0.00
    2    9    8      1.22      0.00
    2    8    8     -1.42      0.00
    2    7    8      0.12      0.00
    2    6    8     -1.57      0.00
    2    5    8      1.52      0.00
    2    4    8     -3.92      0.00
    2    3    8      2.00      0.00
    2    2    8      2.68      0.00
    2    1    8      0.45      0.00
    2    0    8     -0.57      0.00
    2   12    8     -0.89      0.00
    2   34    8      0.30      0.00
    2   35    8      1.36      0.00
    2   31    9      0.24      0.00
    2   30    9     -0.16      0.00
    2   29    9     -0.81      0.00
    2   28    9      0.85      0.00
    2   27    9      0.51      0.00
    2   26    9      0.11      0.00
    2   25    9      0.21      0.00
    2   24    9      0.56      0.00
    2   23    9      0.92      0.00
    2   22    9      0.63      0.00
    2   21    9     -0.20      0.00
    2   20    9      0.79      0.00
    2   19    9      0.98      0.00
    2   18    9      0.51      0.00
    2   17    9     -0.16      0.00
    2   16    9     -0.14      0.00
    2   15    9     -0.30      0.00
    2   14    9      0.66      0.00
    2   13    9     -1.42      0.00
    2   12    9      0.28      0.00
    2   11    9     -1.43      0.00
    2   10    9     -0.48      0.00
    2    9    9      0.48      0.00
    2    8    9     -1.94      0.00
    2    7    9      0.26      0.00
    2    6    9     -1.94      0.00
    2    5    9      1.64      0.00
    2    4    9     -1.01      0.00
    2    3    9      1.62      0.00
    2    2    9     -2.99      0.00
    2    1    9     -0.21      0.00
    2    0    9     -0.92      0.00
    2   32    9     -0.36      0.00
    2   33    9      0.20      0.00
    2   34    9      0.31      0.00
    2   30   10      0.20      0.00
    2   29   10      0.55      0.00
    2   28   10      0.87      0.00
    2   27   10     -0.08      0.00
    2   26   10     -0.30      0.00
    2   25   10      0.68      0.00
    2   24   10     -0.07      0.00
    2   23   10      0.37      0.00
    2   22   10      0.80      0.00
    2   21   10     -0.21      0.00
    2   20   10     -0.10      0.00
    2   19   10     -0.60      0.00
    2   18   10      1.54      0.00
    2   17   10     -0.38      0.00
    2   16   10     -0.75      0.00
    2   15   10     -1.01      0.00
    2   14   10      0.22      0.00
    2   13   10     -2.97      0.00
    2   12   10      0.19      0.00
    2   11   10     -0.19      0.00
    2   10   10      0.73      0.00
    2    9   10     -2.11      0.00
    2    8   10     -1.43      0.00
    2    7   10      1.00      0.00
    2    6   10      1.00      0.00
    2    5   10      0.17      0.00
    2    4   10     -3.46      0.00
    2    3   10      0.38      0.00
    2    2   10     -0.75      0.00
    2    1   10      0.00      0.00
    2    0   10     -3.44      0.00
    2   31   10     -0.11      0.00
    2   32   10      0.40      0.00
    2   27   11      0.11      0.00
    2   26   11      0.41      0.00
    2   25   11     -0.52      0.00
    2   24   11     -0.51      0.00
    2   23   11      0.40      0.00
    2   22   11     -0.66      0.00
    2   21   11      0.27      0.00
    2   20   11      0.04      0.00
    2   19   11     -0.33      0.00
    2   18   11     -0.38      0.00
    2   17   11     -1.53      0.00
    2   16   11      0.15      0.00
    2   15   11     -1.14      0.00
    2   14   11     -0.39      0.00
    2   13   11     -2.28      0.00
    2   12   11      0.00      0.00
    2   11   11     -0.97      0.00
    2   10   11      1.37      0.00
    2    9   11     -1.92      0.00
    2    8   11      1.25      0.00
    2    7   11      0.59      0.00
    2    6   11     -1.15      0.00
    2    5   11     -0.66      0.00
    2    4   11     -0.26      0.00
    2    3   11      0.31      0.00
    2    2   11     -2.00      0.00
    2    1   11     -0.63      0.00
    2    0   11     -0.08      0.00
    2   28   11     -0.14      0.00
    2   29   11      0.08      0.00
    2   30   11      0.26      0.00
    2   31   11      1.68      0.00
    2   25   12     -0.25      0.00
    2   24   12      0.12      0.00
    2   23   12     -0.39      0.00
    2   22   12     -0.58      0.00
    2   21   12      0.97      0.00
    2   20   12     -1.17      0.00
    2   19   12     -0.51      0.00
    2   18   12     -0.28      0.00
    2   17   12     -0.21      0.00
    2   16   12     -0.48      0.00
    2   15   12     -1.16      0.00
    2   14   12     -0.35      0.00
    2   13   12     -0.59      0.00
    2   12   12      0.78      0.00
    2   11   12     -0.83      0.00
    2   10   12      1.62      0.00
    2    9   12     -0.73      0.00
    2    8   12      0.73      0.00
    2    7   12     -0.68      0.00
    2    6   12     -0.33      0.00
    2    5   12     -0.34      0.00
    2    4   12      0.80      0.00
    2    3   12      0.52      0.00
    2    2   12     -1.19      0.00
    2    1   12     -0.64      0.00
    2    0   12     -0.05      0.00
    2   26   12     -0.09      0.00
    2   27   12     -0.69      0.00
    2   28   12     -0.19      0.00
    2   22   13      0.35      0.00
    2   21   13      0.41      0.00
    2   20   13     -0.72      0.00
    2   19   13     -0.26      0.00
    2   18   13     -0.24      0.00
    2   17   13      0.97      0.00
    2   16   13     -0.12      0.00
    2   15   13     -0.63      0.00
    2   14   13      0.18      0.00
    2   13   13      0.93      0.00
    2   12   13      0.26      0.00
    2   11   13      0.21      0.00
    2   10   13      1.04      0.00
    2    9   13     -1.25      0.00
    2    8   13     -0.12      0.00
    2    7   13      0.55      0.00
    2    6   13      0.89      0.00
    2    5   13     -1.08      0.00
    2    4   13      1.14      0.00
    2    3   13      0.02      0.00
    2    2   13     -0.41      0.00
    2    1   13      1.05      0.00
    2    0   13     -0.77      0.00
    2   23   13      0.05      0.00
    2   24   13      0.26      0.00
    2   25   13     -0.56      0.00
    2   26   13     -0.14      0.00
    2   19   14      0.06      0.00
    2   18   14      0.33      0.00
    2   17   14      0.25      0.00
    2   16   14      0.38      0.00
    2   15   14      0.44      0.00
    2   14   14     -0.38      0.00
    2   13   14      0.85      0.00
    2   12   14      0.82      0.00
    2   11   14      0.24      0.00
    2   10   14     -1.29      0.00
    2    9   14     -0.68      0.00
    2    8   14      0.71      0.00
    2    7   14      1.14      0.00
    2    6   14      0.79      0.00
    2    5   14     -0.91      0.00
    2    4   14      1.01      0.00
    2    3   14      0.27      0.00
    2    2   14     -0.08      0.00
    2    1   14      0.46      0.00
    2    0   14     -0.23      0.00
    2   20   14      0.44      0.00
    2   21   14      0.26      0.00
    2   22   14      0.23      0.00
    2   14   15     -0.23      0.00
    2   13   15      0.16      0.00
    2   12   15     -0.03      0.00
    2   11   15     -0.41      0.00
    2   10   15     -0.05      0.00
    2    9   15      1.12      0.00
    2    8   15     -0.01      0.00
    2    7   15     -0.31      0.00
    2    6   15      0.62      0.00
    2    5   15      0.83      0.00
    2    4   15      0.22      0.00
    2    3   15      0.04      0.00
    2    2   15     -0.11      0.00
    2    1   15      0.40      0.00
    2    0   15      0.45      0.00
    2   15   15      0.30      0.00
    2   16   15      0.18      0.00
    2   17   15     -0.09      0.00
    2   18   15      0.80      0.00
    2    7   16     -0.38      0.00
    2    6   16     -0.23      0.00
    2    5   16      0.25      0.00
    2    4   16     -0.81      0.00
    2    3   16      0.31      0.00
    2    2   16      0.49      0.00
    2    1   16      0.61      0.00
    2    0   16     -0.49      0.00
    2    8   16      0.40      0.00
    2    9   16      0.75      0.00
    2   10   16      0.70      0.00
    2   11   16      0.07      0.00
   -3    9   15     -0.38      0.00
   -3    8   15     -0.58      0.00
   -3    7   15     -0.06      0.00
   -3    6   15      0.64      0.00
   -3    5   15     -0.02      0.00
   -3    4   15      0.37      0.00
   -3    3   15     -0.11      0.00
   -3    2   15     -1.46      0.00
   -3    1   15      0.26      0.00
   -3    0   15      1.32      0.00
   -3   16   14      0.72      0.00
   -3   15   14      0.41      0.00
   -3   14   14      0.60      0.00
   -3   13   14     -0.17      0.00
   -3   12   14     -0.60      0.00
   -3   11   14      0.93      0.00
   -3   10   14      0.34      0.00
   -3    9   14     -0.13      0.00
   -3    8   14     -0.74      0.00
   -3    7   14      0.81      0.00
   -3    6   14      0.75      0.00
   -3    5   14      0.14      0.00
   -3    4   14      0.82      0.00
   -3    3   14     -0.49      0.00
   -3    2   14     -0.01      0.00
   -3    1   14      0.15      0.00
   -3    0   14      0.48      0.00
   -3   21   13      1.41      0.00
   -3   20   13      0.72      0.00
   -3   19   13     -1.21      0.00
   -3   18   13     -0.66      0.00
   -3   17   13     -0.25      0.00
   -3   16   13     -0.03      0.00
   -3   15   13     -0.03      0.00
   -3   14   13     -0.10      0.00
   -3   13   13      0.31      0.00
   -3   12   13     -0.52      0.00
   -3   11   13      0.38      0.00
   -3   10   13     -0.67      0.00
   -3    9   13     -0.29      0.00
   -3    8   13      1.05      0.00
   -3    7   13      0.14      0.00
   -3    6   13     -0.32      0.00
   -3    5   13     -0.32      0.00
   -3    4   13      1.42      0.00
   -3    3   13     -0.03      0.00
   -3    2   13      1.71      0.00
   -3    1   13     -0.40      0.00
   -3    0   13     -0.04      0.00
   -3   24   12     -0.44      0.00
   -3   23   12     -0.11      0.00
   -3   22   12      0.59      0.00
   -3   21   12     -0.80      0.00
   -3   20   12      0.43      0.00
   -3   19   12      0.38      0.00
   -3   18   12     -0.06      0.00
   -3   17   12     -0.67      0.00
   -3   16   12     -0.24      0.00
   -3   15   12      0.55      0.00
   -3   14   12     -1.68      0.00
   -3   13   12      0.10      0.00
   -3   12   12     -0.43      0.00
   -3   11   12     -0.28      0.00
   -3   10   12      0.44      0.00
   -3    9   12     -1.03      0.00
   -3    8   12      0.03      0.00
   -3    7   12     -0.94      0.00
   -3    6   12      0.49      0.00
   -3    5   12     -1.71      0.00
   -3    4   12      0.52      0.00
   -3    3   12      0.85      0.00
   -3    2   12      1.76      0.00
   -3    1   12     -1.60      0.00
   -3    0   12      0.12      0.00
   -3   27   11     -0.02      0.00
   -3   26   11     -0.36      0.00
   -3   25   11      0.31      0.00
   -3   24   11      0.39      0.00
   -3   23   11      0.00      0.00
   -3   22   11      0.17      0.00
   -3   21   11     -0.29      0.00
   -3   20   11      0.33      0.00
   -3   19   11      0.14      0.00
   -3   18   11      0.50      0.00
   -3   17   11      0.63      0.00
   -3   16   11     -0.64      0.00
   -3   15   11     -0.21      0.00
   -3   14   11     -1.07      0.00
   -3   13   11      0.12      0.00
   -3   12   11     -0.61      0.00
   -3   11   11      0.06      0.00
   -3   10   11      0.39      0.00
   -3    9   11     -1.72      0.00
   -3    8   11      0.74      0.00
   -3    7   11     -1.54      0.00
   -3    6   11      0.66      0.00
   -3    5   11     -1.83      0.00
   -3    4   11     -0.77      0.00
   -3    3   11     -1.06      0.00
   -3    2   11      0.22      0.00
   -3    1   11     -0.40      0.00
   -3    0   11     -0.02      0.00
   -3   29   10      0.02      0.00
   -3   28   10     -0.25      0.00
   -3   27   10     -0.23      0.00
   -3   26   10      1.21      0.00
   -3   25   10     -0.12      0.00
   -3   24   10      0.15      0.00
   -3   23   10     -0.15      0.00
   -3   22   10      0.74      0.00
   -3   21   10     -0.44      0.00
   -3   20   10     -0.33      0.00
   -3   19   10      1.78      0.00
   -3   18   10      0.54      0.00
   -3   17   10      0.17      0.00
   -3   16   10     -0.61      0.00
   -3   15   10      0.33      0.00
   -3   14   10     -0.32      0.00
   -3   13   10      0.66      0.00
   -3   12   10     -0.21      0.00
   -3   11   10     -0.94      0.00
   -3   10   10      0.83      0.00
   -3    9   10     -0.12      0.00
   -3    8   10      1.14      0.00
   -3    7   10     -1.96      0.00
   -3    6   10      0.75      0.00
   -3    5   10     -2.09      0.00
   -3    4   10     -1.21      0.00
   -3    3   10     -1.52      0.00
   -3    2   10     -1.90      0.00
   -3    1   10     -0.84      0.00
   -3    0   10     -1.63      0.00
   -3   31    9      0.00      0.00
   -3   30    9      0.50      0.00
   -3   29    9     -1.29      0.00
   -3   28    9      0.28      0.00
   -3   27    9      1.03      0.00
   -3   26    9      0.67      0.00
   -3   25    9     -0.18      0.00
   -3   24    9      0.31      0.00
   -3   23    9     -0.20      0.00
   -3   22    9      0.18      0.00
   -3   21    9      0.35      0.00
   -3   20    9      0.30      0.00
   -3   19    9      0.67      0.00
   -3   18    9      0.11      0.00
   -3   17    9      1.93      0.00
   -3   16    9     -1.47      0.00
   -3   15    9      0.09      0.00
   -3   14    9      0.05      0.00
   -3   13    9      1.06      0.00
   -3   12    9      2.18      0.00
   -3   11    9     -0.53      0.00
   -3   10    9      1.21      0.00
   -3    9    9     -0.99      0.00
   -3    8    9      1.41      0.00
   -3    7    9     -0.14      0.00
   -3    6    9     -0.86      0.00
   -3    5    9     -0.53      0.00
   -3    4    9      0.54      0.00
   -3    3    9     -2.87      0.00
   -3    2    9     -4.77      0.00
   -3    1    9      1.62      0.00
   -3    0    9     -2.34      0.00
   -3   33    8      1.33      0.00
   -3   32    8      0.17      0.00
   -3   31    8     -0.49      0.00
   -3   30    8      0.35      0.00
   -3   29    8      0.05      0.00
   -3   28    8      0.04      0.00
   -3   27    8     -0.27      0.00
   -3   26    8      0.49      0.00
   -3   25    8      0.18      0.00
   -3   24    8     -0.63      0.00
   -3   23    8      0.98      0.00
   -3   22    8     -0.01      0.00
   -3   21    8     -0.84      0.00
   -3   20    8     -0.31      0.00
   -3   19    8      1.41      0.00
   -3   18    8     -0.02      0.00
   -3   17    8      0.11      0.00
   -3   16    8     -1.17      0.00
   -3   15    8      1.16      0.00
   -3   13    8      0.61      0.00
   -3   12    8      2.80      0.00
   -3   11    8      0.20      0.00
   -3    9    8     -0.08      0.00
   -3    8    8     -1.07      0.00
   -3    7    8      1.92      0.00
   -3    5    8      0.23      0.00
   -3    4    8     -3.39      0.00
   -3    3    8      1.57      0.00
   -3    2    8      1.08      0.00
   -3    1    8     -2.54      0.00
   -3    0    8     -6.91      0.00
   -3    6    8      1.35      0.00
   -3   14    8      0.41      0.00
   -3   34    7      0.17      0.00
   -3   33    7      0.50      0.00
   -3   32    7     -0.76      0.00
   -3   31    7      0.47      0.00
   -3   30    7     -0.32      0.00
   -3   29    7     -0.47      0.00
   -3   28    7     -0.53      0.00
   -3   27    7      0.14      0.00
   -3   26    7     -0.73      0.00
   -3   25    7      0.45      0.00
   -3   24    7      0.37      0.00
   -3   23    7     -1.29      0.00
   -3   22    7     -1.03      0.00
   -3   21    7      0.83      0.00
   -3   20    7     -1.50      0.00
   -3   19    7     -1.20      0.00
   -3   18    7      0.92      0.00
   -3   17    7      1.51      0.00
   -3   16    7     -1.15      0.00
   -3   15    7     -2.84      0.00
   -3   14    7      1.57      0.00
   -3   13    7      0.60      0.00
   -3   12    7      1.69      0.00
   -3   11    7      2.08      0.00
   -3    9    7      4.43      0.00
   -3    7    7     -0.11      0.00
   -3    5    7      3.93      0.00
   -3    4    7     -1.76      0.00
   -3    3    7     -1.01      0.00
   -3    2    7      3.66      0.00
   -3    1    7      2.69      0.00
   -3    0    7     -1.41      0.00
   -3   35    6      0.73      0.00
   -3   34    6     -1.04      0.00
   -3   33    6     -0.12      0.00
   -3   32    6     -0.86      0.00
   -3   31    6      0.14      0.00
   -3   30    6     -0.43      0.00
   -3   29    6      0.45      0.00
   -3   28    6     -0.85      0.00
   -3   27    6     -0.08      0.00
   -3   26    6     -0.59      0.00
   -3   25    6     -0.06      0.00
   -3   24    6      0.45      0.00
   -3   23    6     -1.42      0.00
   -3   22    6     -1.45      0.00
   -3   20    6      0.78      0.00
   -3   19    6     -1.15      0.00
   -3   18    6     -1.28      0.00
   -3   17    6     -0.10      0.00
   -3   16    6      1.57      0.00
   -3   15    6     -3.21      0.00
   -3   14    6     -2.18      0.00
   -3   13    6     -1.96      0.00
   -3   12    6      0.36      0.00
   -3   10    6     -0.35      0.00
   -3    8    6      1.67      0.00
   -3    7    6     -1.04      0.00
   -3    6    6     -0.82      0.00
   -3    5    6     -0.19      0.00
   -3    4    6      1.99      0.00
   -3    3    6      0.99      0.00
   -3    2    6      5.98      0.00
   -3    1    6      0.40      0.00
   -3    0    6      4.84      0.00
   -3   36    5      0.49      0.00
   -3   35    5      0.01      0.00
   -3   34    5     -0.27      0.00
   -3   33    5      0.69      0.00
   -3   32    5     -1.30      0.00
   -3   31    5      0.05      0.00
   -3   30    5      0.10      0.00
   -3   29    5      0.83      0.00
   -3   28    5     -0.06      0.00
   -3   27    5     -1.14      0.00
   -3   26    5     -0.12      0.00
   -3   25    5      0.38      0.00
   -3   24    5      0.71      0.00
   -3   23    5     -0.90      0.00
   -3   22    5      0.64      0.00
   -3   21    5     -3.62      0.00
   -3   20    5     -0.76      0.00
   -3   19    5     -1.37      0.00
   -3   18    5      3.02      0.00
   -3   17    5     -2.35      0.00
   -3   16    5     -3.11      0.00
   -3   15    5     -0.30      0.00
   -3   14    5     -2.31      0.00
   -3   13    5     -4.11      0.00
   -3   11    5      3.79      0.00
   -3   10    5      2.34      0.00
   -3    9    5      1.49      0.00
   -3    8    5      0.10      0.00
   -3    7    5      0.10      0.00
   -3    6    5     -5.10      0.00
   -3    5    5     -3.72      0.00
   -3    4    5      2.13      0.00
   -3    3    5     -2.59      0.00
   -3    2    5      9.21      0.00
   -3    1    5     -0.78      0.00
   -3    0    5      7.06      0.00
   -3   37    4      0.02      0.00
   -3   36    4      0.17      0.00
   -3   35    4     -0.21      0.00
   -3   34    4     -0.10      0.00
   -3   33    4      1.37      0.00
   -3   32    4     -0.18      0.00
   -3   31    4     -0.69      0.00
   -3   30    4     -0.77      0.00
   -3   29    4      0.95      0.00
   -3   28    4      0.59      0.00
   -3   27    4     -1.46      0.00
   -3   26    4      1.68      0.00
   -3   24    4      0.67      0.00
   -3   23    4     -1.76      0.00
   -3   22    4      2.05      0.00
   -3   21    4     -1.86      0.00
   -3   20    4     -0.12      0.00
   -3   19    4     -4.01      0.00
   -3   18    4      1.39      0.00
   -3   17    4      0.23      0.00
   -3   16    4     -3.21      0.00
   -3   14    4     -3.47      0.00
   -3   13    4      3.73      0.00
   -3   12    4    -12.48      0.00
   -3   11    4     -3.00      0.00
   -3   10    4      3.25      0.00
   -3    9    4      1.89      0.00
   -3    8    4     -2.19      0.00
   -3    6    4     -4.83      0.00
   -3    4    4     -8.07      0.00
   -3    3    4    -11.26      0.00
   -3    2    4     10.18      0.00
   -3    1    4      1.48      0.00
   -3    0    4     10.74      0.00
   -3    5    4     -1.14      0.00
   -3    7    4    -10.45      0.00
   -3   15    4     -2.70      0.00
   -3   25    4      0.40      0.00
   -3   37    3      0.19      0.00
   -3   36    3     -0.17      0.00
   -3   35    3      0.34      0.00
   -3   34    3      0.20      0.00
   -3   33    3     -0.65      0.00
   -3   32    3      0.32      0.00
   -3   31    3      1.10      0.00
   -3   30    3     -0.81      0.00
   -3   29    3     -1.14      0.00
   -3   28    3      0.73      0.00
   -3   27    3      0.41      0.00
   -3   26    3      1.67      0.00
   -3   25    3     -0.39      0.00
   -3   24    3      2.15      0.00
   -3   23    3     -3.21      0.00
   -3   22    3      2.70      0.00
   -3   21    3      1.47      0.00
   -3   20    3     -0.27      0.00
   -3   19    3     -3.49      0.00
   -3   18    3     -0.90      0.00
   -3   17    3      0.35      0.00
   -3   16    3     -3.14      0.00
   -3   15    3      1.08      0.00
   -3   14    3     -4.83      0.00
   -3   13    3      4.00      0.00
   -3   12    3     -3.37      0.00
   -3   11    3      0.38      0.00
   -3   10    3    -15.07      0.00
   -3    8    3     14.73      0.00
   -3    6    3    -14.10      0.00
   -3    5    3    -14.51      0.00
   -3    4    3     -3.01      0.00
   -3    3    3     -7.79      0.00
   -3    2    3     -4.02      0.00
   -3    0    3     17.13      0.00
   -3    9    3      1.24      0.00
   -3   38    3      0.64      0.00
   -3   38    2      0.44      0.00
   -3   37    2      0.54      0.00
   -3   36    2     -0.11      0.00
   -3   35    2     -0.36      0.00
   -3   34    2      0.33      0.00
   -3   33    2      0.08      0.00
   -3   32    2     -0.33      0.00
   -3   31    2     -0.18      0.00
   -3   30    2      0.98      0.00
   -3   29    2     -0.29      0.00
   -3   28    2     -0.19      0.00
   -3   27    2      0.50      0.00
   -3   26    2      0.87      0.00
   -3   25    2     -0.37      0.00
   -3   24    2      4.45      0.00
   -3   23    2     -1.52      0.00
   -3   22    2      0.25      0.00
   -3   21    2      0.95      0.00
   -3   20    2      2.80      0.00
   -3   19    2      1.32      0.00
   -3   17    2      0.60      0.00
   -3   16    2     -2.50      0.00
   -3   15    2      2.41      0.00
   -3   14    2      1.18      0.00
   -3   13    2      8.09      0.00
   -3   11    2      2.49      0.00
   -3   10    2      3.91      0.00
   -3    9    2      1.75      0.00
   -3    8    2     -4.98      0.00
   -3    7    2     -7.55      0.00
   -3    5    2    -31.74      0.00
   -3    4    2     -4.53      0.00
   -3    3    2     -2.65      0.00
   -3    2    2     -4.23      0.00
   -3    1    2      1.69      0.00
   -3   39    2      0.42      0.00
   -3   38    1      0.34      0.00
   -3   37    1     -0.21      0.00
   -3   36    1     -0.20      0.00
   -3   35    1     -0.20      0.00
   -3   34    1     -0.53      0.00
   -3   33    1      0.08      0.00
   -3   32    1      1.10      0.00
   -3   31    1     -1.39      0.00
   -3   30    1     -0.79      0.00
   -3   29    1      1.49      0.00
   -3   28    1      0.72      0.00
   -3   27    1     -0.65      0.00
   -3   26    1      0.65      0.00
   -3   25    1      0.53      0.00
   -3   24    1      2.15      0.00
   -3   23    1      0.09      0.00
   -3   22    1      2.96      0.00
   -3   21    1      1.54      0.00
   -3   20    1     -2.66      0.00
   -3   19    1      2.08      0.00
   -3   18    1      2.99      0.00
   -3   17    1      5.08      0.00
   -3   16    1     -5.58      0.00
   -3   15    1     -3.36      0.00
   -3   14    1     -1.04      0.00
   -3   13    1     15.25      0.00
   -3   12    1      6.67      0.00
   -3   11    1      2.86      0.00
   -3   10    1    -10.01      0.00
   -3    9    1      8.38      0.00
   -3    8    1     18.32      0.00
   -3    7    1    -20.94      0.00
   -3    6    1      5.49      0.00
   -3    5    1      5.41      0.00
   -3    4    1     -1.92      0.00
   -3    3    1    -28.73      0.00
   -3    2    1     21.61      0.00
   -3    1    1     11.88      0.00
   -3    0    1    -74.64      0.00
   -3   39    1      0.75      0.00
    3   38    0     -0.92      0.00
    3   37    0     -0.55      0.00
    3   36    0      0.06      0.00
    3   35    0      0.86      0.00
    3   34    0     -0.60      0.00
    3   33    0      0.63      0.00
    3   32    0      0.18      0.00
    3   31    0      0.02      0.00
    3   30    0     -0.70      0.00
    3   29    0      0.25      0.00
    3   28    0     -0.41      0.00
    3   27    0     -0.54      0.00
    3   26    0     -0.37      0.00
    3   25    0     -0.15      0.00
    3   24    0      2.14      0.00
    3   23    0      0.67      0.00
    3   22    0     -2.01      0.00
    3   21    0     -4.26      0.00
    3   20    0      3.91      0.00
    3   19    0      0.98      0.00
    3   18    0     -6.80      0.00
    3   17    0     -4.48      0.00
    3   16    0      2.39      0.00
    3   15    0      0.74      0.00
    3   14    0     -3.81      0.00
    3   13    0     -4.32      0.00
    3   12    0      2.30      0.00
    3   11    0    -16.29      0.00
    3   10    0      4.88      0.00
    3    9    0      5.12      0.00
    3    8    0     -0.10      0.00
    3    7    0      3.13      0.00
    3    6    0     31.00      0.00
    3    5    0    -12.91      0.00
    3    4    0      4.18      0.00
    3    3    0     21.01      0.00
    3    2    0    -21.11      0.00
    3    1    0     -1.20      0.00
    3    0    0    -13.72      0.00
    3   39    0      0.40      0.00
    3   38    1     -0.60      0.00
    3   37    1      0.55      0.00
    3   36    1      0.00      0.00
    3   35    1     -0.17      0.00
    3   34    1     -0.37      0.00
    3   33    1      0.77      0.00
    3   32    1     -0.83      0.00
    3   31    1      0.17      0.00
    3   30    1     -0.57      0.00
    3   29    1     -0.81      0.00
    3   28    1     -1.17      0.00
    3   27    1      1.15      0.00
    3   26    1     -1.19      0.00
    3   25    1      0.01      0.00
    3   24    1      0.21      0.00
    3   23    1     -0.83      0.00
    3   22    1     -0.91      0.00
    3   21    1      1.12      0.00
    3   20    1     -0.69      0.00
    3   19    1     -4.43      0.00
    3   18    1     -3.73      0.00
    3   17    1      6.41      0.00
    3   16    1     -3.50      0.00
    3   15    1     -2.76      0.00
    3   14    1     -0.31      0.00
    3   13    1     -2.61      0.00
    3   12    1     -5.25      0.00
    3   11    1      6.07      0.00
    3   10    1      4.75      0.00
    3    9    1    -18.58      0.00
    3    8    1      3.47      0.00
    3    7    1      7.72      0.00
    3    6    1     19.10      0.00
    3    5    1     -8.10      0.00
    3    4    1     10.35      0.00
    3    3    1      9.33      0.00
    3    2    1    -13.92      0.00
    3    1    1     -7.79      0.00
    3    0    1     -5.95      0.00
    3   39    1     -0.16      0.00
    3   38    2      0.68      0.00
    3   37    2      0.33      0.00
    3   36    2     -0.66      0.00
    3   35    2     -0.98      0.00
    3   34    2     -0.01      0.00
    3   33    2      1.42      0.00
    3   32    2     -0.44      0.00
    3   31    2     -1.75      0.00
    3   30    2     -0.79      0.00
    3   29    2      0.88      0.00
    3   28    2     -0.45      0.00
    3   27    2     -1.01      0.00
    3   26    2     -1.15      0.00
    3   25    2      2.62      0.00
    3   24    2     -0.62      0.00
    3   23    2     -1.86      0.00
    3   22    2      0.39      0.00
    3   21    2      2.23      0.00
    3   20    2     -1.29      0.00
    3   19    2     -1.78      0.00
    3   18    2     -5.08      0.00
    3   17    2      6.12      0.00
    3   16    2     -0.12      0.00
    3   15    2     -1.81      0.00
    3   14    2     -6.70      0.00
    3   13    2     15.24      0.00
    3   12    2     -1.95      0.00
    3   11    2    -12.94      0.00
    3   10    2     -5.24      0.00
    3    9    2     12.17      0.00
    3    8    2     13.02      0.00
    3    7    2    -15.60      0.00
    3    6    2    -11.07      0.00
    3    4    2     28.74      0.00
    3    3    2     -4.42      0.00
    3    2    2     -3.34      0.00
    3    1    2     -3.08      0.00
    3    0    2    -13.20      0.00
    3   39    2     -0.22      0.00
    3   37    3     -0.38      0.00
    3   36    3     -0.06      0.00
    3   35    3     -0.26      0.00
    3   34    3      0.31      0.00
    3   33    3     -0.22      0.00
    3   32    3     -0.49      0.00
    3   31    3     -0.34      0.00
    3   30    3      0.84      0.00
    3   29    3     -0.34      0.00
    3   28    3     -0.01      0.00
    3   27    3      0.02      0.00
    3   26    3     -0.57      0.00
    3   25    3      0.59      0.00
    3   24    3      0.90      0.00
    3   23    3      0.11      0.00
    3   22    3      1.27      0.00
    3   21    3      1.22      0.00
    3   20    3     -0.01      0.00
    3   19    3      1.02      0.00
    3   18    3     -1.57      0.00
    3   17    3      0.68      0.00
    3   16    3     -3.59      0.00
    3   15    3      7.72      0.00
    3   14    3      3.45      0.00
    3   13    3      2.41      0.00
    3   12    3    -12.33      0.00
    3   11    3      6.14      0.00
    3   10    3      4.12      0.00
    3    9    3      0.31      0.00
    3    8    3     -9.27      0.00
    3    7    3      1.69      0.00
    3    6    3      7.15      0.00
    3    5    3      9.87      0.00
    3    4    3      6.37      0.00
    3    3    3     -2.46      0.00
    3    2    3     11.65      0.00
    3    1    3      0.07      0.00
    3    0    3    -21.84      0.00
    3   38    3      0.30      0.00
    3   39    3     -0.16      0.00
    3   37    4     -0.20      0.00
    3   36    4      0.29      0.00
    3   35    4     -0.64      0.00
    3   34    4      0.19      0.00
    3   33    4      0.15      0.00
    3   32    4      0.91      0.00
    3   31    4     -0.11      0.00
    3   30    4      0.27      0.00
    3   29    4     -0.02      0.00
    3   28    4      0.81      0.00
    3   27    4      0.21      0.00
    3   26    4      1.13      0.00
    3   25    4     -0.61      0.00
    3   24    4      0.44      0.00
    3   23    4      0.16      0.00
    3   22    4      3.25      0.00
    3   21    4      2.19      0.00
    3   20    4      0.86      0.00
    3   19    4     -0.53      0.00
    3   18    4     -0.97      0.00
    3   17    4      1.17      0.00
    3   16    4      2.45      0.00
    3   15    4      0.83      0.00
    3   14    4     -1.76      0.00
    3   13    4      1.58      0.00
    3   12    4     -3.07      0.00
    3   10    4     -6.13      0.00
    3    4    4      6.02      0.00
    3    3    4     -5.57      0.00
    3    1    4     -1.26      0.00
    3    0    4     -9.75      0.00
    3    6    4      0.02      0.00
    3    7    4     -0.93      0.00
    3    8    4     -2.27      0.00
    3   38    4      0.27      0.00
    3   39    4     -0.25      0.00
    3   36    5      0.02      0.00
    3   35    5     -0.51      0.00
    3   34    5      0.71      0.00
    3   33    5     -0.01      0.00
    3   32    5      0.13      0.00
    3   31    5      0.34      0.00
    3   30    5      1.29      0.00
    3   29    5      0.58      0.00
    3   28    5      0.82      0.00
    3   27    5     -0.28      0.00
    3   26    5     -0.17      0.00
    3   25    5     -0.63      0.00
    3   24    5      1.77      0.00
    3   23    5      0.70      0.00
    3   22    5      2.70      0.00
    3   21    5      0.44      0.00
    3   20    5     -0.47      0.00
    3   19    5     -0.58      0.00
    3   18    5      2.11      0.00
    3   17    5      0.26      0.00
    3   16    5     -0.78      0.00
    3   15    5     -3.88      0.00
    3   14    5     -1.60      0.00
    3   13    5     -1.00      0.00
    3   12    5     -0.41      0.00
    3   11    5      0.06      0.00
    3    9    5      1.16      0.00
    3    8    5     -4.26      0.00
    3    7    5      0.14      0.00
    3    6    5      4.43      0.00
    3    5    5      4.85      0.00
    3    3    5     -2.71      0.00
    3    2    5     -5.16      0.00
    3    1    5     -0.87      0.00
    3    0    5     -0.34      0.00
    3    4    5     -1.46      0.00
    3   37    5     -0.22      0.00
    3   38    5      0.15      0.00
    3   35    6      0.43      0.00
    3   34    6     -0.24      0.00
    3   33    6     -1.40      0.00
    3   32    6      0.14      0.00
    3   31    6      1.32      0.00
    3   30    6      1.60      0.00
    3   29    6     -0.16      0.00
    3   28    6     -0.08      0.00
    3   27    6      0.33      0.00
    3   26    6     -0.02      0.00
    3   25    6     -0.01      0.00
    3   24    6      0.82      0.00
    3   23    6     -0.11      0.00
    3   22    6      0.75      0.00
    3   21    6     -1.85      0.00
    3   20    6      1.18      0.00
    3   18    6     -0.42      0.00
    3   17    6     -3.51      0.00
    3   16    6     -4.01      0.00
    3   15    6     -0.41      0.00
    3   14    6      0.82      0.00
    3   13    6     -7.24      0.00
    3   12    6     -0.70      0.00
    3   11    6      1.61      0.00
    3   10    6     -0.98      0.00
    3    9    6     -2.95      0.00
    3    8    6     -1.89      0.00
    3    7    6      1.45      0.00
    3    6    6      4.72      0.00
    3    5    6     -2.04      0.00
    3    4    6     -3.26      0.00
    3    3    6      0.32      0.00
    3    2    6     -2.80      0.00
    3    0    6      1.01      0.00
    3   19    6      1.83      0.00
    3   36    6      0.56      0.00
    3   37    6     -0.08      0.00
    3   38    6     -0.25      0.00
    3   34    7      0.18      0.00
    3   33    7      0.13      0.00
    3   32    7     -0.29      0.00
    3   31    7      0.45      0.00
    3   30    7      0.52      0.00
    3   29    7     -0.58      0.00
    3   28    7      0.41      0.00
    3   27    7      0.62      0.00
    3   26    7      0.00      0.00
    3   25    7      0.90      0.00
    3   24    7     -0.13      0.00
    3   23    7     -2.20      0.00
    3   22    7     -0.40      0.00
    3   21    7      0.25      0.00
    3   20    7      0.77      0.00
    3   19    7     -1.36      0.00
    3   18    7     -2.31      0.00
    3   17    7      0.81      0.00
    3   16    7     -1.95      0.00
    3   15    7     -3.34      0.00
    3   14    7     -1.22      0.00
    3   13    7     -1.52      0.00
    3   12    7      2.04      0.00
    3   11    7     -2.12      0.00
    3   10    7     -0.38      0.00
    3    9    7     -0.45      0.00
    3    8    7      3.05      0.00
    3    7    7     -0.47      0.00
    3    6    7      1.97      0.00
    3    5    7     -4.40      0.00
    3    4    7     -0.40      0.00
    3    3    7      2.61      0.00
    3    2    7      2.37      0.00
    3    1    7     -2.05      0.00
    3    0    7     -1.88      0.00
    3   35    7     -0.70      0.00
    3   36    7      0.14      0.00
    3   37    7      0.69      0.00
    3   33    8      0.08      0.00
    3   32    8     -0.15      0.00
    3   31    8      0.22      0.00
    3   30    8     -0.32      0.00
    3   29    8      0.03      0.00
    3   28    8      0.51      0.00
    3   27    8     -0.30      0.00
    3   26    8      0.36      0.00
    3   25    8     -0.10      0.00
    3   24    8     -0.76      0.00
    3   23    8      0.03      0.00
    3   22    8     -1.05      0.00
    3   21    8     -1.09      0.00
    3   20    8     -0.50      0.00
    3   19    8      0.65      0.00
    3   18    8     -1.81      0.00
    3   17    8     -1.12      0.00
    3   16    8     -0.20      0.00
    3   15    8      0.60      0.00
    3   14    8     -1.63      0.00
    3   13    8     -0.15      0.00
    3   12    8      1.40      0.00
    3   11    8     -0.28      0.00
    3   10    8      1.77      0.00
    3    9    8     -1.25      0.00
    3    8    8      3.11      0.00
    3    7    8      0.03      0.00
    3    6    8      1.21      0.00
    3    5    8     -2.62      0.00
    3    4    8      2.75      0.00
    3    3    8     -1.37      0.00
    3    2    8      3.37      0.00
    3    1    8     -0.80      0.00
    3    0    8      0.92      0.00
    3   34    8     -0.46      0.00
    3   35    8      0.37      0.00
    3   36    8      0.78      0.00
    3   31    9      0.33      0.00
    3   30    9     -0.47      0.00
    3   29    9      0.08      0.00
    3   28    9      0.37      0.00
    3   27    9     -0.83      0.00
    3   26    9      0.09      0.00
    3   25    9     -0.25      0.00
    3   24    9     -0.82      0.00
    3   23    9      0.26      0.00
    3   22    9     -1.15      0.00
    3   21    9     -0.40      0.00
    3   20    9     -0.71      0.00
    3   19    9      0.49      0.00
    3   18    9     -0.44      0.00
    3   17    9     -0.09      0.00
    3   16    9     -1.55      0.00
    3   15    9      1.48      0.00
    3   14    9     -0.20      0.00
    3   13    9      1.64      0.00
    3   12    9     -0.57      0.00
    3   11    9      1.48      0.00
    3   10    9      2.78      0.00
    3    9    9     -1.23      0.00
    3    8    9      0.40      0.00
    3    7    9      1.38      0.00
    3    6    9      2.52      0.00
    3    5    9     -2.06      0.00
    3    4    9      1.57      0.00
    3    3    9     -2.03      0.00
    3    2    9      4.00      0.00
    3    1    9     -0.55      0.00
    3    0    9      2.98      0.00
    3   32    9     -0.55      0.00
    3   33    9     -0.01      0.00
    3   34    9      0.11      0.00
    3   29   10      0.08      0.00
    3   28   10     -0.82      0.00
    3   27   10     -0.07      0.00
    3   26   10     -0.11      0.00
    3   25   10     -0.51      0.00
    3   24   10     -0.18      0.00
    3   23   10      0.49      0.00
    3   22   10      0.05      0.00
    3   21   10     -0.95      0.00
    3   20   10     -0.62      0.00
    3   19   10      0.98      0.00
    3   18   10      0.16      0.00
    3   17   10      0.25      0.00
    3   16   10     -1.04      0.00
    3   15   10      2.28      0.00
    3   14   10     -1.16      0.00
    3   13   10      1.49      0.00
    3   12   10      0.46      0.00
    3   11   10      3.88      0.00
    3   10   10     -1.01      0.00
    3    9   10     -0.66      0.00
    3    8   10      2.06      0.00
    3    7   10      1.31      0.00
    3    6   10     -0.30      0.00
    3    5   10     -1.13      0.00
    3    4   10      1.50      0.00
    3    3   10     -1.19      0.00
    3    2   10      1.04      0.00
    3    1   10      0.79      0.00
    3    0   10      4.59      0.00
    3   30   10     -0.05      0.00
    3   31   10     -0.26      0.00
    3   32   10      0.00      0.00
    3   33   10      0.12      0.00
    3   27   11      0.50      0.00
    3   26   11      0.20      0.00
    3   25   11      0.38      0.00
    3   24   11      0.27      0.00
    3   23   11     -0.07      0.00
    3   22   11      0.59      0.00
    3   21   11     -0.23      0.00
    3   20   11      0.42      0.00
    3   19   11     -0.16      0.00
    3   18   11      0.38      0.00
    3   17   11      0.46      0.00
    3   16   11     -0.14      0.00
    3   15   11      1.21      0.00
    3   14   11     -0.06      0.00
    3   13   11      2.70      0.00
    3   12   11     -1.22      0.00
    3   11   11      2.30      0.00
    3   10   11     -0.56      0.00
    3    9   11      0.73      0.00
    3    8   11     -0.31      0.00
    3    7   11      0.74      0.00
    3    6   11     -0.59      0.00
    3    5   11     -0.82      0.00
    3    4   11      0.20      0.00
    3    3   11      0.15      0.00
    3    2   11      0.63      0.00
    3    1   11     -0.43      0.00
    3    0   11      0.60      0.00
    3   28   11     -0.89      0.00
    3   29   11     -0.28      0.00
    3   30   11     -0.42      0.00
    3   31   11      0.39      0.00
    3   25   12      0.95      0.00
    3   24   12      0.25      0.00
    3   23   12      0.14      0.00
    3   22   12      0.29      0.00
    3   21   12     -0.31      0.00
    3   20   12      0.45      0.00
    3   19   12     -0.81      0.00
    3   18   12      0.49      0.00
    3   17   12     -0.10      0.00
    3   16   12      0.87      0.00
    3   15   12      0.26      0.00
    3   14   12     -0.08      0.00
    3   13   12      1.08      0.00
    3   12   12     -0.72      0.00
    3   11   12      1.04      0.00
    3   10   12     -0.32      0.00
    3    9   12      0.30      0.00
    3    8   12     -2.49      0.00
    3    7   12      1.06      0.00
    3    6   12     -0.18      0.00
    3    5   12     -0.70      0.00
    3    4   12      0.72      0.00
    3    3   12     -0.02      0.00
    3    2   12     -0.48      0.00
    3    1   12     -1.91      0.00
    3    0   12     -0.74      0.00
    3   26   12      0.48      0.00
    3   27   12      0.41      0.00
    3   28   12     -0.26      0.00
    3   29   12      0.10      0.00
    3   22   13     -0.03      0.00
    3   21   13     -0.79      0.00
    3   20   13     -0.65      0.00
    3   19   13     -0.43      0.00
    3   18   13      0.67      0.00
    3   17   13     -0.71      0.00
    3   16   13      0.02      0.00
    3   15   13     -0.64      0.00
    3   14   13      0.50      0.00
    3   13   13     -0.22      0.00
    3   12   13     -0.24      0.00
    3   11   13     -0.04      0.00
    3   10   13     -0.77      0.00
    3    9   13     -0.97      0.00
    3    8   13     -0.76      0.00
    3    7   13      2.57      0.00
    3    6   13     -0.72      0.00
    3    5   13     -1.71      0.00
    3    4   13      0.93      0.00
    3    3   13     -0.42      0.00
    3    2   13     -0.11      0.00
    3    1   13     -1.69      0.00
    3    0   13     -1.11      0.00
    3   23   13      0.40      0.00
    3   24   13     -0.06      0.00
    3   25   13      0.14      0.00
    3   26   13      0.36      0.00
    3   19   14      0.01      0.00
    3   18   14     -0.01      0.00
    3   17   14     -1.15      0.00
    3   16   14     -0.11      0.00
    3   15   14     -0.15      0.00
    3   14   14     -0.34      0.00
    3   13   14     -0.50      0.00
    3   12   14      0.37      0.00
    3   11   14     -0.35      0.00
    3   10   14     -0.60      0.00
    3    9   14     -0.74      0.00
    3    8   14      0.72      0.00
    3    7   14      1.10      0.00
    3    6   14     -0.35      0.00
    3    5   14     -1.00      0.00
    3    4   14      0.35      0.00
    3    3   14     -1.49      0.00
    3    2   14      0.03      0.00
    3    1   14      0.14      0.00
    3    0   14     -0.38      0.00
    3   20   14     -0.50      0.00
    3   21   14     -0.55      0.00
    3   22   14     -0.25      0.00
    3   23   14     -0.01      0.00
    3   14   15     -0.71      0.00
    3   13   15     -0.50      0.00
    3   12   15     -0.01      0.00
    3   11   15      0.09      0.00
    3   10   15      0.16      0.00
    3    9   15      0.24      0.00
    3    8   15     -0.06      0.00
    3    7   15     -1.30      0.00
    3    6   15      0.37      0.00
    3    5   15     -0.67      0.00
    3    4   15      0.38      0.00
    3    3   15     -0.53      0.00
    3    2   15     -0.22      0.00
    3    1   15      0.03      0.00
    3    0   15      0.44      0.00
    3   15   15      0.76      0.00
    3   17   15     -1.25      0.00
    3   18   15     -0.24      0.00
    3   19   15      0.45      0.00
    3    8   16     -0.13      0.00
    3    7   16     -1.20      0.00
    3    6   16     -0.12      0.00
    3    5   16     -0.54      0.00
    3    4   16      0.77      0.00
    3    3   16      0.09      0.00
    3    2   16      0.28      0.00
    3    1   16      0.48      0.00
    3    0   16      0.13      0.00
    3    9   16     -0.14      0.00
    3   10   16     -0.36      0.00
    3   11   16      0.86      0.00
    3   12   16     -0.52      0.00
    3   13   16     -0.60      0.00
   -4    5   15      1.94      0.00
   -4    4   15      0.30      0.00
   -4    3   15      1.32      0.00
   -4    2   15     -1.28      0.00
   -4    1   15     -0.58      0.00
   -4    0   15      2.09      0.00
   -4   14   14     -0.95      0.00
   -4   13   14      0.68      0.00
   -4   12   14     -0.04      0.00
   -4   11   14     -0.80      0.00
   -4   10   14      0.68      0.00
   -4    9   14     -0.19      0.00
   -4    8   14      0.14      0.00
   -4    7   14     -0.08      0.00
   -4    6   14      0.33      0.00
   -4    5   14      1.36      0.00
   -4    4   14      0.03      0.00
   -4    3   14     -0.34      0.00
   -4    2   14     -0.07      0.00
   -4    1   14      0.82      0.00
   -4    0   14     -0.60      0.00
   -4   19   13      0.18      0.00
   -4   18   13     -0.50      0.00
   -4   17   13      0.45      0.00
   -4   16   13     -0.56      0.00
   -4   15   13      0.06      0.00
   -4   14   13      0.67      0.00
   -4   13   13      0.03      0.00
   -4   12   13      0.50      0.00
   -4   11   13     -0.68      0.00
   -4   10   13      0.32      0.00
   -4    9   13     -0.25      0.00
   -4    8   13      0.95      0.00
   -4    7   13      1.00      0.00
   -4    6   13     -0.58      0.00
   -4    5   13      0.45      0.00
   -4    4   13     -0.83      0.00
   -4    3   13      0.07      0.00
   -4    2   13      0.31      0.00
   -4    1   13     -0.31      0.00
   -4    0   13     -2.24      0.00
   -4   23   12     -0.43      0.00
   -4   22   12     -0.79      0.00
   -4   21   12      0.27      0.00
   -4   20   12     -0.09      0.00
   -4   19   12     -0.12      0.00
   -4   18   12     -0.59      0.00
   -4   17   12      0.78      0.00
   -4   16   12      0.44      0.00
   -4   15   12     -0.09      0.00
   -4   14   12     -0.23      0.00
   -4   13   12     -0.04      0.00
   -4   12   12      0.83      0.00
   -4   11   12     -0.95      0.00
   -4   10   12      1.28      0.00
   -4    9   12      0.65      0.00
   -4    8   12      0.16      0.00
   -4    7   12      0.97      0.00
   -4    6   12      0.07      0.00
   -4    5   12      1.82      0.00
   -4    4   12     -0.84      0.00
   -4    3   12      0.12      0.00
   -4    2   12     -0.76      0.00
   -4    1   12      0.31      0.00
   -4    0   12     -0.66      0.00
   -4   26   11     -1.27      0.00
   -4   25   11      0.99      0.00
   -4   24   11     -0.48      0.00
   -4   23   11      0.03      0.00
   -4   22   11     -0.43      0.00
   -4   21   11      0.09      0.00
   -4   20   11     -0.88      0.00
   -4   19   11     -0.54      0.00
   -4   18   11      0.12      0.00
   -4   17   11      0.69      0.00
   -4   16   11      0.78      0.00
   -4   15   11     -1.09      0.00
   -4   14   11     -0.31      0.00
   -4   13   11      0.01      0.00
   -4   12   11      0.03      0.00
   -4   11   11     -0.95      0.00
   -4   10   11      0.53      0.00
   -4    9   11     -0.10      0.00
   -4    8   11      0.61      0.00
   -4    7   11      1.35      0.00
   -4    6   11      0.35      0.00
   -4    5   11      2.53      0.00
   -4    4   11     -0.57      0.00
   -4    3   11      2.30      0.00
   -4    2   11     -0.16      0.00
   -4    1   11     -0.76      0.00
   -4    0   11      0.66      0.00
   -4   28   10     -0.61      0.00
   -4   27   10      0.57      0.00
   -4   26   10     -0.22      0.00
   -4   25   10     -0.02      0.00
   -4   24   10     -0.14      0.00
   -4   23   10      0.43      0.00
   -4   22   10     -0.68      0.00
   -4   21   10     -0.28      0.00
   -4   20   10     -0.39      0.00
   -4   19   10      0.16      0.00
   -4   18   10     -0.25      0.00
   -4   17   10     -0.29      0.00
   -4   15   10     -1.65      0.00
   -4   14   10     -0.12      0.00
   -4   13   10     -0.53      0.00
   -4   12   10     -0.33      0.00
   -4   11   10     -1.71      0.00
   -4   10   10     -1.32      0.00
   -4    9   10      0.99      0.00
   -4    8   10      0.13      0.00
   -4    7   10     -0.30      0.00
   -4    6   10     -0.12      0.00
   -4    5   10      3.61      0.00
   -4    4   10      0.62      0.00
   -4    3   10      1.71      0.00
   -4    2   10      0.58      0.00
   -4    1   10      1.52      0.00
   -4    0   10      1.96      0.00
   -4   16   10      1.42      0.00
   -4   30    9      0.13      0.00
   -4   29    9      0.28      0.00
   -4   28    9     -0.50      0.00
   -4   27    9      0.35      0.00
   -4   26    9     -0.68      0.00
   -4   25    9      0.48      0.00
   -4   24    9      0.44      0.00
   -4   23    9     -1.06      0.00
   -4   22    9      0.04      0.00
   -4   21    9      0.31      0.00
   -4   20    9      0.22      0.00
   -4   19    9      0.24      0.00
   -4   18    9     -0.36      0.00
   -4   17    9     -0.46      0.00
   -4   16    9      1.32      0.00
   -4   15    9     -1.55      0.00
   -4   14    9     -0.47      0.00
   -4   13    9     -1.40      0.00
   -4   12    9      0.41      0.00
   -4   11    9     -0.08      0.00
   -4   10    9     -2.93      0.00
   -4    9    9     -0.66      0.00
   -4    8    9     -1.47      0.00
   -4    7    9      1.49      0.00
   -4    6    9     -0.81      0.00
   -4    5    9      0.42      0.00
   -4    4    9      2.21      0.00
   -4    3    9      1.38      0.00
   -4    2    9      0.98      0.00
   -4    1    9      1.67      0.00
   -4    0    9      2.15      0.00
   -4   32    8     -0.07      0.00
   -4   31    8      0.41      0.00
   -4   30    8      0.42      0.00
   -4   29    8     -0.27      0.00
   -4   28    8     -0.04      0.00
   -4   27    8     -0.14      0.00
   -4   26    8     -0.16      0.00
   -4   25    8     -0.63      0.00
   -4   24    8      0.45      0.00
   -4   23    8     -0.06      0.00
   -4   22    8      0.18      0.00
   -4   21    8      0.43      0.00
   -4   20    8      0.92      0.00
   -4   19    8      0.13      0.00
   -4   18    8      0.58      0.00
   -4   17    8     -0.31      0.00
   -4   16    8     -0.20      0.00
   -4   14    8      0.74      0.00
   -4   13    8      0.62      0.00
   -4   11    8     -1.58      0.00
   -4   10    8     -0.97      0.00
   -4    9    8      0.89      0.00
   -4    8    8     -3.02      0.00
   -4    6    8      0.02      0.00
   -4    5    8      0.48      0.00
   -4    3    8     -1.60      0.00
   -4    2    8      1.45      0.00
   -4    1    8      0.30      0.00
   -4    0    8     -0.18      0.00
   -4    4    8      1.05      0.00
   -4   12    8     -1.93      0.00
   -4   15    8     -0.32      0.00
   -4   33    7      0.52      0.00
   -4   32    7      0.13      0.00
   -4   31    7      0.31      0.00
   -4   30    7      0.69      0.00
   -4   29    7     -0.39      0.00
   -4   28    7      0.44      0.00
   -4   27    7     -0.60      0.00
   -4   26    7     -0.02      0.00
   -4   25    7     -0.77      0.00
   -4   24    7      1.38      0.00
   -4   23    7      0.45      0.00
   -4   22    7     -0.55      0.00
   -4   21    7      0.62      0.00
   -4   20    7      0.82      0.00
   -4   19    7      1.27      0.00
   -4   18    7      0.57      0.00
   -4   17    7      0.94      0.00
   -4   16    7      0.54      0.00
   -4   15    7      0.01      0.00
   -4   14    7      0.40      0.00
   -4   13    7      2.19      0.00
   -4   12    7     -1.42      0.00
   -4   11    7     -0.56      0.00
   -4   10    7     -2.17      0.00
   -4    9    7     -0.83      0.00
   -4    8    7      1.22      0.00
   -4    6    7     -0.03      0.00
   -4    5    7     -1.55      0.00
   -4    4    7     -2.93      0.00
   -4    3    7     -1.67      0.00
   -4    2    7      1.45      0.00
   -4    1    7     -1.98      0.00
   -4    0    7     -5.57      0.00
   -4    7    7     -1.87      0.00
   -4   34    7     -0.37      0.00
   -4   34    6     -0.10      0.00
   -4   33    6     -0.58      0.00
   -4   32    6      0.22      0.00
   -4   31    6     -0.21      0.00
   -4   30    6      1.51      0.00
   -4   29    6     -0.33      0.00
   -4   28    6     -0.12      0.00
   -4   27    6     -0.20      0.00
   -4   26    6     -0.15      0.00
   -4   25    6     -0.28      0.00
   -4   24    6      0.96      0.00
   -4   23    6      0.17      0.00
   -4   22    6     -0.85      0.00
   -4   21    6      1.38      0.00
   -4   20    6      0.78      0.00
   -4   19    6      1.38      0.00
   -4   18    6     -1.36      0.00
   -4   17    6      2.92      0.00
   -4   16    6      1.86      0.00
   -4   15    6      1.28      0.00
   -4   13    6     -0.37      0.00
   -4   12    6      1.98      0.00
   -4   11    6      0.58      0.00
   -4   10    6     -2.80      0.00
   -4    9    6      1.24      0.00
   -4    8    6      5.10      0.00
   -4    7    6     -1.84      0.00
   -4    6    6     -1.35      0.00
   -4    5    6     -1.97      0.00
   -4    4    6     -1.62      0.00
   -4    3    6     -1.24      0.00
   -4    2    6     -5.93      0.00
   -4    1    6     -0.94      0.00
   -4    0    6     -5.12      0.00
   -4   14    6     -0.29      0.00
   -4   35    6      1.15      0.00
   -4   35    5      0.57      0.00
   -4   34    5      0.18      0.00
   -4   33    5     -0.67      0.00
   -4   32    5      0.31      0.00
   -4   31    5     -0.22      0.00
   -4   30    5      0.95      0.00
   -4   29    5     -0.16      0.00
   -4   28    5     -0.20      0.00
   -4   27    5     -0.86      0.00
   -4   26    5     -1.18      0.00
   -4   25    5      0.50      0.00
   -4   24    5     -0.06      0.00
   -4   23    5      1.78      0.00
   -4   22    5     -0.63      0.00
   -4   21    5     -0.95      0.00
   -4   20    5     -1.15      0.00
   -4   19    5      3.46      0.00
   -4   18    5      0.00      0.00
   -4   17    5      1.25      0.00
   -4   16    5     -0.68      0.00
   -4   15    5      2.19      0.00
   -4   14    5      2.59      0.00
   -4   13    5     -2.54      0.00
   -4   12    5     -1.51      0.00
   -4   11    5      0.33      0.00
   -4   10    5      7.35      0.00
   -4    9    5      1.06      0.00
   -4    8    5      2.36      0.00
   -4    7    5      5.09      0.00
   -4    6    5      0.89      0.00
   -4    5    5     -0.76      0.00
   -4    4    5     -1.47      0.00
   -4    2    5     -5.27      0.00
   -4    1    5      0.65      0.00
   -4    0    5    -10.36      0.00
   -4    3    5     -1.18      0.00
   -4   36    5      0.67      0.00
   -4   36    4      0.19      0.00
   -4   35    4     -0.22      0.00
   -4   34    4      0.61      0.00
   -4   33    4      0.69      0.00
   -4   32    4      0.00      0.00
   -4   31    4     -0.95      0.00
   -4   30    4     -0.49      0.00
   -4   29    4      0.38      0.00
   -4   28    4      0.11      0.00
   -4   27    4     -1.13      0.00
   -4   26    4     -1.36      0.00
   -4   25    4      0.67      0.00
   -4   24    4     -0.66      0.00
   -4   23    4      1.35      0.00
   -4   22    4     -1.57      0.00
   -4   21    4      1.64      0.00
   -4   20    4     -0.71      0.00
   -4   19    4     -0.54      0.00
   -4   18    4      0.60      0.00
   -4   17    4      3.51      0.00
   -4   16    4      0.21      0.00
   -4   15    4     -4.83      0.00
   -4   14    4      1.03      0.00
   -4   13    4      1.98      0.00
   -4   12    4     -1.92      0.00
   -4   11    4     -5.71      0.00
   -4   10    4      9.59      0.00
   -4    9    4      4.29      0.00
   -4    8    4      9.32      0.00
   -4    7    4      1.69      0.00
   -4    6    4     -0.20      0.00
   -4    5    4     15.38      0.00
   -4    2    4     -6.29      0.00
   -4    1    4      9.35      0.00
   -4    0    4     -2.52      0.00
   -4    3    4     -9.45      0.00
   -4   37    4      0.10      0.00
   -4   37    3      0.20      0.00
   -4   36    3      0.65      0.00
   -4   35    3      0.17      0.00
   -4   34    3      0.07      0.00
   -4   33    3     -0.52      0.00
   -4   32    3     -0.10      0.00
   -4   31    3      0.47      0.00
   -4   30    3     -1.16      0.00
   -4   29    3     -0.52      0.00
   -4   28    3     -0.09      0.00
   -4   27    3      0.15      0.00
   -4   26    3     -0.71      0.00
   -4   25    3     -1.14      0.00
   -4   24    3     -0.35      0.00
   -4   23    3      1.58      0.00
   -4   22    3     -2.12      0.00
   -4   21    3      1.65      0.00
   -4   20    3      1.79      0.00
   -4   19    3      1.50      0.00
   -4   18    3     -0.40      0.00
   -4   17    3     -3.93      0.00
   -4   16    3      5.33      0.00
   -4   15    3     -0.43      0.00
   -4   14    3     -5.90      0.00
   -4   13    3     -5.61      0.00
   -4   12    3      6.09      0.00
   -4   11    3     -1.81      0.00
   -4   10    3     -4.39      0.00
   -4    9    3     -3.45      0.00
   -4    7    3      8.13      0.00
   -4    6    3     -4.27      0.00
   -4    5    3      7.56      0.00
   -4    4    3      0.66      0.00
   -4    3    3     10.17      0.00
   -4    1    3     -0.76      0.00
   -4   38    3      0.03      0.00
   -4   37    2      0.00      0.00
   -4   36    2     -0.02      0.00
   -4   35    2      0.40      0.00
   -4   34    2      0.66      0.00
   -4   33    2     -0.71      0.00
   -4   32    2     -1.36      0.00
   -4   31    2      0.71      0.00
   -4   30    2      0.37      0.00
   -4   29    2     -1.06      0.00
   -4   28    2     -1.57      0.00
   -4   27    2      0.06      0.00
   -4   26    2      0.82      0.00
   -4   25    2     -1.32      0.00
   -4   24    2     -1.13      0.00
   -4   23    2      0.09      0.00
   -4   22    2      0.19      0.00
   -4   21    2      1.31      0.00
   -4   20    2      0.47      0.00
   -4   19    2      1.13      0.00
   -4   18    2      5.29      0.00
   -4   17    2     -4.14      0.00
   -4   16    2     -1.03      0.00
   -4   15    2     -1.87      0.00
   -4   14    2      2.96      0.00
   -4   13    2     -5.16      0.00
   -4   12    2     -8.28      0.00
   -4   10    2      7.78      0.00
   -4    9    2     -5.05      0.00
   -4    8    2      1.79      0.00
   -4    7    2      8.03      0.00
   -4    6    2      7.46      0.00
   -4    5    2     -0.08      0.00
   -4    4    2     -6.74      0.00
   -4    3    2     13.47      0.00
   -4    2    2     -3.60      0.00
   -4    0    2     12.35      0.00
   -4   11    2     -5.39      0.00
   -4   38    2      0.64      0.00
   -4   37    1     -0.68      0.00
   -4   36    1      0.12      0.00
   -4   35    1      0.68      0.00
   -4   34    1      0.05      0.00
   -4   33    1      0.17      0.00
   -4   32    1      0.53      0.00
   -4   31    1     -0.41      0.00
   -4   30    1     -1.74      0.00
   -4   29    1      0.08      0.00
   -4   28    1      1.78      0.00
   -4   27    1     -1.78      0.00
   -4   26    1     -1.75      0.00
   -4   25    1     -0.94      0.00
   -4   24    1      1.71      0.00
   -4   23    1     -0.31      0.00
   -4   22    1     -2.97      0.00
   -4   21    1     -0.84      0.00
   -4   20    1      3.92      0.00
   -4   19    1      0.90      0.00
   -4   18    1      4.73      0.00
   -4   17    1      0.49      0.00
   -4   16    1      0.48      0.00
   -4   15    1     -7.01      0.00
   -4   14    1     -4.49      0.00
   -4   13    1      1.77      0.00
   -4   12    1      3.76      0.00
   -4   11    1     -7.75      0.00
   -4   10    1    -13.43      0.00
   -4    9    1     -7.40      0.00
   -4    8    1     13.10      0.00
   -4    7    1      1.22      0.00
   -4    6    1    -13.22      0.00
   -4    5    1     -0.03      0.00
   -4    4    1     -0.05      0.00
   -4    3    1     12.12      0.00
   -4    2    1     11.25      0.00
   -4    1    1      6.28      0.00
   -4    0    1    -18.91      0.00
   -4   38    1      0.60      0.00
   -4   39    1      1.29      0.00
    4   37    0     -0.17      0.00
    4   36    0      0.05      0.00
    4   35    0     -0.58      0.00
    4   34    0      0.64      0.00
    4   33    0      0.56      0.00
    4   32    0      0.13      0.00
    4   31    0     -1.77      0.00
    4   30    0      0.82      0.00
    4   29    0      2.85      0.00
    4   28    0      0.47      0.00
    4   27    0     -1.70      0.00
    4   26    0      0.88      0.00
    4   25    0      4.05      0.00
    4   24    0     -1.24      0.00
    4   23    0     -1.60      0.00
    4   22    0     -0.54      0.00
    4   21    0      2.17      0.00
    4   20    0      2.68      0.00
    4   19    0     -2.17      0.00
    4   18    0      3.94      0.00
    4   17    0     -1.39      0.00
    4   16    0      2.23      0.00
    4   15    0      1.15      0.00
    4   14    0     -2.82      0.00
    4   13    0      3.84      0.00
    4   12    0     -0.46      0.00
    4   11    0     -8.84      0.00
    4   10    0     -4.11      0.00
    4    9    0     24.10      0.00
    4    8    0     -9.18      0.00
    4    7    0     -7.87      0.00
    4    6    0      7.44      0.00
    4    5    0      3.74      0.00
    4    4    0    -12.13      0.00
    4    3    0     -2.26      0.00
    4    2    0     -0.51      0.00
    4    1    0     -3.98      0.00
    4    0    0     -5.65      0.00
    4   38    0     -0.10      0.00
    4   39    0     -0.51      0.00
    4   37    1      0.37      0.00
    4   36    1     -0.07      0.00
    4   35    1     -0.28      0.00
    4   34    1      1.00      0.00
    4   33    1     -0.21      0.00
    4   32    1     -0.69      0.00
    4   31    1      0.52      0.00
    4   30    1      3.53      0.00
    4   29    1     -0.74      0.00
    4   28    1     -0.83      0.00
    4   27    1      1.71      0.00
    4   26    1      2.34      0.00
    4   25    1     -0.37      0.00
    4   24    1     -2.23      0.00
    4   23    1      0.60      0.00
    4   22    1      0.69      0.00
    4   21    1      1.17      0.00
    4   20    1      0.08      0.00
    4   19    1     -5.29      0.00
    4   18    1      4.86      0.00
    4   17    1      1.05      0.00
    4   16    1      2.16      0.00
    4   15    1     -4.45      0.00
    4   14    1      5.02      0.00
    4   13    1     -3.77      0.00
    4   12    1     -7.83      0.00
    4   11    1      3.53      0.00
    4   10    1      9.26      0.00
    4    9    1     -1.74      0.00
    4    8    1    -15.14      0.00
    4    7    1      5.60      0.00
    4    6    1     12.63      0.00
    4    5    1      8.30      0.00
    4    4    1    -15.92      0.00
    4    3    1     -8.99      0.00
    4    2    1     -2.65      0.00
    4    1    1      4.77      0.00
    4    0    1     -6.10      0.00
    4   38    1     -0.02      0.00
    4   39    1     -0.33      0.00
    4   37    2     -0.08      0.00
    4   36    2     -1.08      0.00
    4   35    2      0.73      0.00
    4   34    2      1.21      0.00
    4   33    2      0.54      0.00
    4   32    2      0.08      0.00
    4   31    2     -0.02      0.00
    4   30    2      1.26      0.00
    4   29    2     -0.23      0.00
    4   28    2      1.11      0.00
    4   27    2     -0.10      0.00
    4   26    2      0.72      0.00
    4   25    2      0.25      0.00
    4   24    2     -2.28      0.00
    4   23    2      0.30      0.00
    4   22    2      1.87      0.00
    4   21    2     -2.34      0.00
    4   20    2     -4.12      0.00
    4   19    2     -0.37      0.00
    4   18    2      5.23      0.00
    4   17    2     -4.43      0.00
    4   16    2      3.82      0.00
    4   15    2     -3.32      0.00
    4   14    2      3.69      0.00
    4   13    2     -1.61      0.00
    4   12    2     -0.71      0.00
    4   11    2    -10.87      0.00
    4   10    2      6.94      0.00
    4    9    2      3.22      0.00
    4    8    2      0.58      0.00
    4    7    2     -0.71      0.00
    4    6    2     -3.65      0.00
    4    5    2      5.63      0.00
    4    4    2     -5.51      0.00
    4    3    2     -1.17      0.00
    4    2    2      7.67      0.00
    4    1    2    -10.42      0.00
    4    0    2    -20.25      0.00
    4   38    2      0.86      0.00
    4   39    2      0.20      0.00
    4   37    3     -0.23      0.00
    4   36    3      0.27      0.00
    4   35    3      1.18      0.00
    4   34    3      0.00      0.00
    4   33    3      0.53      0.00
    4   32    3     -0.17      0.00
    4   31    3      0.24      0.00
    4   30    3      1.06      0.00
    4   29    3     -1.01      0.00
    4   28    3     -0.62      0.00
    4   27    3      0.03      0.00
    4   26    3      0.02      0.00
    4   25    3     -0.22      0.00
    4   24    3     -1.60      0.00
    4   23    3     -0.55      0.00
    4   22    3     -1.51      0.00
    4   21    3     -0.95      0.00
    4   20    3     -0.60      0.00
    4   19    3     -1.16      0.00
    4   18    3     -3.14      0.00
    4   17    3     -1.40      0.00
    4   16    3      6.45      0.00
    4   15    3     -1.94      0.00
    4   14    3      1.70      0.00
    4   11    3     -8.47      0.00
    4   10    3      7.84      0.00
    4    9    3     -1.02      0.00
    4    8    3      1.96      0.00
    4    6    3     -2.77      0.00
    4    5    3      5.08      0.00
    4    4    3      3.14      0.00
    4    3    3     -6.06      0.00
    4    2    3     -2.56      0.00
    4    1    3     -1.85      0.00
    4    0    3      4.69      0.00
    4    7    3     -0.75      0.00
    4   38    3     -0.45      0.00
    4   39    3      0.98      0.00
    4   36    4     -0.33      0.00
    4   35    4      0.32      0.00
    4   34    4      0.03      0.00
    4   33    4      0.79      0.00
    4   32    4      0.07      0.00
    4   31    4     -0.29      0.00
    4   30    4     -0.92      0.00
    4   29    4     -1.02      0.00
    4   28    4      0.48      0.00
    4   27    4     -0.53      0.00
    4   26    4     -1.54      0.00
    4   25    4     -0.52      0.00
    4   24    4     -2.25      0.00
    4   23    4     -0.15      0.00
    4   22    4     -0.14      0.00
    4   21    4      0.11      0.00
    4   20    4     -3.41      0.00
    4   19    4     -0.07      0.00
    4   18    4     -0.64      0.00
    4   17    4      0.78      0.00
    4   16    4      0.21      0.00
    4   15    4      0.58      0.00
    4   14    4      1.78      0.00
    4   13    4     -2.66      0.00
    4   12    4      1.95      0.00
    4   11    4      1.81      0.00
    4    9    4     -7.03      0.00
    4    7    4      5.68      0.00
    4    6    4      4.24      0.00
    4    5    4      0.45      0.00
    4    4    4     -2.86      0.00
    4    3    4      2.24      0.00
    4    2    4      5.39      0.00
    4    1    4     -8.00      0.00
    4    0    4      3.55      0.00
    4    8    4      0.18      0.00
    4   37    4      0.82      0.00
    4   38    4      0.09      0.00
    4   39    4      0.12      0.00
    4   36    5     -0.18      0.00
    4   35    5      0.87      0.00
    4   34    5     -0.12      0.00
    4   33    5     -0.09      0.00
    4   32    5     -0.54      0.00
    4   31    5      0.48      0.00
    4   30    5      0.41      0.00
    4   29    5     -1.72      0.00
    4   28    5     -0.40      0.00
    4   27    5     -0.85      0.00
    4   26    5     -1.23      0.00
    4   25    5     -1.15      0.00
    4   24    5     -1.39      0.00
    4   23    5      2.25      0.00
    4   22    5     -0.12      0.00
    4   21    5     -0.85      0.00
    4   20    5     -1.36      0.00
    4   19    5      1.63      0.00
    4   18    5     -0.43      0.00
    4   17    5      1.21      0.00
    4   16    5     -0.17      0.00
    4   15    5      2.90      0.00
    4   14    5     -2.19      0.00
    4   12    5      5.44      0.00
    4   10    5      0.40      0.00
    4    9    5     -1.27      0.00
    4    8    5     -0.28      0.00
    4    7    5      5.71      0.00
    4    6    5      2.22      0.00
    4    5    5     -0.02      0.00
    4    4    5      1.49      0.00
    4    3    5      4.39      0.00
    4    2    5     -3.00      0.00
    4    1    5     -3.28      0.00
    4    0    5     10.20      0.00
    4   11    5      3.03      0.00
    4   13    5      1.85      0.00
    4   37    5     -0.13      0.00
    4   38    5     -0.20      0.00
    4   35    6      0.73      0.00
    4   34    6     -1.68      0.00
    4   33    6     -1.12      0.00
    4   32    6      1.19      0.00
    4   31    6      1.49      0.00
    4   30    6     -0.37      0.00
    4   29    6     -1.77      0.00
    4   28    6      0.22      0.00
    4   27    6     -0.99      0.00
    4   26    6     -1.16      0.00
    4   25    6     -0.36      0.00
    4   24    6      0.80      0.00
    4   23    6      1.21      0.00
    4   22    6     -0.74      0.00
    4   21    6     -0.19      0.00
    4   20    6      2.27      0.00
    4   19    6      2.75      0.00
    4   18    6     -1.15      0.00
    4   17    6     -1.14      0.00
    4   16    6     -0.79      0.00
    4   15    6      5.51      0.00
    4   14    6     -0.06      0.00
    4   13    6      1.21      0.00
    4   12    6      3.73      0.00
    4   11    6      2.83      0.00
    4   10    6     -2.75      0.00
    4    9    6      0.97      0.00
    4    8    6     -0.68      0.00
    4    7    6      5.53      0.00
    4    6    6     -0.26      0.00
    4    5    6     -1.32      0.00
    4    4    6     -1.46      0.00
    4    3    6      5.98      0.00
    4    2    6      0.73      0.00
    4    1    6     -1.03      0.00
    4    0    6     -0.23      0.00
    4   36    6      0.71      0.00
    4   37    6      0.56      0.00
    4   38    6     -0.14      0.00
    4   34    7      0.29      0.00
    4   33    7      0.37      0.00
    4   32    7     -0.12      0.00
    4   31    7     -0.18      0.00
    4   30    7     -0.05      0.00
    4   29    7     -0.11      0.00
    4   28    7     -0.61      0.00
    4   27    7     -0.69      0.00
    4   26    7      0.49      0.00
    4   25    7     -0.18      0.00
    4   24    7      0.44      0.00
    4   23    7     -0.41      0.00
    4   22    7      1.22      0.00
    4   21    7      0.73      0.00
    4   20    7      1.23      0.00
    4   19    7      0.93      0.00
    4   18    7     -0.43      0.00
    4   17    7      0.23      0.00
    4   16    7      0.05      0.00
    4   15    7      1.73      0.00
    4   14    7      0.76      0.00
    4   13    7      0.71      0.00
    4   12    7      0.28      0.00
    4   11    7      1.22      0.00
    4   10    7     -2.06      0.00
    4    9    7     -0.32      0.00
    4    8    7     -1.81      0.00
    4    7    7      3.57      0.00
    4    6    7     -3.25      0.00
    4    5    7      0.63      0.00
    4    4    7     -1.33      0.00
    4    3    7      4.91      0.00
    4    2    7     -0.13      0.00
    4    1    7      0.15      0.00
    4    0    7     -2.58      0.00
    4   35    7     -0.71      0.00
    4   36    7     -0.16      0.00
    4   37    7      1.04      0.00
    4   32    8     -0.36      0.00
    4   31    8     -0.05      0.00
    4   30    8      0.34      0.00
    4   29    8      0.15      0.00
    4   28    8     -1.12      0.00
    4   27    8      0.03      0.00
    4   26    8      0.39      0.00
    4   25    8     -0.84      0.00
    4   24    8      0.73      0.00
    4   23    8      0.56      0.00
    4   22    8      1.14      0.00
    4   21    8     -0.54      0.00
    4   20    8      0.29      0.00
    4   19    8      0.63      0.00
    4   18    8      0.38      0.00
    4   17    8     -0.54      0.00
    4   16    8      1.49      0.00
    4   15    8     -1.12      0.00
    4   14    8     -0.19      0.00
    4   13    8      0.62      0.00
    4   12    8     -1.06      0.00
    4   11    8     -1.53      0.00
    4   10    8     -1.36      0.00
    4    9    8     -0.12      0.00
    4    8    8     -1.80      0.00
    4    7    8      0.18      0.00
    4    6    8     -3.23      0.00
    4    5    8      4.30      0.00
    4    4    8     -2.67      0.00
    4    3    8      1.31      0.00
    4    2    8      0.35      0.00
    4    1    8      3.23      0.00
    4    0    8     -4.04      0.00
    4   33    8     -0.09      0.00
    4   34    8      0.11      0.00
    4   35    8     -0.05      0.00
    4   36    8      0.40      0.00
    4   31    9      0.33      0.00
    4   30    9      0.69      0.00
    4   29    9     -0.14      0.00
    4   28    9     -0.73      0.00
    4   27    9     -0.02      0.00
    4   26    9      0.12      0.00
    4   25    9     -0.09      0.00
    4   24    9     -0.10      0.00
    4   23    9      1.11      0.00
    4   22    9     -0.08      0.00
    4   21    9     -0.55      0.00
    4   20    9      1.27      0.00
    4   19    9      0.46      0.00
    4   18    9      0.37      0.00
    4   17    9     -1.96      0.00
    4   16    9      1.40      0.00
    4   15    9     -1.28      0.00
    4   14    9      0.69      0.00
    4   13    9     -2.07      0.00
    4   12    9     -0.75      0.00
    4   11    9      0.25      0.00
    4   10    9     -1.21      0.00
    4    9    9     -3.20      0.00
    4    8    9     -0.91      0.00
    4    7    9      2.58      0.00
    4    6    9     -2.75      0.00
    4    5    9      0.40      0.00
    4    4    9     -0.63      0.00
    4    3    9      2.61      0.00
    4    2    9     -2.62      0.00
    4    1    9      2.22      0.00
    4    0    9     -0.61      0.00
    4   32    9     -0.28      0.00
    4   33    9     -0.43      0.00
    4   34    9      0.15      0.00
    4   35    9      0.28      0.00
    4   29   10     -0.19      0.00
    4   28   10      0.28      0.00
    4   27   10     -0.10      0.00
    4   26   10     -0.56      0.00
    4   25   10      0.41      0.00
    4   24   10     -0.39      0.00
    4   23   10      0.73      0.00
    4   22   10     -0.52      0.00
    4   21   10      0.64      0.00
    4   20   10      0.00      0.00
    4   19   10     -0.34      0.00
    4   18   10      0.67      0.00
    4   17   10     -0.75      0.00
    4   16   10      0.74      0.00
    4   15   10     -2.85      0.00
    4   14   10      1.43      0.00
    4   13   10     -1.42      0.00
    4   12   10      0.46      0.00
    4   11   10     -1.99      0.00
    4   10   10     -0.85      0.00
    4    9   10     -0.36      0.00
    4    8   10     -0.42      0.00
    4    7   10     -0.76      0.00
    4    6   10     -0.42      0.00
    4    5   10      1.79      0.00
    4    4   10     -1.06      0.00
    4    3   10     -0.22      0.00
    4    2   10     -0.33      0.00
    4    1   10      3.28      0.00
    4    0   10     -0.84      0.00
    4   30   10      0.17      0.00
    4   31   10     -0.08      0.00
    4   32   10      0.91      0.00
    4   33   10      0.06      0.00
    4   27   11     -0.31      0.00
    4   26   11      0.05      0.00
    4   25   11     -0.26      0.00
    4   24   11     -0.45      0.00
    4   23   11      0.48      0.00
    4   22   11     -1.06      0.00
    4   21   11      0.42      0.00
    4   20   11     -0.62      0.00
    4   19   11      0.60      0.00
    4   18   11     -0.41      0.00
    4   17   11     -0.70      0.00
    4   16   11      0.61      0.00
    4   15   11     -1.32      0.00
    4   14   11      1.05      0.00
    4   13   11     -1.27      0.00
    4   12   11      0.77      0.00
    4   11   11     -1.94      0.00
    4   10   11      0.38      0.00
    4    9   11     -1.53      0.00
    4    8   11      0.66      0.00
    4    7   11      1.40      0.00
    4    6   11     -0.55      0.00
    4    5   11     -0.18      0.00
    4    4   11      0.35      0.00
    4    3   11      1.81      0.00
    4    2   11      0.42      0.00
    4    1   11     -1.30      0.00
    4    0   11      0.84      0.00
    4   28   11     -0.22      0.00
    4   29   11      0.00      0.00
    4   30   11      0.13      0.00
    4   31   11      0.02      0.00
    4   32   11      1.16      0.00
    4   25   12     -0.10      0.00
    4   24   12      0.03      0.00
    4   23   12     -0.60      0.00
    4   22   12     -0.85      0.00
    4   21   12      0.66      0.00
    4   20   12     -0.39      0.00
    4   19   12      0.29      0.00
    4   18   12     -0.75      0.00
    4   17   12      0.63      0.00
    4   16   12      0.65      0.00
    4   15   12     -0.06      0.00
    4   14   12     -0.21      0.00
    4   13   12     -0.24      0.00
    4   12   12      0.61      0.00
    4   11   12     -1.36      0.00
    4   10   12      1.58      0.00
    4    9   12     -0.94      0.00
    4    8   12      0.22      0.00
    4    7   12      1.08      0.00
    4    6   12     -0.13      0.00
    4    5   12      1.07      0.00
    4    4   12     -0.02      0.00
    4    3   12      0.78      0.00
    4    2   12      0.51      0.00
    4    1   12     -1.45      0.00
    4    0   12      1.60      0.00
    4   26   12     -0.17      0.00
    4   27   12     -0.66      0.00
    4   28   12     -0.32      0.00
    4   29   12      0.36      0.00
    4   22   13     -0.12      0.00
    4   21   13     -0.11      0.00
    4   20   13      0.05      0.00
    4   19   13      0.92      0.00
    4   18   13      0.14      0.00
    4   17   13      0.31      0.00
    4   16   13      0.15      0.00
    4   15   13      0.51      0.00
    4   14   13     -0.14      0.00
    4   13   13      0.74      0.00
    4   12   13      0.13      0.00
    4   11   13     -0.51      0.00
    4   10   13      0.26      0.00
    4    9   13      0.11      0.00
    4    8   13      0.98      0.00
    4    7   13      0.60      0.00
    4    6   13     -0.92      0.00
    4    5   13      0.82      0.00
    4    4   13     -0.99      0.00
    4    3   13     -0.06      0.00
    4    2   13      0.84      0.00
    4    1   13      0.04      0.00
    4    0   13      0.30      0.00
    4   23   13     -0.10      0.00
    4   24   13      0.40      0.00
    4   25   13     -0.11      0.00
    4   19   14      0.69      0.00
    4   18   14      0.50      0.00
    4   17   14     -0.53      0.00
    4   16   14      0.05      0.00
    4   15   14      0.73      0.00
    4   14   14      0.26      0.00
    4   13   14      0.09      0.00
    4   12   14     -0.66      0.00
    4   11   14      0.74      0.00
    4   10   14     -0.03      0.00
    4    9   14      0.20      0.00
    4    8   14     -0.02      0.00
    4    7   14      0.45      0.00
    4    6   14     -0.78      0.00
    4    5   14      0.30      0.00
    4    4   14     -0.85      0.00
    4    3   14     -0.28      0.00
    4    2   14      0.45      0.00
    4    1   14      0.44      0.00
    4    0   14     -0.44      0.00
    4   20   14      0.02      0.00
    4   15   15      0.86      0.00
    4   14   15      0.00      0.00
    4   13   15     -0.71      0.00
    4   12   15     -0.35      0.00
    4   11   15      0.80      0.00
    4   10   15      0.23      0.00
    4    9   15      0.36      0.00
    4    8   15     -0.94      0.00
    4    7   15      0.36      0.00
    4    6   15      0.00      0.00
    4    5   15      0.36      0.00
    4    4   15     -0.05      0.00
    4    3   15     -0.48      0.00
    4    2   15     -0.27      0.00
    4    1   15      0.61      0.00
    4    0   15     -0.25      0.00
    4    9   16      0.67      0.00
    4    7   16     -0.15      0.00
    4    6   16     -0.19      0.00
    4    5   16      0.67      0.00
    4    4   16      0.17      0.00
    4    3   16     -0.32      0.00
    4    2   16     -0.21      0.00
    4    1   16     -0.08      0.00
    4    0   16     -0.15      0.00
   -5   12   14      0.51      0.00
   -5   11   14      0.93      0.00
   -5   10   14      0.11      0.00
   -5    9   14     -1.13      0.00
   -5    8   14     -1.24      0.00
   -5    7   14      0.32      0.00
   -5    6   14     -0.13      0.00
   -5    5   14     -0.51      0.00
   -5    4   14     -0.32      0.00
   -5    3   14     -0.53      0.00
   -5    2   14      0.50      0.00
   -5    1   14      0.87      0.00
   -5    0   14     -1.96      0.00
   -5   18   13     -0.10      0.00
   -5   17   13     -0.47      0.00
   -5   16   13     -0.47      0.00
   -5   15   13     -0.77      0.00
   -5   14   13      0.25      0.00
   -5   13   13     -0.49      0.00
   -5   12   13     -0.09      0.00
   -5   11   13      0.22      0.00
   -5   10   13     -0.73      0.00
   -5    9   13      0.19      0.00
   -5    8   13     -0.58      0.00
   -5    7   13      0.10      0.00
   -5    6   13      0.25      0.00
   -5    5   13     -0.34      0.00
   -5    4   13      0.08      0.00
   -5    3   13     -0.48      0.00
   -5    2   13      0.74      0.00
   -5    1   13     -0.37      0.00
   -5    0   13     -1.57      0.00
   -5   21   12      0.12      0.00
   -5   20   12      0.77      0.00
   -5   19   12     -0.15      0.00
   -5   18   12     -0.06      0.00
   -5   17   12      0.21      0.00
   -5   16   12     -0.11      0.00
   -5   15   12      0.45      0.00
   -5   14   12     -0.34      0.00
   -5   13   12     -1.01      0.00
   -5   12   12     -0.08      0.00
   -5   11   12      0.23      0.00
   -5   10   12     -0.48      0.00
   -5    9   12     -0.29      0.00
   -5    8   12     -0.91      0.00
   -5    7   12      0.00      0.00
   -5    6   12     -0.02      0.00
   -5    5   12     -0.56      0.00
   -5    4   12      1.36      0.00
   -5    3   12     -1.47      0.00
   -5    2   12     -1.17      0.00
   -5    1   12     -1.05      0.00
   -5    0   12      1.88      0.00
   -5   25   11      0.79      0.00
   -5   24   11      0.90      0.00
   -5   23   11     -0.56      0.00
   -5   22   11      0.64      0.00
   -5   21   11     -0.20      0.00
   -5   20   11      0.51      0.00
   -5   19   11      0.01      0.00
   -5   18   11     -0.02      0.00
   -5   17   11      0.15      0.00
   -5   16   11      0.83      0.00
   -5   15   11      1.22      0.00
   -5   14   11     -0.64      0.00
   -5   13   11      0.76      0.00
   -5   12   11      0.03      0.00
   -5   11   11      0.00      0.00
   -5   10   11     -0.36      0.00
   -5    9   11     -0.62      0.00
   -5    8   11     -0.13      0.00
   -5    7   11     -0.97      0.00
   -5    6   11     -0.29      0.00
   -5    5   11     -0.85      0.00
   -5    4   11     -0.33      0.00
   -5    3   11     -0.89      0.00
   -5    2   11      1.02      0.00
   -5    1   11     -3.58      0.00
   -5    0   11     -0.55      0.00
   -5   27   10     -0.44      0.00
   -5   26   10      0.51      0.00
   -5   25   10     -0.65      0.00
   -5   24   10     -0.17      0.00
   -5   23   10      0.19      0.00
   -5   22   10      0.10      0.00
   -5   21   10     -0.47      0.00
   -5   20   10     -0.25      0.00
   -5   19   10      0.46      0.00
   -5   18   10     -0.07      0.00
   -5   17   10     -0.45      0.00
   -5   16   10      0.73      0.00
   -5   15   10      2.07      0.00
   -5   14   10      0.34      0.00
   -5   13   10      0.81      0.00
   -5   12   10     -0.52      0.00
   -5   11   10      1.64      0.00
   -5   10   10      0.63      0.00
   -5    9   10     -0.90      0.00
   -5    8   10      0.45      0.00
   -5    7   10     -1.53      0.00
   -5    6   10     -0.29      0.00
   -5    5   10     -1.21      0.00
   -5    4   10      0.10      0.00
   -5    3   10     -0.82      0.00
   -5    2   10     -0.50      0.00
   -5    1   10     -2.21      0.00
   -5    0   10      0.49      0.00
   -5   29    9     -0.31      0.00
   -5   28    9     -0.02      0.00
   -5   27    9      0.29      0.00
   -5   26    9     -0.44      0.00
   -5   25    9      0.01      0.00
   -5   24    9     -0.26      0.00
   -5   23    9     -1.12      0.00
   -5   22    9     -0.46      0.00
   -5   21    9      0.12      0.00
   -5   20    9     -0.67      0.00
   -5   19    9      0.69      0.00
   -5   18    9     -0.12      0.00
   -5   17    9     -0.79      0.00
   -5   16    9     -0.47      0.00
   -5   15    9      1.20      0.00
   -5   14    9      1.12      0.00
   -5   13    9      0.51      0.00
   -5   12    9      0.28      0.00
   -5   11    9      1.84      0.00
   -5   10    9      1.33      0.00
   -5    9    9     -0.54      0.00
   -5    8    9      0.22      0.00
   -5    7    9     -0.55      0.00
   -5    6    9      1.16      0.00
   -5    5    9     -2.28      0.00
   -5    4    9     -0.51      0.00
   -5    3    9     -0.63      0.00
   -5    2    9      1.30      0.00
   -5    1    9      0.14      0.00
   -5    0    9     -2.62      0.00
   -5   30    9      0.14      0.00
   -5   31    8     -1.11      0.00
   -5   30    8      1.05      0.00
   -5   29    8      0.47      0.00
   -5   28    8     -0.49      0.00
   -5   27    8      0.63      0.00
   -5   26    8      0.39      0.00
   -5   25    8      0.24      0.00
   -5   24    8     -1.65      0.00
   -5   23    8     -0.67      0.00
   -5   22    8     -0.69      0.00
   -5   21    8     -0.51      0.00
   -5   20    8      0.59      0.00
   -5   19    8     -0.07      0.00
   -5   18    8     -0.85      0.00
   -5   17    8     -1.09      0.00
   -5   16    8     -0.94      0.00
   -5   15    8     -0.87      0.00
   -5   14    8      0.90      0.00
   -5   13    8      1.33      0.00
   -5   12    8      0.41      0.00
   -5   11    8     -1.44      0.00
   -5   10    8      2.64      0.00
   -5    9    8      2.18      0.00
   -5    7    8     -1.43      0.00
   -5    6    8      1.05      0.00
   -5    4    8      1.99      0.00
   -5    3    8     -1.02      0.00
   -5    2    8     -0.88      0.00
   -5    1    8     -0.22      0.00
   -5    5    8     -0.65      0.00
   -5    8    8     -0.49      0.00
   -5   32    8     -0.27      0.00
   -5   32    7     -0.22      0.00
   -5   31    7      0.03      0.00
   -5   30    7     -0.06      0.00
   -5   29    7      1.00      0.00
   -5   28    7      0.01      0.00
   -5   27    7      0.37      0.00
   -5   26    7      0.47      0.00
   -5   25    7      0.41      0.00
   -5   24    7     -1.23      0.00
   -5   23    7     -0.82      0.00
   -5   22    7      0.29      0.00
   -5   21    7     -1.54      0.00
   -5   20    7     -1.65      0.00
   -5   19    7      0.11      0.00
   -5   18    7      2.51      0.00
   -5   17    7     -2.79      0.00
   -5   16    7     -2.94      0.00
   -5   15    7     -2.23      0.00
   -5   14    7      1.48      0.00
   -5   13    7      0.17      0.00
   -5   12    7     -1.18      0.00
   -5   11    7      0.14      0.00
   -5   10    7      0.99      0.00
   -5    9    7     -1.20      0.00
   -5    7    7      1.09      0.00
   -5    6    7      0.72      0.00
   -5    5    7     -0.59      0.00
   -5    4    7      0.39      0.00
   -5    3    7     -0.71      0.00
   -5    1    7     -0.57      0.00
   -5    0    7     -2.92      0.00
   -5    8    7      1.44      0.00
   -5   33    7     -0.15      0.00
   -5   34    6      0.37      0.00
   -5   33    6      0.40      0.00
   -5   32    6     -0.46      0.00
   -5   31    6     -0.13      0.00
   -5   30    6      0.17      0.00
   -5   29    6      1.31      0.00
   -5   28    6     -0.30      0.00
   -5   27    6      0.59      0.00
   -5   26    6      0.45      0.00
   -5   25    6      0.21      0.00
   -5   24    6      0.73      0.00
   -5   23    6     -2.24      0.00
   -5   22    6     -0.14      0.00
   -5   21    6      0.09      0.00
   -5   20    6      0.33      0.00
   -5   19    6     -3.03      0.00
   -5   18    6      0.57      0.00
   -5   17    6      0.11      0.00
   -5   16    6     -0.24      0.00
   -5   15    6     -3.77      0.00
   -5   14    6      0.14      0.00
   -5   13    6     -1.02      0.00
   -5   12    6     -2.41      0.00
   -5   11    6      0.39      0.00
   -5   10    6     -1.22      0.00
   -5    9    6     -0.31      0.00
   -5    8    6      0.04      0.00
   -5    7    6     -0.31      0.00
   -5    6    6      2.09      0.00
   -5    5    6     -1.64      0.00
   -5    4    6      0.12      0.00
   -5    3    6      2.44      0.00
   -5    2    6     -0.13      0.00
   -5    0    6      2.28      0.00
   -5   35    6     -0.59      0.00
   -5   35    5      0.02      0.00
   -5   34    5      0.05      0.00
   -5   33    5     -0.03      0.00
   -5   32    5     -0.34      0.00
   -5   31    5      0.71      0.00
   -5   30    5      0.56      0.00
   -5   29    5      0.32      0.00
   -5   28    5      0.11      0.00
   -5   27    5      0.34      0.00
   -5   26    5      0.32      0.00
   -5   25    5      0.28      0.00
   -5   24    5      1.72      0.00
   -5   23    5     -0.45      0.00
   -5   22    5      1.09      0.00
   -5   21    5     -2.94      0.00
   -5   20    5      1.38      0.00
   -5   19    5     -0.26      0.00
   -5   18    5     -0.04      0.00
   -5   17    5     -0.21      0.00
   -5   16    5      2.00      0.00
   -5   15    5     -0.46      0.00
   -5   14    5     -1.56      0.00
   -5   13    5      0.06      0.00
   -5   11    5     -3.12      0.00
   -5   10    5     -1.30      0.00
   -5    9    5      3.01      0.00
   -5    8    5     -3.00      0.00
   -5    7    5     -0.78      0.00
   -5    6    5     -0.66      0.00
   -5    5    5     -0.32      0.00
   -5    4    5      2.18      0.00
   -5    3    5     -2.75      0.00
   -5    2    5     -0.80      0.00
   -5    1    5      2.26      0.00
   -5    0    5      1.21      0.00
   -5   12    5     -2.73      0.00
   -5   36    5      0.50      0.00
   -5   35    4      0.13      0.00
   -5   34    4     -0.02      0.00
   -5   33    4      1.07      0.00
   -5   32    4      0.22      0.00
   -5   31    4     -0.66      0.00
   -5   30    4     -0.25      0.00
   -5   29    4      0.15      0.00
   -5   28    4      1.45      0.00
   -5   27    4      0.10      0.00
   -5   26    4      0.06      0.00
   -5   25    4      0.08      0.00
   -5   24    4      2.07      0.00
   -5   23    4      0.88      0.00
   -5   22    4      0.73      0.00
   -5   21    4     -2.78      0.00
   -5   20    4      2.14      0.00
   -5   19    4     -0.59      0.00
   -5   18    4      0.60      0.00
   -5   17    4      2.75      0.00
   -5   16    4      1.35      0.00
   -5   14    4     -1.73      0.00
   -5   13    4      1.72      0.00
   -5   12    4     -2.90      0.00
   -5   11    4      0.02      0.00
   -5   10    4     -1.57      0.00
   -5    9    4     -1.85      0.00
   -5    8    4     -1.49      0.00
   -5    7    4      4.75      0.00
   -5    6    4     -6.35      0.00
   -5    4    4      4.72      0.00
   -5    3    4     -7.70      0.00
   -5    2    4     -4.43      0.00
   -5    1    4     -1.11      0.00
   -5    0    4      3.22      0.00
   -5    5    4      1.80      0.00
   -5   15    4      2.13      0.00
   -5   36    4      0.11      0.00
   -5   37    4     -1.11      0.00
   -5   36    3      0.41      0.00
   -5   35    3      0.44      0.00
   -5   34    3      0.12      0.00
   -5   33    3      0.22      0.00
   -5   32    3      0.36      0.00
   -5   31    3     -0.40      0.00
   -5   30    3     -0.44      0.00
   -5   29    3     -0.26      0.00
   -5   28    3      1.03      0.00
   -5   27    3      0.05      0.00
   -5   26    3      0.69      0.00
   -5   25    3     -0.24      0.00
   -5   24    3      0.47      0.00
   -5   23    3      0.83      0.00
   -5   22    3      0.39      0.00
   -5   21    3     -1.18      0.00
   -5   20    3      0.51      0.00
   -5   19    3      0.40      0.00
   -5   18    3      0.00      0.00
   -5   17    3      1.06      0.00
   -5   16    3      1.22      0.00
   -5   15    3      7.45      0.00
   -5   14    3     -4.49      0.00
   -5   13    3      1.67      0.00
   -5   12    3      1.32      0.00
   -5   11    3      1.82      0.00
   -5   10    3     -4.99      0.00
   -5    9    3     -1.35      0.00
   -5    8    3      1.79      0.00
   -5    7    3      4.93      0.00
   -5    6    3     -0.17      0.00
   -5    5    3      3.84      0.00
   -5    4    3     -3.47      0.00
   -5    3    3     -7.47      0.00
   -5    2    3     -4.70      0.00
   -5    1    3     -6.01      0.00
   -5    0    3      5.76      0.00
   -5   37    3     -0.23      0.00
   -5   38    3     -0.08      0.00
   -5   36    2     -0.23      0.00
   -5   35    2      0.11      0.00
   -5   34    2      0.81      0.00
   -5   33    2     -0.24      0.00
   -5   32    2     -0.20      0.00
   -5   31    2      0.38      0.00
   -5   30    2      0.67      0.00
   -5   29    2     -0.99      0.00
   -5   28    2     -0.27      0.00
   -5   27    2      0.27      0.00
   -5   26    2     -0.38      0.00
   -5   25    2      0.55      0.00
   -5   24    2      0.81      0.00
   -5   23    2     -0.32      0.00
   -5   22    2     -2.04      0.00
   -5   21    2      0.05      0.00
   -5   20    2     -0.68      0.00
   -5   19    2     -0.56      0.00
   -5   18    2     -1.51      0.00
   -5   17    2      2.23      0.00
   -5   16    2     -1.10      0.00
   -5   15    2      5.97      0.00
   -5   14    2     -0.84      0.00
   -5   13    2      2.29      0.00
   -5   12    2     -2.58      0.00
   -5   11    2      1.61      0.00
   -5   10    2      2.80      0.00
   -5    9    2     -2.18      0.00
   -5    8    2     -0.11      0.00
   -5    7    2      9.12      0.00
   -5    5    2     -2.28      0.00
   -5    4    2     -0.25      0.00
   -5    3    2     -1.71      0.00
   -5    2    2    -13.24      0.00
   -5    1    2      1.42      0.00
   -5    0    2     14.20      0.00
   -5   37    2     -0.01      0.00
   -5   38    2     -0.20      0.00
   -5   37    1     -1.29      0.00
   -5   36    1     -0.63      0.00
   -5   35    1     -0.24      0.00
   -5   34    1      0.47      0.00
   -5   33    1      0.12      0.00
   -5   32    1      0.35      0.00
   -5   31    1     -0.21      0.00
   -5   30    1      0.31      0.00
   -5   29    1     -0.07      0.00
   -5   28    1     -0.65      0.00
   -5   27    1      0.31      0.00
   -5   26    1     -0.18      0.00
   -5   25    1      0.18      0.00
   -5   24    1     -0.70      0.00
   -5   23    1      2.48      0.00
   -5   22    1     -1.86      0.00
   -5   21    1     -5.06      0.00
   -5   20    1     -2.93      0.00
   -5   19    1      2.12      0.00
   -5   18    1      0.25      0.00
   -5   17    1      0.51      0.00
   -5   16    1     -4.06      0.00
   -5   15    1      1.17      0.00
   -5   14    1     -0.09      0.00
   -5   13    1      4.23      0.00
   -5   12    1      3.74      0.00
   -5   11    1     -2.10      0.00
   -5   10    1     -1.74      0.00
   -5    9    1     -0.67      0.00
   -5    8    1      9.61      0.00
   -5    7    1      6.98      0.00
   -5    6    1      1.88      0.00
   -5    5    1     -0.98      0.00
   -5    4    1      2.15      0.00
   -5    3    1      8.98      0.00
   -5    2    1      0.77      0.00
   -5    1    1     -5.86      0.00
   -5    0    1     -6.87      0.00
   -5   38    1      0.29      0.00
   -5   39    1      0.70      0.00
    5   37    0      0.40      0.00
    5   36    0     -0.35      0.00
    5   35    0      0.76      0.00
    5   34    0      0.10      0.00
    5   33    0      0.70      0.00
    5   32    0     -0.02      0.00
    5   31    0     -0.58      0.00
    5   30    0      0.21      0.00
    5   29    0      0.45      0.00
    5   28    0     -0.41      0.00
    5   27    0     -1.60      0.00
    5   26    0     -0.36      0.00
    5   25    0     -0.30      0.00
    5   24    0     -1.08      0.00
    5   23    0     -0.71      0.00
    5   22    0     -0.13      0.00
    5   21    0      1.79      0.00
    5   20    0     -4.12      0.00
    5   19    0      4.34      0.00
    5   18    0      0.53      0.00
    5   17    0     -2.50      0.00
    5   16    0     -2.62      0.00
    5   15    0      3.64      0.00
    5   14    0     -1.74      0.00
    5   13    0      0.37      0.00
    5   12    0      5.07      0.00
    5   11    0     -6.78      0.00
    5   10    0      1.61      0.00
    5    9    0     14.82      0.00
    5    8    0      1.54      0.00
    5    7    0    -17.65      0.00
    5    6    0     12.44      0.00
    5    5    0      1.33      0.00
    5    4    0     -3.23      0.00
    5    3    0     -7.96      0.00
    5    2    0      0.37      0.00
    5    1    0      2.06      0.00
    5    0    0      1.77      0.00
    5   38    0     -0.15      0.00
    5   39    0      0.02      0.00
    5   37    1      0.37      0.00
    5   36    1      0.15      0.00
    5   35    1      0.25      0.00
    5   34    1     -0.25      0.00
    5   33    1      0.20      0.00
    5   32    1     -1.29      0.00
    5   31    1      0.76      0.00
    5   30    1      1.47      0.00
    5   29    1     -1.52      0.00
    5   28    1     -1.86      0.00
    5   27    1     -0.07      0.00
    5   26    1      1.19      0.00
    5   25    1     -1.79      0.00
    5   24    1     -1.00      0.00
    5   23    1      0.13      0.00
    5   22    1      0.66      0.00
    5   21    1      1.85      0.00
    5   20    1     -1.93      0.00
    5   19    1      3.50      0.00
    5   18    1     -1.44      0.00
    5   17    1      2.92      0.00
    5   16    1     -0.82      0.00
    5   15    1      3.57      0.00
    5   14    1     -0.45      0.00
    5   13    1     -2.31      0.00
    5   12    1     -6.18      0.00
    5   11    1      8.35      0.00
    5   10    1     12.47      0.00
    5    9    1     -7.81      0.00
    5    8    1    -10.60      0.00
    5    7    1      2.05      0.00
    5    6    1     17.71      0.00
    5    5    1     -7.13      0.00
    5    4    1    -10.41      0.00
    5    3    1     -3.71      0.00
    5    2    1      5.11      0.00
    5    1    1      3.07      0.00
    5    0    1      0.12      0.00
    5   38    1      0.23      0.00
    5   39    1      0.13      0.00
    5   37    2     -0.64      0.00
    5   36    2      0.11      0.00
    5   35    2      0.61      0.00
    5   34    2     -0.13      0.00
    5   33    2     -0.54      0.00
    5   32    2     -0.61      0.00
    5   31    2      0.62      0.00
    5   30    2     -1.07      0.00
    5   29    2     -1.13      0.00
    5   28    2      1.05      0.00
    5   27    2     -0.23      0.00
    5   26    2      0.15      0.00
    5   25    2     -1.63      0.00
    5   24    2      0.49      0.00
    5   23    2      1.15      0.00
    5   22    2      1.73      0.00
    5   21    2     -1.89      0.00
    5   20    2     -0.90      0.00
    5   19    2      6.95      0.00
    5   18    2     -0.92      0.00
    5   17    2      0.27      0.00
    5   16    2      1.84      0.00
    5   15    2      3.79      0.00
    5   14    2     -7.48      0.00
    5   13    2      3.21      0.00
    5   12    2     -0.83      0.00
    5   10    2     -0.55      0.00
    5    9    2     -3.01      0.00
    5    8    2      3.35      0.00
    5    6    2     -3.78      0.00
    5    5    2     -9.46      0.00
    5    4    2     -1.34      0.00
    5    3    2      7.00      0.00
    5    2    2      5.52      0.00
    5    1    2     -5.26      0.00
    5    7    2      3.92      0.00
    5   38    2      0.17      0.00
    5   39    2      0.33      0.00
    5   36    3      0.64      0.00
    5   35    3     -0.32      0.00
    5   34    3     -0.17      0.00
    5   33    3      0.30      0.00
    5   32    3     -0.65      0.00
    5   31    3     -0.27      0.00
    5   30    3     -0.48      0.00
    5   29    3      0.08      0.00
    5   28    3      0.75      0.00
    5   27    3     -0.20      0.00
    5   26    3      0.84      0.00
    5   25    3     -1.03      0.00
    5   24    3      1.95      0.00
    5   23    3      0.00      0.00
    5   22    3      1.05      0.00
    5   21    3     -0.58      0.00
    5   20    3      2.97      0.00
    5   19    3      2.20      0.00
    5   18    3     -3.35      0.00
    5   17    3      1.41      0.00
    5   16    3      3.59      0.00
    5   15    3      0.26      0.00
    5   14    3     -5.00      0.00
    5   13    3      3.41      0.00
    5   12    3     -3.99      0.00
    5   11    3     -1.56      0.00
    5   10    3      0.12      0.00
    5    9    3     -1.41      0.00
    5    8    3      0.56      0.00
    5    7    3      2.75      0.00
    5    6    3     -6.04      0.00
    5    5    3     -5.95      0.00
    5    4    3      3.16      0.00
    5    3    3      3.30      0.00
    5    2    3    -10.21      0.00
    5    1    3      0.77      0.00
    5    0    3      2.63      0.00
    5   37    3     -0.36      0.00
    5   38    3     -1.06      0.00
    5   39    3      0.63      0.00
    5   36    4     -0.26      0.00
    5   35    4      0.26      0.00
    5   34    4      0.23      0.00
    5   33    4     -0.46      0.00
    5   32    4     -0.34      0.00
    5   31    4      0.98      0.00
    5   30    4     -0.65      0.00
    5   29    4      0.38      0.00
    5   28    4      0.91      0.00
    5   27    4     -0.18      0.00
    5   26    4      1.36      0.00
    5   25    4     -0.04      0.00
    5   24    4      1.01      0.00
    5   23    4     -0.88      0.00
    5   22    4      2.96      0.00
    5   21    4      0.18      0.00
    5   20    4      0.17      0.00
    5   19    4     -1.13      0.00
    5   18    4      0.09      0.00
    5   17    4     -0.66      0.00
    5   16    4      1.26      0.00
    5   15    4     -1.72      0.00
    5   14    4     -2.64      0.00
    5   13    4      0.64      0.00
    5   12    4      0.11      0.00
    5   11    4     -0.55      0.00
    5   10    4     -3.70      0.00
    5    9    4     -6.33      0.00
    5    8    4      3.27      0.00
    5    6    4     -5.07      0.00
    5    5    4     -3.88      0.00
    5    4    4      1.55      0.00
    5    3    4     -1.00      0.00
    5    2    4     -9.13      0.00
    5    1    4      0.40      0.00
    5    0    4      2.01      0.00
    5    7    4      3.01      0.00
    5   37    4      0.19      0.00
    5   38    4      0.04      0.00
    5   39    4     -0.11      0.00
    5   35    5      0.14      0.00
    5   34    5     -0.64      0.00
    5   33    5      0.79      0.00
    5   32    5      0.38      0.00
    5   31    5      0.72      0.00
    5   30    5     -0.81      0.00
    5   29    5      0.15      0.00
    5   28    5      0.91      0.00
    5   27    5      0.40      0.00
    5   26    5     -0.17      0.00
    5   25    5     -0.04      0.00
    5   24    5      1.74      0.00
    5   23    5      0.80      0.00
    5   22    5      0.19      0.00
    5   21    5     -1.83      0.00
    5   19    5     -2.56      0.00
    5   18    5     -1.07      0.00
    5   17    5     -1.60      0.00
    5   16    5      1.12      0.00
    5   15    5     -1.18      0.00
    5   14    5     -2.35      0.00
    5   13    5     -1.08      0.00
    5   12    5      1.45      0.00
    5   11    5     -2.56      0.00
    5   10    5      0.46      0.00
    5    9    5     -5.98      0.00
    5    8    5      0.19      0.00
    5    7    5      2.26      0.00
    5    6    5      2.25      0.00
    5    5    5     -5.28      0.00
    5    4    5     -1.53      0.00
    5    3    5      0.51      0.00
    5    2    5     -1.59      0.00
    5    1    5     -4.34      0.00
    5    0    5     -2.64      0.00
    5   20    5      0.70      0.00
    5   36    5      0.14      0.00
    5   37    5     -0.49      0.00
    5   38    5     -0.16      0.00
    5   39    5      0.23      0.00
    5   34    6     -1.36      0.00
    5   33    6      0.56      0.00
    5   32    6      0.83      0.00
    5   31    6      0.59      0.00
    5   30    6     -0.17      0.00
    5   29    6     -0.11      0.00
    5   28    6     -0.46      0.00
    5   27    6      0.11      0.00
    5   26    6      0.02      0.00
    5   25    6      1.53      0.00
    5   24    6      0.03      0.00
    5   23    6     -0.26      0.00
    5   22    6     -0.45      0.00
    5   21    6     -1.58      0.00
    5   20    6     -0.23      0.00
    5   19    6     -1.82      0.00
    5   18    6     -1.45      0.00
    5   17    6     -2.30      0.00
    5   16    6     -0.77      0.00
    5   15    6      2.31      0.00
    5   14    6     -0.45      0.00
    5   13    6     -1.42      0.00
    5   12    6      1.37      0.00
    5   11    6     -3.87      0.00
    5   10    6      0.32      0.00
    5    9    6     -0.19      0.00
    5    8    6      5.26      0.00
    5    7    6     -1.59      0.00
    5    6    6      1.22      0.00
    5    5    6     -2.00      0.00
    5    4    6      1.82      0.00
    5    3    6     -1.44      0.00
    5    2    6     -0.06      0.00
    5    1    6     -2.42      0.00
    5    0    6     -3.62      0.00
    5   35    6     -0.02      0.00
    5   36    6     -0.11      0.00
    5   37    6     -0.32      0.00
    5   38    6      0.78      0.00
    5   33    7      0.25      0.00
    5   32    7     -0.44      0.00
    5   31    7      0.14      0.00
    5   30    7      0.47      0.00
    5   29    7     -0.16      0.00
    5   28    7     -0.57      0.00
    5   27    7      0.55      0.00
    5   26    7      0.44      0.00
    5   25    7      0.70      0.00
    5   24    7     -0.43      0.00
    5   23    7      0.01      0.00
    5   22    7     -0.87      0.00
    5   21    7     -0.65      0.00
    5   20    7     -0.85      0.00
    5   19    7     -0.93      0.00
    5   18    7     -1.57      0.00
    5   17    7      1.19      0.00
    5   16    7     -0.94      0.00
    5   15    7      1.01      0.00
    5   14    7      0.16      0.00
    5   13    7      0.78      0.00
    5   12    7      0.35      0.00
    5   11    7     -1.03      0.00
    5   10    7      2.36      0.00
    5    9    7      1.72      0.00
    5    8    7      3.91      0.00
    5    7    7     -2.47      0.00
    5    6    7      4.21      0.00
    5    5    7      0.78      0.00
    5    4    7     -0.94      0.00
    5    3    7     -4.28      0.00
    5    2    7      2.85      0.00
    5    1    7      1.12      0.00
    5    0    7     -7.42      0.00
    5   34    7      0.05      0.00
    5   35    7     -0.12      0.00
    5   36    7     -0.03      0.00
    5   37    7     -0.46      0.00
    5   32    8     -0.64      0.00
    5   31    8      0.41      0.00
    5   30    8      0.63      0.00
    5   29    8     -0.12      0.00
    5   28    8     -0.09      0.00
    5   27    8      0.01      0.00
    5   26    8      0.46      0.00
    5   25    8     -0.39      0.00
    5   24    8      0.78      0.00
    5   23    8      0.76      0.00
    5   22    8     -0.58      0.00
    5   21    8     -0.57      0.00
    5   20    8     -2.08      0.00
    5   19    8      1.28      0.00
    5   18    8     -0.34      0.00
    5   17    8      1.43      0.00
    5   16    8     -1.61      0.00
    5   15    8      1.66      0.00
    5   14    8      0.35      0.00
    5   13    8      0.86      0.00
    5   12    8     -0.19      0.00
    5   11    8      2.05      0.00
    5   10    8      3.30      0.00
    5    9    8      0.39      0.00
    5    8    8      1.79      0.00
    5    7    8     -0.40      0.00
    5    6    8      3.12      0.00
    5    5    8     -1.07      0.00
    5    4    8     -0.01      0.00
    5    3    8     -2.81      0.00
    5    2    8      0.19      0.00
    5    1    8     -0.18      0.00
    5    0    8     -4.30      0.00
    5   33    8      0.23      0.00
    5   34    8      0.31      0.00
    5   35    8     -0.36      0.00
    5   36    8      0.58      0.00
    5   31    9      0.84      0.00
    5   30    9      0.41      0.00
    5   29    9     -0.27      0.00
    5   28    9     -0.24      0.00
    5   27    9     -0.77      0.00
    5   26    9      1.08      0.00
    5   25    9     -0.17      0.00
    5   24    9      0.86      0.00
    5   23    9     -0.59      0.00
    5   22    9     -0.17      0.00
    5   21    9      0.93      0.00
    5   20    9     -0.49      0.00
    5   19    9     -0.19      0.00
    5   18    9     -1.48      0.00
    5   17    9      2.49      0.00
    5   16    9     -1.34      0.00
    5   15    9      0.63      0.00
    5   14    9     -0.42      0.00
    5   13    9      2.78      0.00
    5   12    9      0.64      0.00
    5   11    9      0.06      0.00
    5   10    9      1.16      0.00
    5    9    9      1.47      0.00
    5    8    9      1.60      0.00
    5    7    9     -1.04      0.00
    5    6    9      0.40      0.00
    5    5    9     -0.49      0.00
    5    4    9      1.40      0.00
    5    3    9     -3.48      0.00
    5    2    9     -1.46      0.00
    5    1    9      1.72      0.00
    5    0    9     -1.31      0.00
    5   32    9     -0.09      0.00
    5   33    9     -0.20      0.00
    5   34    9     -0.03      0.00
    5   35    9      0.18      0.00
    5   29   10      0.19      0.00
    5   28   10     -0.04      0.00
    5   27   10     -0.59      0.00
    5   26   10      0.71      0.00
    5   25   10     -0.11      0.00
    5   24   10      0.33      0.00
    5   23   10     -0.50      0.00
    5   22   10      1.49      0.00
    5   21   10     -0.30      0.00
    5   20   10     -0.83      0.00
    5   19   10     -0.15      0.00
    5   18   10     -0.32      0.00
    5   17   10      1.06      0.00
    5   16   10     -1.37      0.00
    5   15   10      1.49      0.00
    5   14   10     -0.01      0.00
    5   13   10      1.20      0.00
    5   12   10     -1.18      0.00
    5   11   10      1.08      0.00
    5   10   10      1.36      0.00
    5    9   10     -0.64      0.00
    5    8   10     -0.42      0.00
    5    7   10      0.78      0.00
    5    6   10      1.52      0.00
    5    5   10     -2.18      0.00
    5    4   10     -0.85      0.00
    5    3   10      0.09      0.00
    5    2   10     -0.56      0.00
    5    1   10     -1.31      0.00
    5    0   10     -1.14      0.00
    5   30   10     -0.23      0.00
    5   31   10     -0.52      0.00
    5   32   10      0.60      0.00
    5   27   11      0.14      0.00
    5   26   11      0.09      0.00
    5   25   11      0.20      0.00
    5   24   11      0.83      0.00
    5   23   11     -0.10      0.00
    5   22   11      0.32      0.00
    5   21   11     -0.79      0.00
    5   20   11      0.14      0.00
    5   19   11     -0.46      0.00
    5   18   11      0.01      0.00
    5   17   11      0.46      0.00
    5   16   11      0.08      0.00
    5   15   11      0.05      0.00
    5   14   11     -0.66      0.00
    5   13   11      1.68      0.00
    5   12   11     -0.98      0.00
    5   11   11     -0.81      0.00
    5   10   11     -0.57      0.00
    5    9   11      0.28      0.00
    5    8   11      1.30      0.00
    5    7   11     -0.52      0.00
    5    6   11      0.01      0.00
    5    5   11     -0.42      0.00
    5    4   11     -0.89      0.00
    5    3   11     -0.56      0.00
    5    2   11     -0.75      0.00
    5    1   11     -0.41      0.00
    5    0   11     -1.13      0.00
    5   28   11     -0.04      0.00
    5   29   11     -0.02      0.00
    5   25   12      0.82      0.00
    5   24   12     -0.01      0.00
    5   23   12     -0.16      0.00
    5   22   12     -0.37      0.00
    5   21   12     -0.72      0.00
    5   20   12      0.17      0.00
    5   19   12     -0.04      0.00
    5   18   12     -0.21      0.00
    5   17   12     -0.60      0.00
    5   16   12      0.77      0.00
    5   15   12      0.25      0.00
    5   14   12     -0.73      0.00
    5   13   12     -0.60      0.00
    5   12   12     -0.66      0.00
    5   11   12     -0.16      0.00
    5   10   12      0.29      0.00
    5    9   12     -0.10      0.00
    5    8   12     -0.05      0.00
    5    7   12     -0.65      0.00
    5    6   12      0.89      0.00
    5    5   12     -0.46      0.00
    5    4   12     -1.18      0.00
    5    3   12      0.17      0.00
    5    2   12      0.11      0.00
    5    1   12     -0.77      0.00
    5    0   12     -1.24      0.00
    5   22   13     -0.83      0.00
    5   21   13     -0.55      0.00
    5   20   13     -0.31      0.00
    5   19   13      0.05      0.00
    5   18   13     -0.02      0.00
    5   17   13     -0.37      0.00
    5   16   13     -0.25      0.00
    5   15   13     -0.30      0.00
    5   14   13      0.13      0.00
    5   13   13     -0.67      0.00
    5   12   13      0.33      0.00
    5   11   13     -0.30      0.00
    5   10   13      0.13      0.00
    5    9   13      0.15      0.00
    5    8   13      0.20      0.00
    5    7   13     -0.55      0.00
    5    6   13      0.57      0.00
    5    5   13     -0.30      0.00
    5    4   13     -0.51      0.00
    5    3   13      0.05      0.00
    5    2   13      1.03      0.00
    5    1   13      0.38      0.00
    5    0   13     -0.67      0.00
    5   19   14      0.36      0.00
    5   18   14      0.30      0.00
    5   17   14     -0.89      0.00
    5   16   14     -0.53      0.00
    5   15   14      0.66      0.00
    5   14   14      0.81      0.00
    5   13   14     -0.95      0.00
    5   12   14     -0.11      0.00
    5   11   14      0.74      0.00
    5   10   14      0.99      0.00
    5    9   14     -0.36      0.00
    5    8   14     -0.27      0.00
    5    7   14     -0.43      0.00
    5    6   14      0.20      0.00
    5    5   14      0.61      0.00
    5    4   14      0.27      0.00
    5    3   14     -0.45      0.00
    5    2   14      0.79      0.00
    5    1   14      0.57      0.00
    5    0   14      0.29      0.00
    5   13   15     -0.70      0.00
    5   12   15      0.21      0.00
    5   11   15      1.13      0.00
    5   10   15      0.20      0.00
    5    9   15     -0.83      0.00
    5    8   15      0.11      0.00
    5    7   15      0.39      0.00
    5    6   15     -0.40      0.00
    5    5   15     -0.27      0.00
    5    4   15      0.53      0.00
    5    3   15      0.01      0.00
    5    2   15      0.18      0.00
    5    1   15      0.37      0.00
    5    0   15      0.44      0.00
   -6    9   14     -0.51      0.00
   -6    8   14     -0.89      0.00
   -6    7   14      0.37      0.00
   -6    6   14      1.23      0.00
   -6    5   14      0.13      0.00
   -6    4   14      0.00      0.00
   -6    3   14      0.01      0.00
   -6    2   14      1.23      0.00
   -6    1   14      2.51      0.00
   -6    0   14      1.25      0.00
   -6   15   13     -0.18      0.00
   -6   14   13      0.57      0.00
   -6   13   13     -1.13      0.00
   -6   12   13     -0.81      0.00
   -6   11   13     -0.64      0.00
   -6   10   13     -0.15      0.00
   -6    9   13     -0.04      0.00
   -6    8   13      0.45      0.00
   -6    7   13     -0.93      0.00
   -6    6   13      0.99      0.00
   -6    5   13      0.47      0.00
   -6    4   13      0.10      0.00
   -6    3   13      1.80      0.00
   -6    2   13      0.13      0.00
   -6    1   13     -0.63      0.00
   -6    0   13      0.49      0.00
   -6   16   13      1.13      0.00
   -6   20   12     -0.19      0.00
   -6   19   12     -0.88      0.00
   -6   18   12      0.28      0.00
   -6   17   12      1.15      0.00
   -6   16   12      0.03      0.00
   -6   15   12     -0.40      0.00
   -6   14   12      1.32      0.00
   -6   13   12     -1.13      0.00
   -6   12   12     -0.38      0.00
   -6   11   12     -0.55      0.00
   -6   10   12      0.29      0.00
   -6    9   12     -0.50      0.00
   -6    8   12     -0.57      0.00
   -6    7   12     -0.43      0.00
   -6    6   12      0.94      0.00
   -6    5   12      1.84      0.00
   -6    4   12     -0.14      0.00
   -6    3   12      0.94      0.00
   -6    2   12     -0.88      0.00
   -6    1   12      0.38      0.00
   -6    0   12     -0.26      0.00
   -6   23   11     -1.11      0.00
   -6   22   11     -0.30      0.00
   -6   21   11      0.23      0.00
   -6   20   11     -0.24      0.00
   -6   19   11     -0.01      0.00
   -6   18   11      0.16      0.00
   -6   17   11     -1.10      0.00
   -6   16   11     -0.38      0.00
   -6   15   11      0.62      0.00
   -6   14   11      0.37      0.00
   -6   13   11     -0.54      0.00
   -6   12   11      0.31      0.00
   -6   11   11     -1.15      0.00
   -6   10   11      0.31      0.00
   -6    9   11     -0.05      0.00
   -6    8   11     -0.06      0.00
   -6    7   11     -0.42      0.00
   -6    6   11     -1.39      0.00
   -6    5   11      2.68      0.00
   -6    4   11     -0.01      0.00
   -6    3   11      1.58      0.00
   -6    2   11      0.29      0.00
   -6    1   11     -1.11      0.00
   -6    0   11     -1.67      0.00
   -6   24   11     -0.21      0.00
   -6   26   10     -0.03      0.00
   -6   25   10      0.29      0.00
   -6   24   10     -0.08      0.00
   -6   23   10      0.14      0.00
   -6   22   10      0.17      0.00
   -6   21   10      0.08      0.00
   -6   20   10      0.35      0.00
   -6   19   10     -1.22      0.00
   -6   18   10     -0.03      0.00
   -6   17   10     -0.40      0.00
   -6   16   10     -0.55      0.00
   -6   15   10     -0.49      0.00
   -6   14   10      0.55      0.00
   -6   13   10      0.03      0.00
   -6   12   10     -1.33      0.00
   -6   11   10     -0.63      0.00
   -6   10   10      1.37      0.00
   -6    9   10      0.27      0.00
   -6    8   10     -0.95      0.00
   -6    7   10     -0.87      0.00
   -6    6   10     -1.16      0.00
   -6    5   10      2.41      0.00
   -6    4   10     -0.87      0.00
   -6    3   10      1.30      0.00
   -6    2   10      0.74      0.00
   -6    1   10     -0.40      0.00
   -6    0   10     -0.87      0.00
   -6   27   10      0.28      0.00
   -6   28    9     -0.30      0.00
   -6   27    9     -0.34      0.00
   -6   26    9      0.94      0.00
   -6   25    9      1.32      0.00
   -6   24    9      0.84      0.00
   -6   23    9     -1.91      0.00
   -6   22    9      0.90      0.00
   -6   21    9      0.72      0.00
   -6   20    9      0.27      0.00
   -6   19    9     -0.02      0.00
   -6   18    9     -0.16      0.00
   -6   17    9     -0.53      0.00
   -6   16    9     -0.20      0.00
   -6   15    9     -0.70      0.00
   -6   14    9     -0.06      0.00
   -6   13    9      0.47      0.00
   -6   12    9     -1.06      0.00
   -6   11    9     -0.56      0.00
   -6   10    9     -0.84      0.00
   -6    9    9      1.12      0.00
   -6    8    9      0.58      0.00
   -6    7    9     -0.70      0.00
   -6    6    9     -1.15      0.00
   -6    5    9      0.57      0.00
   -6    4    9     -0.87      0.00
   -6    3    9      1.22      0.00
   -6    2    9      0.91      0.00
   -6    1    9      1.79      0.00
   -6    0    9     -2.53      0.00
   -6   29    9      1.47      0.00
   -6   30    8     -0.23      0.00
   -6   29    8      0.35      0.00
   -6   28    8      0.27      0.00
   -6   27    8     -0.23      0.00
   -6   26    8      1.11      0.00
   -6   25    8      0.68      0.00
   -6   24    8      0.71      0.00
   -6   23    8     -1.50      0.00
   -6   22    8      0.62      0.00
   -6   21    8      0.49      0.00
   -6   20    8      0.58      0.00
   -6   19    8      0.91      0.00
   -6   18    8     -0.41      0.00
   -6   17    8      0.66      0.00
   -6   16    8     -0.43      0.00
   -6   15    8     -0.01      0.00
   -6   14    8     -0.34      0.00
   -6   13    8      0.96      0.00
   -6   12    8     -1.38      0.00
   -6   11    8     -0.86      0.00
   -6   10    8     -0.26      0.00
   -6    9    8      1.57      0.00
   -6    8    8     -0.29      0.00
   -6    7    8     -0.03      0.00
   -6    6    8     -0.03      0.00
   -6    5    8     -0.23      0.00
   -6    4    8      0.88      0.00
   -6    3    8      2.13      0.00
   -6    2    8     -2.17      0.00
   -6    1    8      1.91      0.00
   -6    0    8     -1.83      0.00
   -6   31    8     -1.21      0.00
   -6   31    7     -0.18      0.00
   -6   30    7     -0.78      0.00
   -6   29    7     -0.52      0.00
   -6   28    7      0.98      0.00
   -6   27    7     -0.91      0.00
   -6   26    7      0.78      0.00
   -6   25    7      0.36      0.00
   -6   24    7      0.68      0.00
   -6   23    7     -0.45      0.00
   -6   22    7     -0.26      0.00
   -6   21    7      0.89      0.00
   -6   20    7     -0.99      0.00
   -6   19    7      1.33      0.00
   -6   18    7      1.06      0.00
   -6   17    7      1.87      0.00
   -6   16    7     -1.21      0.00
   -6   15    7     -0.24      0.00
   -6   14    7     -0.56      0.00
   -6   13    7      3.16      0.00
   -6   12    7     -1.28      0.00
   -6   11    7     -0.50      0.00
   -6   10    7      1.00      0.00
   -6    9    7     -0.38      0.00
   -6    8    7      0.50      0.00
   -6    7    7      1.78      0.00
   -6    6    7      0.66      0.00
   -6    5    7      1.06      0.00
   -6    4    7      0.53      0.00
   -6    3    7      1.63      0.00
   -6    2    7     -1.26      0.00
   -6    1    7      2.74      0.00
   -6    0    7     -3.61      0.00
   -6   32    7     -0.14      0.00
   -6   33    7      0.61      0.00
   -6   33    6      0.77      0.00
   -6   32    6      0.19      0.00
   -6   31    6     -0.57      0.00
   -6   30    6     -0.13      0.00
   -6   29    6     -0.24      0.00
   -6   28    6      0.15      0.00
   -6   27    6     -0.38      0.00
   -6   26    6      0.48      0.00
   -6   25    6     -0.75      0.00
   -6   24    6      0.69      0.00
   -6   23    6      0.35      0.00
   -6   22    6     -0.81      0.00
   -6   21    6      2.27      0.00
   -6   20    6     -1.24      0.00
   -6   19    6      0.40      0.00
   -6   18    6     -0.87      0.00
   -6   17    6      2.46      0.00
   -6   16    6     -0.23      0.00
   -6   15    6      0.16      0.00
   -6   14    6     -0.68      0.00
   -6   13    6      1.96      0.00
   -6   12    6     -0.32      0.00
   -6   11    6      0.57      0.00
   -6   10    6      0.84      0.00
   -6    9    6      0.63      0.00
   -6    8    6      2.38      0.00
   -6    7    6     -0.52      0.00
   -6    6    6      2.55      0.00
   -6    5    6      2.90      0.00
   -6    3    6      3.99      0.00
   -6    1    6     -0.86      0.00
   -6    0    6      0.59      0.00
   -6    2    6     -2.34      0.00
   -6   34    6     -0.47      0.00
   -6   34    5     -0.48      0.00
   -6   33    5     -0.23      0.00
   -6   32    5      0.82      0.00
   -6   31    5      0.36      0.00
   -6   30    5      0.07      0.00
   -6   29    5     -0.41      0.00
   -6   28    5     -0.53      0.00
   -6   27    5     -0.54      0.00
   -6   26    5     -0.30      0.00
   -6   25    5     -0.27      0.00
   -6   24    5      0.17      0.00
   -6   23    5      0.79      0.00
   -6   22    5      0.10      0.00
   -6   21    5      0.70      0.00
   -6   20    5     -1.51      0.00
   -6   19    5      2.33      0.00
   -6   18    5     -3.17      0.00
   -6   17    5     -0.58      0.00
   -6   16    5      0.86      0.00
   -6   15    5      1.42      0.00
   -6   14    5     -2.10      0.00
   -6   13    5     -1.24      0.00
   -6   12    5      1.70      0.00
   -6   11    5     -1.56      0.00
   -6   10    5      0.02      0.00
   -6    9    5      1.15      0.00
   -6    8    5      3.14      0.00
   -6    7    5     -0.28      0.00
   -6    6    5      2.32      0.00
   -6    5    5      1.13      0.00
   -6    4    5      5.23      0.00
   -6    3    5      5.21      0.00
   -6    2    5     -2.94      0.00
   -6    1    5      0.53      0.00
   -6    0    5      2.53      0.00
   -6   35    5      0.27      0.00
   -6   35    4      0.61      0.00
   -6   34    4      0.86      0.00
   -6   33    4      0.17      0.00
   -6   32    4      0.16      0.00
   -6   31    4      0.18      0.00
   -6   30    4     -0.17      0.00
   -6   29    4     -0.65      0.00
   -6   28    4     -0.27      0.00
   -6   27    4      0.15      0.00
   -6   26    4     -1.30      0.00
   -6   25    4     -0.85      0.00
   -6   24    4      0.34      0.00
   -6   23    4      1.46      0.00
   -6   22    4     -0.39      0.00
   -6   21    4     -0.45      0.00
   -6   20    4     -0.58      0.00
   -6   19    4      1.05      0.00
   -6   18    4     -1.99      0.00
   -6   17    4      0.13      0.00
   -6   16    4     -1.58      0.00
   -6   15    4     -1.26      0.00
   -6   14    4      0.24      0.00
   -6   13    4     -4.33      0.00
   -6   12    4     -0.19      0.00
   -6   11    4     -1.79      0.00
   -6   10    4      1.11      0.00
   -6    9    4     -6.20      0.00
   -6    8    4      0.02      0.00
   -6    7    4      3.18      0.00
   -6    6    4      1.75      0.00
   -6    5    4      0.32      0.00
   -6    4    4      5.90      0.00
   -6    3    4      5.63      0.00
   -6    2    4      2.52      0.00
   -6    1    4     -1.23      0.00
   -6    0    4     -2.94      0.00
   -6   36    4     -0.91      0.00
   -6   35    3     -0.20      0.00
   -6   34    3      0.27      0.00
   -6   33    3      0.81      0.00
   -6   32    3      0.49      0.00
   -6   31    3     -0.52      0.00
   -6   30    3     -1.16      0.00
   -6   29    3      0.60      0.00
   -6   28    3      0.41      0.00
   -6   27    3     -0.57      0.00
   -6   26    3     -0.82      0.00
   -6   25    3     -0.46      0.00
   -6   24    3     -0.46      0.00
   -6   23    3      0.58      0.00
   -6   22    3      0.68      0.00
   -6   21    3      0.30      0.00
   -6   20    3      0.32      0.00
   -6   19    3     -0.49      0.00
   -6   18    3     -0.40      0.00
   -6   17    3     -0.94      0.00
   -6   16    3      0.02      0.00
   -6   15    3     -0.92      0.00
   -6   14    3     -0.48      0.00
   -6   13    3     -4.49      0.00
   -6   12    3      0.92      0.00
   -6   11    3     -6.13      0.00
   -6   10    3     -0.73      0.00
   -6    9    3     -4.71      0.00
   -6    8    3     -6.48      0.00
   -6    7    3     -3.01      0.00
   -6    6    3      4.98      0.00
   -6    5    3      6.34      0.00
   -6    4    3     -0.77      0.00
   -6    3    3      2.39      0.00
   -6    2    3      4.34      0.00
   -6    1    3     -1.76      0.00
   -6    0    3      0.79      0.00
   -6   36    3      0.30      0.00
   -6   37    3      0.29      0.00
   -6   36    2      0.67      0.00
   -6   35    2     -0.41      0.00
   -6   34    2     -0.23      0.00
   -6   33    2      0.00      0.00
   -6   32    2     -0.12      0.00
   -6   31    2      0.74      0.00
   -6   30    2      0.28      0.00
   -6   29    2     -0.34      0.00
   -6   28    2     -0.41      0.00
   -6   27    2      0.22      0.00
   -6   26    2     -0.73      0.00
   -6   25    2     -0.32      0.00
   -6   24    2      1.41      0.00
   -6   23    2     -0.02      0.00
   -6   22    2      0.74      0.00
   -6   21    2      0.78      0.00
   -6   20    2      2.08      0.00
   -6   19    2     -1.13      0.00
   -6   18    2     -0.65      0.00
   -6   17    2     -0.24      0.00
   -6   16    2      3.20      0.00
   -6   15    2      0.22      0.00
   -6   14    2     -0.86      0.00
   -6   13    2     -2.30      0.00
   -6   12    2      0.96      0.00
   -6   11    2     -5.29      0.00
   -6   10    2     -3.88      0.00
   -6    9    2     -3.51      0.00
   -6    8    2     -7.27      0.00
   -6    7    2     -3.38      0.00
   -6    6    2     -1.29      0.00
   -6    5    2      5.12      0.00
   -6    4    2      1.98      0.00
   -6    3    2     -2.21      0.00
   -6    2    2     -3.54      0.00
   -6    1    2      6.42      0.00
   -6    0    2     12.42      0.00
   -6   37    2      0.45      0.00
   -6   38    2     -1.14      0.00
   -6   36    1     -0.32      0.00
   -6   35    1     -0.05      0.00
   -6   34    1     -0.25      0.00
   -6   33    1      0.46      0.00
   -6   32    1     -0.03      0.00
   -6   31    1     -0.55      0.00
   -6   30    1      0.44      0.00
   -6   29    1      1.28      0.00
   -6   28    1     -0.77      0.00
   -6   27    1     -1.39      0.00
   -6   26    1      0.43      0.00
   -6   25    1      1.22      0.00
   -6   24    1      0.62      0.00
   -6   23    1      0.55      0.00
   -6   22    1      2.64      0.00
   -6   21    1     -1.21      0.00
   -6   20    1      0.78      0.00
   -6   19    1      1.75      0.00
   -6   18    1      2.34      0.00
   -6   17    1      0.61      0.00
   -6   16    1     -1.18      0.00
   -6   15    1      1.59      0.00
   -6   14    1      2.39      0.00
   -6   13    1      1.49      0.00
   -6   12    1     -0.36      0.00
   -6   11    1     -1.79      0.00
   -6   10    1     -6.17      0.00
   -6    9    1     -1.89      0.00
   -6    8    1     -4.48      0.00
   -6    7    1     -1.34      0.00
   -6    6    1     -6.20      0.00
   -6    5    1     -3.49      0.00
   -6    4    1      3.35      0.00
   -6    3    1      7.68      0.00
   -6    2    1     -0.49      0.00
   -6    1    1    -10.77      0.00
   -6    0    1      5.31      0.00
   -6   37    1     -0.57      0.00
   -6   38    1      0.87      0.00
   -6   39    1      1.28      0.00
    6   36    0      0.15      0.00
    6   35    0      0.26      0.00
    6   34    0     -0.30      0.00
    6   33    0     -0.06      0.00
    6   32    0      0.23      0.00
    6   31    0      0.15      0.00
    6   30    0     -0.76      0.00
    6   29    0     -0.24      0.00
    6   28    0      0.88      0.00
    6   27    0     -0.15      0.00
    6   26    0     -1.26      0.00
    6   25    0     -0.21      0.00
    6   24    0      1.29      0.00
    6   23    0      0.11      0.00
    6   22    0      1.82      0.00
    6   21    0     -2.36      0.00
    6   20    0      0.17      0.00
    6   19    0      2.31      0.00
    6   18    0      1.98      0.00
    6   17    0     -7.72      0.00
    6   16    0     -1.31      0.00
    6   15    0      2.30      0.00
    6   14    0     -1.37      0.00
    6   13    0     -6.65      0.00
    6   12    0      3.19      0.00
    6   11    0     -1.81      0.00
    6   10    0     -5.86      0.00
    6    9    0      4.75      0.00
    6    8    0     -5.79      0.00
    6    7    0     -0.31      0.00
    6    6    0      3.14      0.00
    6    5    0     -0.56      0.00
    6    4    0     -1.80      0.00
    6    3    0      7.18      0.00
    6    2    0      1.09      0.00
    6    1    0     -3.47      0.00
    6    0    0      2.58      0.00
    6   37    0     -0.57      0.00
    6   38    0      0.02      0.00
    6   39    0     -0.38      0.00
    6   36    1      0.53      0.00
    6   35    1     -0.51      0.00
    6   34    1     -0.46      0.00
    6   33    1      0.40      0.00
    6   32    1     -0.22      0.00
    6   31    1      0.40      0.00
    6   30    1      0.33      0.00
    6   29    1      0.08      0.00
    6   28    1     -0.70      0.00
    6   27    1     -0.32      0.00
    6   26    1     -0.51      0.00
    6   25    1      0.26      0.00
    6   24    1      0.52      0.00
    6   23    1     -0.53      0.00
    6   22    1     -1.24      0.00
    6   21    1     -0.42      0.00
    6   20    1      3.40      0.00
    6   19    1     -1.46      0.00
    6   18    1     -4.61      0.00
    6   17    1     -2.79      0.00
    6   16    1      4.58      0.00
    6   15    1     -3.02      0.00
    6   14    1     -4.65      0.00
    6   13    1     -4.58      0.00
    6   12    1      1.36      0.00
    6   11    1      1.82      0.00
    6   10    1      1.97      0.00
    6    9    1     -4.55      0.00
    6    8    1     -3.77      0.00
    6    7    1      7.17      0.00
    6    6    1      2.35      0.00
    6    5    1     -1.93      0.00
    6    4    1      6.41      0.00
    6    3    1      4.49      0.00
    6    2    1     -7.55      0.00
    6    1    1      2.39      0.00
    6    0    1      9.91      0.00
    6   37    1      0.19      0.00
    6   38    1     -0.19      0.00
    6   39    1      0.14      0.00
    6   36    2      0.15      0.00
    6   35    2      0.13      0.00
    6   34    2     -0.02      0.00
    6   33    2      0.17      0.00
    6   32    2      0.15      0.00
    6   31    2      0.20      0.00
    6   30    2     -0.99      0.00
    6   29    2      0.83      0.00
    6   28    2      0.46      0.00
    6   27    2     -0.65      0.00
    6   26    2     -1.32      0.00
    6   25    2      0.76      0.00
    6   24    2     -0.90      0.00
    6   23    2     -0.64      0.00
    6   22    2     -0.24      0.00
    6   21    2      0.22      0.00
    6   20    2     -0.95      0.00
    6   19    2     -0.69      0.00
    6   18    2     -0.66      0.00
    6   17    2     -0.61      0.00
    6   16    2      1.31      0.00
    6   15    2     -4.78      0.00
    6   14    2     -2.77      0.00
    6   13    2      2.59      0.00
    6   12    2      2.28      0.00
    6   11    2     -4.07      0.00
    6   10    2      1.91      0.00
    6    9    2     -1.17      0.00
    6    8    2      4.72      0.00
    6    7    2      7.01      0.00
    6    6    2     -2.62      0.00
    6    5    2     -4.63      0.00
    6    4    2      6.11      0.00
    6    3    2      4.86      0.00
    6    2    2      6.02      0.00
    6   37    2      1.07      0.00
    6   38    2     -0.29      0.00
    6   39    2     -0.50      0.00
    6   36    3      0.20      0.00
    6   35    3      0.60      0.00
    6   34    3      0.28      0.00
    6   33    3      0.41      0.00
    6   32    3     -0.37      0.00
    6   31    3     -0.61      0.00
    6   30    3     -0.12      0.00
    6   29    3      0.90      0.00
    6   28    3     -0.77      0.00
    6   27    3     -0.57      0.00
    6   26    3     -1.42      0.00
    6   25    3      0.12      0.00
    6   24    3     -0.20      0.00
    6   23    3      0.46      0.00
    6   22    3     -2.06      0.00
    6   21    3     -0.70      0.00
    6   20    3      0.83      0.00
    6   19    3      2.17      0.00
    6   18    3     -3.76      0.00
    6   17    3     -0.35      0.00
    6   16    3      3.58      0.00
    6   15    3     -1.12      0.00
    6   14    3     -1.92      0.00
    6   13    3      3.11      0.00
    6   12    3      0.42      0.00
    6   11    3     -2.50      0.00
    6   10    3      2.22      0.00
    6    9    3      1.01      0.00
    6    8    3      5.84      0.00
    6    7    3      2.97      0.00
    6    6    3     -3.89      0.00
    6    5    3     -1.46      0.00
    6    4    3      8.67      0.00
    6    3    3      0.74      0.00
    6    2    3     -0.52      0.00
    6   37    3      0.80      0.00
    6   38    3     -0.98      0.00
    6   39    3     -0.38      0.00
    6   35    4      0.56      0.00
    6   34    4     -0.15      0.00
    6   33    4     -0.31      0.00
    6   32    4      0.25      0.00
    6   31    4     -0.20      0.00
    6   30    4     -1.06      0.00
    6   29    4     -0.33      0.00
    6   28    4     -0.21      0.00
    6   27    4     -0.56      0.00
    6   26    4     -0.65      0.00
    6   25    4      0.19      0.00
    6   24    4     -1.21      0.00
    6   23    4     -0.83      0.00
    6   22    4      0.11      0.00
    6   21    4      2.01      0.00
    6   20    4     -1.63      0.00
    6   19    4      0.20      0.00
    6   18    4      0.48      0.00
    6   17    4      2.84      0.00
    6   16    4      0.57      0.00
    6   15    4     -0.96      0.00
    6   14    4      1.34      0.00
    6   13    4      4.83      0.00
    6   12    4     -3.53      0.00
    6   11    4      1.19      0.00
    6   10    4      2.24      0.00
    6    9    4     -0.59      0.00
    6    8    4      1.20      0.00
    6    7    4      2.06      0.00
    6    6    4      0.35      0.00
    6    5    4      2.19      0.00
    6    4    4     -0.73      0.00
    6    3    4     -2.50      0.00
    6    2    4      5.30      0.00
    6    1    4      8.20      0.00
    6   36    4      0.03      0.00
    6   37    4      0.83      0.00
    6   38    4      0.29      0.00
    6   39    4     -0.87      0.00
    6   35    5      0.21      0.00
    6   34    5      0.47      0.00
    6   33    5      0.83      0.00
    6   32    5     -0.81      0.00
    6   31    5     -1.20      0.00
    6   30    5     -0.22      0.00
    6   29    5     -0.21      0.00
    6   28    5     -0.12      0.00
    6   27    5     -1.32      0.00
    6   26    5      0.73      0.00
    6   25    5      0.66      0.00
    6   24    5     -1.17      0.00
    6   23    5     -0.75      0.00
    6   22    5      0.21      0.00
    6   21    5      1.37      0.00
    6   20    5     -0.05      0.00
    6   19    5     -0.44      0.00
    6   18    5      2.44      0.00
    6   17    5      2.77      0.00
    6   16    5      0.56      0.00
    6   15    5      1.15      0.00
    6   14    5      0.17      0.00
    6   13    5      2.10      0.00
    6   12    5     -2.96      0.00
    6   11    5      3.13      0.00
    6   10    5     -0.20      0.00
    6    8    5     -1.93      0.00
    6    7    5      1.60      0.00
    6    6    5     -1.23      0.00
    6    5    5      0.40      0.00
    6    4    5     -3.11      0.00
    6    3    5      0.81      0.00
    6    2    5      4.60      0.00
    6    1    5     -0.14      0.00
    6    0    5     -0.38      0.00
    6    9    5     -0.35      0.00
    6   36    5      0.02      0.00
    6   37    5     -0.49      0.00
    6   38    5      0.29      0.00
    6   39    5      0.02      0.00
    6   34    6     -0.28      0.00
    6   33    6      0.34      0.00
    6   32    6     -0.25      0.00
    6   31    6     -0.11      0.00
    6   30    6      0.55      0.00
    6   29    6     -1.00      0.00
    6   28    6     -0.57      0.00
    6   27    6      0.19      0.00
    6   26    6      1.15      0.00
    6   25    6     -0.50      0.00
    6   24    6     -0.61      0.00
    6   23    6     -0.37      0.00
    6   22    6      0.61      0.00
    6   21    6     -0.17      0.00
    6   20    6      1.48      0.00
    6   19    6     -0.79      0.00
    6   18    6      2.82      0.00
    6   17    6      0.82      0.00
    6   16    6      0.27      0.00
    6   15    6      2.00      0.00
    6   14    6      0.35      0.00
    6   13    6     -0.40      0.00
    6   12    6     -2.81      0.00
    6   11    6     -0.26      0.00
    6   10    6     -1.18      0.00
    6    9    6      3.07      0.00
    6    8    6     -4.36      0.00
    6    7    6     -3.05      0.00
    6    6    6     -1.43      0.00
    6    5    6      1.74      0.00
    6    4    6     -4.87      0.00
    6    3    6     -1.54      0.00
    6    2    6      6.30      0.00
    6    1    6     -0.44      0.00
    6    0    6     -2.56      0.00
    6   35    6      0.42      0.00
    6   36    6      0.26      0.00
    6   37    6     -0.73      0.00
    6   38    6      0.67      0.00
    6   33    7     -0.39      0.00
    6   32    7     -0.12      0.00
    6   31    7      0.17      0.00
    6   30    7      0.28      0.00
    6   29    7     -0.04      0.00
    6   28    7     -1.04      0.00
    6   27    7      0.32      0.00
    6   26    7      0.76      0.00
    6   25    7     -0.45      0.00
    6   24    7     -0.58      0.00
    6   23    7     -1.00      0.00
    6   22    7      1.41      0.00
    6   21    7     -0.90      0.00
    6   20    7      0.56      0.00
    6   19    7     -1.28      0.00
    6   18    7      4.04      0.00
    6   17    7     -0.74      0.00
    6   16    7     -1.69      0.00
    6   15    7      0.47      0.00
    6   14    7      1.69      0.00
    6   13    7     -1.61      0.00
    6   12    7     -2.79      0.00
    6   11    7     -1.07      0.00
    6   10    7     -0.98      0.00
    6    9    7      0.31      0.00
    6    8    7     -4.99      0.00
    6    7    7     -1.84      0.00
    6    6    7     -0.70      0.00
    6    5    7      0.21      0.00
    6    4    7     -3.37      0.00
    6    3    7     -0.75      0.00
    6    2    7      6.54      0.00
    6    1    7     -0.95      0.00
    6    0    7     -0.80      0.00
    6   34    7      0.21      0.00
    6   35    7      0.35      0.00
    6   36    7      0.37      0.00
    6   37    7      0.28      0.00
    6   32    8      0.17      0.00
    6   31    8      0.04      0.00
    6   30    8     -0.49      0.00
    6   29    8     -0.05      0.00
    6   28    8     -0.76      0.00
    6   27    8      0.47      0.00
    6   26    8     -1.12      0.00
    6   25    8     -0.27      0.00
    6   24    8      0.94      0.00
    6   23    8     -0.18      0.00
    6   22    8     -0.11      0.00
    6   21    8     -1.42      0.00
    6   20    8      0.45      0.00
    6   19    8     -1.02      0.00
    6   18    8      2.47      0.00
    6   17    8     -1.84      0.00
    6   16    8      0.71      0.00
    6   15    8     -0.36      0.00
    6   14    8     -0.89      0.00
    6   13    8     -1.95      0.00
    6   12    8      0.38      0.00
    6   11    8     -0.21      0.00
    6   10    8     -2.65      0.00
    6    9    8     -2.33      0.00
    6    8    8     -1.66      0.00
    6    7    8      0.51      0.00
    6    6    8     -2.67      0.00
    6    5    8      0.38      0.00
    6    4    8      2.27      0.00
    6    3    8     -0.48      0.00
    6    2    8      1.58      0.00
    6    1    8      0.94      0.00
    6    0    8      5.14      0.00
    6   33    8     -0.33      0.00
    6   34    8      0.16      0.00
    6   30    9     -0.11      0.00
    6   29    9     -0.49      0.00
    6   28    9     -1.07      0.00
    6   27    9      0.32      0.00
    6   26    9     -0.24      0.00
    6   25    9      0.59      0.00
    6   24    9     -0.66      0.00
    6   23    9      0.03      0.00
    6   22    9      0.30      0.00
    6   21    9     -0.09      0.00
    6   20    9     -0.71      0.00
    6   19    9     -0.81      0.00
    6   18    9      1.75      0.00
    6   17    9     -1.40      0.00
    6   16    9      0.70      0.00
    6   15    9     -0.63      0.00
    6   14    9      0.66      0.00
    6   13    9     -0.93      0.00
    6   12    9     -0.72      0.00
    6   11    9     -1.31      0.00
    6   10    9     -0.56      0.00
    6    9    9     -0.17      0.00
    6    8    9     -1.52      0.00
    6    7    9      0.74      0.00
    6    6    9     -0.56      0.00
    6    5    9      0.30      0.00
    6    4    9      1.40      0.00
    6    3    9      1.66      0.00
    6    2    9      1.35      0.00
    6    1    9     -0.67      0.00
    6    0    9      3.83      0.00
    6   31    9     -0.03      0.00
    6   29   10     -0.24      0.00
    6   28   10      0.17      0.00
    6   27   10      0.30      0.00
    6   26   10     -0.66      0.00
    6   25   10     -0.04      0.00
    6   24   10     -0.55      0.00
    6   23   10      0.81      0.00
    6   22   10     -0.42      0.00
    6   21   10     -0.10      0.00
    6   20   10     -0.36      0.00
    6   19   10      0.46      0.00
    6   18   10     -0.38      0.00
    6   17   10      0.03      0.00
    6   16   10      1.91      0.00
    6   15   10     -0.47      0.00
    6   14   10     -0.49      0.00
    6   13   10     -1.45      0.00
    6   12   10      0.48      0.00
    6   11   10      0.44      0.00
    6   10   10     -0.87      0.00
    6    9   10     -0.09      0.00
    6    8   10      0.53      0.00
    6    7   10      1.59      0.00
    6    6   10     -0.62      0.00
    6    5   10     -0.11      0.00
    6    4   10      1.10      0.00
    6    3   10      1.26      0.00
    6    2   10     -0.51      0.00
    6    1   10     -0.14      0.00
    6    0   10      3.95      0.00
    6   27   11     -0.42      0.00
    6   26   11     -0.81      0.00
    6   25   11     -0.52      0.00
    6   24   11      0.00      0.00
    6   23   11      0.58      0.00
    6   22   11     -0.76      0.00
    6   21   11     -0.29      0.00
    6   20   11     -0.26      0.00
    6   19   11      1.46      0.00
    6   18   11     -0.11      0.00
    6   17   11      0.51      0.00
    6   16   11      0.44      0.00
    6   15   11     -0.02      0.00
    6   14   11     -0.49      0.00
    6   13   11     -0.13      0.00
    6   12   11      0.47      0.00
    6   11   11     -0.16      0.00
    6   10   11     -0.16      0.00
    6    9   11      1.00      0.00
    6    8   11      0.61      0.00
    6    7   11      1.22      0.00
    6    6   11      0.47      0.00
    6    5   11     -0.55      0.00
    6    4   11     -1.41      0.00
    6    3   11      1.29      0.00
    6    2   11      2.00      0.00
    6    1   11     -0.89      0.00
    6    0   11     -0.63      0.00
    6   25   12     -0.65      0.00
    6   24   12      0.15      0.00
    6   23   12      0.12      0.00
    6   22   12     -0.66      0.00
    6   21   12      0.18      0.00
    6   20   12      1.00      0.00
    6   19   12      0.97      0.00
    6   18   12     -0.63      0.00
    6   17   12      0.28      0.00
    6   16   12      0.67      0.00
    6   15   12      1.08      0.00
    6   14   12     -1.30      0.00
    6   13   12      0.07      0.00
    6   12   12      0.84      0.00
    6   11   12     -0.15      0.00
    6   10   12      0.21      0.00
    6    9   12      1.10      0.00
    6    8   12      0.16      0.00
    6    7   12     -0.23      0.00
    6    6   12     -0.33      0.00
    6    5   12      0.72      0.00
    6    4   12      0.15      0.00
    6    3   12     -0.15      0.00
    6    2   12     -0.13      0.00
    6    1   12      0.38      0.00
    6    0   12     -0.48      0.00
    6   22   13     -0.03      0.00
    6   21   13      0.38      0.00
    6   20   13      0.39      0.00
    6   19   13      0.45      0.00
    6   18   13      0.63      0.00
    6   17   13      0.08      0.00
    6   16   13     -0.40      0.00
    6   15   13      0.64      0.00
    6   14   13      0.08      0.00
    6   13   13      0.24      0.00
    6   12   13     -0.03      0.00
    6   11   13      0.01      0.00
    6   10   13      0.22      0.00
    6    9   13     -0.51      0.00
    6    8   13     -0.58      0.00
    6    7   13      0.17      0.00
    6    6   13      0.36      0.00
    6    5   13      0.17      0.00
    6    4   13     -0.30      0.00
    6    3   13     -0.32      0.00
    6    2   13     -0.60      0.00
    6    1   13      0.98      0.00
    6    0   13     -0.96      0.00
    6   11   14      0.38      0.00
    6   10   14     -0.51      0.00
    6    9   14     -0.84      0.00
    6    8   14      0.12      0.00
    6    7   14     -0.69      0.00
    6    6   14     -0.13      0.00
    6    4   14      0.16      0.00
    6    3   14     -1.18      0.00
    6    2   14     -0.95      0.00
    6    1   14      0.86      0.00
    6    0   14     -0.24      0.00
   -7    3   14      0.35      0.00
   -7    2   14     -2.24      0.00
   -7    1   14     -0.21      0.00
   -7    0   14      1.63      0.00
   -7   13   13      1.12      0.00
   -7   12   13     -1.44      0.00
   -7   11   13      0.51      0.00
   -7   10   13     -0.48      0.00
   -7    9   13      0.41      0.00
   -7    8   13     -0.70      0.00
   -7    7   13      0.03      0.00
   -7    6   13     -0.87      0.00
   -7    5   13      0.16      0.00
   -7    4   13     -0.74      0.00
   -7    3   13      1.58      0.00
   -7    2   13     -0.30      0.00
   -7    1   13     -2.77      0.00
   -7   14   13      1.74      0.00
   -7   18   12     -1.61      0.00
   -7   17   12      0.07      0.00
   -7   16   12      0.71      0.00
   -7   15   12      0.50      0.00
   -7   14   12      0.42      0.00
   -7   13   12      0.38      0.00
   -7   12   12      0.54      0.00
   -7   11   12      1.56      0.00
   -7   10   12     -1.13      0.00
   -7    9   12      0.07      0.00
   -7    8   12     -0.70      0.00
   -7    7   12      0.10      0.00
   -7    6   12     -0.54      0.00
   -7    5   12      0.29      0.00
   -7    4   12      0.36      0.00
   -7    3   12     -1.05      0.00
   -7    2   12      0.59      0.00
   -7    1   12      0.06      0.00
   -7    0   12      1.05      0.00
   -7   19   12     -0.39      0.00
   -7   22   11      0.62      0.00
   -7   21   11      0.53      0.00
   -7   20   11     -0.41      0.00
   -7   19   11      0.24      0.00
   -7   18   11      0.05      0.00
   -7   17   11      0.14      0.00
   -7   16   11     -1.57      0.00
   -7   15   11      0.28      0.00
   -7   14   11      0.63      0.00
   -7   13   11      0.67      0.00
   -7   12   11      0.68      0.00
   -7   11   11     -0.27      0.00
   -7   10   11      0.01      0.00
   -7    9   11      1.90      0.00
   -7    8   11      0.23      0.00
   -7    7   11     -0.99      0.00
   -7    6   11     -1.33      0.00
   -7    5   11      0.16      0.00
   -7    4   11      1.68      0.00
   -7    3   11     -2.00      0.00
   -7    2   11      0.97      0.00
   -7    1   11     -0.38      0.00
   -7    0   11      0.07      0.00
   -7   23   11     -2.20      0.00
   -7   24   10     -0.06      0.00
   -7   23   10      0.36      0.00
   -7   22   10      0.21      0.00
   -7   21   10      0.62      0.00
   -7   20   10      0.30      0.00
   -7   19   10      0.16      0.00
   -7   18   10     -1.33      0.00
   -7   17   10      0.48      0.00
   -7   16   10     -0.06      0.00
   -7   15   10      0.02      0.00
   -7   14   10     -0.71      0.00
   -7   13   10     -0.12      0.00
   -7   12   10      0.58      0.00
   -7   11   10      0.09      0.00
   -7   10   10      0.51      0.00
   -7    9   10      0.55      0.00
   -7    8   10      1.22      0.00
   -7    7   10     -0.25      0.00
   -7    6   10     -1.35      0.00
   -7    5   10     -0.13      0.00
   -7    4   10      1.47      0.00
   -7    3   10     -1.46      0.00
   -7    2   10      0.12      0.00
   -7    1   10     -0.69      0.00
   -7    0   10      0.76      0.00
   -7   25   10     -0.39      0.00
   -7   26   10      0.90      0.00
   -7   27    9     -0.71      0.00
   -7   26    9      0.17      0.00
   -7   25    9      0.68      0.00
   -7   24    9      0.68      0.00
   -7   23    9     -0.47      0.00
   -7   22    9     -0.94      0.00
   -7   21    9      1.76      0.00
   -7   20    9     -0.05      0.00
   -7   19    9      0.82      0.00
   -7   18    9     -0.76      0.00
   -7   17    9     -0.86      0.00
   -7   16    9      0.11      0.00
   -7   15    9      0.20      0.00
   -7   14    9      0.09      0.00
   -7   13    9     -0.10      0.00
   -7   12    9     -0.07      0.00
   -7   11    9     -0.56      0.00
   -7   10    9     -0.75      0.00
   -7    9    9     -0.50      0.00
   -7    8    9      2.16      0.00
   -7    7    9      0.70      0.00
   -7    6    9     -1.11      0.00
   -7    5    9     -1.23      0.00
   -7    4    9     -0.48      0.00
   -7    3    9      0.69      0.00
   -7    2    9      1.72      0.00
   -7    1    9     -0.08      0.00
   -7    0    9     -0.42      0.00
   -7   28    9     -0.04      0.00
   -7   29    8     -0.24      0.00
   -7   28    8     -0.31      0.00
   -7   27    8      0.92      0.00
   -7   26    8      0.50      0.00
   -7   25    8      0.48      0.00
   -7   24    8     -0.36      0.00
   -7   23    8      0.61      0.00
   -7   22    8     -0.26      0.00
   -7   21    8      0.65      0.00
   -7   20    8      0.23      0.00
   -7   19    8      0.56      0.00
   -7   18    8     -0.35      0.00
   -7   17    8     -0.07      0.00
   -7   16    8      0.47      0.00
   -7   15    8     -0.53      0.00
   -7   14    8      0.47      0.00
   -7   13    8     -0.29      0.00
   -7   12    8     -0.33      0.00
   -7   11    8     -0.94      0.00
   -7   10    8      0.00      0.00
   -7    9    8     -1.22      0.00
   -7    8    8     -0.57      0.00
   -7    7    8      1.26      0.00
   -7    6    8      0.09      0.00
   -7    5    8     -2.04      0.00
   -7    4    8     -0.50      0.00
   -7    3    8      1.59      0.00
   -7    2    8      0.75      0.00
   -7    1    8      1.68      0.00
   -7   30    8     -0.44      0.00
   -7   30    7     -0.53      0.00
   -7   29    7     -0.45      0.00
   -7   28    7      0.29      0.00
   -7   27    7      0.24      0.00
   -7   26    7      0.78      0.00
   -7   25    7      1.11      0.00
   -7   24    7     -0.98      0.00
   -7   23    7      0.88      0.00
   -7   22    7      0.26      0.00
   -7   21    7     -0.21      0.00
   -7   20    7      0.10      0.00
   -7   19    7      0.62      0.00
   -7   18    7      1.79      0.00
   -7   17    7     -0.17      0.00
   -7   16    7     -0.06      0.00
   -7   15    7     -0.63      0.00
   -7   14    7     -0.35      0.00
   -7   13    7     -0.04      0.00
   -7   12    7      0.39      0.00
   -7   11    7     -2.03      0.00
   -7   10    7      0.72      0.00
   -7    9    7     -1.21      0.00
   -7    8    7     -2.13      0.00
   -7    7    7      0.50      0.00
   -7    6    7     -0.06      0.00
   -7    5    7     -0.43      0.00
   -7    4    7     -0.91      0.00
   -7    3    7     -0.47      0.00
   -7    2    7      1.86      0.00
   -7    1    7      3.24      0.00
   -7    0    7      1.11      0.00
   -7   31    7     -0.19      0.00
   -7   32    7     -0.30      0.00
   -7   32    6      0.05      0.00
   -7   31    6      0.07      0.00
   -7   30    6     -0.76      0.00
   -7   29    6     -0.24      0.00
   -7   28    6      0.82      0.00
   -7   27    6      0.12      0.00
   -7   26    6      0.10      0.00
   -7   25    6     -0.27      0.00
   -7   24    6     -0.72      0.00
   -7   23    6      0.58      0.00
   -7   22    6     -0.08      0.00
   -7   21    6      0.73      0.00
   -7   20    6      0.45      0.00
   -7   19    6     -0.33      0.00
   -7   18    6      1.98      0.00
   -7   17    6      0.47      0.00
   -7   16    6      0.79      0.00
   -7   15    6     -0.35      0.00
   -7   14    6     -0.78      0.00
   -7   13    6     -1.44      0.00
   -7   12    6      0.98      0.00
   -7   11    6     -0.27      0.00
   -7   10    6     -1.28      0.00
   -7    9    6     -1.88      0.00
   -7    8    6      0.50      0.00
   -7    7    6     -0.03      0.00
   -7    6    6     -3.30      0.00
   -7    5    6     -0.23      0.00
   -7    4    6      0.33      0.00
   -7    3    6      1.05      0.00
   -7    2    6     -1.58      0.00
   -7    1    6     -1.57      0.00
   -7    0    6      4.52      0.00
   -7   33    6     -0.34      0.00
   -7   34    6     -0.49      0.00
   -7   33    5     -0.30      0.00
   -7   32    5     -0.29      0.00
   -7   31    5      0.40      0.00
   -7   30    5      0.15      0.00
   -7   29    5     -0.16      0.00
   -7   28    5     -0.10      0.00
   -7   27    5     -0.47      0.00
   -7   26    5      0.08      0.00
   -7   25    5     -0.22      0.00
   -7   24    5     -1.23      0.00
   -7   23    5     -0.76      0.00
   -7   22    5      0.58      0.00
   -7   21    5      0.67      0.00
   -7   20    5     -0.63      0.00
   -7   19    5      0.51      0.00
   -7   18    5      1.87      0.00
   -7   17    5      0.34      0.00
   -7   16    5      0.99      0.00
   -7   15    5      0.63      0.00
   -7   14    5      1.30      0.00
   -7   13    5     -0.85      0.00
   -7   12    5     -1.40      0.00
   -7   11    5     -0.31      0.00
   -7   10    5      1.09      0.00
   -7    9    5      1.60      0.00
   -7    8    5     -2.56      0.00
   -7    7    5     -0.90      0.00
   -7    6    5     -1.03      0.00
   -7    5    5     -0.69      0.00
   -7    4    5     -3.40      0.00
   -7    3    5      1.02      0.00
   -7    2    5      0.68      0.00
   -7    1    5     -1.50      0.00
   -7    0    5      0.19      0.00
   -7   34    5     -0.36      0.00
   -7   35    5     -0.40      0.00
   -7   34    4     -0.24      0.00
   -7   33    4      0.58      0.00
   -7   32    4     -0.23      0.00
   -7   31    4     -0.22      0.00
   -7   30    4      0.03      0.00
   -7   29    4     -0.18      0.00
   -7   28    4      0.22      0.00
   -7   27    4     -0.18      0.00
   -7   26    4     -0.76      0.00
   -7   25    4     -0.25      0.00
   -7   24    4      0.11      0.00
   -7   23    4     -0.95      0.00
   -7   22    4     -1.24      0.00
   -7   21    4     -0.12      0.00
   -7   20    4      0.67      0.00
   -7   19    4      0.45      0.00
   -7   18    4     -0.52      0.00
   -7   17    4      2.50      0.00
   -7   16    4      1.66      0.00
   -7   15    4     -0.21      0.00
   -7   14    4      0.76      0.00
   -7   13    4      1.38      0.00
   -7   12    4      0.87      0.00
   -7   11    4      2.19      0.00
   -7   10    4     -0.53      0.00
   -7    9    4      1.95      0.00
   -7    8    4      0.19      0.00
   -7    7    4      1.66      0.00
   -7    6    4     -3.40      0.00
   -7    5    4     -1.67      0.00
   -7    4    4     -1.48      0.00
   -7    3    4      0.54      0.00
   -7    2    4      2.17      0.00
   -7    1    4     -1.17      0.00
   -7    0    4     -4.54      0.00
   -7   35    4     -0.15      0.00
   -7   36    4     -0.56      0.00
   -7   34    3     -0.20      0.00
   -7   33    3      0.13      0.00
   -7   32    3      0.28      0.00
   -7   31    3      0.09      0.00
   -7   30    3     -1.11      0.00
   -7   29    3     -0.23      0.00
   -7   28    3      1.13      0.00
   -7   27    3      0.47      0.00
   -7   26    3     -0.61      0.00
   -7   25    3     -1.10      0.00
   -7   24    3     -0.62      0.00
   -7   23    3     -0.11      0.00
   -7   22    3     -0.20      0.00
   -7   21    3     -0.04      0.00
   -7   20    3     -0.67      0.00
   -7   19    3      0.92      0.00
   -7   18    3     -1.19      0.00
   -7   17    3      0.89      0.00
   -7   16    3      0.04      0.00
   -7   15    3      1.84      0.00
   -7   14    3      0.31      0.00
   -7   13    3      2.36      0.00
   -7   12    3      2.28      0.00
   -7   11    3      1.07      0.00
   -7   10    3      1.35      0.00
   -7    9    3      5.61      0.00
   -7    8    3     -0.34      0.00
   -7    7    3     -1.36      0.00
   -7    6    3      1.46      0.00
   -7    5    3      0.89      0.00
   -7    4    3     -1.21      0.00
   -7    3    3      0.03      0.00
   -7    2    3      0.85      0.00
   -7    1    3     -2.26      0.00
   -7    0    3     -1.81      0.00
   -7   35    3      0.68      0.00
   -7   36    3     -0.08      0.00
   -7   37    3     -0.83      0.00
   -7   35    2     -0.19      0.00
   -7   34    2     -0.11      0.00
   -7   33    2     -0.02      0.00
   -7   32    2     -0.40      0.00
   -7   31    2      0.55      0.00
   -7   30    2      0.47      0.00
   -7   29    2      0.21      0.00
   -7   28    2     -0.51      0.00
   -7   27    2     -0.02      0.00
   -7   26    2     -0.39      0.00
   -7   25    2     -0.38      0.00
   -7   24    2      0.15      0.00
   -7   23    2     -1.49      0.00
   -7   22    2     -0.68      0.00
   -7   21    2      2.49      0.00
   -7   20    2     -0.48      0.00
   -7   19    2     -0.62      0.00
   -7   18    2     -3.47      0.00
   -7   17    2      0.02      0.00
   -7   16    2      0.42      0.00
   -7   15    2      1.25      0.00
   -7   14    2     -0.69      0.00
   -7   13    2      0.81      0.00
   -7   12    2      2.82      0.00
   -7   11    2      0.99      0.00
   -7   10    2      2.85      0.00
   -7    9    2      1.95      0.00
   -7    8    2      2.19      0.00
   -7    7    2      0.40      0.00
   -7    6    2      3.52      0.00
   -7    5    2     -0.51      0.00
   -7    4    2     -0.01      0.00
   -7    3    2     -0.79      0.00
   -7    2    2      0.14      0.00
   -7    1    2      4.09      0.00
   -7    0    2     -1.37      0.00
   -7   36    2      0.39      0.00
   -7   37    2      0.70      0.00
   -7   38    2     -1.09      0.00
   -7   35    1      0.30      0.00
   -7   34    1     -0.56      0.00
   -7   33    1     -0.32      0.00
   -7   32    1      0.40      0.00
   -7   31    1      0.37      0.00
   -7   30    1     -0.08      0.00
   -7   29    1      0.65      0.00
   -7   28    1     -0.45      0.00
   -7   27    1     -0.33      0.00
   -7   26    1     -0.28      0.00
   -7   25    1     -0.58      0.00
   -7   24    1      0.22      0.00
   -7   23    1      0.06      0.00
   -7   22    1     -0.70      0.00
   -7   21    1     -0.74      0.00
   -7   20    1     -0.09      0.00
   -7   19    1      1.72      0.00
   -7   18    1     -2.88      0.00
   -7   17    1     -2.26      0.00
   -7   16    1     -1.64      0.00
   -7   15    1     -1.19      0.00
   -7   14    1      1.12      0.00
   -7   13    1     -0.59      0.00
   -7   12    1      2.64      0.00
   -7   11    1     -2.45      0.00
   -7   10    1      1.60      0.00
   -7    9    1      2.65      0.00
   -7    8    1      6.80      0.00
   -7    7    1     -4.07      0.00
   -7    6    1     -0.81      0.00
   -7    5    1      1.76      0.00
   -7    4    1      4.31      0.00
   -7    3    1      4.06      0.00
   -7    2    1     -3.39      0.00
   -7    1    1     -1.76      0.00
   -7    0    1     -2.12      0.00
   -7   36    1      0.00      0.00
   -7   37    1     -0.20      0.00
   -7   38    1      0.05      0.00
    7   36    0     -0.30      0.00
    7   35    0      0.44      0.00
    7   34    0      0.28      0.00
    7   33    0      0.09      0.00
    7   32    0     -0.20      0.00
    7   31    0     -0.03      0.00
    7   30    0     -0.42      0.00
    7   29    0     -0.21      0.00
    7   28    0      0.09      0.00
    7   27    0     -0.17      0.00
    7   26    0     -0.08      0.00
    7   25    0      0.52      0.00
    7   24    0      0.32      0.00
    7   23    0      0.18      0.00
    7   22    0      0.48      0.00
    7   21    0      0.36      0.00
    7   20    0     -1.00      0.00
    7   19    0      1.11      0.00
    7   18    0     -0.17      0.00
    7   17    0     -0.12      0.00
    7   16    0     -1.99      0.00
    7   15    0      4.78      0.00
    7   14    0     -1.48      0.00
    7   13    0      2.47      0.00
    7   12    0      5.96      0.00
    7   11    0     -0.48      0.00
    7   10    0     -2.43      0.00
    7    9    0      5.10      0.00
    7    8    0      6.00      0.00
    7    7    0     -2.43      0.00
    7    6    0      0.62      0.00
    7    5    0     -1.77      0.00
    7    4    0      1.85      0.00
    7    3    0     -1.82      0.00
    7    2    0     -6.33      0.00
    7    1    0     -4.20      0.00
    7    0    0     -1.31      0.00
    7   37    0     -0.49      0.00
    7   38    0     -0.27      0.00
    7   39    0     -0.04      0.00
    7   36    1      0.16      0.00
    7   35    1     -0.81      0.00
    7   34    1     -0.15      0.00
    7   33    1      0.54      0.00
    7   32    1     -0.43      0.00
    7   31    1     -0.06      0.00
    7   30    1      0.27      0.00
    7   29    1      0.23      0.00
    7   28    1     -1.11      0.00
    7   27    1     -0.41      0.00
    7   26    1      0.99      0.00
    7   25    1      0.36      0.00
    7   24    1      0.80      0.00
    7   23    1     -0.66      0.00
    7   22    1      0.70      0.00
    7   21    1      1.63      0.00
    7   20    1      1.00      0.00
    7   19    1     -0.63      0.00
    7   18    1     -1.86      0.00
    7   17    1      2.11      0.00
    7   16    1      0.31      0.00
    7   15    1      1.51      0.00
    7   14    1     -0.89      0.00
    7   13    1      3.85      0.00
    7   12    1     -2.62      0.00
    7   11    1      1.63      0.00
    7   10    1      5.58      0.00
    7    9    1     -0.34      0.00
    7    8    1     -3.26      0.00
    7    7    1      0.75      0.00
    7    6    1      2.50      0.00
    7    5    1     -3.94      0.00
    7    4    1      1.91      0.00
    7    3    1     -2.03      0.00
    7    2    1     -8.91      0.00
    7    1    1     -2.67      0.00
    7    0    1     -1.26      0.00
    7   37    1      0.42      0.00
    7   38    1     -0.15      0.00
    7   39    1     -0.12      0.00
    7   35    2     -0.30      0.00
    7   34    2      0.16      0.00
    7   33    2     -0.66      0.00
    7   32    2     -0.69      0.00
    7   31    2     -0.01      0.00
    7   30    2     -0.20      0.00
    7   29    2      0.32      0.00
    7   28    2     -0.32      0.00
    7   27    2     -0.07      0.00
    7   26    2      0.54      0.00
    7   25    2      0.41      0.00
    7   24    2      0.64      0.00
    7   23    2     -1.06      0.00
    7   22    2      3.04      0.00
    7   21    2      0.68      0.00
    7   20    2     -1.11      0.00
    7   19    2     -0.63      0.00
    7   18    2      0.93      0.00
    7   17    2      0.96      0.00
    7   16    2     -1.33      0.00
    7   15    2     -0.95      0.00
    7   14    2     -1.25      0.00
    7   13    2      4.37      0.00
    7   12    2     -1.97      0.00
    7   11    2     -1.42      0.00
    7   10    2      0.61      0.00
    7    9    2      0.33      0.00
    7    8    2      0.08      0.00
    7    7    2      0.99      0.00
    7    6    2     -1.82      0.00
    7    5    2     -3.65      0.00
    7    4    2      0.60      0.00
    7    3    2     -3.43      0.00
    7   36    2     -0.42      0.00
    7   37    2      0.44      0.00
    7   38    2      0.73      0.00
    7   39    2     -1.08      0.00
    7   35    3     -0.30      0.00
    7   34    3     -0.14      0.00
    7   33    3     -0.53      0.00
    7   32    3     -0.91      0.00
    7   31    3     -0.29      0.00
    7   30    3      0.52      0.00
    7   29    3      0.26      0.00
    7   28    3     -0.78      0.00
    7   27    3      0.56      0.00
    7   26    3      0.48      0.00
    7   25    3      0.51      0.00
    7   24    3      1.26      0.00
    7   23    3      0.11      0.00
    7   22    3      1.66      0.00
    7   21    3     -2.29      0.00
    7   20    3      0.76      0.00
    7   19    3      1.34      0.00
    7   18    3     -1.17      0.00
    7   17    3     -1.81      0.00
    7   16    3     -1.21      0.00
    7   15    3     -1.57      0.00
    7   14    3      1.74      0.00
    7   13    3      0.75      0.00
    7   12    3     -4.50      0.00
    7   11    3     -1.49      0.00
    7   10    3      2.39      0.00
    7    9    3      1.45      0.00
    7    8    3     -3.09      0.00
    7    7    3     -0.91      0.00
    7    6    3      3.07      0.00
    7    5    3     -1.44      0.00
    7    4    3     -1.90      0.00
    7    3    3     -1.43      0.00
    7   36    3     -0.32      0.00
    7   37    3      0.10      0.00
    7   38    3      0.47      0.00
    7   39    3     -1.30      0.00
    7   35    4      0.02      0.00
    7   34    4     -0.49      0.00
    7   33    4     -0.59      0.00
    7   32    4     -0.33      0.00
    7   31    4      0.37      0.00
    7   30    4     -0.48      0.00
    7   29    4      0.34      0.00
    7   28    4      0.53      0.00
    7   27    4      1.11      0.00
    7   26    4     -0.01      0.00
    7   25    4      0.03      0.00
    7   24    4      0.28      0.00
    7   23    4      0.42      0.00
    7   22    4      1.07      0.00
    7   21    4     -0.76      0.00
    7   20    4     -0.23      0.00
    7   19    4     -0.35      0.00
    7   18    4     -0.93      0.00
    7   17    4     -2.35      0.00
    7   16    4     -1.05      0.00
    7   15    4     -1.41      0.00
    7   14    4      1.58      0.00
    7   13    4     -3.71      0.00
    7   12    4     -1.76      0.00
    7   11    4      3.56      0.00
    7   10    4      1.11      0.00
    7    9    4     -4.72      0.00
    7    8    4      0.16      0.00
    7    7    4      2.18      0.00
    7    6    4      3.11      0.00
    7    5    4      0.53      0.00
    7    4    4     -0.41      0.00
    7    3    4     -1.06      0.00
    7    2    4     -0.34      0.00
    7   36    4     -0.03      0.00
    7   37    4     -0.33      0.00
    7   38    4      0.65      0.00
    7   39    4     -0.45      0.00
    7   34    5     -0.08      0.00
    7   33    5     -0.17      0.00
    7   32    5     -0.75      0.00
    7   31    5      0.59      0.00
    7   30    5     -0.33      0.00
    7   29    5      0.31      0.00
    7   28    5      0.14      0.00
    7   27    5      0.81      0.00
    7   26    5      1.02      0.00
    7   25    5     -0.11      0.00
    7   24    5     -2.13      0.00
    7   23    5      0.99      0.00
    7   22    5      0.15      0.00
    7   21    5      0.60      0.00
    7   20    5     -1.04      0.00
    7   19    5     -1.56      0.00
    7   18    5      0.59      0.00
    7   17    5     -1.27      0.00
    7   16    5     -2.12      0.00
    7   15    5     -1.55      0.00
    7   14    5      0.87      0.00
    7   13    5     -2.04      0.00
    7   12    5      0.58      0.00
    7   11    5      0.96      0.00
    7   10    5      2.05      0.00
    7    9    5     -1.45      0.00
    7    8    5      1.76      0.00
    7    7    5      0.33      0.00
    7    6    5      3.54      0.00
    7    5    5      2.81      0.00
    7    4    5     -0.21      0.00
    7    3    5      0.96      0.00
    7    2    5      0.26      0.00
    7   35    5      0.27      0.00
    7   36    5      0.69      0.00
    7   37    5     -1.12      0.00
    7   38    5     -0.01      0.00
    7   33    6      0.36      0.00
    7   32    6     -0.46      0.00
    7   31    6      0.05      0.00
    7   30    6      0.55      0.00
    7   29    6     -0.19      0.00
    7   28    6     -0.22      0.00
    7   27    6      0.84      0.00
    7   26    6     -0.44      0.00
    7   25    6     -0.40      0.00
    7   24    6     -0.42      0.00
    7   23    6      1.32      0.00
    7   22    6     -2.07      0.00
    7   21    6      1.18      0.00
    7   20    6     -0.30      0.00
    7   19    6     -0.75      0.00
    7   18    6      0.29      0.00
    7   17    6     -0.74      0.00
    7   16    6     -1.42      0.00
    7   15    6      0.60      0.00
    7   14    6      0.32      0.00
    7   13    6     -0.96      0.00
    7   12    6      1.14      0.00
    7   11    6      0.20      0.00
    7   10    6      2.61      0.00
    7    9    6      1.50      0.00
    7    8    6      2.75      0.00
    7    7    6     -0.24      0.00
    7    6    6      2.59      0.00
    7    5    6      4.20      0.00
    7    4    6      0.12      0.00
    7    3    6      0.53      0.00
    7    2    6     -1.88      0.00
    7    1    6      1.08      0.00
    7    0    6     -0.82      0.00
    7   34    6     -0.35      0.00
    7   35    6     -0.67      0.00
    7   32    7      0.47      0.00
    7   31    7      0.06      0.00
    7   30    7      0.33      0.00
    7   29    7     -0.22      0.00
    7   28    7     -0.15      0.00
    7   27    7      0.43      0.00
    7   26    7      0.20      0.00
    7   25    7     -0.10      0.00
    7   24    7     -0.26      0.00
    7   23    7      0.59      0.00
    7   22    7     -0.94      0.00
    7   21    7      1.20      0.00
    7   20    7     -0.72      0.00
    7   19    7      1.24      0.00
    7   18    7     -0.02      0.00
    7   17    7     -0.64      0.00
    7   16    7     -0.14      0.00
    7   15    7      1.87      0.00
    7   14    7     -0.70      0.00
    7   13    7      0.21      0.00
    7   12    7      2.05      0.00
    7   11    7      0.72      0.00
    7   10    7      0.88      0.00
    7    9    7      1.07      0.00
    7    8    7      3.65      0.00
    7    7    7      1.53      0.00
    7    6    7      0.44      0.00
    7    5    7      2.26      0.00
    7    4    7     -0.55      0.00
    7    3    7      0.96      0.00
    7    2    7     -2.79      0.00
    7    1    7      0.48      0.00
    7    0    7     -1.99      0.00
    7   33    7     -0.85      0.00
    7   31    8     -0.73      0.00
    7   30    8     -0.34      0.00
    7   29    8      0.34      0.00
    7   28    8      0.91      0.00
    7   27    8     -0.35      0.00
    7   26    8     -0.06      0.00
    7   25    8      0.50      0.00
    7   24    8      1.17      0.00
    7   23    8     -0.40      0.00
    7   22    8     -0.45      0.00
    7   21    8      0.88      0.00
    7   20    8     -0.61      0.00
    7   19    8      0.94      0.00
    7   18    8      0.19      0.00
    7   17    8      1.10      0.00
    7   16    8     -0.21      0.00
    7   15    8      0.45      0.00
    7   14    8     -1.27      0.00
    7   13    8      1.28      0.00
    7   12    8      2.01      0.00
    7   11    8      0.40      0.00
    7   10    8     -0.34      0.00
    7    9    8      0.34      0.00
    7    8    8      3.46      0.00
    7    7    8      1.16      0.00
    7    6    8     -2.18      0.00
    7    5    8      0.57      0.00
    7    4    8      0.96      0.00
    7    3    8     -0.02      0.00
    7    2    8     -5.25      0.00
    7    1    8      1.36      0.00
    7    0    8     -0.51      0.00
    7   30    9     -0.03      0.00
    7   29    9     -0.26      0.00
    7   28    9      0.77      0.00
    7   27    9     -0.13      0.00
    7   26    9      0.06      0.00
    7   25    9      0.25      0.00
    7   24    9      0.93      0.00
    7   23    9     -0.49      0.00
    7   22    9      0.13      0.00
    7   21    9      0.01      0.00
    7   20    9      0.66      0.00
    7   19    9      0.24      0.00
    7   18    9     -0.77      0.00
    7   17    9      0.46      0.00
    7   16    9      0.13      0.00
    7   15    9      0.67      0.00
    7   14    9     -1.79      0.00
    7   13    9      0.18      0.00
    7   12    9      1.26      0.00
    7   11    9     -0.15      0.00
    7   10    9      0.04      0.00
    7    9    9      0.83      0.00
    7    8    9      1.19      0.00
    7    7    9     -0.76      0.00
    7    6    9     -1.25      0.00
    7    5    9     -0.92      0.00
    7    4    9      0.16      0.00
    7    3    9      0.81      0.00
    7    2    9     -3.75      0.00
    7    1    9     -0.08      0.00
    7    0    9      0.26      0.00
    7   28   10      0.43      0.00
    7   27   10     -0.05      0.00
    7   26   10     -0.04      0.00
    7   25   10      0.18      0.00
    7   24   10      0.28      0.00
    7   23   10     -0.18      0.00
    7   22   10      0.88      0.00
    7   21   10     -0.09      0.00
    7   20   10      0.40      0.00
    7   19   10     -0.98      0.00
    7   18   10     -0.02      0.00
    7   17   10      0.32      0.00
    7   16   10     -0.23      0.00
    7   15   10     -0.28      0.00
    7   14   10     -1.39      0.00
    7   13   10     -0.44      0.00
    7   12   10      0.57      0.00
    7   11   10      0.23      0.00
    7   10   10      0.27      0.00
    7    9   10      0.01      0.00
    7    8   10     -0.01      0.00
    7    7   10     -1.04      0.00
    7    6   10      0.30      0.00
    7    5   10     -1.26      0.00
    7    4   10     -1.61      0.00
    7    3   10      0.57      0.00
    7    2   10      0.07      0.00
    7    1   10     -0.09      0.00
    7    0   10     -0.85      0.00
    7   27   11     -0.19      0.00
    7   26   11     -0.31      0.00
    7   25   11     -0.06      0.00
    7   24   11      0.96      0.00
    7   23   11      1.10      0.00
    7   22   11      0.11      0.00
    7   21   11     -1.09      0.00
    7   20   11      0.10      0.00
    7   19   11      0.14      0.00
    7   18   11      0.50      0.00
    7   17   11     -1.00      0.00
    7   16   11     -0.16      0.00
    7   15   11     -0.46      0.00
    7   14   11     -0.88      0.00
    7   13   11      0.26      0.00
    7   12   11      0.17      0.00
    7   11   11     -0.71      0.00
    7   10   11     -0.06      0.00
    7    9   11     -0.17      0.00
    7    8   11      0.62      0.00
    7    7   11     -0.40      0.00
    7    6   11     -0.21      0.00
    7    5   11     -1.23      0.00
    7    4   11     -0.81      0.00
    7    3   11      0.14      0.00
    7    2   11      1.18      0.00
    7    1   11     -0.85      0.00
    7    0   11     -0.91      0.00
    7   22   12      0.03      0.00
    7   21   12     -0.06      0.00
    7   20   12     -0.22      0.00
    7   19   12     -0.31      0.00
    7   18   12      0.08      0.00
    7   17   12     -0.58      0.00
    7   16   12      0.00      0.00
    7   15   12      0.08      0.00
    7   14   12     -0.08      0.00
    7   13   12     -0.05      0.00
    7   12   12     -1.25      0.00
    7   11   12     -0.67      0.00
    7   10   12      1.42      0.00
    7    9   12      0.39      0.00
    7    8   12     -0.91      0.00
    7    7   12     -0.88      0.00
    7    6   12      0.97      0.00
    7    5   12      0.50      0.00
    7    4   12     -0.61      0.00
    7    3   12     -1.99      0.00
    7    2   12      1.62      0.00
    7    1   12      0.25      0.00
    7    0   12     -0.97      0.00
   -8   10   13      1.86      0.00
   -8    9   13     -0.65      0.00
   -8    8   13     -0.53      0.00
   -8    7   13     -0.86      0.00
   -8    6   13      0.45      0.00
   -8    5   13     -0.69      0.00
   -8    4   13     -0.42      0.00
   -8    3   13      0.51      0.00
   -8    2   13      0.81      0.00
   -8    1   13     -1.93      0.00
   -8    0   13      0.12      0.00
   -8   11   13     -0.84      0.00
   -8   16   12      0.97      0.00
   -8   15   12     -0.56      0.00
   -8   14   12     -0.03      0.00
   -8   13   12     -0.08      0.00
   -8   12   12      0.07      0.00
   -8   11   12      0.58      0.00
   -8   10   12      0.08      0.00
   -8    9   12     -1.20      0.00
   -8    8   12      0.59      0.00
   -8    7   12     -0.07      0.00
   -8    6   12      0.13      0.00
   -8    5   12     -0.52      0.00
   -8    4   12     -0.38      0.00
   -8    3   12     -0.47      0.00
   -8    2   12     -0.60      0.00
   -8    1   12      1.07      0.00
   -8    0   12      0.14      0.00
   -8   17   12     -1.09      0.00
   -8   20   11     -0.39      0.00
   -8   19   11      0.00      0.00
   -8   18   11      1.36      0.00
   -8   17   11      0.32      0.00
   -8   16   11     -0.06      0.00
   -8   15   11     -0.74      0.00
   -8   14   11      0.35      0.00
   -8   13   11     -0.25      0.00
   -8   12   11      0.06      0.00
   -8   11   11     -0.63      0.00
   -8   10   11     -0.11      0.00
   -8    9   11      0.42      0.00
   -8    8   11      0.03      0.00
   -8    7   11     -0.10      0.00
   -8    6   11      0.18      0.00
   -8    5   11     -0.12      0.00
   -8    4   11     -0.27      0.00
   -8    3   11     -0.20      0.00
   -8    2   11     -0.80      0.00
   -8    1   11      1.31      0.00
   -8    0   11     -0.61      0.00
   -8   21   11      1.26      0.00
   -8   23   10      0.25      0.00
   -8   22   10     -0.45      0.00
   -8   21   10      0.09      0.00
   -8   20   10      1.07      0.00
   -8   19   10     -0.40      0.00
   -8   18   10      0.16      0.00
   -8   17   10      0.61      0.00
   -8   16   10      0.65      0.00
   -8   15   10      0.09      0.00
   -8   14   10     -0.30      0.00
   -8   13   10     -0.69      0.00
   -8   12   10      0.41      0.00
   -8   11   10      0.42      0.00
   -8   10   10     -0.25      0.00
   -8    9   10     -0.56      0.00
   -8    8   10     -0.17      0.00
   -8    7   10      0.63      0.00
   -8    6   10     -0.37      0.00
   -8    5   10      0.28      0.00
   -8    4   10      0.63      0.00
   -8    3   10     -0.41      0.00
   -8    2   10     -0.96      0.00
   -8    1   10      0.55      0.00
   -8    0   10      0.02      0.00
   -8   24   10     -0.81      0.00
   -8   25    9     -0.86      0.00
   -8   24    9     -0.38      0.00
   -8   23    9      0.12      0.00
   -8   22    9     -0.37      0.00
   -8   21    9      0.12      0.00
   -8   20    9      0.85      0.00
   -8   19    9      0.54      0.00
   -8   18    9      0.28      0.00
   -8   17    9     -0.65      0.00
   -8   16    9      0.03      0.00
   -8   15    9      0.44      0.00
   -8   14    9      0.57      0.00
   -8   13    9      0.85      0.00
   -8   12    9      0.12      0.00
   -8   11    9      0.05      0.00
   -8   10    9     -0.33      0.00
   -8    9    9     -0.49      0.00
   -8    8    9      0.20      0.00
   -8    7    9      0.52      0.00
   -8    6    9      0.45      0.00
   -8    5    9     -0.31      0.00
   -8    4    9     -0.59      0.00
   -8    3    9      0.04      0.00
   -8    2    9      1.20      0.00
   -8    1    9     -0.11      0.00
   -8    0    9     -0.64      0.00
   -8   26    9      0.42      0.00
   -8   27    9     -0.64      0.00
   -8   27    8      0.00      0.00
   -8   26    8      0.17      0.00
   -8   25    8     -0.85      0.00
   -8   24    8     -0.81      0.00
   -8   23    8     -0.38      0.00
   -8   22    8      0.38      0.00
   -8   21    8     -0.16      0.00
   -8   20    8     -0.06      0.00
   -8   19    8      0.37      0.00
   -8   18    8     -0.38      0.00
   -8   17    8      0.59      0.00
   -8   16    8      0.34      0.00
   -8   15    8     -0.65      0.00
   -8   14    8      0.81      0.00
   -8   13    8      0.77      0.00
   -8   12    8     -0.17      0.00
   -8   11    8      0.79      0.00
   -8   10    8      0.58      0.00
   -8    9    8     -0.93      0.00
   -8    8    8     -0.85      0.00
   -8    7    8      0.53      0.00
   -8    6    8      2.07      0.00
   -8    5    8     -1.41      0.00
   -8    4    8     -1.01      0.00
   -8    3    8      0.24      0.00
   -8    2    8      0.65      0.00
   -8    1    8      1.52      0.00
   -8    0    8      1.38      0.00
   -8   28    8     -1.31      0.00
   -8   29    8     -1.13      0.00
   -8   29    7     -0.82      0.00
   -8   28    7     -0.19      0.00
   -8   27    7     -0.59      0.00
   -8   26    7     -0.92      0.00
   -8   25    7      0.37      0.00
   -8   24    7     -0.95      0.00
   -8   23    7     -0.65      0.00
   -8   22    7     -0.35      0.00
   -8   21    7     -1.19      0.00
   -8   20    7     -0.78      0.00
   -8   19    7      0.31      0.00
   -8   18    7      0.01      0.00
   -8   17    7      0.73      0.00
   -8   16    7      0.09      0.00
   -8   15    7     -0.68      0.00
   -8   14    7     -0.27      0.00
   -8   13    7      0.03      0.00
   -8   12    7      1.20      0.00
   -8   11    7     -0.03      0.00
   -8   10    7     -0.32      0.00
   -8    9    7     -0.34      0.00
   -8    8    7     -0.35      0.00
   -8    7    7     -0.40      0.00
   -8    6    7      1.08      0.00
   -8    5    7     -0.51      0.00
   -8    4    7     -0.02      0.00
   -8    3    7     -0.08      0.00
   -8    2    7     -0.18      0.00
   -8    1    7      2.16      0.00
   -8    0    7      1.43      0.00
   -8   30    7     -0.62      0.00
   -8   31    7     -0.38      0.00
   -8   31    6      0.49      0.00
   -8   30    6     -0.05      0.00
   -8   29    6     -0.80      0.00
   -8   28    6      0.20      0.00
   -8   27    6      0.64      0.00
   -8   26    6     -0.75      0.00
   -8   25    6     -0.48      0.00
   -8   24    6     -1.03      0.00
   -8   23    6      0.16      0.00
   -8   22    6     -0.63      0.00
   -8   21    6     -0.88      0.00
   -8   20    6     -1.43      0.00
   -8   19    6     -0.93      0.00
   -8   18    6      0.44      0.00
   -8   17    6      0.39      0.00
   -8   16    6     -0.22      0.00
   -8   15    6     -0.31      0.00
   -8   14    6      0.07      0.00
   -8   13    6     -1.21      0.00
   -8   12    6      0.03      0.00
   -8   11    6      0.14      0.00
   -8   10    6     -0.15      0.00
   -8    9    6     -1.69      0.00
   -8    8    6     -0.45      0.00
   -8    7    6      0.25      0.00
   -8    6    6      0.86      0.00
   -8    5    6      0.64      0.00
   -8    4    6     -0.64      0.00
   -8    3    6      0.22      0.00
   -8    2    6      0.72      0.00
   -8    1    6      0.61      0.00
   -8    0    6     -0.40      0.00
   -8   32    6     -0.01      0.00
   -8   33    6     -0.88      0.00
   -8   32    5      0.76      0.00
   -8   31    5     -0.16      0.00
   -8   30    5      0.23      0.00
   -8   29    5      0.54      0.00
   -8   28    5      0.07      0.00
   -8   27    5      0.21      0.00
   -8   26    5      0.06      0.00
   -8   25    5      0.02      0.00
   -8   24    5     -0.52      0.00
   -8   23    5      0.44      0.00
   -8   22    5     -0.12      0.00
   -8   21    5     -0.21      0.00
   -8   20    5     -1.15      0.00
   -8   19    5     -0.89      0.00
   -8   18    5     -0.57      0.00
   -8   17    5     -0.41      0.00
   -8   16    5      1.73      0.00
   -8   15    5     -0.72      0.00
   -8   14    5     -0.46      0.00
   -8   13    5     -0.78      0.00
   -8   12    5     -0.99      0.00
   -8   11    5     -2.15      0.00
   -8   10    5     -0.59      0.00
   -8    9    5     -0.20      0.00
   -8    8    5      0.27      0.00
   -8    7    5     -0.95      0.00
   -8    6    5     -1.19      0.00
   -8    5    5      2.03      0.00
   -8    4    5      1.93      0.00
   -8    3    5     -0.31      0.00
   -8    2    5     -1.18      0.00
   -8    1    5      0.95      0.00
   -8    0    5      1.48      0.00
   -8   33    5     -0.21      0.00
   -8   34    5      0.22      0.00
   -8   33    4     -0.02      0.00
   -8   32    4      0.43      0.00
   -8   31    4      0.12      0.00
   -8   30    4      0.83      0.00
   -8   29    4      0.00      0.00
   -8   28    4     -0.22      0.00
   -8   27    4      0.38      0.00
   -8   26    4      0.40      0.00
   -8   25    4      0.55      0.00
   -8   24    4      0.48      0.00
   -8   23    4      0.08      0.00
   -8   22    4     -0.32      0.00
   -8   21    4      0.52      0.00
   -8   20    4     -0.21      0.00
   -8   19    4     -0.37      0.00
   -8   18    4      0.57      0.00
   -8   17    4     -0.30      0.00
   -8   16    4      1.03      0.00
   -8   15    4     -1.56      0.00
   -8   14    4      0.94      0.00
   -8   13    4     -1.00      0.00
   -8   12    4     -1.27      0.00
   -8   11    4     -2.13      0.00
   -8   10    4     -2.48      0.00
   -8    9    4     -1.17      0.00
   -8    8    4      1.06      0.00
   -8    7    4      0.22      0.00
   -8    6    4     -2.18      0.00
   -8    5    4      0.18      0.00
   -8    4    4      0.47      0.00
   -8    3    4      1.12      0.00
   -8    2    4      2.87      0.00
   -8    1    4      0.04      0.00
   -8    0    4     -2.47      0.00
   -8   34    4      0.40      0.00
   -8   35    4     -0.08      0.00
   -8   36    4      0.47      0.00
   -8   33    3     -0.23      0.00
   -8   32    3     -0.14      0.00
   -8   31    3      0.10      0.00
   -8   30    3      0.05      0.00
   -8   29    3     -0.27      0.00
   -8   28    3      0.66      0.00
   -8   27    3      0.49      0.00
   -8   26    3      0.52      0.00
   -8   25    3     -0.29      0.00
   -8   24    3     -0.41      0.00
   -8   23    3      0.21      0.00
   -8   22    3      0.27      0.00
   -8   21    3      0.66      0.00
   -8   20    3      0.70      0.00
   -8   19    3      0.32      0.00
   -8   18    3      1.28      0.00
   -8   17    3     -0.92      0.00
   -8   16    3      1.45      0.00
   -8   15    3     -0.75      0.00
   -8   14    3      0.38      0.00
   -8   13    3     -0.34      0.00
   -8   12    3     -0.11      0.00
   -8   11    3     -3.03      0.00
   -8   10    3     -3.26      0.00
   -8    9    3     -0.02      0.00
   -8    8    3     -1.31      0.00
   -8    7    3      1.06      0.00
   -8    6    3     -1.11      0.00
   -8    5    3     -2.99      0.00
   -8    4    3     -1.28      0.00
   -8    3    3      4.81      0.00
   -8    2    3      1.40      0.00
   -8    1    3     -3.18      0.00
   -8    0    3      1.74      0.00
   -8   34    3      0.48      0.00
   -8   35    3      0.43      0.00
   -8   36    3     -0.22      0.00
   -8   37    3     -1.99      0.00
   -8   34    2      0.02      0.00
   -8   33    2     -0.28      0.00
   -8   32    2     -1.15      0.00
   -8   31    2     -0.12      0.00
   -8   30    2      0.67      0.00
   -8   29    2     -0.10      0.00
   -8   28    2     -0.57      0.00
   -8   27    2     -0.15      0.00
   -8   26    2      1.15      0.00
   -8   25    2     -0.32      0.00
   -8   24    2     -0.98      0.00
   -8   23    2     -1.15      0.00
   -8   22    2      0.53      0.00
   -8   21    2      1.64      0.00
   -8   20    2      0.40      0.00
   -8   19    2      0.23      0.00
   -8   18    2      2.05      0.00
   -8   17    2     -0.96      0.00
   -8   16    2      0.58      0.00
   -8   15    2      0.66      0.00
   -8   14    2      1.31      0.00
   -8   13    2      0.51      0.00
   -8   12    2     -1.72      0.00
   -8   11    2     -1.83      0.00
   -8   10    2     -2.06      0.00
   -8    9    2      0.26      0.00
   -8    8    2     -2.83      0.00
   -8    7    2      1.36      0.00
   -8    6    2     -0.77      0.00
   -8    5    2     -0.72      0.00
   -8    4    2     -3.98      0.00
   -8    3    2     -1.10      0.00
   -8    2    2      3.61      0.00
   -8    1    2      6.65      0.00
   -8    0    2      1.26      0.00
   -8   35    2     -0.86      0.00
   -8   36    2      0.20      0.00
   -8   37    2      0.37      0.00
   -8   34    1     -0.33      0.00
   -8   33    1     -0.92      0.00
   -8   32    1     -0.68      0.00
   -8   31    1     -0.03      0.00
   -8   30    1      0.09      0.00
   -8   29    1      0.10      0.00
   -8   28    1     -1.07      0.00
   -8   27    1     -0.94      0.00
   -8   26    1      0.84      0.00
   -8   25    1      0.01      0.00
   -8   24    1     -0.75      0.00
   -8   23    1     -1.21      0.00
   -8   22    1     -0.09      0.00
   -8   21    1      0.68      0.00
   -8   20    1      0.81      0.00
   -8   19    1      0.79      0.00
   -8   18    1      0.61      0.00
   -8   17    1      0.87      0.00
   -8   16    1      0.23      0.00
   -8   15    1      0.18      0.00
   -8   14    1      1.61      0.00
   -8   13    1      1.97      0.00
   -8   12    1     -2.56      0.00
   -8   11    1     -1.15      0.00
   -8   10    1     -1.83      0.00
   -8    9    1      1.30      0.00
   -8    8    1     -0.77      0.00
   -8    7    1      0.35      0.00
   -8    6    1     -3.08      0.00
   -8    5    1     -1.42      0.00
   -8    4    1     -1.35      0.00
   -8    3    1      4.24      0.00
   -8    2    1      3.17      0.00
   -8    1    1     -2.00      0.00
   -8    0    1      2.42      0.00
   -8   35    1      0.22      0.00
   -8   36    1      0.40      0.00
   -8   37    1      0.09      0.00
   -8   38    1      0.54      0.00
    8   35    0      0.17      0.00
    8   34    0      0.21      0.00
    8   33    0     -0.16      0.00
    8   32    0     -0.08      0.00
    8   31    0      0.04      0.00
    8   30    0     -0.70      0.00
    8   29    0     -0.19      0.00
    8   28    0     -0.30      0.00
    8   27    0      0.97      0.00
    8   26    0     -0.20      0.00
    8   25    0      0.28      0.00
    8   24    0     -0.78      0.00
    8   23    0      0.11      0.00
    8   22    0      0.43      0.00
    8   21    0      0.86      0.00
    8   20    0     -1.25      0.00
    8   19    0     -1.76      0.00
    8   18    0      1.78      0.00
    8   17    0     -1.52      0.00
    8   16    0     -0.93      0.00
    8   15    0     -0.12      0.00
    8   14    0      0.16      0.00
    8   13    0     -1.23      0.00
    8   12    0      1.20      0.00
    8   11    0     -0.96      0.00
    8   10    0     -4.04      0.00
    8    9    0      1.91      0.00
    8    8    0      2.11      0.00
    8    7    0     -0.20      0.00
    8    6    0     -1.59      0.00
    8    5    0     -1.78      0.00
    8    4    0     -1.04      0.00
    8    3    0      1.60      0.00
    8    2    0      4.03      0.00
    8    1    0     -5.28      0.00
    8    0    0      1.75      0.00
    8   36    0      0.59      0.00
    8   37    0     -0.76      0.00
    8   38    0     -0.21      0.00
    8   39    0      0.05      0.00
    8   35    1     -0.76      0.00
    8   34    1      0.90      0.00
    8   33    1     -0.05      0.00
    8   32    1     -0.30      0.00
    8   31    1      0.05      0.00
    8   30    1      0.72      0.00
    8   29    1     -0.69      0.00
    8   28    1     -0.85      0.00
    8   27    1      0.98      0.00
    8   26    1      0.00      0.00
    8   25    1     -0.26      0.00
    8   24    1     -0.99      0.00
    8   23    1      1.19      0.00
    8   22    1      0.07      0.00
    8   21    1     -0.96      0.00
    8   20    1     -0.98      0.00
    8   19    1      0.44      0.00
    8   18    1      0.57      0.00
    8   17    1     -2.74      0.00
    8   16    1     -0.12      0.00
    8   15    1      2.02      0.00
    8   14    1      1.68      0.00
    8   13    1     -1.97      0.00
    8   12    1     -2.40      0.00
    8   11    1      1.36      0.00
    8   10    1      4.26      0.00
    8    9    1      0.53      0.00
    8    8    1     -2.37      0.00
    8    7    1      1.40      0.00
    8    6    1      1.49      0.00
    8    5    1     -0.55      0.00
    8    4    1      1.66      0.00
    8    3    1     -1.60      0.00
    8    2    1      0.48      0.00
    8    1    1     -4.15      0.00
    8   36    1     -0.33      0.00
    8   37    1     -0.18      0.00
    8   38    1      0.32      0.00
    8   39    1      0.03      0.00
    8   35    2      0.40      0.00
    8   34    2      0.25      0.00
    8   33    2     -0.67      0.00
    8   32    2      0.47      0.00
    8   31    2      0.80      0.00
    8   30    2      0.00      0.00
    8   29    2     -1.15      0.00
    8   28    2      1.08      0.00
    8   27    2      0.87      0.00
    8   26    2     -1.14      0.00
    8   25    2     -0.49      0.00
    8   24    2     -0.25      0.00
    8   23    2      1.03      0.00
    8   22    2     -0.66      0.00
    8   21    2     -0.77      0.00
    8   20    2     -0.19      0.00
    8   19    2     -0.17      0.00
    8   18    2     -0.23      0.00
    8   17    2     -0.17      0.00
    8   16    2      1.24      0.00
    8   15    2      2.08      0.00
    8   14    2     -0.52      0.00
    8   13    2      0.12      0.00
    8   12    2      1.50      0.00
    8   11    2      0.35      0.00
    8   10    2      2.60      0.00
    8    9    2     -0.06      0.00
    8    8    2     -0.95      0.00
    8    7    2      4.46      0.00
    8    6    2      2.13      0.00
    8    5    2     -4.41      0.00
    8    4    2     -1.38      0.00
    8    3    2     -1.94      0.00
    8   36    2      0.09      0.00
    8   37    2     -0.30      0.00
    8   38    2      0.18      0.00
    8   39    2     -0.37      0.00
    8   34    3      0.32      0.00
    8   33    3     -0.38      0.00
    8   32    3      0.19      0.00
    8   31    3      0.89      0.00
    8   30    3      0.23      0.00
    8   29    3     -1.00      0.00
    8   28    3      0.33      0.00
    8   27    3      0.04      0.00
    8   26    3     -0.04      0.00
    8   25    3      0.11      0.00
    8   24    3     -0.13      0.00
    8   23    3      0.11      0.00
    8   22    3     -0.89      0.00
    8   21    3     -1.19      0.00
    8   20    3      0.48      0.00
    8   19    3      0.89      0.00
    8   18    3     -0.33      0.00
    8   17    3      0.59      0.00
    8   16    3      0.44      0.00
    8   15    3      2.87      0.00
    8   14    3      0.70      0.00
    8   13    3      0.84      0.00
    8   12    3      2.01      0.00
    8   11    3     -0.44      0.00
    8   10    3     -0.76      0.00
    8    9    3      2.37      0.00
    8    8    3      1.05      0.00
    8    7    3     -0.16      0.00
    8    6    3     -0.43      0.00
    8    5    3     -1.20      0.00
    8   35    3      0.61      0.00
    8   36    3      0.26      0.00
    8   37    3     -0.29      0.00
    8   38    3      0.38      0.00
    8   34    4     -0.12      0.00
    8   33    4     -0.27      0.00
    8   32    4      0.44      0.00
    8   31    4     -0.02      0.00
    8   30    4     -0.54      0.00
    8   29    4      0.07      0.00
    8   28    4      0.70      0.00
    8   27    4     -0.13      0.00
    8   26    4     -0.33      0.00
    8   25    4     -1.38      0.00
    8   24    4      0.98      0.00
    8   23    4      0.28      0.00
    8   22    4     -0.53      0.00
    8   21    4     -0.11      0.00
    8   20    4      0.35      0.00
    8   19    4     -0.03      0.00
    8   18    4     -0.26      0.00
    8   17    4      1.78      0.00
    8   16    4      1.47      0.00
    8   15    4      1.57      0.00
    8   14    4      0.28      0.00
    8   13    4      1.37      0.00
    8   12    4      0.66      0.00
    8   11    4      1.78      0.00
    8   10    4     -1.23      0.00
    8    9    4     -0.23      0.00
    8    8    4     -1.27      0.00
    8    7    4     -1.90      0.00
    8    6    4      1.27      0.00
    8    5    4      2.01      0.00
    8   35    4      0.04      0.00
    8   36    4      0.76      0.00
    8   34    5     -0.18      0.00
    8   33    5      0.08      0.00
    8   32    5      0.30      0.00
    8   31    5     -0.57      0.00
    8   30    5     -0.66      0.00
    8   29    5      0.40      0.00
    8   28    5      0.74      0.00
    8   27    5     -0.38      0.00
    8   26    5      0.41      0.00
    8   25    5     -1.36      0.00
    8   24    5      0.31      0.00
    8   23    5     -0.08      0.00
    8   22    5      0.63      0.00
    8   21    5      0.54      0.00
    8   20    5      0.22      0.00
    8   19    5     -0.24      0.00
    8   18    5      1.02      0.00
    8   17    5      0.83      0.00
    8   16    5      0.52      0.00
    8   15    5      1.14      0.00
    8   14    5      0.35      0.00
    8   13    5      1.32      0.00
    8   12    5     -0.18      0.00
    8   11    5      0.77      0.00
    8   10    5     -2.31      0.00
    8    9    5     -0.62      0.00
    8    8    5     -0.34      0.00
    8    7    5     -1.66      0.00
    8    6    5     -2.39      0.00
    8    5    5     -1.35      0.00
    8    4    5      0.81      0.00
    8   33    6      0.44      0.00
    8   32    6     -0.55      0.00
    8   31    6      0.14      0.00
    8   30    6      1.12      0.00
    8   29    6     -0.55      0.00
    8   28    6     -0.57      0.00
    8   27    6     -0.22      0.00
    8   26    6     -0.23      0.00
    8   25    6     -0.03      0.00
    8   24    6      1.18      0.00
    8   23    6     -0.91      0.00
    8   22    6     -0.24      0.00
    8   21    6      0.43      0.00
    8   20    6      1.39      0.00
    8   19    6     -0.86      0.00
    8   18    6      0.34      0.00
    8   17    6      0.61      0.00
    8   16    6      0.30      0.00
    8   15    6     -0.26      0.00
    8   14    6      0.27      0.00
    8   13    6      0.73      0.00
    8   12    6     -0.93      0.00
    8   11    6     -0.75      0.00
    8   10    6     -1.88      0.00
    8    9    6     -0.22      0.00
    8    8    6     -1.00      0.00
    8    7    6     -2.85      0.00
    8    6    6     -1.53      0.00
    8    5    6     -1.22      0.00
    8    4    6     -0.41      0.00
    8   32    7      0.08      0.00
    8   31    7     -0.37      0.00
    8   30    7     -0.08      0.00
    8   29    7      0.40      0.00
    8   28    7     -0.35      0.00
    8   27    7     -0.76      0.00
    8   26    7     -0.63      0.00
    8   25    7      0.72      0.00
    8   24    7      0.00      0.00
    8   23    7     -0.77      0.00
    8   22    7      0.02      0.00
    8   21    7      0.02      0.00
    8   20    7      0.75      0.00
    8   19    7     -1.08      0.00
    8   18    7     -0.34      0.00
    8   17    7      0.04      0.00
    8   16    7      1.00      0.00
    8   15    7     -1.50      0.00
    8   14    7     -0.92      0.00
    8   13    7      1.08      0.00
    8   12    7      0.44      0.00
    8   11    7     -1.82      0.00
    8   10    7     -2.56      0.00
    8    9    7     -0.58      0.00
    8    8    7      0.38      0.00
    8    7    7     -1.99      0.00
    8    6    7     -1.77      0.00
    8    5    7     -0.89      0.00
    8    4    7      0.95      0.00
    8    3    7     -1.61      0.00
    8    2    7     -0.39      0.00
    8   31    8     -0.65      0.00
    8   30    8     -0.58      0.00
    8   29    8      0.67      0.00
    8   28    8     -0.64      0.00
    8   27    8     -0.67      0.00
    8   26    8      0.52      0.00
    8   25    8      0.50      0.00
    8   24    8     -1.42      0.00
    8   23    8      0.08      0.00
    8   22    8     -0.18      0.00
    8   21    8      0.13      0.00
    8   20    8     -0.55      0.00
    8   19    8     -0.81      0.00
    8   18    8      0.55      0.00
    8   17    8     -0.55      0.00
    8   16    8     -0.19      0.00
    8   15    8     -0.62      0.00
    8   14    8      0.42      0.00
    8   13    8     -0.05      0.00
    8   12    8      0.05      0.00
    8   11    8     -0.27      0.00
    8   10    8     -0.56      0.00
    8    9    8     -1.82      0.00
    8    8    8     -0.47      0.00
    8    7    8      0.81      0.00
    8    6    8     -0.62      0.00
    8    5    8     -1.68      0.00
    8    3    8      1.48      0.00
    8    2    8      0.88      0.00
    8    1    8     -0.12      0.00
    8    0    8      1.20      0.00
    8   30    9     -0.19      0.00
    8   29    9      0.01      0.00
    8   28    9      0.24      0.00
    8   27    9     -0.05      0.00
    8   26    9      0.17      0.00
    8   25    9      0.05      0.00
    8   24    9     -0.51      0.00
    8   23    9      0.20      0.00
    8   22    9     -0.80      0.00
    8   21    9      0.91      0.00
    8   20    9     -0.81      0.00
    8   19    9     -0.36      0.00
    8   18    9      0.31      0.00
    8   17    9     -0.35      0.00
    8   16    9     -0.30      0.00
    8   15    9      0.37      0.00
    8   14    9      0.79      0.00
    8   13    9     -0.38      0.00
    8   12    9      0.35      0.00
    8   11    9      0.14      0.00
    8   10    9      0.51      0.00
    8    9    9     -0.40      0.00
    8    8    9     -1.02      0.00
    8    7    9      0.50      0.00
    8    6    9      1.00      0.00
    8    5    9     -0.54      0.00
    8    4    9      1.13      0.00
    8    3    9      2.35      0.00
    8    2    9      1.25      0.00
    8    1    9     -0.58      0.00
    8    0    9     -0.89      0.00
    8   26   10      0.16      0.00
    8   25   10     -0.57      0.00
    8   24   10     -0.04      0.00
    8   23   10      0.14      0.00
    8   22   10     -0.05      0.00
    8   21   10      0.28      0.00
    8   20   10     -1.02      0.00
    8   19   10      0.89      0.00
    8   18   10     -0.08      0.00
    8   17   10     -0.38      0.00
    8   16   10      0.05      0.00
    8   15   10      0.88      0.00
    8   14   10      0.12      0.00
    8   13   10     -0.69      0.00
    8   12   10      0.52      0.00
    8   11   10      1.18      0.00
    8   10   10      0.43      0.00
    8    9   10     -0.20      0.00
    8    8   10     -0.25      0.00
    8    7   10      0.35      0.00
    8    6   10      1.20      0.00
    8    5   10      0.03      0.00
    8    4   10     -0.87      0.00
    8    3   10      2.18      0.00
    8    2   10      1.27      0.00
    8    1   10     -0.91      0.00
    8    0   10     -1.56      0.00
    8   19   11      1.39      0.00
    8   17   11     -0.13      0.00
    8   16   11     -0.79      0.00
    8   15   11     -0.07      0.00
    8   14   11      0.72      0.00
    8   13   11      0.57      0.00
    8   12   11     -0.73      0.00
    8   11   11      0.34      0.00
    8   10   11      0.76      0.00
    8    9   11      0.65      0.00
    8    8   11      0.58      0.00
    8    7   11     -0.34      0.00
    8    6   11      0.05      0.00
    8    5   11      1.34      0.00
    8    4   11     -1.57      0.00
    8    3   11      0.21      0.00
    8    2   11      1.30      0.00
    8    1   11      0.48      0.00
    8    0   11     -1.27      0.00
   -9    5   13      0.02      0.00
   -9    4   13      1.18      0.00
   -9    3   13     -0.01      0.00
   -9    2   13     -1.28      0.00
   -9    1   13     -1.09      0.00
   -9    0   13      1.12      0.00
   -9    6   13     -0.69      0.00
   -9   13   12      1.15      0.00
   -9   12   12      0.50      0.00
   -9   11   12      0.12      0.00
   -9   10   12     -0.53      0.00
   -9    9   12     -0.64      0.00
   -9    8   12     -0.44      0.00
   -9    7   12      1.98      0.00
   -9    6   12      0.30      0.00
   -9    5   12     -0.67      0.00
   -9    4   12     -0.01      0.00
   -9    3   12      0.14      0.00
   -9    2   12     -0.48      0.00
   -9    1   12     -0.54      0.00
   -9    0   12      1.00      0.00
   -9   14   12     -1.26      0.00
   -9   15   12      0.09      0.00
   -9   18   11     -0.02      0.00
   -9   17   11     -0.42      0.00
   -9   16   11     -0.56      0.00
   -9   15   11      0.12      0.00
   -9   14   11      0.35      0.00
   -9   13   11     -0.11      0.00
   -9   12   11     -0.24      0.00
   -9   11   11      0.21      0.00
   -9   10   11     -0.18      0.00
   -9    9   11      0.32      0.00
   -9    8   11     -1.60      0.00
   -9    7   11      0.29      0.00
   -9    6   11      1.92      0.00
   -9    5   11     -0.07      0.00
   -9    4   11     -0.81      0.00
   -9    3   11     -0.17      0.00
   -9    2   11      0.01      0.00
   -9    1   11      0.49      0.00
   -9    0   11      0.34      0.00
   -9   19   11      0.18      0.00
   -9   21   10     -0.59      0.00
   -9   20   10      0.18      0.00
   -9   19   10     -0.13      0.00
   -9   18   10     -0.58      0.00
   -9   17   10      0.73      0.00
   -9   16   10      0.00      0.00
   -9   15   10     -0.50      0.00
   -9   14   10     -0.16      0.00
   -9   13   10     -1.00      0.00
   -9   12   10      0.21      0.00
   -9   11   10      1.19      0.00
   -9   10   10     -0.03      0.00
   -9    9   10     -0.62      0.00
   -9    8   10     -1.36      0.00
   -9    7   10     -0.09      0.00
   -9    6   10      1.05      0.00
   -9    5   10      0.17      0.00
   -9    4   10      0.37      0.00
   -9    3   10     -0.36      0.00
   -9    2   10     -0.34      0.00
   -9    1   10      0.98      0.00
   -9    0   10     -0.20      0.00
   -9   22   10     -0.14      0.00
   -9   23   10      1.08      0.00
   -9   24    9     -1.08      0.00
   -9   23    9      0.29      0.00
   -9   22    9     -0.19      0.00
   -9   21    9      0.19      0.00
   -9   20    9     -0.07      0.00
   -9   19    9      0.23      0.00
   -9   18    9      0.52      0.00
   -9   17    9     -0.50      0.00
   -9   16    9     -0.05      0.00
   -9   15    9     -0.08      0.00
   -9   14    9     -0.42      0.00
   -9   13    9     -0.33      0.00
   -9   12    9      0.40      0.00
   -9   11    9      0.14      0.00
   -9   10    9     -0.43      0.00
   -9    9    9     -0.43      0.00
   -9    8    9     -0.07      0.00
   -9    7    9     -0.58      0.00
   -9    6    9     -0.71      0.00
   -9    5    9     -0.04      0.00
   -9    4    9      0.40      0.00
   -9    3    9      0.62      0.00
   -9    2    9     -0.84      0.00
   -9    1    9     -1.08      0.00
   -9    0    9      0.56      0.00
   -9   25    9     -0.05      0.00
   -9   26    9      1.08      0.00
   -9   26    8      0.42      0.00
   -9   25    8     -0.38      0.00
   -9   24    8     -0.02      0.00
   -9   23    8      0.09      0.00
   -9   22    8     -0.36      0.00
   -9   21    8     -0.17      0.00
   -9   20    8      0.08      0.00
   -9   19    8      0.04      0.00
   -9   18    8     -0.11      0.00
   -9   17    8      0.27      0.00
   -9   16    8      1.09      0.00
   -9   15    8     -1.09      0.00
   -9   14    8      0.04      0.00
   -9   13    8      0.51      0.00
   -9   12    8     -1.28      0.00
   -9   11    8      0.10      0.00
   -9   10    8      1.31      0.00
   -9    9    8     -0.41      0.00
   -9    8    8     -1.82      0.00
   -9    7    8     -0.27      0.00
   -9    6    8      0.34      0.00
   -9    5    8      0.07      0.00
   -9    4    8     -2.52      0.00
   -9    3    8     -0.50      0.00
   -9    2    8      0.11      0.00
   -9    1    8      0.25      0.00
   -9    0    8      1.27      0.00
   -9   27    8      0.41      0.00
   -9   28    8     -0.68      0.00
   -9   28    7      0.54      0.00
   -9   27    7      0.82      0.00
   -9   26    7     -0.33      0.00
   -9   25    7     -0.03      0.00
   -9   24    7      0.55      0.00
   -9   23    7      0.24      0.00
   -9   22    7      0.28      0.00
   -9   21    7     -1.08      0.00
   -9   20    7     -0.27      0.00
   -9   19    7      0.35      0.00
   -9   18    7      0.44      0.00
   -9   17    7      0.55      0.00
   -9   16    7      1.03      0.00
   -9   15    7     -0.20      0.00
   -9   14    7     -0.43      0.00
   -9   13    7     -0.26      0.00
   -9   12    7      0.35      0.00
   -9   11    7      1.40      0.00
   -9   10    7     -0.39      0.00
   -9    9    7     -0.03      0.00
   -9    8    7     -0.84      0.00
   -9    7    7      0.20      0.00
   -9    6    7     -0.98      0.00
   -9    5    7     -0.15      0.00
   -9    4    7     -1.90      0.00
   -9    3    7     -0.15      0.00
   -9    2    7      0.52      0.00
   -9    1    7     -1.10      0.00
   -9    0    7      1.98      0.00
   -9   29    7      0.00      0.00
   -9   30    7     -0.44      0.00
   -9   29    6      0.69      0.00
   -9   28    6      0.59      0.00
   -9   27    6      0.44      0.00
   -9   26    6      0.44      0.00
   -9   25    6      0.12      0.00
   -9   24    6     -0.48      0.00
   -9   23    6      0.37      0.00
   -9   22    6      1.13      0.00
   -9   21    6     -0.53      0.00
   -9   20    6     -0.53      0.00
   -9   19    6     -0.33      0.00
   -9   17    6      0.75      0.00
   -9   16    6     -0.04      0.00
   -9   15    6      0.67      0.00
   -9   14    6      0.36      0.00
   -9   13    6      0.52      0.00
   -9   12    6      0.34      0.00
   -9   11    6      1.10      0.00
   -9   10    6     -0.09      0.00
   -9    9    6      0.97      0.00
   -9    8    6     -0.94      0.00
   -9    7    6     -0.04      0.00
   -9    6    6     -0.88      0.00
   -9    5    6      0.29      0.00
   -9    4    6      0.41      0.00
   -9    3    6     -1.30      0.00
   -9    2    6      0.41      0.00
   -9    1    6     -0.33      0.00
   -9    0    6      2.66      0.00
   -9   18    6      1.18      0.00
   -9   30    6     -0.23      0.00
   -9   31    6      0.17      0.00
   -9   32    6     -0.37      0.00
   -9   31    5      0.32      0.00
   -9   30    5     -0.43      0.00
   -9   29    5      1.05      0.00
   -9   28    5      0.66      0.00
   -9   27    5     -0.13      0.00
   -9   26    5      0.01      0.00
   -9   25    5      0.43      0.00
   -9   24    5     -0.26      0.00
   -9   23    5      0.07      0.00
   -9   22    5      0.39      0.00
   -9   21    5      0.12      0.00
   -9   20    5      0.21      0.00
   -9   19    5     -1.12      0.00
   -9   18    5     -0.50      0.00
   -9   17    5      0.69      0.00
   -9   16    5      1.20      0.00
   -9   15    5      0.98      0.00
   -9   14    5     -0.27      0.00
   -9   13    5      1.51      0.00
   -9   12    5     -0.67      0.00
   -9   11    5      0.39      0.00
   -9   10    5      1.92      0.00
   -9    9    5      1.22      0.00
   -9    8    5     -1.56      0.00
   -9    7    5     -0.49      0.00
   -9    6    5      0.26      0.00
   -9    5    5     -0.09      0.00
   -9    4    5      1.68      0.00
   -9    3    5     -1.75      0.00
   -9    2    5      1.57      0.00
   -9    1    5      0.40      0.00
   -9    0    5      0.28      0.00
   -9   32    5      0.14      0.00
   -9   33    5     -0.18      0.00
   -9   34    5     -0.77      0.00
   -9   32    4     -0.38      0.00
   -9   31    4     -0.48      0.00
   -9   30    4      0.73      0.00
   -9   29    4      0.60      0.00
   -9   28    4     -0.93      0.00
   -9   27    4      0.23      0.00
   -9   26    4      0.43      0.00
   -9   25    4      0.23      0.00
   -9   24    4     -0.03      0.00
   -9   23    4      0.00      0.00
   -9   22    4     -0.52      0.00
   -9   21    4     -0.50      0.00
   -9   20    4     -0.08      0.00
   -9   19    4     -0.69      0.00
   -9   18    4     -0.33      0.00
   -9   17    4      0.45      0.00
   -9   16    4     -0.41      0.00
   -9   15    4      0.28      0.00
   -9   14    4     -0.27      0.00
   -9   13    4      1.98      0.00
   -9   12    4      0.59      0.00
   -9   11    4     -0.46      0.00
   -9   10    4     -1.46      0.00
   -9    9    4      0.93      0.00
   -9    8    4      3.42      0.00
   -9    7    4     -1.20      0.00
   -9    6    4     -2.17      0.00
   -9    5    4     -0.69      0.00
   -9    4    4      3.03      0.00
   -9    3    4     -0.90      0.00
   -9    2    4      0.68      0.00
   -9    1    4     -0.85      0.00
   -9    0    4     -0.44      0.00
   -9   33    4      0.52      0.00
   -9   34    4     -0.90      0.00
   -9   35    4      0.31      0.00
   -9   32    3      0.05      0.00
   -9   31    3     -0.68      0.00
   -9   30    3     -0.28      0.00
   -9   29    3      0.41      0.00
   -9   28    3      0.15      0.00
   -9   27    3     -0.50      0.00
   -9   26    3     -0.09      0.00
   -9   25    3      0.90      0.00
   -9   24    3     -0.11      0.00
   -9   23    3     -1.05      0.00
   -9   22    3     -0.51      0.00
   -9   21    3      0.23      0.00
   -9   20    3     -0.68      0.00
   -9   19    3     -0.76      0.00
   -9   18    3     -0.34      0.00
   -9   17    3      0.37      0.00
   -9   16    3     -0.84      0.00
   -9   15    3     -0.34      0.00
   -9   14    3     -1.17      0.00
   -9   13    3      1.85      0.00
   -9   12    3      1.19      0.00
   -9   11    3     -2.35      0.00
   -9   10    3     -0.86      0.00
   -9    9    3      0.68      0.00
   -9    8    3      1.18      0.00
   -9    7    3     -0.65      0.00
   -9    6    3      1.76      0.00
   -9    5    3     -2.23      0.00
   -9    4    3     -0.67      0.00
   -9    3    3     -0.31      0.00
   -9    2    3     -0.66      0.00
   -9    1    3     -0.61      0.00
   -9    0    3      1.45      0.00
   -9   33    3      0.26      0.00
   -9   34    3     -0.72      0.00
   -9   35    3      1.37      0.00
   -9   36    3     -0.41      0.00
   -9   33    2      0.07      0.00
   -9   32    2     -0.07      0.00
   -9   31    2      0.33      0.00
   -9   30    2     -0.15      0.00
   -9   29    2     -0.35      0.00
   -9   28    2      0.46      0.00
   -9   27    2     -0.38      0.00
   -9   26    2      0.03      0.00
   -9   25    2      0.35      0.00
   -9   24    2      0.36      0.00
   -9   23    2     -0.97      0.00
   -9   22    2     -0.97      0.00
   -9   21    2      0.73      0.00
   -9   20    2     -0.61      0.00
   -9   19    2     -0.29      0.00
   -9   18    2     -0.20      0.00
   -9   17    2     -0.11      0.00
   -9   16    2     -0.99      0.00
   -9   15    2     -0.51      0.00
   -9   14    2     -0.03      0.00
   -9   13    2      0.69      0.00
   -9   12    2      0.35      0.00
   -9   11    2     -2.30      0.00
   -9   10    2     -0.08      0.00
   -9    9    2     -1.93      0.00
   -9    8    2      0.95      0.00
   -9    7    2      1.94      0.00
   -9    6    2      1.26      0.00
   -9    5    2     -2.95      0.00
   -9    4    2     -1.65      0.00
   -9    3    2     -1.22      0.00
   -9    2    2     -1.79      0.00
   -9    1    2      1.54      0.00
   -9    0    2      1.63      0.00
   -9   34    2      0.23      0.00
   -9   35    2      1.16      0.00
   -9   36    2      0.08      0.00
   -9   37    2      1.12      0.00
   -9   34    1      0.60      0.00
   -9   33    1     -0.02      0.00
   -9   32    1      0.01      0.00
   -9   31    1      0.63      0.00
   -9   30    1      0.67      0.00
   -9   29    1     -0.16      0.00
   -9   28    1     -0.21      0.00
   -9   27    1     -0.42      0.00
   -9   26    1      0.93      0.00
   -9   25    1     -0.09      0.00
   -9   24    1      0.27      0.00
   -9   23    1     -0.31      0.00
   -9   22    1     -0.45      0.00
   -9   21    1      0.51      0.00
   -9   20    1     -0.05      0.00
   -9   19    1     -0.19      0.00
   -9   18    1     -1.30      0.00
   -9   17    1      0.27      0.00
   -9   16    1      0.96      0.00
   -9   15    1     -0.94      0.00
   -9   14    1      0.14      0.00
   -9   13    1      0.35      0.00
   -9   12    1      0.47      0.00
   -9   11    1     -3.56      0.00
   -9   10    1     -0.27      0.00
   -9    9    1      0.54      0.00
   -9    8    1      1.16      0.00
   -9    7    1     -0.76      0.00
   -9    6    1     -0.25      0.00
   -9    5    1      1.24      0.00
   -9    4    1     -1.85      0.00
   -9    3    1     -1.27      0.00
   -9    2    1     -1.43      0.00
   -9    1    1     -0.05      0.00
   -9    0    1     -0.38      0.00
   -9   35    1      0.96      0.00
   -9   36    1      0.21      0.00
   -9   37    1      0.75      0.00
   -9   38    1     -0.68      0.00
    9   34    0      0.53      0.00
    9   33    0      0.33      0.00
    9   32    0      0.57      0.00
    9   31    0     -1.01      0.00
    9   30    0     -0.44      0.00
    9   29    0      0.41      0.00
    9   28    0      0.90      0.00
    9   27    0      0.22      0.00
    9   26    0     -0.06      0.00
    9   25    0      0.33      0.00
    9   24    0      0.99      0.00
    9   23    0     -0.74      0.00
    9   22    0      0.43      0.00
    9   21    0      1.10      0.00
    9   20    0     -0.98      0.00
    9   19    0     -1.23      0.00
    9   18    0      0.46      0.00
    9   17    0      0.17      0.00
    9   16    0      0.09      0.00
    9   15    0      0.34      0.00
    9   14    0      0.29      0.00
    9   13    0      0.62      0.00
    9   12    0      1.44      0.00
    9   11    0      0.61      0.00
    9   10    0     -2.88      0.00
    9    9    0      2.26      0.00
    9    8    0      3.30      0.00
    9    7    0     -3.18      0.00
    9    6    0     -3.29      0.00
    9    5    0     -0.84      0.00
    9    4    0     -1.28      0.00
    9    3    0     -0.70      0.00
    9    2    0      0.73      0.00
    9    1    0      0.05      0.00
    9    0    0     -2.84      0.00
    9   35    0     -0.05      0.00
    9   36    0      0.17      0.00
    9   37    0      0.16      0.00
    9   38    0     -1.25      0.00
    9   34    1      0.71      0.00
    9   33    1      0.03      0.00
    9   32    1     -0.19      0.00
    9   31    1     -0.23      0.00
    9   30    1      0.03      0.00
    9   29    1     -0.07      0.00
    9   28    1     -0.46      0.00
    9   27    1      0.04      0.00
    9   26    1      0.71      0.00
    9   25    1      0.53      0.00
    9   24    1      0.37      0.00
    9   23    1     -0.16      0.00
    9   22    1      0.51      0.00
    9   21    1      0.01      0.00
    9   20    1     -0.25      0.00
    9   19    1     -0.04      0.00
    9   18    1      0.28      0.00
    9   17    1     -1.35      0.00
    9   16    1      0.48      0.00
    9   15    1      1.06      0.00
    9   14    1     -0.23      0.00
    9   13    1     -0.70      0.00
    9   12    1     -1.35      0.00
    9   11    1      0.07      0.00
    9   10    1      0.80      0.00
    9    9    1      0.90      0.00
    9    8    1     -1.16      0.00
    9    7    1     -2.05      0.00
    9    6    1     -1.84      0.00
    9    5    1     -1.48      0.00
    9    4    1     -1.34      0.00
    9    3    1     -0.54      0.00
    9    2    1      1.10      0.00
    9   35    1      0.55      0.00
    9   36    1     -0.13      0.00
    9   37    1      0.49      0.00
    9   34    2      0.37      0.00
    9   33    2     -0.50      0.00
    9   32    2     -0.36      0.00
    9   31    2     -0.10      0.00
    9   30    2     -0.69      0.00
    9   29    2     -0.45      0.00
    9   28    2      0.62      0.00
    9   27    2      0.78      0.00
    9   26    2     -0.54      0.00
    9   25    2     -0.03      0.00
    9   24    2      0.75      0.00
    9   23    2      0.48      0.00
    9   22    2     -0.40      0.00
    9   21    2      0.11      0.00
    9   20    2      0.61      0.00
    9   19    2     -0.98      0.00
    9   18    2      0.20      0.00
    9   17    2     -0.10      0.00
    9   16    2      1.06      0.00
    9   15    2     -0.14      0.00
    9   14    2     -2.75      0.00
    9   13    2     -0.95      0.00
    9   12    2      0.37      0.00
    9   11    2     -1.35      0.00
    9   10    2     -0.34      0.00
    9    9    2      0.33      0.00
    9    8    2     -0.84      0.00
    9    7    2      0.51      0.00
    9    6    2     -2.59      0.00
    9    5    2     -0.10      0.00
    9    4    2     -1.18      0.00
    9   35    2      0.71      0.00
    9   34    3     -0.53      0.00
    9   33    3     -1.01      0.00
    9   32    3      0.22      0.00
    9   31    3      0.45      0.00
    9   30    3     -0.69      0.00
    9   29    3     -0.79      0.00
    9   28    3      0.42      0.00
    9   27    3      1.03      0.00
    9   26    3      0.17      0.00
    9   25    3      0.63      0.00
    9   24    3     -0.14      0.00
    9   23    3     -0.21      0.00
    9   22    3     -0.13      0.00
    9   21    3      0.13      0.00
    9   20    3      0.31      0.00
    9   19    3     -0.30      0.00
    9   18    3      0.76      0.00
    9   17    3      0.10      0.00
    9   16    3     -0.49      0.00
    9   15    3     -1.28      0.00
    9   14    3     -1.30      0.00
    9   13    3     -0.63      0.00
    9   12    3      0.29      0.00
    9   11    3     -3.10      0.00
    9   10    3     -0.57      0.00
    9    9    3      2.61      0.00
    9    8    3     -1.61      0.00
    9    7    3     -0.49      0.00
    9    6    3      1.45      0.00
    9   33    4      0.18      0.00
    9   32    4     -0.46      0.00
    9   31    4     -0.20      0.00
    9   30    4      0.43      0.00
    9   29    4      0.74      0.00
    9   28    4     -0.22      0.00
    9   27    4      0.44      0.00
    9   26    4      0.10      0.00
    9   25    4      0.10      0.00
    9   24    4     -0.19      0.00
    9   23    4      0.26      0.00
    9   22    4      0.52      0.00
    9   21    4      0.20      0.00
    9   20    4     -1.06      0.00
    9   19    4     -0.45      0.00
    9   18    4      0.94      0.00
    9   17    4      0.50      0.00
    9   16    4     -0.88      0.00
    9   15    4     -2.28      0.00
    9   14    4     -0.03      0.00
    9   13    4     -1.34      0.00
    9   12    4     -0.32      0.00
    9   11    4      0.24      0.00
    9   10    4     -0.48      0.00
    9    9    4     -0.21      0.00
    9    8    4      0.64      0.00
    9    7    4     -0.12      0.00
    9    6    4      0.01      0.00
    9   33    5      0.36      0.00
    9   32    5     -0.89      0.00
    9   31    5      0.34      0.00
    9   30    5     -0.05      0.00
    9   29    5      0.67      0.00
    9   28    5      0.06      0.00
    9   27    5      0.22      0.00
    9   26    5      0.02      0.00
    9   25    5     -0.20      0.00
    9   24    5     -0.71      0.00
    9   23    5      0.78      0.00
    9   22    5      0.07      0.00
    9   21    5      0.04      0.00
    9   20    5     -0.11      0.00
    9   19    5     -0.27      0.00
    9   18    5     -0.70      0.00
    9   17    5     -0.25      0.00
    9   16    5      0.15      0.00
    9   15    5     -1.36      0.00
    9   14    5     -0.01      0.00
    9   13    5     -0.47      0.00
    9   12    5     -0.45      0.00
    9   11    5     -0.48      0.00
    9   10    5      0.88      0.00
    9    9    5      1.16      0.00
    9    8    5      0.22      0.00
    9    7    5     -0.17      0.00
    9    6    5      1.59      0.00
    9   32    6     -0.10      0.00
    9   31    6      1.19      0.00
    9   30    6     -0.12      0.00
    9   29    6     -0.55      0.00
    9   28    6     -0.43      0.00
    9   27    6     -0.03      0.00
    9   26    6      0.20      0.00
    9   25    6      0.86      0.00
    9   24    6     -0.22      0.00
    9   23    6      0.13      0.00
    9   22    6     -0.47      0.00
    9   21    6      0.06      0.00
    9   20    6      0.32      0.00
    9   19    6      0.23      0.00
    9   18    6     -0.33      0.00
    9   17    6      0.12      0.00
    9   16    6     -0.47      0.00
    9   15    6      0.15      0.00
    9   14    6      0.70      0.00
    9   13    6     -1.03      0.00
    9   12    6      0.30      0.00
    9   11    6      1.15      0.00
    9   10    6     -0.51      0.00
    9    9    6     -1.28      0.00
    9    8    6      1.57      0.00
    9    7    6      3.85      0.00
    9    6    6      1.56      0.00
    9   31    7     -0.14      0.00
    9   30    7      0.29      0.00
    9   29    7      0.87      0.00
    9   28    7     -0.42      0.00
    9   27    7     -0.69      0.00
    9   26    7      0.35      0.00
    9   25    7      0.42      0.00
    9   24    7      0.72      0.00
    9   23    7      0.38      0.00
    9   22    7     -0.05      0.00
    9   21    7     -0.25      0.00
    9   20    7      0.42      0.00
    9   19    7      0.90      0.00
    9   18    7     -0.29      0.00
    9   17    7      0.97      0.00
    9   16    7      0.40      0.00
    9   15    7     -0.15      0.00
    9   14    7     -0.38      0.00
    9   13    7      0.94      0.00
    9   12    7      0.31      0.00
    9   11    7     -0.48      0.00
    9   10    7     -0.54      0.00
    9    9    7     -0.81      0.00
    9    8    7      1.33      0.00
    9    7    7      1.96      0.00
    9    6    7      1.27      0.00
    9   29    8      0.95      0.00
    9   28    8     -0.48      0.00
    9   27    8      0.01      0.00
    9   26    8      1.14      0.00
    9   25    8     -0.83      0.00
    9   24    8      0.46      0.00
    9   23    8      0.42      0.00
    9   22    8      0.71      0.00
    9   21    8     -0.12      0.00
    9   20    8      0.76      0.00
    9   19    8      0.55      0.00
    9   18    8     -0.43      0.00
    9   17    8      0.19      0.00
    9   16    8      0.56      0.00
    9   15    8      1.15      0.00
    9   14    8     -1.30      0.00
    9   13    8     -0.23      0.00
    9   12    8     -0.22      0.00
    9   11    8      0.66      0.00
    9   10    8     -0.04      0.00
    9    9    8     -2.46      0.00
    9    8    8      0.33      0.00
    9    7    8      2.61      0.00
    9    6    8      0.58      0.00
    9    5    8     -1.23      0.00
    9   23    9     -0.32      0.00
    9   22    9      1.05      0.00
    9   21    9      0.09      0.00
    9   20    9      0.26      0.00
    9   19    9     -0.52      0.00
    9   18    9      0.27      0.00
    9   17    9     -0.33      0.00
    9   16    9     -1.19      0.00
    9   15    9      0.62      0.00
    9   14    9      0.56      0.00
    9   13    9     -0.03      0.00
    9   12    9     -1.79      0.00
    9   11    9      0.30      0.00
    9   10    9      0.91      0.00
    9    9    9     -0.51      0.00
    9    8    9     -1.01      0.00
    9    7    9     -0.07      0.00
    9    6    9      1.51      0.00
    9    5    9     -0.27      0.00
    9    4    9     -0.95      0.00
    9    3    9     -0.43      0.00
    9   14   10      0.16      0.00
    9   13   10     -0.05      0.00
    9   12   10     -0.44      0.00
    9   11   10      0.99      0.00
    9   10   10     -0.20      0.00
    9    8   10     -0.19      0.00
    9    7   10     -1.18      0.00
    9    6   10      1.29      0.00
    9    5   10     -0.44      0.00
    9    4   10     -1.19      0.00
    9    3   10     -0.04      0.00
    9    2   10      0.53      0.00
  -10    9   12      0.07      0.00
  -10    8   12     -0.99      0.00
  -10    7   12      0.17      0.00
  -10    6   12      1.02      0.00
  -10    5   12     -0.31      0.00
  -10    4   12     -0.57      0.00
  -10    3   12      0.83      0.00
  -10    2   12      0.40      0.00
  -10    1   12     -0.60      0.00
  -10    0   12      0.25      0.00
  -10   10   12      0.58      0.00
  -10   11   12     -0.42      0.00
  -10   15   11      0.03      0.00
  -10   14   11     -0.06      0.00
  -10   13   11      0.50      0.00
  -10   12   11      0.22      0.00
  -10   11   11      0.45      0.00
  -10   10   11      0.39      0.00
  -10    9   11      0.18      0.00
  -10    8   11     -0.36      0.00
  -10    7   11     -0.89      0.00
  -10    6   11      1.11      0.00
  -10    5   11      0.30      0.00
  -10    4   11     -1.25      0.00
  -10    3   11      1.04      0.00
  -10    2   11      0.65      0.00
  -10    1   11     -0.08      0.00
  -10    0   11      1.19      0.00
  -10   16   11      0.16      0.00
  -10   17   11     -0.53      0.00
  -10   19   10     -0.62      0.00
  -10   18   10      0.19      0.00
  -10   17   10      1.04      0.00
  -10   16   10      0.06      0.00
  -10   15   10     -0.47      0.00
  -10   14   10      0.43      0.00
  -10   13   10     -0.56      0.00
  -10   12   10     -0.41      0.00
  -10   11   10      1.39      0.00
  -10   10   10      1.05      0.00
  -10    9   10     -0.57      0.00
  -10    8   10     -0.67      0.00
  -10    7   10     -0.49      0.00
  -10    6   10      0.44      0.00
  -10    5   10     -0.14      0.00
  -10    4   10     -0.88      0.00
  -10    3   10      0.99      0.00
  -10    2   10      0.50      0.00
  -10    1   10      0.83      0.00
  -10    0   10      0.76      0.00
  -10   20   10      0.07      0.00
  -10   21   10     -0.64      0.00
  -10   22   10      0.30      0.00
  -10   22    9     -0.38      0.00
  -10   21    9      0.18      0.00
  -10   20    9      0.41      0.00
  -10   19    9     -0.62      0.00
  -10   18    9     -0.23      0.00
  -10   17    9      0.04      0.00
  -10   16    9      0.31      0.00
  -10   15    9      0.66      0.00
  -10   14    9     -0.46      0.00
  -10   13    9     -0.34      0.00
  -10   12    9      0.60      0.00
  -10   11    9      0.05      0.00
  -10   10    9     -0.26      0.00
  -10    9    9      0.54      0.00
  -10    8    9      0.58      0.00
  -10    7    9     -0.72      0.00
  -10    6    9     -0.96      0.00
  -10    5    9     -0.05      0.00
  -10    4    9      0.34      0.00
  -10    3    9      1.19      0.00
  -10    2    9     -0.27      0.00
  -10    1    9     -1.45      0.00
  -10    0    9      0.45      0.00
  -10   23    9     -0.49      0.00
  -10   24    9     -0.53      0.00
  -10   25    9      0.77      0.00
  -10   24    8     -0.03      0.00
  -10   23    8      0.34      0.00
  -10   22    8     -0.01      0.00
  -10   21    8     -0.12      0.00
  -10   20    8     -0.53      0.00
  -10   19    8      0.02      0.00
  -10   18    8     -0.21      0.00
  -10   17    8     -0.16      0.00
  -10   16    8      0.54      0.00
  -10   15    8      0.38      0.00
  -10   14    8      0.13      0.00
  -10   13    8      0.39      0.00
  -10   12    8     -0.77      0.00
  -10   11    8     -0.10      0.00
  -10   10    8      0.94      0.00
  -10    9    8     -0.10      0.00
  -10    8    8      0.05      0.00
  -10    7    8      0.12      0.00
  -10    6    8      0.18      0.00
  -10    5    8      0.02      0.00
  -10    4    8      0.42      0.00
  -10    3    8     -0.77      0.00
  -10    2    8     -0.81      0.00
  -10    1    8     -0.52      0.00
  -10    0    8      0.76      0.00
  -10   25    8     -0.43      0.00
  -10   26    8      0.15      0.00
  -10   27    8     -0.28      0.00
  -10   26    7     -0.69      0.00
  -10   25    7     -0.09      0.00
  -10   24    7      0.94      0.00
  -10   23    7     -0.11      0.00
  -10   22    7     -0.63      0.00
  -10   21    7      0.08      0.00
  -10   20    7      0.07      0.00
  -10   19    7     -0.14      0.00
  -10   18    7     -1.08      0.00
  -10   17    7      0.60      0.00
  -10   16    7      1.42      0.00
  -10   15    7     -0.62      0.00
  -10   14    7     -0.44      0.00
  -10   13    7      0.09      0.00
  -10   12    7      0.16      0.00
  -10   11    7      0.26      0.00
  -10   10    7      0.35      0.00
  -10    9    7     -0.26      0.00
  -10    8    7      0.96      0.00
  -10    7    7     -0.67      0.00
  -10    6    7      0.21      0.00
  -10    5    7      0.02      0.00
  -10    4    7      0.44      0.00
  -10    3    7     -0.05      0.00
  -10    2    7     -0.52      0.00
  -10    1    7     -2.22      0.00
  -10    0    7     -0.47      0.00
  -10   27    7      0.36      0.00
  -10   28    7      0.78      0.00
  -10   29    7     -0.21      0.00
  -10   30    7     -0.72      0.00
  -10   28    6      0.90      0.00
  -10   27    6      0.51      0.00
  -10   26    6     -0.29      0.00
  -10   25    6     -0.01      0.00
  -10   24    6     -0.03      0.00
  -10   23    6      0.05      0.00
  -10   22    6      0.43      0.00
  -10   21    6     -0.37      0.00
  -10   20    6     -0.45      0.00
  -10   19    6      0.49      0.00
  -10   18    6      0.03      0.00
  -10   17    6     -0.78      0.00
  -10   16    6     -0.05      0.00
  -10   15    6      0.40      0.00
  -10   14    6      0.45      0.00
  -10   13    6     -1.51      0.00
  -10   12    6      0.39      0.00
  -10   11    6      0.26      0.00
  -10   10    6      0.16      0.00
  -10    9    6     -0.17      0.00
  -10    8    6      0.44      0.00
  -10    7    6     -0.68      0.00
  -10    6    6      0.21      0.00
  -10    5    6     -0.61      0.00
  -10    4    6     -0.26      0.00
  -10    3    6      1.69      0.00
  -10    2    6     -0.87      0.00
  -10    1    6     -1.99      0.00
  -10    0    6     -0.80      0.00
  -10   29    6     -0.37      0.00
  -10   30    6     -1.41      0.00
  -10   31    6      0.14      0.00
  -10   29    5      0.41      0.00
  -10   28    5      0.07      0.00
  -10   27    5     -0.51      0.00
  -10   26    5     -0.19      0.00
  -10   25    5     -0.03      0.00
  -10   24    5      0.37      0.00
  -10   23    5      0.29      0.00
  -10   22    5     -0.10      0.00
  -10   21    5     -0.12      0.00
  -10   20    5      0.78      0.00
  -10   19    5     -0.18      0.00
  -10   18    5     -1.21      0.00
  -10   17    5     -0.45      0.00
  -10   16    5      1.36      0.00
  -10   15    5     -0.20      0.00
  -10   14    5     -0.39      0.00
  -10   13    5     -0.73      0.00
  -10   12    5     -0.21      0.00
  -10   11    5     -1.36      0.00
  -10   10    5      0.92      0.00
  -10    9    5      0.88      0.00
  -10    8    5     -0.71      0.00
  -10    7    5     -0.53      0.00
  -10    6    5     -1.54      0.00
  -10    5    5      0.29      0.00
  -10    4    5      0.72      0.00
  -10    3    5      1.41      0.00
  -10    2    5     -1.46      0.00
  -10    1    5      1.01      0.00
  -10    0    5     -0.74      0.00
  -10   30    5     -0.65      0.00
  -10   31    5     -0.01      0.00
  -10   32    5     -0.05      0.00
  -10   33    5     -0.62      0.00
  -10   30    4      0.34      0.00
  -10   29    4      0.57      0.00
  -10   28    4     -0.96      0.00
  -10   27    4     -0.47      0.00
  -10   26    4      0.31      0.00
  -10   25    4     -0.60      0.00
  -10   24    4      0.28      0.00
  -10   23    4      0.84      0.00
  -10   22    4     -0.18      0.00
  -10   21    4     -0.45      0.00
  -10   20    4      0.45      0.00
  -10   19    4      0.20      0.00
  -10   18    4     -0.07      0.00
  -10   17    4     -0.68      0.00
  -10   16    4      0.37      0.00
  -10   15    4      0.64      0.00
  -10   14    4      0.39      0.00
  -10   13    4     -1.37      0.00
  -10   12    4      0.04      0.00
  -10   11    4     -0.08      0.00
  -10   10    4     -1.37      0.00
  -10    9    4     -0.21      0.00
  -10    8    4      0.68      0.00
  -10    7    4      0.58      0.00
  -10    6    4     -2.38      0.00
  -10    5    4      1.15      0.00
  -10    4    4     -0.10      0.00
  -10    3    4      2.15      0.00
  -10    2    4      1.18      0.00
  -10    1    4     -0.33      0.00
  -10    0    4     -2.15      0.00
  -10   31    4     -0.63      0.00
  -10   32    4      0.54      0.00
  -10   33    4     -0.07      0.00
  -10   34    4     -0.29      0.00
  -10   31    3     -0.07      0.00
  -10   30    3      0.47      0.00
  -10   29    3      0.15      0.00
  -10   28    3      0.00      0.00
  -10   27    3     -0.49      0.00
  -10   26    3     -0.63      0.00
  -10   25    3     -0.02      0.00
  -10   24    3      0.39      0.00
  -10   23    3      0.39      0.00
  -10   22    3     -0.14      0.00
  -10   21    3      0.04      0.00
  -10   20    3     -0.31      0.00
  -10   19    3     -0.05      0.00
  -10   18    3      0.81      0.00
  -10   17    3     -0.15      0.00
  -10   16    3      0.57      0.00
  -10   15    3      0.44      0.00
  -10   14    3     -0.14      0.00
  -10   13    3      0.38      0.00
  -10   12    3      0.89      0.00
  -10   11    3     -1.49      0.00
  -10   10    3     -1.36      0.00
  -10    9    3      0.82      0.00
  -10    8    3     -1.54      0.00
  -10    7    3      1.08      0.00
  -10    6    3      0.18      0.00
  -10    5    3      0.80      0.00
  -10    4    3      0.70      0.00
  -10    3    3      2.60      0.00
  -10    2    3     -1.08      0.00
  -10    1    3     -0.70      0.00
  -10    0    3      4.08      0.00
  -10   32    3      0.90      0.00
  -10   33    3     -0.94      0.00
  -10   34    3     -0.33      0.00
  -10   35    3      1.15      0.00
  -10   36    3     -0.26      0.00
  -10   32    2      0.04      0.00
  -10   31    2      0.52      0.00
  -10   30    2      0.65      0.00
  -10   29    2     -0.62      0.00
  -10   28    2      0.33      0.00
  -10   27    2      0.15      0.00
  -10   26    2     -0.79      0.00
  -10   25    2     -0.40      0.00
  -10   24    2      0.06      0.00
  -10   23    2      0.96      0.00
  -10   22    2     -0.41      0.00
  -10   21    2     -0.23      0.00
  -10   20    2     -0.39      0.00
  -10   19    2      0.59      0.00
  -10   18    2      0.74      0.00
  -10   17    2     -0.42      0.00
  -10   16    2      0.72      0.00
  -10   15    2      0.49      0.00
  -10   14    2      0.37      0.00
  -10   13    2      0.75      0.00
  -10   12    2      0.62      0.00
  -10   11    2     -0.45      0.00
  -10   10    2     -1.07      0.00
  -10    9    2     -0.39      0.00
  -10    8    2     -2.39      0.00
  -10    7    2      1.01      0.00
  -10    6    2      0.88      0.00
  -10    5    2      2.01      0.00
  -10    4    2      0.62      0.00
  -10    3    2      0.15      0.00
  -10    2    2      1.81      0.00
  -10    1    2      1.36      0.00
  -10    0    2      3.03      0.00
  -10   33    2     -0.75      0.00
  -10   34    2      0.88      0.00
  -10   35    2      0.13      0.00
  -10   36    2     -1.14      0.00
  -10   33    1     -0.22      0.00
  -10   32    1     -0.17      0.00
  -10   31    1      0.42      0.00
  -10   30    1      0.88      0.00
  -10   29    1     -0.04      0.00
  -10   28    1     -0.23      0.00
  -10   27    1     -0.28      0.00
  -10   26    1     -0.20      0.00
  -10   25    1     -0.36      0.00
  -10   24    1     -0.61      0.00
  -10   23    1      0.53      0.00
  -10   22    1     -0.41      0.00
  -10   21    1      0.83      0.00
  -10   20    1     -0.32      0.00
  -10   19    1     -0.02      0.00
  -10   18    1     -0.16      0.00
  -10   17    1     -0.63      0.00
  -10   16    1      0.91      0.00
  -10   15    1      1.52      0.00
  -10   14    1      1.10      0.00
  -10   13    1     -1.05      0.00
  -10   12    1      0.14      0.00
  -10   11    1      1.14      0.00
  -10   10    1     -1.08      0.00
  -10    9    1     -1.17      0.00
  -10    8    1     -2.24      0.00
  -10    7    1      0.43      0.00
  -10    6    1     -0.29      0.00
  -10    5    1      0.53      0.00
  -10    4    1      2.31      0.00
  -10    3    1      1.92      0.00
  -10    2    1      0.67      0.00
  -10    1    1     -2.99      0.00
  -10    0    1      5.07      0.00
  -10   34    1      0.37      0.00
  -10   35    1     -0.30      0.00
   10   33    0     -0.16      0.00
   10   32    0     -0.21      0.00
   10   31    0     -1.07      0.00
   10   30    0      0.59      0.00
   10   29    0      0.37      0.00
   10   28    0      0.37      0.00
   10   27    0     -0.06      0.00
   10   26    0      0.04      0.00
   10   25    0      0.75      0.00
   10   24    0     -1.08      0.00
   10   23    0     -1.12      0.00
   10   22    0      0.54      0.00
   10   21    0      0.23      0.00
   10   20    0     -1.98      0.00
   10   19    0     -0.16      0.00
   10   18    0      1.09      0.00
   10   17    0     -0.10      0.00
   10   16    0     -0.52      0.00
   10   15    0      0.63      0.00
   10   14    0      1.67      0.00
   10   13    0     -0.77      0.00
   10   12    0     -0.44      0.00
   10   11    0      1.01      0.00
   10   10    0     -0.43      0.00
   10    9    0      0.30      0.00
   10    8    0     -0.68      0.00
   10    7    0      0.35      0.00
   10    6    0     -1.94      0.00
   10    5    0     -0.62      0.00
   10    4    0      0.56      0.00
   10    3    0      1.27      0.00
   10    2    0      4.83      0.00
   10    1    0      0.29      0.00
   10    0    0     -2.28      0.00
   10   34    0      0.04      0.00
   10   33    1     -0.28      0.00
   10   32    1     -0.31      0.00
   10   31    1     -0.46      0.00
   10   30    1      0.80      0.00
   10   29    1      0.34      0.00
   10   28    1      0.37      0.00
   10   27    1     -0.44      0.00
   10   26    1      0.80      0.00
   10   25    1      0.48      0.00
   10   24    1     -0.41      0.00
   10   23    1     -0.84      0.00
   10   22    1     -0.81      0.00
   10   21    1      0.38      0.00
   10   20    1     -0.10      0.00
   10   19    1      0.31      0.00
   10   18    1     -0.33      0.00
   10   17    1     -0.45      0.00
   10   16    1     -0.14      0.00
   10   15    1      0.93      0.00
   10   14    1      0.28      0.00
   10   13    1      0.65      0.00
   10   12    1     -0.66      0.00
   10   11    1     -0.03      0.00
   10   10    1      1.79      0.00
   10    9    1      1.70      0.00
   10    8    1     -0.06      0.00
   10    7    1     -1.33      0.00
   10    6    1     -2.82      0.00
   10    5    1      0.93      0.00
   10    4    1      1.12      0.00
   10    3    1      0.23      0.00
   10   33    2     -0.42      0.00
   10   32    2     -0.76      0.00
   10   31    2      0.66      0.00
   10   30    2      0.49      0.00
   10   29    2      0.15      0.00
   10   28    2      0.73      0.00
   10   27    2      0.17      0.00
   10   26    2      0.72      0.00
   10   25    2     -0.76      0.00
   10   24    2     -0.51      0.00
   10   23    2     -0.12      0.00
   10   22    2     -0.04      0.00
   10   21    2      0.14      0.00
   10   20    2     -0.32      0.00
   10   19    2      0.04      0.00
   10   18    2     -0.04      0.00
   10   17    2     -0.02      0.00
   10   16    2     -0.65      0.00
   10   15    2      0.63      0.00
   10   14    2     -1.32      0.00
   10   13    2      0.86      0.00
   10   12    2      0.96      0.00
   10   11    2      1.22      0.00
   10   10    2      2.11      0.00
   10    9    2     -0.45      0.00
   10    8    2     -0.30      0.00
   10    7    2      0.01      0.00
   10    6    2     -0.75      0.00
   10    5    2      0.21      0.00
   10   33    3     -0.62      0.00
   10   32    3      0.19      0.00
   10   31    3      1.06      0.00
   10   30    3     -0.61      0.00
   10   29    3      0.11      0.00
   10   28    3      0.47      0.00
   10   27    3      0.42      0.00
   10   26    3      0.10      0.00
   10   25    3     -0.33      0.00
   10   24    3     -0.30      0.00
   10   23    3     -0.66      0.00
   10   22    3     -0.28      0.00
   10   21    3     -0.01      0.00
   10   20    3      0.41      0.00
   10   19    3      0.10      0.00
   10   18    3     -0.74      0.00
   10   17    3     -0.08      0.00
   10   16    3     -0.95      0.00
   10   15    3      0.46      0.00
   10   14    3     -0.56      0.00
   10   13    3      0.88      0.00
   10   12    3      2.16      0.00
   10   11    3      1.01      0.00
   10   10    3     -0.12      0.00
   10    9    3     -0.69      0.00
   10    8    3      0.61      0.00
   10    7    3      1.22      0.00
   10   33    4     -0.61      0.00
   10   32    4      0.11      0.00
   10   31    4      0.34      0.00
   10   30    4      0.18      0.00
   10   29    4      0.24      0.00
   10   28    4     -0.77      0.00
   10   27    4      0.40      0.00
   10   26    4      0.01      0.00
   10   25    4     -0.31      0.00
   10   24    4     -0.52      0.00
   10   23    4      0.15      0.00
   10   22    4      0.34      0.00
   10   21    4     -0.37      0.00
   10   20    4     -0.39      0.00
   10   19    4     -0.18      0.00
   10   18    4     -0.42      0.00
   10   17    4      0.85      0.00
   10   16    4     -0.34      0.00
   10   15    4     -0.18      0.00
   10   14    4      0.37      0.00
   10   13    4      0.29      0.00
   10   12    4      1.42      0.00
   10   11    4      1.77      0.00
   10   10    4     -0.09      0.00
   10    9    4     -1.06      0.00
   10    8    4     -1.08      0.00
   10   32    5      0.01      0.00
   10   31    5     -0.36      0.00
   10   30    5      0.09      0.00
   10   29    5      0.09      0.00
   10   28    5      0.02      0.00
   10   27    5      0.21      0.00
   10   26    5     -0.09      0.00
   10   25    5     -0.12      0.00
   10   24    5     -0.63      0.00
   10   23    5      0.78      0.00
   10   22    5      0.30      0.00
   10   21    5     -0.14      0.00
   10   20    5      0.19      0.00
   10   19    5     -0.82      0.00
   10   18    5     -0.31      0.00
   10   17    5      1.03      0.00
   10   16    5      0.35      0.00
   10   15    5      0.08      0.00
   10   14    5      0.09      0.00
   10   13    5      0.19      0.00
   10   12    5     -0.21      0.00
   10   11    5      0.10      0.00
   10   10    5      0.77      0.00
   10    9    5     -0.17      0.00
   10   30    6      0.07      0.00
   10   29    6     -0.74      0.00
   10   28    6      0.05      0.00
   10   27    6     -0.13      0.00
   10   26    6      0.14      0.00
   10   25    6      1.38      0.00
   10   24    6     -0.07      0.00
   10   23    6      0.02      0.00
   10   22    6     -0.69      0.00
   10   21    6     -0.80      0.00
   10   20    6      1.33      0.00
   10   19    6     -0.10      0.00
   10   18    6     -0.37      0.00
   10   17    6     -0.55      0.00
   10   16    6      0.45      0.00
   10   15    6      0.33      0.00
   10   14    6     -1.26      0.00
   10   13    6      0.03      0.00
   10   12    6      0.19      0.00
   10   11    6     -0.82      0.00
   10   10    6     -0.91      0.00
   10    9    6      0.57      0.00
   10   25    7      1.24      0.00
   10   24    7      0.53      0.00
   10   23    7      0.17      0.00
   10   22    7     -0.78      0.00
   10   21    7     -1.55      0.00
   10   20    7     -0.02      0.00
   10   19    7      0.05      0.00
   10   18    7      0.60      0.00
   10   17    7     -1.24      0.00
   10   16    7     -0.06      0.00
   10   15    7     -0.52      0.00
   10   14    7     -0.52      0.00
   10   13    7     -0.17      0.00
   10   12    7     -1.10      0.00
   10   11    7      1.55      0.00
   10   10    7     -0.19      0.00
   10    9    7     -1.97      0.00
   10   19    8     -0.92      0.00
   10   18    8     -0.44      0.00
   10   17    8     -0.31      0.00
   10   16    8      1.68      0.00
   10   15    8     -0.82      0.00
   10   14    8     -0.80      0.00
   10   12    8     -0.03      0.00
   10   11    8      0.40      0.00
   10   10    8      0.21      0.00
   10    9    8      0.24      0.00
  -11    4   12      0.55      0.00
  -11    3   12     -0.01      0.00
  -11    2   12     -0.33      0.00
  -11    1   12     -2.23      0.00
  -11    0   12     -0.03      0.00
  -11    5   12     -1.27      0.00
  -11    6   12      0.06      0.00
  -11   12   11      0.35      0.00
  -11   11   11     -0.29      0.00
  -11   10   11      0.03      0.00
  -11    9   11      0.37      0.00
  -11    8   11      0.39      0.00
  -11    7   11     -0.45      0.00
  -11    6   11      0.12      0.00
  -11    5   11      0.05      0.00
  -11    4   11     -0.89      0.00
  -11    3   11     -0.76      0.00
  -11    2   11      0.23      0.00
  -11    1   11     -1.58      0.00
  -11    0   11     -0.11      0.00
  -11   13   11      0.05      0.00
  -11   14   11     -1.07      0.00
  -11   15   11      0.24      0.00
  -11   17   10      0.23      0.00
  -11   16   10      0.23      0.00
  -11   15   10     -0.08      0.00
  -11   14   10      0.01      0.00
  -11   13   10     -0.72      0.00
  -11   12   10     -0.33      0.00
  -11   11   10      1.50      0.00
  -11   10   10      0.16      0.00
  -11    9   10     -1.16      0.00
  -11    8   10      0.20      0.00
  -11    7   10      1.23      0.00
  -11    6   10      0.20      0.00
  -11    5   10     -1.26      0.00
  -11    4   10     -1.21      0.00
  -11    3   10      0.46      0.00
  -11    2   10      0.58      0.00
  -11    1   10     -0.86      0.00
  -11    0   10      0.02      0.00
  -11   18   10     -0.76      0.00
  -11   19   10      0.24      0.00
  -11   20   10      0.26      0.00
  -11   20    9     -0.52      0.00
  -11   19    9      0.10      0.00
  -11   18    9      0.86      0.00
  -11   17    9     -0.42      0.00
  -11   16    9     -1.04      0.00
  -11   15    9      0.58      0.00
  -11   14    9      1.40      0.00
  -11   13    9      0.07      0.00
  -11   12    9      0.06      0.00
  -11   11    9     -0.04      0.00
  -11   10    9     -0.24      0.00
  -11    9    9      0.63      0.00
  -11    8    9      0.63      0.00
  -11    7    9     -0.36      0.00
  -11    6    9     -0.45      0.00
  -11    5    9     -0.22      0.00
  -11    4    9     -0.02      0.00
  -11    3    9      0.98      0.00
  -11    2    9      0.25      0.00
  -11    1    9     -1.57      0.00
  -11    0    9     -0.03      0.00
  -11   21    9      0.21      0.00
  -11   22    9      0.50      0.00
  -11   23    9     -0.10      0.00
  -11   23    8     -0.14      0.00
  -11   22    8     -0.02      0.00
  -11   21    8      0.68      0.00
  -11   20    8      0.00      0.00
  -11   19    8     -0.75      0.00
  -11   18    8      0.13      0.00
  -11   17    8     -0.40      0.00
  -11   16    8      0.51      0.00
  -11   15    8      0.39      0.00
  -11   14    8      0.58      0.00
  -11   13    8      0.42      0.00
  -11   12    8      0.19      0.00
  -11   11    8      0.56      0.00
  -11   10    8      0.52      0.00
  -11    9    8     -0.68      0.00
  -11    8    8     -0.37      0.00
  -11    7    8      1.18      0.00
  -11    6    8     -0.32      0.00
  -11    5    8     -0.36      0.00
  -11    4    8      0.60      0.00
  -11    3    8     -0.09      0.00
  -11    2    8     -0.84      0.00
  -11    1    8     -0.02      0.00
  -11    0    8      0.66      0.00
  -11   24    8     -0.54      0.00
  -11   25    8      0.34      0.00
  -11   26    8      0.06      0.00
  -11   25    7     -0.24      0.00
  -11   24    7     -0.01      0.00
  -11   23    7     -0.21      0.00
  -11   22    7     -0.36      0.00
  -11   21    7     -0.36      0.00
  -11   20    7     -0.17      0.00
  -11   19    7     -0.18      0.00
  -11   18    7      0.12      0.00
  -11   17    7     -0.75      0.00
  -11   16    7      0.73      0.00
  -11   15    7      0.14      0.00
  -11   14    7     -0.21      0.00
  -11   13    7      0.73      0.00
  -11   12    7     -0.25      0.00
  -11   11    7      0.67      0.00
  -11   10    7      0.44      0.00
  -11    9    7      0.25      0.00
  -11    8    7     -0.50      0.00
  -11    7    7      0.51      0.00
  -11    6    7     -0.54      0.00
  -11    5    7     -0.09      0.00
  -11    4    7     -0.36      0.00
  -11    3    7      0.08      0.00
  -11    2    7      0.92      0.00
  -11    1    7     -1.86      0.00
  -11    0    7     -1.61      0.00
  -11   26    7     -0.01      0.00
  -11   27    7      0.24      0.00
  -11   28    7      0.22      0.00
  -11   26    6      0.11      0.00
  -11   25    6     -0.20      0.00
  -11   24    6     -0.12      0.00
  -11   23    6     -0.53      0.00
  -11   22    6     -0.34      0.00
  -11   21    6     -0.76      0.00
  -11   20    6     -0.14      0.00
  -11   19    6      0.22      0.00
  -11   18    6      0.22      0.00
  -11   17    6     -1.10      0.00
  -11   16    6     -0.70      0.00
  -11   15    6      1.04      0.00
  -11   14    6      0.29      0.00
  -11   13    6     -0.04      0.00
  -11   12    6     -0.89      0.00
  -11   11    6      0.88      0.00
  -11   10    6     -0.25      0.00
  -11    9    6      1.04      0.00
  -11    8    6     -0.07      0.00
  -11    7    6     -0.42      0.00
  -11    6    6     -0.49      0.00
  -11    5    6     -0.54      0.00
  -11    4    6     -0.22      0.00
  -11    3    6     -0.27      0.00
  -11    2    6     -0.07      0.00
  -11    1    6     -1.85      0.00
  -11    0    6      0.55      0.00
  -11   27    6      0.37      0.00
  -11   28    6      0.77      0.00
  -11   29    6     -1.06      0.00
  -11   30    6     -0.34      0.00
  -11   28    5      0.32      0.00
  -11   27    5     -0.78      0.00
  -11   26    5      0.69      0.00
  -11   25    5      0.45      0.00
  -11   24    5     -0.51      0.00
  -11   23    5     -0.23      0.00
  -11   22    5      0.41      0.00
  -11   21    5     -0.40      0.00
  -11   20    5     -0.35      0.00
  -11   19    5     -0.13      0.00
  -11   18    5     -0.01      0.00
  -11   17    5     -0.37      0.00
  -11   16    5     -0.72      0.00
  -11   15    5      1.09      0.00
  -11   14    5      0.33      0.00
  -11   13    5     -0.10      0.00
  -11   12    5     -1.08      0.00
  -11   11    5      0.48      0.00
  -11   10    5      0.71      0.00
  -11    9    5      0.04      0.00
  -11    8    5     -0.93      0.00
  -11    7    5      0.46      0.00
  -11    6    5      0.38      0.00
  -11    5    5     -2.72      0.00
  -11    4    5     -1.03      0.00
  -11    3    5     -0.01      0.00
  -11    2    5      1.66      0.00
  -11    1    5     -0.65      0.00
  -11    0    5     -1.14      0.00
  -11   29    5      0.49      0.00
  -11   30    5      0.43      0.00
  -11   31    5     -0.30      0.00
  -11   32    5     -0.40      0.00
  -11   29    4      1.13      0.00
  -11   28    4      0.08      0.00
  -11   27    4     -0.17      0.00
  -11   26    4      0.33      0.00
  -11   25    4      0.03      0.00
  -11   24    4      0.45      0.00
  -11   23    4      0.29      0.00
  -11   22    4     -0.39      0.00
  -11   21    4      0.43      0.00
  -11   20    4      1.03      0.00
  -11   19    4     -0.69      0.00
  -11   18    4     -0.58      0.00
  -11   17    4      0.84      0.00
  -11   16    4     -0.55      0.00
  -11   15    4      0.25      0.00
  -11   14    4      1.55      0.00
  -11   13    4      0.61      0.00
  -11   12    4     -0.87      0.00
  -11   11    4     -0.50      0.00
  -11   10    4      0.87      0.00
  -11    9    4      0.73      0.00
  -11    8    4     -0.54      0.00
  -11    7    4     -2.02      0.00
  -11    6    4     -0.56      0.00
  -11    5    4     -0.80      0.00
  -11    4    4     -0.58      0.00
  -11    3    4     -1.12      0.00
  -11    2    4      0.98      0.00
  -11    1    4     -0.82      0.00
  -11    0    4     -0.61      0.00
  -11   30    4      0.13      0.00
  -11   31    4     -1.03      0.00
  -11   32    4      0.22      0.00
  -11   33    4     -0.50      0.00
  -11   30    3      0.52      0.00
  -11   29    3      0.88      0.00
  -11   28    3     -0.33      0.00
  -11   27    3      0.27      0.00
  -11   26    3      0.05      0.00
  -11   25    3     -0.09      0.00
  -11   24    3      0.00      0.00
  -11   23    3      0.48      0.00
  -11   22    3      0.69      0.00
  -11   21    3      0.17      0.00
  -11   20    3     -0.28      0.00
  -11   19    3      0.13      0.00
  -11   18    3      0.65      0.00
  -11   17    3     -0.05      0.00
  -11   16    3      0.50      0.00
  -11   15    3      1.10      0.00
  -11   14    3     -0.14      0.00
  -11   13    3      0.82      0.00
  -11   12    3      2.27      0.00
  -11   11    3     -1.06      0.00
  -11   10    3     -0.45      0.00
  -11    9    3      1.98      0.00
  -11    8    3     -0.79      0.00
  -11    7    3     -2.56      0.00
  -11    6    3     -0.27      0.00
  -11    5    3     -1.09      0.00
  -11    4    3     -1.11      0.00
  -11    3    3     -1.51      0.00
  -11    2    3     -0.63      0.00
  -11    1    3     -0.30      0.00
  -11    0    3      1.02      0.00
  -11   31    3     -0.31      0.00
  -11   32    3     -0.16      0.00
  -11   33    3     -1.50      0.00
  -11   31    2     -0.22      0.00
  -11   30    2      0.42      0.00
  -11   29    2      0.68      0.00
  -11   28    2      0.10      0.00
  -11   27    2      0.21      0.00
  -11   26    2     -0.45      0.00
  -11   25    2      0.26      0.00
  -11   24    2     -0.02      0.00
  -11   23    2     -0.05      0.00
  -11   22    2      0.02      0.00
  -11   21    2      0.02      0.00
  -11   20    2     -0.23      0.00
  -11   19    2     -0.32      0.00
  -11   18    2      0.83      0.00
  -11   17    2      0.29      0.00
  -11   16    2      0.38      0.00
  -11   15    2      0.31      0.00
  -11   14    2      0.85      0.00
  -11   13    2      0.67      0.00
  -11   12    2      0.56      0.00
  -11   11    2      1.73      0.00
  -11   10    2      1.40      0.00
  -11    9    2     -0.19      0.00
  -11    8    2     -1.31      0.00
  -11    7    2     -0.49      0.00
  -11    6    2     -0.90      0.00
  -11    5    2     -1.92      0.00
  -11    4    2     -0.43      0.00
  -11    3    2     -0.86      0.00
  -11    2    2     -0.47      0.00
  -11    1    2     -2.15      0.00
  -11    0    2     -1.05      0.00
  -11   32    2     -0.25      0.00
  -11   31    1     -0.09      0.00
  -11   30    1      0.08      0.00
  -11   29    1      0.30      0.00
  -11   28    1      0.41      0.00
  -11   27    1      0.51      0.00
  -11   26    1     -0.65      0.00
  -11   25    1     -0.26      0.00
  -11   24    1      0.10      0.00
  -11   23    1      0.22      0.00
  -11   22    1     -0.70      0.00
  -11   21    1     -0.26      0.00
  -11   20    1      0.68      0.00
  -11   19    1     -0.81      0.00
  -11   18    1     -0.78      0.00
  -11   17    1     -0.23      0.00
  -11   16    1      1.04      0.00
  -11   15    1      0.64      0.00
  -11   14    1      0.42      0.00
  -11   13    1     -0.13      0.00
  -11   12    1      0.45      0.00
  -11   11    1      1.70      0.00
  -11   10    1      0.54      0.00
  -11    9    1      1.73      0.00
  -11    8    1     -1.19      0.00
  -11    7    1     -2.64      0.00
  -11    6    1      0.86      0.00
  -11    5    1      1.34      0.00
  -11    4    1     -0.38      0.00
  -11    3    1     -2.08      0.00
  -11    2    1     -0.46      0.00
  -11    1    1     -1.68      0.00
  -11    0    1     -1.47      0.00
   11   32    0     -0.06      0.00
   11   31    0     -0.27      0.00
   11   30    0      0.42      0.00
   11   29    0      0.24      0.00
   11   28    0     -0.55      0.00
   11   27    0     -0.09      0.00
   11   26    0     -0.23      0.00
   11   25    0     -0.02      0.00
   11   24    0     -0.36      0.00
   11   23    0     -0.10      0.00
   11   22    0      0.54      0.00
   11   21    0      0.00      0.00
   11   20    0     -0.63      0.00
   11   19    0      1.01      0.00
   11   18    0     -0.50      0.00
   11   17    0     -0.20      0.00
   11   16    0      0.78      0.00
   11   15    0     -0.03      0.00
   11   14    0      0.07      0.00
   11   13    0      0.17      0.00
   11   12    0      0.04      0.00
   11   11    0     -0.50      0.00
   11   10    0     -0.93      0.00
   11    9    0     -0.91      0.00
   11    8    0      1.34      0.00
   11    7    0     -0.61      0.00
   11    6    0     -2.59      0.00
   11    5    0      0.79      0.00
   11    4    0      4.71      0.00
   11    3    0     -0.35      0.00
   11    2    0     -1.28      0.00
   11    1    0      1.29      0.00
   11    0    0     -1.34      0.00
   11   32    1     -0.22      0.00
   11   31    1      0.24      0.00
   11   30    1      0.62      0.00
   11   29    1      0.28      0.00
   11   28    1     -1.66      0.00
   11   27    1     -0.23      0.00
   11   26    1      0.20      0.00
   11   25    1      0.80      0.00
   11   24    1     -0.33      0.00
   11   23    1     -1.19      0.00
   11   22    1      0.02      0.00
   11   21    1      0.76      0.00
   11   20    1      0.19      0.00
   11   19    1     -0.37      0.00
   11   18    1     -1.02      0.00
   11   17    1     -0.20      0.00
   11   16    1      0.40      0.00
   11   15    1      0.38      0.00
   11   14    1      0.79      0.00
   11   13    1      0.92      0.00
   11   12    1     -1.76      0.00
   11   11    1     -0.45      0.00
   11   10    1      0.73      0.00
   11    9    1      0.12      0.00
   11    8    1     -1.07      0.00
   11    7    1     -1.46      0.00
   11    6    1     -0.17      0.00
   11    5    1      0.66      0.00
   11    4    1      2.50      0.00
   11   32    2      0.42      0.00
   11   31    2     -0.30      0.00
   11   30    2     -0.30      0.00
   11   29    2      0.09      0.00
   11   28    2     -0.32      0.00
   11   27    2     -0.05      0.00
   11   26    2     -0.58      0.00
   11   25    2      0.45      0.00
   11   24    2     -0.06      0.00
   11   23    2     -0.75      0.00
   11   22    2     -0.21      0.00
   11   21    2      0.01      0.00
   11   20    2      0.57      0.00
   11   19    2     -0.65      0.00
   11   18    2     -0.90      0.00
   11   17    2      0.82      0.00
   11   16    2      0.12      0.00
   11   15    2     -0.41      0.00
   11   14    2      0.06      0.00
   11   13    2      2.05      0.00
   11   12    2     -0.03      0.00
   11   11    2     -0.44      0.00
   11   10    2     -1.40      0.00
   11    9    2     -0.83      0.00
   11    8    2      0.83      0.00
   11    7    2     -0.13      0.00
   11    6    2     -1.20      0.00
   11   32    3      0.06      0.00
   11   31    3     -0.36      0.00
   11   30    3      0.42      0.00
   11   29    3     -0.29      0.00
   11   28    3     -0.61      0.00
   11   27    3     -0.12      0.00
   11   26    3      1.00      0.00
   11   25    3      0.27      0.00
   11   24    3     -1.16      0.00
   11   23    3     -0.92      0.00
   11   22    3      0.79      0.00
   11   21    3     -0.21      0.00
   11   20    3      0.20      0.00
   11   19    3      0.02      0.00
   11   18    3     -0.41      0.00
   11   17    3      0.51      0.00
   11   16    3     -0.71      0.00
   11   15    3      0.70      0.00
   11   14    3      0.46      0.00
   11   13    3      1.05      0.00
   11   12    3     -0.43      0.00
   11   11    3     -0.38      0.00
   11   10    3     -0.76      0.00
   11    9    3     -0.95      0.00
   11   29    4     -0.20      0.00
   11   28    4      0.13      0.00
   11   27    4     -0.21      0.00
   11   26    4      0.55      0.00
   11   25    4     -0.33      0.00
   11   24    4     -0.21      0.00
   11   23    4     -0.53      0.00
   11   22    4      0.34      0.00
   11   21    4     -0.08      0.00
   11   20    4     -0.11      0.00
   11   19    4     -0.31      0.00
   11   18    4     -0.17      0.00
   11   17    4      0.77      0.00
   11   16    4     -0.43      0.00
   11   15    4      0.30      0.00
   11   14    4     -0.09      0.00
   11   13    4     -0.50      0.00
   11   12    4     -0.69      0.00
   11   11    4      2.46      0.00
   11   10    4      0.48      0.00
   11   25    5     -1.04      0.00
   11   24    5     -0.26      0.00
   11   23    5      0.52      0.00
   11   22    5     -0.62      0.00
   11   21    5     -0.45      0.00
   11   20    5      0.17      0.00
   11   19    5      0.08      0.00
   11   18    5     -0.73      0.00
   11   17    5     -0.27      0.00
   11   16    5      1.07      0.00
   11   15    5     -0.20      0.00
   11   14    5     -0.82      0.00
   11   13    5      0.03      0.00
   11   12    5     -0.51      0.00
   11   11    5      0.94      0.00
   11   20    6      0.14      0.00
   11   19    6      0.72      0.00
   11   18    6     -0.09      0.00
   11   17    6     -0.45      0.00
   11   16    6      0.62      0.00
   11   15    6     -0.84      0.00
   11   14    6      0.48      0.00
   11   13    6      0.94      0.00
   11   12    6      0.15      0.00
  -12    8   11     -0.44      0.00
  -12    7   11     -0.91      0.00
  -12    6   11     -0.20      0.00
  -12    5   11      1.36      0.00
  -12    4   11      0.04      0.00
  -12    3   11     -0.17      0.00
  -12    2   11      0.65      0.00
  -12    1   11     -0.64      0.00
  -12    0   11     -0.61      0.00
  -12    9   11      1.07      0.00
  -12   10   11      0.11      0.00
  -12   11   11     -1.25      0.00
  -12   14   10     -0.06      0.00
  -12   13   10     -0.64      0.00
  -12   12   10     -0.11      0.00
  -12   11   10      1.29      0.00
  -12   10   10      0.31      0.00
  -12    9   10     -1.44      0.00
  -12    8   10     -0.52      0.00
  -12    7   10      0.90      0.00
  -12    6   10      0.05      0.00
  -12    5   10     -0.36      0.00
  -12    4   10     -1.04      0.00
  -12    3   10     -0.05      0.00
  -12    2   10      1.02      0.00
  -12    1   10     -0.27      0.00
  -12    0   10      0.38      0.00
  -12   15   10     -0.51      0.00
  -12   16   10      0.20      0.00
  -12   17   10     -0.48      0.00
  -12   18    9      1.50      0.00
  -12   17    9      0.71      0.00
  -12   16    9     -1.41      0.00
  -12   15    9     -1.80      0.00
  -12   14    9      0.45      0.00
  -12   13    9      1.58      0.00
  -12   12    9     -0.17      0.00
  -12   11    9     -0.94      0.00
  -12   10    9     -0.25      0.00
  -12    9    9      1.31      0.00
  -12    8    9      0.02      0.00
  -12    7    9     -1.54      0.00
  -12    6    9     -0.61      0.00
  -12    5    9      0.69      0.00
  -12    4    9     -0.54      0.00
  -12    3    9     -0.41      0.00
  -12    2    9      0.68      0.00
  -12    1    9     -0.61      0.00
  -12    0    9      0.25      0.00
  -12   19    9     -1.29      0.00
  -12   20    9     -0.49      0.00
  -12   21    9      0.51      0.00
  -12   21    8      0.19      0.00
  -12   20    8      0.24      0.00
  -12   19    8     -0.90      0.00
  -12   18    8      0.03      0.00
  -12   17    8      0.19      0.00
  -12   16    8     -0.69      0.00
  -12   15    8     -0.29      0.00
  -12   14    8     -0.69      0.00
  -12   13    8      0.44      0.00
  -12   12    8     -0.01      0.00
  -12   11    8     -0.04      0.00
  -12   10    8      0.30      0.00
  -12    9    8     -0.02      0.00
  -12    8    8     -0.53      0.00
  -12    7    8     -0.25      0.00
  -12    6    8      0.09      0.00
  -12    5    8      0.03      0.00
  -12    4    8      0.64      0.00
  -12    3    8     -1.04      0.00
  -12    2    8     -0.84      0.00
  -12    1    8      1.09      0.00
  -12    0    8      0.72      0.00
  -12   22    8      0.36      0.00
  -12   23    8     -0.74      0.00
  -12   24    8     -0.39      0.00
  -12   25    8      0.54      0.00
  -12   23    7     -0.69      0.00
  -12   22    7      0.18      0.00
  -12   21    7      0.45      0.00
  -12   20    7     -0.15      0.00
  -12   19    7     -0.22      0.00
  -12   18    7     -0.03      0.00
  -12   17    7      0.19      0.00
  -12   16    7     -0.18      0.00
  -12   15    7      0.05      0.00
  -12   14    7     -1.32      0.00
  -12   13    7     -0.09      0.00
  -12   12    7      0.91      0.00
  -12   11    7     -0.50      0.00
  -12   10    7     -0.16      0.00
  -12    9    7     -0.26      0.00
  -12    8    7      0.80      0.00
  -12    7    7      0.06      0.00
  -12    6    7     -0.23      0.00
  -12    5    7      0.07      0.00
  -12    4    7      1.41      0.00
  -12    3    7     -0.68      0.00
  -12    2    7     -0.55      0.00
  -12    1    7      1.15      0.00
  -12    0    7     -0.93      0.00
  -12   24    7      0.05      0.00
  -12   25    7      0.89      0.00
  -12   26    7      0.32      0.00
  -12   27    7     -0.27      0.00
  -12   25    6      0.65      0.00
  -12   24    6      0.72      0.00
  -12   23    6     -0.25      0.00
  -12   22    6     -0.22      0.00
  -12   21    6      0.56      0.00
  -12   20    6      0.51      0.00
  -12   19    6      0.45      0.00
  -12   18    6      0.12      0.00
  -12   17    6      0.47      0.00
  -12   16    6     -0.19      0.00
  -12   15    6     -0.62      0.00
  -12   14    6      0.31      0.00
  -12   13    6      0.12      0.00
  -12   12    6      0.24      0.00
  -12   11    6     -1.32      0.00
  -12   10    6      0.32      0.00
  -12    9    6      0.55      0.00
  -12    8    6      0.36      0.00
  -12    7    6     -0.34      0.00
  -12    6    6      1.14      0.00
  -12    5    6      0.72      0.00
  -12    4    6     -0.29      0.00
  -12    3    6      0.30      0.00
  -12    2    6      0.41      0.00
  -12    1    6      0.28      0.00
  -12    0    6     -1.10      0.00
  -12   26    6     -0.40      0.00
  -12   27    6      0.58      0.00
  -12   28    6      0.28      0.00
  -12   29    6     -0.65      0.00
  -12   26    5     -0.48      0.00
  -12   25    5      0.27      0.00
  -12   24    5      0.50      0.00
  -12   23    5      0.43      0.00
  -12   22    5     -0.44      0.00
  -12   21    5      0.04      0.00
  -12   20    5      1.16      0.00
  -12   19    5      0.89      0.00
  -12   18    5     -0.23      0.00
  -12   17    5      0.05      0.00
  -12   16    5      0.95      0.00
  -12   15    5     -0.05      0.00
  -12   14    5      0.09      0.00
  -12   13    5     -0.78      0.00
  -12   12    5      0.62      0.00
  -12   11    5     -0.01      0.00
  -12   10    5     -0.48      0.00
  -12    9    5     -0.13      0.00
  -12    8    5      0.61      0.00
  -12    7    5      0.85      0.00
  -12    6    5     -0.28      0.00
  -12    5    5      0.78      0.00
  -12    4    5      0.82      0.00
  -12    3    5     -0.59      0.00
  -12    2    5     -1.09      0.00
  -12    1    5      2.50      0.00
  -12    0    5      1.79      0.00
  -12   27    5     -0.11      0.00
  -12   28    5      0.16      0.00
  -12   29    5      0.23      0.00
  -12   28    4     -0.25      0.00
  -12   27    4      0.13      0.00
  -12   26    4      0.05      0.00
  -12   25    4     -0.54      0.00
  -12   24    4     -0.16      0.00
  -12   23    4      0.26      0.00
  -12   22    4     -0.73      0.00
  -12   21    4      0.12      0.00
  -12   20    4      1.13      0.00
  -12   19    4     -0.09      0.00
  -12   18    4     -0.37      0.00
  -12   17    4      0.28      0.00
  -12   16    4      0.59      0.00
  -12   15    4     -0.36      0.00
  -12   14    4      0.29      0.00
  -12   13    4     -0.24      0.00
  -12   12    4      0.24      0.00
  -12   11    4     -0.14      0.00
  -12   10    4     -1.28      0.00
  -12    9    4      0.42      0.00
  -12    8    4      0.59      0.00
  -12    7    4      0.76      0.00
  -12    6    4     -0.63      0.00
  -12    5    4     -0.23      0.00
  -12    4    4      0.27      0.00
  -12    3    4      1.99      0.00
  -12    2    4      0.16      0.00
  -12    1    4     -2.56      0.00
  -12    0    4      1.21      0.00
  -12   29    3      0.52      0.00
  -12   28    3      0.00      0.00
  -12   27    3     -0.13      0.00
  -12   26    3     -0.33      0.00
  -12   25    3     -0.04      0.00
  -12   24    3     -0.01      0.00
  -12   23    3     -0.71      0.00
  -12   22    3     -0.34      0.00
  -12   21    3      0.30      0.00
  -12   20    3     -0.18      0.00
  -12   19    3     -0.89      0.00
  -12   18    3      0.24      0.00
  -12   17    3     -0.48      0.00
  -12   16    3     -0.23      0.00
  -12   15    3      0.71      0.00
  -12   14    3     -0.41      0.00
  -12   13    3     -0.90      0.00
  -12   12    3      0.34      0.00
  -12   11    3     -0.48      0.00
  -12   10    3     -1.19      0.00
  -12    9    3      0.55      0.00
  -12    8    3     -0.83      0.00
  -12    7    3      0.54      0.00
  -12    6    3      0.96      0.00
  -12    5    3     -0.82      0.00
  -12    4    3     -0.56      0.00
  -12    3    3      0.72      0.00
  -12    2    3      0.29      0.00
  -12    1    3     -0.70      0.00
  -12    0    3      1.08      0.00
  -12   30    2      0.31      0.00
  -12   29    2     -0.14      0.00
  -12   28    2     -0.58      0.00
  -12   27    2      0.57      0.00
  -12   26    2      0.33      0.00
  -12   25    2     -0.94      0.00
  -12   24    2     -0.17      0.00
  -12   23    2      0.72      0.00
  -12   22    2     -0.06      0.00
  -12   21    2     -1.64      0.00
  -12   20    2     -0.25      0.00
  -12   19    2      0.42      0.00
  -12   18    2     -0.12      0.00
  -12   17    2     -0.72      0.00
  -12   16    2     -0.13      0.00
  -12   15    2     -0.06      0.00
  -12   14    2     -0.41      0.00
  -12   13    2     -0.23      0.00
  -12   12    2     -0.81      0.00
  -12   11    2      0.15      0.00
  -12   10    2      0.19      0.00
  -12    9    2     -0.98      0.00
  -12    8    2     -1.01      0.00
  -12    7    2     -0.21      0.00
  -12    6    2     -0.35      0.00
  -12    5    2     -0.35      0.00
  -12    4    2      0.49      0.00
  -12    3    2     -0.03      0.00
  -12    2    2      1.27      0.00
  -12    1    2     -0.14      0.00
  -12    0    2     -2.42      0.00
  -12   30    1      0.16      0.00
  -12   29    1      0.36      0.00
  -12   28    1     -0.04      0.00
  -12   27    1     -0.32      0.00
  -12   26    1      0.61      0.00
  -12   25    1      0.26      0.00
  -12   24    1     -0.71      0.00
  -12   23    1     -0.78      0.00
  -12   22    1      0.32      0.00
  -12   21    1      0.29      0.00
  -12   20    1      0.15      0.00
  -12   19    1     -0.26      0.00
  -12   18    1     -0.68      0.00
  -12   17    1     -0.19      0.00
  -12   16    1      0.47      0.00
  -12   15    1      0.27      0.00
  -12   14    1     -0.33      0.00
  -12   13    1     -0.61      0.00
  -12   12    1      0.14      0.00
  -12   11    1      1.74      0.00
  -12   10    1     -0.68      0.00
  -12    9    1     -1.69      0.00
  -12    8    1     -0.62      0.00
  -12    7    1     -1.63      0.00
  -12    6    1      0.03      0.00
  -12    5    1     -0.66      0.00
  -12    4    1      0.18      0.00
  -12    3    1      2.23      0.00
  -12    2    1     -0.21      0.00
  -12    1    1     -2.62      0.00
  -12    0    1     -1.26      0.00
   12   31    0     -0.39      0.00
   12   30    0      1.07      0.00
   12   29    0     -0.80      0.00
   12   28    0      0.13      0.00
   12   27    0      0.25      0.00
   12   26    0      0.43      0.00
   12   25    0      0.09      0.00
   12   24    0     -0.25      0.00
   12   23    0      0.01      0.00
   12   22    0     -0.14      0.00
   12   21    0     -0.45      0.00
   12   20    0      0.24      0.00
   12   19    0     -0.16      0.00
   12   18    0     -0.24      0.00
   12   17    0      0.44      0.00
   12   16    0      0.66      0.00
   12   15    0     -0.67      0.00
   12   14    0      0.21      0.00
   12   13    0     -0.13      0.00
   12   12    0     -0.24      0.00
   12   11    0     -0.39      0.00
   12   10    0      0.42      0.00
   12    9    0      0.09      0.00
   12    8    0     -0.64      0.00
   12    7    0      2.00      0.00
   12    6    0     -0.75      0.00
   12    5    0      1.33      0.00
   12    4    0      0.23      0.00
   12    3    0     -1.80      0.00
   12   31    1      0.18      0.00
   12   30    1      0.99      0.00
   12   29    1     -0.96      0.00
   12   28    1      0.25      0.00
   12   27    1      0.04      0.00
   12   26    1      0.78      0.00
   12   25    1      0.07      0.00
   12   24    1     -0.53      0.00
   12   23    1     -0.46      0.00
   12   22    1      0.01      0.00
   12   21    1     -0.21      0.00
   12   20    1      0.63      0.00
   12   19    1     -0.66      0.00
   12   18    1      0.36      0.00
   12   17    1      0.33      0.00
   12   16    1      0.25      0.00
   12   15    1     -0.12      0.00
   12   14    1      0.46      0.00
   12   13    1      0.37      0.00
   12   12    1     -0.64      0.00
   12   11    1     -0.97      0.00
   12   10    1      0.73      0.00
   12    9    1      1.22      0.00
   12    8    1      0.30      0.00
   12    7    1      0.29      0.00
   12    6    1     -2.34      0.00
   12    5    1      1.24      0.00
   12   28    2      0.30      0.00
   12   27    2     -0.60      0.00
   12   26    2      0.61      0.00
   12   25    2      0.76      0.00
   12   24    2     -0.97      0.00
   12   23    2     -0.93      0.00
   12   22    2      0.38      0.00
   12   21    2     -0.50      0.00
   12   20    2      1.48      0.00
   12   19    2     -0.22      0.00
   12   18    2      0.39      0.00
   12   17    2     -0.62      0.00
   12   16    2     -0.46      0.00
   12   15    2      0.80      0.00
   12   14    2      0.76      0.00
   12   13    2      0.55      0.00
   12   12    2     -0.70      0.00
   12   11    2      0.23      0.00
   12   10    2      0.05      0.00
   12    9    2      0.00      0.00
   12    8    2     -0.07      0.00
   12   24    3     -1.14      0.00
   12   23    3     -0.28      0.00
   12   22    3      0.43      0.00
   12   21    3     -0.55      0.00
   12   20    3      1.63      0.00
   12   19    3     -0.55      0.00
   12   18    3     -0.31      0.00
   12   17    3     -0.20      0.00
   12   16    3      0.40      0.00
   12   15    3      0.38      0.00
   12   14    3      0.12      0.00
   12   13    3      1.24      0.00
   12   12    3      0.34      0.00
   12   11    3      0.56      0.00
   12   10    3     -1.80      0.00
   12   19    4      0.41      0.00
   12   18    4      0.06      0.00
   12   17    4     -0.81      0.00
   12   16    4      0.94      0.00
   12   15    4      1.55      0.00
   12   14    4     -0.03      0.00
   12   13    4     -0.32      0.00
   12   12    4      0.50      0.00
  -13    0   11     -0.74      0.00
  -13    1   11      0.02      0.00
  -13    2   11     -0.55      0.00
  -13    3   11     -0.92      0.00
  -13    4   11      1.00      0.00
  -13   10   10     -0.04      0.00
  -13    9   10     -0.30      0.00
  -13    8   10      0.34      0.00
  -13    7   10      0.60      0.00
  -13    6   10      0.12      0.00
  -13    5   10      0.23      0.00
  -13    4   10      0.34      0.00
  -13    3   10     -0.71      0.00
  -13    2   10     -0.29      0.00
  -13    1   10     -0.46      0.00
  -13    0   10     -0.50      0.00
  -13   11   10      0.83      0.00
  -13   12   10      0.42      0.00
  -13   13   10     -0.20      0.00
  -13   14   10     -1.66      0.00
  -13   15    9      0.06      0.00
  -13   14    9     -0.81      0.00
  -13   13    9      0.12      0.00
  -13   12    9      0.78      0.00
  -13   11    9     -0.22      0.00
  -13   10    9     -0.44      0.00
  -13    9    9      0.90      0.00
  -13    8    9      1.28      0.00
  -13    7    9     -0.80      0.00
  -13    6    9     -1.03      0.00
  -13    5    9      0.74      0.00
  -13    4    9      1.58      0.00
  -13    3    9     -0.23      0.00
  -13    2    9     -1.45      0.00
  -13    1    9     -1.07      0.00
  -13    0    9      0.63      0.00
  -13   16    9     -0.06      0.00
  -13   17    9      0.46      0.00
  -13   18    9     -0.07      0.00
  -13   19    9      0.29      0.00
  -13   18    8     -0.31      0.00
  -13   17    8      0.79      0.00
  -13   16    8      0.25      0.00
  -13   15    8     -0.43      0.00
  -13   14    8      0.12      0.00
  -13   13    8     -0.04      0.00
  -13   12    8      0.65      0.00
  -13   11    8      0.29      0.00
  -13   10    8     -0.05      0.00
  -13    9    8      0.15      0.00
  -13    8    8      0.19      0.00
  -13    7    8      0.06      0.00
  -13    6    8      0.09      0.00
  -13    5    8     -0.09      0.00
  -13    4    8      0.64      0.00
  -13    3    8      0.38      0.00
  -13    2    8     -0.98      0.00
  -13    1    8      0.04      0.00
  -13    0    8      0.10      0.00
  -13   19    8     -0.57      0.00
  -13   20    8     -0.50      0.00
  -13   21    8      0.11      0.00
  -13   22    8      0.31      0.00
  -13   23    8     -0.40      0.00
  -13   21    7     -0.63      0.00
  -13   20    7     -0.73      0.00
  -13   19    7      0.14      0.00
  -13   18    7      0.18      0.00
  -13   17    7     -0.72      0.00
  -13   16    7      0.27      0.00
  -13   15    7      0.74      0.00
  -13   14    7     -0.06      0.00
  -13   13    7     -0.53      0.00
  -13   12    7      0.90      0.00
  -13   11    7      0.93      0.00
  -13   10    7     -0.62      0.00
  -13    9    7     -0.08      0.00
  -13    8    7     -0.29      0.00
  -13    7    7      0.73      0.00
  -13    6    7      0.52      0.00
  -13    5    7     -0.55      0.00
  -13    4    7     -0.07      0.00
  -13    3    7      0.55      0.00
  -13    2    7     -0.21      0.00
  -13    1    7      0.97      0.00
  -13    0    7     -0.55      0.00
  -13   22    7     -0.19      0.00
  -13   23    7     -0.11      0.00
  -13   24    7     -0.16      0.00
  -13   23    6     -0.36      0.00
  -13   22    6     -0.82      0.00
  -13   21    6     -0.74      0.00
  -13   20    6     -0.29      0.00
  -13   19    6     -0.20      0.00
  -13   18    6     -0.48      0.00
  -13   17    6     -0.51      0.00
  -13   16    6      0.53      0.00
  -13   15    6      0.20      0.00
  -13   14    6     -0.65      0.00
  -13   13    6      0.56      0.00
  -13   12    6      0.41      0.00
  -13   11    6      0.62      0.00
  -13   10    6     -0.80      0.00
  -13    9    6      0.28      0.00
  -13    8    6     -0.20      0.00
  -13    7    6      0.07      0.00
  -13    6    6      0.20      0.00
  -13    5    6      0.32      0.00
  -13    4    6      0.03      0.00
  -13    3    6     -0.89      0.00
  -13    2    6     -0.35      0.00
  -13    1    6      1.63      0.00
  -13    0    6      0.46      0.00
  -13   24    6      0.20      0.00
  -13   25    5     -0.29      0.00
  -13   24    5     -0.16      0.00
  -13   23    5      0.33      0.00
  -13   22    5     -0.28      0.00
  -13   21    5     -1.62      0.00
  -13   20    5     -0.44      0.00
  -13   19    5      0.12      0.00
  -13   18    5     -0.38      0.00
  -13   17    5     -0.58      0.00
  -13   16    5     -0.13      0.00
  -13   15    5      0.35      0.00
  -13   14    5     -0.36      0.00
  -13   13    5      0.23      0.00
  -13   12    5     -0.49      0.00
  -13   11    5      1.11      0.00
  -13   10    5      0.04      0.00
  -13    9    5     -0.49      0.00
  -13    8    5     -0.70      0.00
  -13    7    5      0.57      0.00
  -13    6    5      0.37      0.00
  -13    5    5     -0.99      0.00
  -13    4    5     -0.16      0.00
  -13    3    5     -0.43      0.00
  -13    2    5      0.07      0.00
  -13    1    5     -0.13      0.00
  -13    0    5      0.53      0.00
  -13   26    4      0.33      0.00
  -13   25    4     -0.27      0.00
  -13   24    4      0.36      0.00
  -13   23    4     -0.20      0.00
  -13   22    4     -0.30      0.00
  -13   21    4     -0.35      0.00
  -13   20    4      0.07      0.00
  -13   19    4     -0.65      0.00
  -13   18    4     -0.23      0.00
  -13   17    4      0.14      0.00
  -13   16    4     -0.54      0.00
  -13   15    4      0.35      0.00
  -13   14    4      0.15      0.00
  -13   13    4     -0.29      0.00
  -13   12    4      0.13      0.00
  -13   11    4      1.39      0.00
  -13   10    4     -0.56      0.00
  -13    9    4     -0.41      0.00
  -13    8    4     -0.03      0.00
  -13    7    4     -0.34      0.00
  -13    6    4      0.28      0.00
  -13    5    4     -0.41      0.00
  -13    4    4     -0.36      0.00
  -13    3    4     -1.06      0.00
  -13    2    4      0.57      0.00
  -13    1    4     -0.94      0.00
  -13    0    4     -0.28      0.00
  -13   27    3      0.07      0.00
  -13   26    3     -0.06      0.00
  -13   25    3      0.07      0.00
  -13   24    3      0.56      0.00
  -13   23    3     -0.65      0.00
  -13   22    3      0.08      0.00
  -13   21    3      0.59      0.00
  -13   20    3     -0.30      0.00
  -13   19    3     -0.68      0.00
  -13   18    3      0.28      0.00
  -13   17    3      0.58      0.00
  -13   16    3     -0.62      0.00
  -13   15    3      0.08      0.00
  -13   14    3      0.71      0.00
  -13   13    3      0.53      0.00
  -13   12    3      0.44      0.00
  -13   11    3     -0.07      0.00
  -13   10    3      0.12      0.00
  -13    9    3      0.94      0.00
  -13    8    3     -0.72      0.00
  -13    7    3     -0.27      0.00
  -13    6    3      1.39      0.00
  -13    5    3     -1.38      0.00
  -13    4    3     -0.56      0.00
  -13    3    3     -0.24      0.00
  -13    2    3     -0.31      0.00
  -13    1    3     -0.14      0.00
  -13    0    3      0.64      0.00
  -13   28    2     -1.25      0.00
  -13   27    2     -0.14      0.00
  -13   26    2      1.10      0.00
  -13   25    2      0.37      0.00
  -13   24    2     -0.69      0.00
  -13   23    2      0.08      0.00
  -13   22    2      0.56      0.00
  -13   21    2     -0.27      0.00
  -13   20    2     -0.93      0.00
  -13   19    2      0.41      0.00
  -13   18    2      0.50      0.00
  -13   17    2      0.35      0.00
  -13   16    2      0.00      0.00
  -13   15    2     -0.68      0.00
  -13   14    2      0.30      0.00
  -13   13    2      0.61      0.00
  -13   12    2      0.07      0.00
  -13   11    2      0.70      0.00
  -13   10    2      1.60      0.00
  -13    9    2     -0.41      0.00
  -13    8    2     -0.23      0.00
  -13    7    2      0.32      0.00
  -13    6    2     -0.40      0.00
  -13    5    2     -0.64      0.00
  -13    4    2      0.78      0.00
  -13    3    2     -0.41      0.00
  -13    2    2      0.01      0.00
  -13    1    2      1.81      0.00
  -13    0    2     -0.49      0.00
  -13   27    1     -0.06      0.00
  -13   26    1      0.14      0.00
  -13   25    1      1.49      0.00
  -13   24    1     -0.11      0.00
  -13   23    1     -0.68      0.00
  -13   22    1     -0.43      0.00
  -13   21    1      0.02      0.00
  -13   20    1      0.21      0.00
  -13   19    1      0.66      0.00
  -13   18    1     -0.26      0.00
  -13   17    1     -0.56      0.00
  -13   16    1      0.71      0.00
  -13   15    1     -0.83      0.00
  -13   14    1     -0.64      0.00
  -13   13    1     -0.01      0.00
  -13   12    1      1.04      0.00
  -13   11    1      0.59      0.00
  -13   10    1      0.00      0.00
  -13    9    1     -0.57      0.00
  -13    8    1      1.06      0.00
  -13    7    1     -0.54      0.00
  -13    6    1     -0.98      0.00
  -13    5    1     -0.02      0.00
  -13    4    1     -0.05      0.00
  -13    3    1      2.07      0.00
  -13    2    1     -0.16      0.00
  -13    1    1     -1.39      0.00
  -13    0    1      1.56      0.00
   13   24    0      0.06      0.00
   13   23    0      0.53      0.00
   13   22    0     -0.54      0.00
   13   21    0     -0.20      0.00
   13   20    0      0.48      0.00
   13   19    0      0.02      0.00
   13   18    0      0.36      0.00
   13   17    0      0.33      0.00
   13   16    0      0.48      0.00
   13   15    0      0.46      0.00
   13   14    0     -0.55      0.00
   13   13    0      0.62      0.00
   13   12    0      0.73      0.00
   13   11    0      0.71      0.00
   13   10    0     -0.80      0.00
   13    9    0      0.01      0.00
   13    8    0      0.34      0.00
   13    7    0     -0.20      0.00
   13    6    0     -0.99      0.00
   13    5    0      1.41      0.00
   13   21    1      0.64      0.00
   13   20    1      0.03      0.00
   13   19    1     -0.63      0.00
   13   18    1      1.60      0.00
   13   17    1     -0.52      0.00
   13   16    1     -0.12      0.00
   13   15    1      1.23      0.00
   13   14    1      0.71      0.00
   13   13    1     -0.59      0.00
   13   12    1     -0.69      0.00
   13   11    1      1.75      0.00
   13   10    1     -0.66      0.00
   13    9    1     -0.68      0.00
   13    8    1     -1.10      0.00
   13    7    1      0.77      0.00
   13   14    2     -1.02      0.00
   13   13    2      1.14      0.00
   13   12    2      1.62      0.00
   13   11    2     -1.42      0.00
  -14    5   10     -0.16      0.00
  -14    4   10      0.25      0.00
  -14    3   10     -0.14      0.00
  -14    2   10      0.13      0.00
  -14    1   10      0.03      0.00
  -14    0   10     -0.29      0.00
  -14    6   10     -0.41      0.00
  -14    7   10     -0.34      0.00
  -14    8   10     -0.27      0.00
  -14    9   10     -0.27      0.00
  -14   10   10      0.13      0.00
  -14   12    9     -0.23      0.00
  -14   11    9      0.15      0.00
  -14   10    9      0.35      0.00
  -14    9    9      0.79      0.00
  -14    8    9      0.07      0.00
  -14    7    9     -0.55      0.00
  -14    6    9     -0.91      0.00
  -14    5    9     -0.50      0.00
  -14    4    9      0.21      0.00
  -14    3    9      1.19      0.00
  -14    2    9     -0.02      0.00
  -14    1    9     -1.69      0.00
  -14    0    9     -0.07      0.00
  -14   13    9      0.14      0.00
  -14   14    9     -0.14      0.00
  -14   15    9      0.14      0.00
  -14   16    9     -0.19      0.00
  -14   17    9     -0.36      0.00
  -14   16    8     -0.31      0.00
  -14   15    8     -0.02      0.00
  -14   14    8     -0.16      0.00
  -14   13    8      0.33      0.00
  -14   12    8     -0.62      0.00
  -14   11    8      0.69      0.00
  -14   10    8      0.47      0.00
  -14    9    8      0.34      0.00
  -14    8    8      0.15      0.00
  -14    7    8     -0.65      0.00
  -14    6    8     -0.26      0.00
  -14    5    8      0.49      0.00
  -14    4    8     -0.49      0.00
  -14    3    8     -0.01      0.00
  -14    2    8      0.52      0.00
  -14    1    8      0.11      0.00
  -14    0    8     -0.05      0.00
  -14   17    8     -0.30      0.00
  -14   19    7     -0.28      0.00
  -14   18    7      0.19      0.00
  -14   17    7     -0.07      0.00
  -14   16    7     -0.89      0.00
  -14   15    7      0.05      0.00
  -14   14    7     -0.49      0.00
  -14   13    7      0.17      0.00
  -14   12    7      0.56      0.00
  -14   11    7      0.26      0.00
  -14   10    7     -0.37      0.00
  -14    9    7      0.01      0.00
  -14    8    7      0.46      0.00
  -14    7    7     -0.35      0.00
  -14    6    7      0.38      0.00
  -14    5    7      0.05      0.00
  -14    4    7     -0.49      0.00
  -14    3    7      0.34      0.00
  -14    2    7      0.20      0.00
  -14    1    7      0.08      0.00
  -14    0    7      0.52      0.00
  -14   21    6      0.08      0.00
  -14   20    6      0.20      0.00
  -14   19    6      0.32      0.00
  -14   18    6     -0.15      0.00
  -14   17    6     -0.33      0.00
  -14   16    6     -0.21      0.00
  -14   15    6      0.25      0.00
  -14   14    6     -0.41      0.00
  -14   13    6      0.22      0.00
  -14   12    6      0.29      0.00
  -14   11    6     -0.80      0.00
  -14   10    6      0.70      0.00
  -14    9    6      0.35      0.00
  -14    8    6     -0.44      0.00
  -14    7    6     -0.60      0.00
  -14    6    6      0.94      0.00
  -14    5    6      0.42      0.00
  -14    4    6     -0.45      0.00
  -14    3    6     -0.66      0.00
  -14    2    6      0.24      0.00
  -14    1    6      1.24      0.00
  -14    0    6     -0.43      0.00
  -14   23    5      0.29      0.00
  -14   22    5      0.33      0.00
  -14   21    5     -0.02      0.00
  -14   20    5      0.20      0.00
  -14   19    5      0.32      0.00
  -14   18    5     -0.37      0.00
  -14   17    5      0.26      0.00
  -14   16    5      0.44      0.00
  -14   15    5      0.43      0.00
  -14   14    5      0.06      0.00
  -14   13    5     -0.37      0.00
  -14   12    5     -0.01      0.00
  -14   11    5      0.25      0.00
  -14   10    5      0.60      0.00
  -14    9    5     -0.39      0.00
  -14    8    5      0.23      0.00
  -14    7    5      0.12      0.00
  -14    6    5     -0.05      0.00
  -14    5    5     -0.06      0.00
  -14    4    5      0.10      0.00
  -14    3    5     -0.39      0.00
  -14    2    5      0.26      0.00
  -14    1    5      0.80      0.00
  -14    0    5     -1.83      0.00
  -14   24    4      0.71      0.00
  -14   23    4      0.35      0.00
  -14   22    4     -0.76      0.00
  -14   21    4      0.49      0.00
  -14   20    4      0.21      0.00
  -14   19    4     -0.49      0.00
  -14   18    4     -0.38      0.00
  -14   17    4      0.81      0.00
  -14   16    4      0.59      0.00
  -14   15    4      0.20      0.00
  -14   14    4      0.25      0.00
  -14   13    4      0.24      0.00
  -14   12    4      0.43      0.00
  -14   11    4      0.44      0.00
  -14   10    4     -0.45      0.00
  -14    9    4      0.42      0.00
  -14    8    4      1.00      0.00
  -14    7    4     -0.83      0.00
  -14    6    4     -0.54      0.00
  -14    5    4      1.06      0.00
  -14    4    4      0.42      0.00
  -14    3    4     -0.94      0.00
  -14    2    4     -0.89      0.00
  -14    1    4      0.76      0.00
  -14    0    4     -0.57      0.00
  -14   21    3      0.43      0.00
  -14   20    3     -0.82      0.00
  -14   19    3     -0.62      0.00
  -14   18    3      0.43      0.00
  -14   17    3      0.01      0.00
  -14   16    3     -0.04      0.00
  -14   15    3      0.78      0.00
  -14   14    3      0.93      0.00
  -14   13    3      0.43      0.00
  -14   12    3     -0.39      0.00
  -14   11    3      0.68      0.00
  -14   10    3      0.59      0.00
  -14    9    3      0.20      0.00
  -14    8    3     -0.51      0.00
  -14    7    3      0.63      0.00
  -14    6    3      0.79      0.00
  -14    5    3     -0.54      0.00
  -14    4    3     -1.02      0.00
  -14    3    3     -0.07      0.00
  -14    2    3     -0.82      0.00
  -14    1    3      0.75      0.00
  -14    0    3      0.84      0.00
  -14   18    2      0.42      0.00
  -14   17    2     -0.22      0.00
  -14   16    2      0.23      0.00
  -14   15    2      0.82      0.00
  -14   14    2      0.26      0.00
  -14   13    2      0.59      0.00
  -14   12    2     -0.53      0.00
  -14   11    2      1.29      0.00
  -14   10    2      1.63      0.00
  -14    9    2     -0.55      0.00
  -14    8    2     -0.77      0.00
  -14    7    2      2.05      0.00
  -14    6    2     -1.07      0.00
  -14    5    2     -1.34      0.00
  -14    4    2      0.42      0.00
  -14    3    2      0.08      0.00
  -14    2    2     -1.46      0.00
  -14    1    2      0.23      0.00
  -14    0    2      2.10      0.00
  -14   14    1     -0.13      0.00
  -14   13    1      2.08      0.00
  -14   12    1      0.72      0.00
  -14   11    1      0.27      0.00
  -14   10    1      0.23      0.00
  -14    9    1      0.77      0.00
  -14    8    1      0.09      0.00
  -14    7    1      0.94      0.00
  -14    6    1     -0.98      0.00
  -14    5    1     -0.09      0.00
  -14    4    1     -0.49      0.00
  -14    3    1     -0.25      0.00
  -15    8    9      0.62      0.00
  -15    7    9     -0.20      0.00
  -15    6    9      0.33      0.00
  -15    5    9     -0.48      0.00
  -15    4    9     -0.08      0.00
  -15    3    9      0.09      0.00
  -15    2    9      0.52      0.00
  -15    1    9     -0.81      0.00
  -15    0    9     -0.88      0.00
  -15   13    8     -0.45      0.00
  -15   12    8      0.34      0.00
  -15   11    8     -0.35      0.00
  -15   10    8     -0.04      0.00
  -15    9    8     -0.31      0.00
  -15    8    8      1.46      0.00
  -15    7    8     -0.17      0.00
  -15    6    8     -1.29      0.00
  -15    5    8      0.23      0.00
  -15    4    8      1.25      0.00
  -15    3    8     -0.46      0.00
  -15    2    8     -0.79      0.00
  -15    1    8     -0.13      0.00
  -15    0    8      0.21      0.00
  -15   13    7     -0.93      0.00
  -15   12    7      0.26      0.00
  -15   11    7      0.24      0.00
  -15   10    7     -0.11      0.00
  -15    9    7     -0.49      0.00
  -15    8    7     -0.01      0.00
  -15    7    7     -0.02      0.00
  -15    6    7      0.07      0.00
  -15    5    7     -0.39      0.00
  -15    4    7     -0.54      0.00
  -15    3    7      1.34      0.00
  -15    2    7      0.34      0.00
  -15    1    7     -1.64      0.00
  -15    0    7     -0.48      0.00
  -15   11    6     -0.60      0.00
  -15   10    6     -0.98      0.00
  -15    9    6      0.67      0.00
  -15    8    6      0.25      0.00
  -15    7    6     -0.52      0.00
  -15    6    6     -0.85      0.00
  -15    4    6      0.22      0.00
  -15    3    6      0.41      0.00
  -15    2    6     -0.05      0.00
  -15    1    6      0.73      0.00
  -15    0    6      0.40      0.00
   12    0    0     -2.50      0.00
   13    0    0      2.42      0.00
   14    0    0      1.01      0.00
   15    0    0      1.70      0.00
   16    0    0      0.27      0.00
   12    1    0     -1.25      0.00
   13    1    0      0.22      0.00
   14    1    0      2.28      0.00
   15    1    0      0.97      0.00
   16    1    0      0.38      0.00
   12    2    0      0.09      0.00
   13    2    0      0.41      0.00
   14    2    0      0.89      0.00
   15    2    0     -2.08      0.00
   16    2    0     -0.61      0.00
   13    3    0     -2.28      0.00
   14    3    0     -0.70      0.00
   15    3    0      0.05      0.00
   13    4    0     -0.97      0.00
   14    4    0     -1.60      0.00
   15    4    0      1.48      0.00
   14    5    0      1.35      0.00
   15    5    0      1.01      0.00
   14    6    0      0.80      0.00
   15    6    0     -1.04      0.00
   14    7    0     -1.22      0.00
   15    7    0      0.66      0.00
   14    8    0     -0.24      0.00
   15    8    0      1.49      0.00
   14    9    0     -0.94      0.00
   15    9    0     -0.57      0.00
   14   10    0     -0.43      0.00
   15   10    0     -2.06      0.00
   14   11    0     -0.52      0.00
   15   11    0      0.22      0.00
   14   12    0      0.77      0.00
   15   12    0      1.59      0.00
   14   13    0     -1.51      0.00
   15   13    0     -0.66      0.00
   14   14    0      0.97      0.00
   15   14    0      0.04      0.00
   14   15    0     -0.83      0.00
   15   15    0      1.13      0.00
   14   16    0     -1.28      0.00
   14   17    0      0.03      0.00
   14   18    0      1.27      0.00
   14   19    0      0.05      0.00
   14   20    0     -0.98      0.00
   14   21    0      1.06      0.00
   13   25    0     -1.16      0.00
    0   40    0      0.90      0.00
    1   40    0      0.57      0.00
    2   40    0      0.49      0.00
    3   40    0      0.38      0.00
    4   40    0      0.40      0.00
    5   40    0      0.42      0.00
    6   40    0      0.67      0.00
  -16    0    1      0.90      0.00
  -15    0    1      0.26      0.00
  -14    0    1      1.86      0.00
    8    0    1      3.18      0.00
    9    0    1     -0.16      0.00
   10    0    1     -0.45      0.00
   11    0    1     -3.53      0.00
   12    0    1      0.01      0.00
   13    0    1      2.56      0.00
   14    0    1      1.84      0.00
   15    0    1     -1.63      0.00
  -16    1    1     -0.57      0.00
  -15    1    1      1.90      0.00
  -14    1    1     -1.72      0.00
    9    1    1     -2.98      0.00
   10    1    1      1.10      0.00
   11    1    1      1.28      0.00
   12    1    1     -0.73      0.00
   13    1    1     -0.90      0.00
   14    1    1     -0.57      0.00
   15    1    1      1.32      0.00
  -16    2    1     -1.58      0.00
  -15    2    1     -0.95      0.00
  -14    2    1     -0.33      0.00
   10    2    1      1.02      0.00
   11    2    1      2.76      0.00
   12    2    1     -1.55      0.00
   13    2    1      0.22      0.00
   14    2    1     -0.31      0.00
   15    2    1      1.00      0.00
  -16    3    1      0.73      0.00
  -15    3    1     -3.36      0.00
   11    3    1     -1.10      0.00
   12    3    1     -2.15      0.00
   13    3    1      0.87      0.00
   14    3    1      2.06      0.00
   15    3    1     -0.46      0.00
  -16    4    1      1.15      0.00
  -15    4    1      1.07      0.00
   -2    4    1      3.22      0.00
   12    4    1      1.32      0.00
   13    4    1     -0.51      0.00
   14    4    1      0.52      0.00
   15    4    1     -1.59      0.00
  -16    5    1     -1.11      0.00
  -15    5    1      1.55      0.00
   13    5    1     -0.68      0.00
   14    5    1     -1.47      0.00
   15    5    1      1.21      0.00
  -15    6    1     -0.03      0.00
   13    6    1     -0.81      0.00
   14    6    1     -0.15      0.00
   15    6    1      1.36      0.00
  -15    7    1     -1.91      0.00
   14    7    1      1.68      0.00
   15    7    1      0.65      0.00
  -15    8    1     -0.12      0.00
   14    8    1      0.33      0.00
   15    8    1     -0.61      0.00
  -15    9    1      1.91      0.00
   -1    9    1      5.00      0.00
   14    9    1     -2.15      0.00
   15    9    1     -0.63      0.00
  -15   10    1     -0.65      0.00
   14   10    1     -1.64      0.00
   15   10    1     -0.03      0.00
  -15   11    1     -1.92      0.00
   14   11    1      1.42      0.00
   15   11    1      0.12      0.00
  -15   12    1      1.17      0.00
   14   12    1      1.98      0.00
   15   12    1      0.82      0.00
  -15   13    1      1.46      0.00
   14   13    1     -3.69      0.00
   15   13    1     -1.14      0.00
  -15   14    1     -0.61      0.00
   14   14    1     -0.37      0.00
   15   14    1      0.12      0.00
  -15   15    1     -1.44      0.00
  -14   15    1      0.30      0.00
   14   15    1      1.46      0.00
  -15   16    1     -0.26      0.00
  -14   16    1     -0.08      0.00
   14   16    1     -0.23      0.00
  -14   17    1     -0.43      0.00
   14   17    1     -1.59      0.00
  -14   18    1      0.65      0.00
   14   18    1      0.59      0.00
  -14   19    1      0.58      0.00
   14   19    1      1.37      0.00
  -14   20    1     -0.50      0.00
   14   20    1     -0.70      0.00
  -14   21    1     -1.37      0.00
   13   22    1     -0.12      0.00
   13   23    1     -0.18      0.00
   13   24    1     -0.39      0.00
   13   25    1      0.45      0.00
  -11   32    1      0.28      0.00
   -7   39    1      0.72      0.00
   -6   40    1      0.06      0.00
   -5   40    1     -0.45      0.00
   -4   40    1     -0.30      0.00
   -3   40    1     -0.35      0.00
   -2   40    1     -0.32      0.00
   -1   40    1      0.06      0.00
    0   40    1     -0.77      0.00
    1   40    1     -0.24      0.00
    2   40    1      0.13      0.00
    3   40    1     -0.03      0.00
    4   40    1     -0.07      0.00
    5   40    1     -0.09      0.00
    6   40    1     -0.12      0.00
  -16    0    2     -1.53      0.00
  -15    0    2     -1.08      0.00
   -3    0    2    -10.62      0.00
    5    0    2    -11.19      0.00
    6    0    2     -7.28      0.00
    7    0    2    -18.16      0.00
    8    0    2    -11.82      0.00
    9    0    2     -2.48      0.00
   10    0    2     -5.39      0.00
   11    0    2     -1.23      0.00
   12    0    2     -1.53      0.00
   13    0    2      4.45      0.00
   14    0    2      1.38      0.00
   15    0    2      0.45      0.00
  -16    1    2      1.28      0.00
  -15    1    2     -1.84      0.00
   -4    1    2     15.46      0.00
    0    1    2     36.68      0.00
    6    1    2      3.42      0.00
    7    1    2      4.78      0.00
    8    1    2     -4.53      0.00
    9    1    2     -0.04      0.00
   10    1    2      2.32      0.00
   11    1    2      1.36      0.00
   12    1    2      0.02      0.00
   13    1    2      0.50      0.00
   14    1    2      0.91      0.00
   15    1    2     -3.46      0.00
  -16    2    2      0.22      0.00
  -15    2    2      0.51      0.00
    7    2    2      1.87      0.00
    8    2    2      9.38      0.00
    9    2    2      4.15      0.00
   10    2    2      4.47      0.00
   11    2    2      2.37      0.00
   12    2    2      2.32      0.00
   13    2    2     -2.27      0.00
   14    2    2      0.56      0.00
   15    2    2     -0.97      0.00
  -16    3    2     -0.79      0.00
  -15    3    2      0.57      0.00
    9    3    2     -2.70      0.00
   10    3    2     -2.18      0.00
   11    3    2     -1.53      0.00
   12    3    2     -1.53      0.00
   13    3    2      1.00      0.00
   14    3    2      0.65      0.00
   15    3    2      4.18      0.00
  -16    4    2     -0.01      0.00
  -15    4    2     -0.36      0.00
   -1    4    2      5.31      0.00
   10    4    2     -2.76      0.00
   11    4    2      1.84      0.00
   12    4    2     -3.05      0.00
   13    4    2      1.35      0.00
   14    4    2     -0.55      0.00
   15    4    2      0.30      0.00
  -16    5    2      0.31      0.00
  -15    5    2     -2.66      0.00
   -2    5    2     12.06      0.00
    3    5    2     15.35      0.00
   11    5    2      0.89      0.00
   12    5    2     -0.04      0.00
   13    5    2     -0.28      0.00
   14    5    2     -0.04      0.00
   15    5    2     -2.93      0.00
  -16    6    2      0.91      0.00
  -15    6    2      1.68      0.00
   -5    6    2      6.11      0.00
   -3    6    2      9.45      0.00
   12    6    2      0.40      0.00
   13    6    2     -1.98      0.00
   14    6    2      0.67      0.00
   15    6    2     -0.60      0.00
  -15    7    2      2.03      0.00
   12    7    2      0.25      0.00
   13    7    2     -0.86      0.00
   14    7    2     -0.29      0.00
   15    7    2      2.67      0.00
  -15    8    2     -2.25      0.00
   -1    8    2      3.75      0.00
   13    8    2      1.83      0.00
   14    8    2     -0.86      0.00
   15    8    2      1.02      0.00
  -15    9    2     -1.16      0.00
   13    9    2      2.03      0.00
   14    9    2      2.56      0.00
   15    9    2     -1.68      0.00
  -15   10    2      2.30      0.00
   13   10    2     -4.65      0.00
   14   10    2     -0.46      0.00
   15   10    2     -0.31      0.00
  -15   11    2      0.55      0.00
   -2   11    2     -5.89      0.00
    5   11    2      0.79      0.00
   14   11    2     -2.54      0.00
   15   11    2      0.55      0.00
  -15   12    2     -1.67      0.00
   -3   12    2     -9.42      0.00
   14   12    2      0.19      0.00
   15   12    2      0.85      0.00
  -15   13    2     -0.98      0.00
   14   13    2     -0.04      0.00
  -15   14    2      1.37      0.00
   14   14    2      0.64      0.00
  -15   15    2      0.35      0.00
   13   15    2     -0.07      0.00
   14   15    2     -1.21      0.00
  -15   16    2     -1.55      0.00
   13   16    2      2.32      0.00
   14   16    2     -0.56      0.00
   13   17    2     -0.72      0.00
   14   17    2      0.46      0.00
   -3   18    2     -4.30      0.00
   13   18    2     -0.38      0.00
   14   18    2     -0.08      0.00
  -14   19    2     -0.43      0.00
   13   19    2     -0.19      0.00
   14   19    2      0.03      0.00
  -14   20    2     -0.44      0.00
    0   20    2      3.28      0.00
   13   20    2      1.46      0.00
  -14   21    2     -0.34      0.00
   13   21    2     -0.10      0.00
   13   22    2     -0.30      0.00
   13   23    2      0.71      0.00
   13   24    2     -1.13      0.00
   -7   39    2      0.20      0.00
   -6   39    2     -0.20      0.00
   -5   39    2     -0.87      0.00
   -4   39    2      0.44      0.00
   -6   40    2      1.43      0.00
   -5   40    2      0.12      0.00
   -4   40    2     -0.61      0.00
   -3   40    2      0.36      0.00
   -2   40    2      0.40      0.00
   -1   40    2      0.53      0.00
    0   40    2     -0.01      0.00
    1   40    2      0.40      0.00
    2   40    2     -0.38      0.00
    3   40    2     -0.56      0.00
    4   40    2     -0.66      0.00
    5   40    2     -0.41      0.00
  -16    0    3     -0.25      0.00
  -15    0    3      0.56      0.00
   -4    0    3     15.63      0.00
    1    0    3    -14.76      0.00
    6    0    3      5.10      0.00
    7    0    3    -16.02      0.00
    8    0    3     -1.32      0.00
    9    0    3     -0.74      0.00
   10    0    3      0.89      0.00
   11    0    3     -0.71      0.00
   12    0    3      2.86      0.00
   13    0    3      0.67      0.00
   14    0    3      1.23      0.00
   15    0    3      1.32      0.00
  -16    1    3      1.14      0.00
  -15    1    3      3.23      0.00
   -3    1    3     -0.15      0.00
   -2    1    3     14.53      0.00
   -1    1    3     10.84      0.00
    2    1    3     11.61      0.00
    6    1    3      8.10      0.00
    7    1    3      5.54      0.00
    8    1    3     -0.10      0.00
    9    1    3      2.03      0.00
   10    1    3     -0.99      0.00
   11    1    3      2.72      0.00
   12    1    3     -0.09      0.00
   13    1    3      3.32      0.00
   14    1    3     -0.58      0.00
   15    1    3      1.08      0.00
  -16    2    3     -1.29      0.00
  -15    2    3     -0.19      0.00
   -4    2    3    -10.78      0.00
    0    2    3      8.59      0.00
    7    2    3      2.07      0.00
    8    2    3     -0.32      0.00
    9    2    3      3.67      0.00
   10    2    3     -0.11      0.00
   11    2    3      2.75      0.00
   12    2    3     -0.35      0.00
   13    2    3      0.15      0.00
   14    2    3      0.68      0.00
   15    2    3     -1.50      0.00
  -16    3    3     -0.66      0.00
  -15    3    3     -4.08      0.00
    8    3    3     -6.94      0.00
    9    3    3     -3.20      0.00
   10    3    3     -0.71      0.00
   11    3    3     -2.67      0.00
   12    3    3      0.13      0.00
   13    3    3     -1.58      0.00
   14    3    3      1.90      0.00
   15    3    3     -0.62      0.00
  -16    4    3      1.16      0.00
  -15    4    3     -0.06      0.00
    8    4    3      3.15      0.00
    9    4    3     -3.20      0.00
   10    4    3     -0.73      0.00
   11    4    3     -1.53      0.00
   12    4    3     -0.54      0.00
   13    4    3     -1.06      0.00
   14    4    3     -0.57      0.00
   15    4    3      0.67      0.00
  -16    5    3      0.40      0.00
  -15    5    3      1.80      0.00
    1    5    3    -21.21      0.00
    2    5    3      5.74      0.00
    9    5    3      2.33      0.00
   10    5    3     -2.20      0.00
   11    5    3      2.03      0.00
   12    5    3     -1.40      0.00
   13    5    3      0.85      0.00
   14    5    3     -1.31      0.00
   15    5    3      1.30      0.00
  -15    6    3      0.78      0.00
   -2    6    3      3.25      0.00
   10    6    3     -1.39      0.00
   11    6    3      0.78      0.00
   12    6    3     -1.36      0.00
   13    6    3      0.88      0.00
   14    6    3     -0.41      0.00
   15    6    3     -0.64      0.00
  -15    7    3     -1.85      0.00
   -3    7    3    -14.59      0.00
   -1    7    3    -22.34      0.00
    2    7    3     -1.79      0.00
   11    7    3     -0.03      0.00
   12    7    3      1.08      0.00
   13    7    3     -0.39      0.00
   14    7    3      1.89      0.00
   15    7    3     -1.41      0.00
  -15    8    3     -0.62      0.00
   -4    8    3     23.47      0.00
   -2    8    3     21.20      0.00
   -1    8    3     12.97      0.00
   11    8    3      0.14      0.00
   12    8    3      1.87      0.00
   13    8    3     -0.18      0.00
   14    8    3      0.06      0.00
   15    8    3      1.05      0.00
  -15    9    3      1.56      0.00
   -2    9    3     14.99      0.00
    2    9    3     -9.58      0.00
   12    9    3     -1.43      0.00
   13    9    3      1.15      0.00
   14    9    3      0.08      0.00
   15    9    3      1.00      0.00
  -15   10    3      0.87      0.00
   13   10    3     -1.55      0.00
   14   10    3     -0.56      0.00
  -15   11    3     -1.68      0.00
   13   11    3     -0.83      0.00
   14   11    3      0.65      0.00
  -15   12    3     -0.84      0.00
    1   12    3      0.09      0.00
    4   12    3      1.55      0.00
   13   12    3     -2.23      0.00
   14   12    3      0.16      0.00
  -15   13    3      0.80      0.00
   -2   13    3     -3.69      0.00
    4   13    3     -3.54      0.00
   13   13    3      0.22      0.00
   14   13    3     -2.17      0.00
  -15   14    3      0.51      0.00
    0   14    3      0.74      0.00
   13   14    3      1.65      0.00
   14   14    3      0.10      0.00
  -15   15    3     -0.30      0.00
   13   15    3     -0.11      0.00
   14   15    3      0.69      0.00
  -15   16    3     -0.59      0.00
   13   16    3      0.31      0.00
   14   16    3     -0.37      0.00
   13   17    3     -0.46      0.00
   14   17    3     -1.41      0.00
   13   18    3      1.10      0.00
   13   19    3     -0.07      0.00
   13   20    3      0.42      0.00
   13   21    3      0.34      0.00
   13   22    3      0.14      0.00
   12   25    3      0.07      0.00
   12   26    3      0.20      0.00
   -7   38    3     -1.01      0.00
   -6   38    3     -0.97      0.00
   -7   39    3      1.11      0.00
   -6   39    3     -0.55      0.00
   -5   39    3     -1.28      0.00
   -4   39    3      0.35      0.00
   -3   39    3      0.47      0.00
   -2   39    3     -0.08      0.00
   -1   39    3     -0.62      0.00
   -6   40    3      0.44      0.00
   -5   40    3     -0.18      0.00
   -4   40    3     -0.70      0.00
   -3   40    3      0.45      0.00
   -2   40    3     -0.01      0.00
   -1   40    3      0.55      0.00
    0   40    3      0.60      0.00
    1   40    3     -0.16      0.00
    2   40    3     -0.25      0.00
    3   40    3     -0.06      0.00
    4   40    3      0.06      0.00
    5   40    3      0.74      0.00
  -16    0    4     -2.88      0.00
  -15    0    4     -1.75      0.00
    6    0    4      0.94      0.00
    7    0    4     -8.58      0.00
    8    0    4      0.52      0.00
    9    0    4      8.06      0.00
   10    0    4      4.62      0.00
   11    0    4      2.55      0.00
   12    0    4      2.12      0.00
   13    0    4      0.52      0.00
   14    0    4      2.24      0.00
   15    0    4     -0.06      0.00
  -16    1    4     -0.51      0.00
  -15    1    4     -1.44      0.00
    7    1    4      4.95      0.00
    8    1    4      3.54      0.00
    9    1    4      3.07      0.00
   10    1    4      0.34      0.00
   11    1    4     -2.88      0.00
   12    1    4      1.60      0.00
   13    1    4      0.82      0.00
   14    1    4      0.13      0.00
   15    1    4     -0.94      0.00
  -16    2    4      1.22      0.00
  -15    2    4      2.25      0.00
    1    2    4     24.67      0.00
    3    2    4     -0.13      0.00
    8    2    4     -0.68      0.00
    9    2    4     -4.75      0.00
   10    2    4     -3.27      0.00
   11    2    4     -0.19      0.00
   12    2    4      0.35      0.00
   13    2    4     -0.40      0.00
   14    2    4     -0.71      0.00
   15    2    4     -0.14      0.00
  -16    3    4      0.33      0.00
  -15    3    4      0.71      0.00
    8    3    4    -10.05      0.00
    9    3    4     -3.35      0.00
   10    3    4     -3.72      0.00
   11    3    4      1.08      0.00
   12    3    4     -1.99      0.00
   13    3    4     -1.13      0.00
   14    3    4      0.36      0.00
   15    3    4      0.58      0.00
  -15    4    4     -1.11      0.00
   -4    4    4     -0.24      0.00
   -2    4    4     -3.36      0.00
    8    4    4     -0.71      0.00
    9    4    4      2.99      0.00
   10    4    4      0.85      0.00
   11    4    4     -0.67      0.00
   12    4    4     -0.51      0.00
   13    4    4     -0.51      0.00
   14    4    4      0.48      0.00
   15    4    4     -0.50      0.00
  -15    5    4     -1.32      0.00
    3    5    4     13.51      0.00
    9    5    4      3.46      0.00
   10    5    4      1.43      0.00
   11    5    4     -0.43      0.00
   12    5    4      1.68      0.00
   13    5    4      1.16      0.00
   14    5    4      0.76      0.00
  -15    6    4      0.42      0.00
   10    6    4     -1.27      0.00
   11    6    4      0.92      0.00
   12    6    4     -0.09      0.00
   13    6    4      0.08      0.00
   14    6    4     -0.87      0.00
  -15    7    4      0.45      0.00
    2    7    4     -9.26      0.00
   10    7    4     -0.14      0.00
   11    7    4      2.45      0.00
   12    7    4      0.05      0.00
   13    7    4      0.75      0.00
   14    7    4      0.43      0.00
  -15    8    4     -0.15      0.00
   -2    8    4     10.84      0.00
   11    8    4     -0.65      0.00
   12    8    4      0.09      0.00
   13    8    4      0.72      0.00
   14    8    4      0.49      0.00
  -15    9    4     -0.82      0.00
   -1    9    4      4.68      0.00
    3    9    4      2.06      0.00
   11    9    4     -3.88      0.00
   12    9    4     -2.88      0.00
   13    9    4     -0.47      0.00
   14    9    4     -0.05      0.00
  -15   10    4      0.25      0.00
   -2   10    4      8.23      0.00
    4   10    4      5.57      0.00
   12   10    4     -0.87      0.00
   13   10    4     -1.85      0.00
   14   10    4     -0.19      0.00
  -15   11    4      0.50      0.00
    3   11    4      5.16      0.00
   12   11    4      1.74      0.00
   13   11    4      0.30      0.00
   14   11    4      0.36      0.00
  -15   12    4     -0.58      0.00
   13   12    4     -0.58      0.00
   14   12    4      0.48      0.00
  -15   13    4     -0.41      0.00
   13   13    4     -0.41      0.00
   14   13    4     -0.40      0.00
  -15   14    4      0.24      0.00
   13   14    4     -1.44      0.00
   14   14    4     -0.85      0.00
  -15   15    4      0.20      0.00
   13   15    4     -0.24      0.00
   14   15    4     -0.87      0.00
   13   16    4      2.12      0.00
   13   17    4     -0.34      0.00
   13   18    4     -0.06      0.00
   13   19    4      0.46      0.00
    1   20    4      1.28      0.00
   12   20    4      0.05      0.00
   13   20    4      0.05      0.00
   12   21    4     -0.42      0.00
   13   21    4     -0.27      0.00
   12   22    4      0.81      0.00
   12   23    4      0.18      0.00
   12   24    4     -1.04      0.00
   12   25    4      0.20      0.00
   -2   26    4      0.50      0.00
   -8   37    4     -1.25      0.00
   -7   37    4     -0.27      0.00
   -6   37    4     -0.31      0.00
   -7   38    4     -0.82      0.00
   -6   38    4      0.07      0.00
   -5   38    4      0.42      0.00
   -4   38    4      0.08      0.00
   -3   38    4      0.47      0.00
   -2   38    4     -0.44      0.00
   -6   39    4      0.22      0.00
   -5   39    4     -0.83      0.00
   -4   39    4      0.55      0.00
   -3   39    4      0.65      0.00
   -2   39    4      0.43      0.00
   -1   39    4      0.10      0.00
    0   39    4      0.38      0.00
    1   39    4     -0.35      0.00
   -5   40    4     -0.10      0.00
   -4   40    4     -0.77      0.00
   -3   40    4      0.35      0.00
   -2   40    4     -0.15      0.00
   -1   40    4      0.61      0.00
    0   40    4      0.50      0.00
    1   40    4      0.24      0.00
    2   40    4     -0.41      0.00
    3   40    4     -0.46      0.00
    4   40    4     -0.58      0.00
  -15    0    5     -1.14      0.00
    0    0    5      0.52      0.00
    7    0    5     -4.72      0.00
    8    0    5      4.93      0.00
    9    0    5      3.96      0.00
   10    0    5      3.08      0.00
   11    0    5      0.82      0.00
   12    0    5     -0.97      0.00
   13    0    5     -1.13      0.00
   14    0    5     -0.40      0.00
  -15    1    5      0.19      0.00
   -2    1    5      4.02      0.00
    0    1    5     -8.92      0.00
    2    1    5      4.75      0.00
    7    1    5      0.86      0.00
    8    1    5     -0.12      0.00
    9    1    5      2.08      0.00
   10    1    5     -2.26      0.00
   11    1    5     -1.59      0.00
   12    1    5     -2.53      0.00
   13    1    5      1.36      0.00
   14    1    5      1.01      0.00
  -15    2    5      1.62      0.00
    1    2    5     -3.50      0.00
    8    2    5     -4.33      0.00
    9    2    5     -2.11      0.00
   10    2    5     -4.06      0.00
   11    2    5     -0.14      0.00
   12    2    5      1.15      0.00
   13    2    5      0.01      0.00
   14    2    5      0.15      0.00
  -15    3    5      0.79      0.00
    2    3    5     -5.96      0.00
    8    3    5     -3.94      0.00
    9    3    5      0.04      0.00
   10    3    5      0.64      0.00
   11    3    5      1.04      0.00
   12    3    5      1.92      0.00
   13    3    5     -1.44      0.00
   14    3    5     -0.45      0.00
  -15    4    5     -0.33      0.00
   -1    4    5      5.70      0.00
    1    4    5      3.36      0.00
    9    4    5      2.86      0.00
   10    4    5      2.86      0.00
   11    4    5      2.36      0.00
   12    4    5      1.95      0.00
   13    4    5      0.96      0.00
   14    4    5      0.96      0.00
  -15    5    5     -1.26      0.00
    0    5    5    -11.66      0.00
    2    5    5      2.41      0.00
    9    5    5      0.53      0.00
   10    5    5     -2.13      0.00
   11    5    5     -1.11      0.00
   12    5    5     -0.99      0.00
   13    5    5      2.19      0.00
   14    5    5      1.30      0.00
  -15    6    5     -0.35      0.00
   10    6    5     -3.05      0.00
   11    6    5     -1.72      0.00
   12    6    5     -1.88      0.00
   13    6    5     -1.29      0.00
   14    6    5     -0.30      0.00
  -15    7    5      0.53      0.00
   10    7    5      1.54      0.00
   11    7    5      0.74      0.00
   12    7    5      1.29      0.00
   13    7    5      0.25      0.00
   14    7    5      0.17      0.00
  -15    8    5     -0.79      0.00
   10    8    5     -1.40      0.00
   11    8    5     -0.42      0.00
   12    8    5     -1.62      0.00
   13    8    5     -0.99      0.00
   14    8    5     -0.86      0.00
  -15    9    5     -0.59      0.00
    0    9    5    -16.44      0.00
   11    9    5     -0.52      0.00
   12    9    5     -2.28      0.00
   13    9    5     -0.43      0.00
   14    9    5     -1.03      0.00
  -15   10    5      1.22      0.00
    3   10    5     -4.43      0.00
   11   10    5      1.80      0.00
   12   10    5      1.70      0.00
   13   10    5      2.39      0.00
   14   10    5      2.07      0.00
  -15   11    5      0.53      0.00
   12   11    5     -0.07      0.00
   13   11    5      0.24      0.00
   14   11    5      0.84      0.00
  -15   12    5     -1.85      0.00
   -3   12    5     -6.71      0.00
   12   12    5     -0.91      0.00
   13   12    5     -3.05      0.00
   14   12    5     -1.30      0.00
  -15   13    5     -0.65      0.00
   12   13    5      0.61      0.00
   13   13    5     -0.30      0.00
  -15   14    5      1.21      0.00
   12   14    5     -0.13      0.00
   13   14    5      0.20      0.00
    0   15    5      1.50      0.00
   12   15    5      0.12      0.00
   13   15    5     -0.58      0.00
   -1   16    5     -4.98      0.00
   12   16    5      1.95      0.00
   13   16    5      0.81      0.00
    0   17    5     -1.20      0.00
   12   17    5      0.74      0.00
   13   17    5      0.20      0.00
   -1   18    5      1.53      0.00
   12   18    5     -1.73      0.00
   13   18    5     -0.69      0.00
   12   19    5      0.07      0.00
   13   19    5     -0.25      0.00
   12   20    5      1.55      0.00
    0   21    5     -2.83      0.00
   12   21    5      0.48      0.00
   -1   22    5      2.49      0.00
    1   22    5      1.23      0.00
   12   22    5     -0.93      0.00
    0   23    5     -0.18      0.00
   12   23    5      0.65      0.00
   -1   26    5     -0.84      0.00
   11   26    5      0.15      0.00
   11   27    5      0.02      0.00
   -8   35    5     -0.47      0.00
   -8   36    5      0.51      0.00
   -7   36    5     -0.58      0.00
   -6   36    5     -0.22      0.00
   -7   37    5      0.09      0.00
   -6   37    5      0.35      0.00
   -5   37    5     -1.02      0.00
   -4   37    5      0.46      0.00
   -3   37    5      1.03      0.00
   -7   38    5      0.19      0.00
   -6   38    5     -0.09      0.00
   -5   38    5      0.11      0.00
   -4   38    5     -0.90      0.00
   -3   38    5      0.41      0.00
   -2   38    5      0.46      0.00
   -1   38    5      1.17      0.00
    0   38    5      0.31      0.00
   -6   39    5      0.28      0.00
   -5   39    5     -0.59      0.00
   -4   39    5      0.21      0.00
   -3   39    5     -0.72      0.00
   -2   39    5     -0.23      0.00
   -1   39    5      1.04      0.00
    0   39    5      0.12      0.00
    1   39    5      0.02      0.00
    2   39    5      0.27      0.00
    3   39    5      0.07      0.00
    4   39    5      0.71      0.00
   -5   40    5     -0.01      0.00
   -4   40    5     -0.20      0.00
   -3   40    5      0.21      0.00
   -2   40    5     -1.17      0.00
   -1   40    5     -0.03      0.00
    0   40    5      0.17      0.00
    1   40    5     -0.22      0.00
    2   40    5     -0.05      0.00
    3   40    5     -0.20      0.00
    0    0    6      3.07      0.00
    2    0    6     16.90      0.00
    8    0    6      6.04      0.00
    9    0    6      4.51      0.00
   10    0    6     -0.15      0.00
   11    0    6     -1.78      0.00
   12    0    6     -0.07      0.00
   13    0    6     -1.16      0.00
   14    0    6      0.22      0.00
   -5    1    6     -3.21      0.00
   -1    1    6      7.13      0.00
    1    1    6     -5.59      0.00
    3    1    6      0.51      0.00
    8    1    6      2.13      0.00
    9    1    6     -1.92      0.00
   10    1    6     -3.49      0.00
   11    1    6     -3.30      0.00
   12    1    6      0.60      0.00
   13    1    6      0.98      0.00
   14    1    6      0.49      0.00
    8    2    6     -3.41      0.00
    9    2    6     -3.20      0.00
   10    2    6     -0.26      0.00
   11    2    6      3.29      0.00
   12    2    6      1.30      0.00
   13    2    6      0.84      0.00
   14    2    6     -0.97      0.00
    8    3    6     -3.08      0.00
    9    3    6      5.02      0.00
   10    3    6      3.46      0.00
   11    3    6      4.25      0.00
   12    3    6      0.46      0.00
   13    3    6      1.19      0.00
   14    3    6      1.00      0.00
   -6    4    6      0.74      0.00
    9    4    6      2.76      0.00
   10    4    6     -2.04      0.00
   11    4    6     -2.29      0.00
   12    4    6      0.50      0.00
   13    4    6     -0.32      0.00
   14    4    6      1.76      0.00
  -15    5    6     -0.15      0.00
   -1    5    6     12.71      0.00
    9    5    6     -4.53      0.00
   10    5    6     -4.93      0.00
   11    5    6     -4.86      0.00
   12    5    6     -0.27      0.00
   13    5    6      0.03      0.00
   14    5    6     -0.41      0.00
    2    6    6     -0.92      0.00
   10    6    6      0.55      0.00
   11    6    6      2.05      0.00
   12    6    6     -1.04      0.00
   13    6    6     -0.39      0.00
   14    6    6     -0.85      0.00
   10    7    6      2.64      0.00
   11    7    6      0.87      0.00
   12    7    6     -1.13      0.00
   13    7    6     -0.15      0.00
   14    7    6      0.39      0.00
   10    8    6     -0.73      0.00
   11    8    6     -1.69      0.00
   12    8    6     -1.48      0.00
   13    8    6     -0.96      0.00
   -3    9    6      7.97      0.00
   11    9    6      2.17      0.00
   12    9    6      2.43      0.00
   13    9    6      1.23      0.00
   11   10    6      1.34      0.00
   12   10    6      0.15      0.00
   13   10    6      1.77      0.00
   -3   11    6      2.83      0.00
   11   11    6     -0.90      0.00
   12   11    6     -3.02      0.00
   13   11    6     -1.34      0.00
  -15   12    6      0.86      0.00
   -2   12    6      2.04      0.00
   12   12    6     -0.08      0.00
   13   12    6     -1.03      0.00
   -1   13    6      1.50      0.00
   12   13    6      1.03      0.00
   13   13    6      0.27      0.00
    0   14    6      0.86      0.00
   12   14    6     -0.03      0.00
   13   14    6      0.21      0.00
   -1   15    6     -0.02      0.00
   12   15    6     -0.04      0.00
   13   15    6     -0.46      0.00
   12   16    6      0.17      0.00
   13   16    6      0.02      0.00
   -1   17    6     -0.35      0.00
    1   17    6      1.14      0.00
   12   17    6      0.09      0.00
    0   18    6     -1.34      0.00
    2   18    6      1.80      0.00
   12   18    6     -0.71      0.00
   12   19    6      0.61      0.00
   12   20    6      0.61      0.00
   -3   21    6     -1.35      0.00
   11   21    6      0.40      0.00
   12   21    6      0.63      0.00
   11   22    6     -1.11      0.00
   11   23    6     -0.85      0.00
   11   24    6     -0.86      0.00
   11   25    6      0.62      0.00
  -10   32    6      0.42      0.00
   -9   33    6      0.42      0.00
   -9   34    6      0.46      0.00
   -8   34    6      0.77      0.00
   -8   35    6      0.66      0.00
   -7   35    6     -0.20      0.00
   -6   35    6     -0.33      0.00
   -7   36    6      0.27      0.00
   -6   36    6     -0.05      0.00
   -5   36    6      1.15      0.00
   -4   36    6      0.91      0.00
   -3   36    6      1.56      0.00
   -7   37    6     -0.26      0.00
   -6   37    6      0.34      0.00
   -5   37    6     -0.90      0.00
   -4   37    6     -0.02      0.00
   -3   37    6     -0.26      0.00
   -2   37    6      0.28      0.00
   -1   37    6      1.03      0.00
   -6   38    6     -0.18      0.00
   -5   38    6     -0.60      0.00
   -4   38    6     -1.75      0.00
   -3   38    6     -0.72      0.00
   -2   38    6     -0.70      0.00
   -1   38    6      0.54      0.00
    0   38    6      0.04      0.00
    1   38    6     -0.37      0.00
    2   38    6     -0.58      0.00
   -5   39    6     -0.06      0.00
   -4   39    6      0.45      0.00
   -3   39    6     -0.10      0.00
   -2   39    6     -0.37      0.00
   -1   39    6      0.67      0.00
    0   39    6      0.10      0.00
    1   39    6      0.46      0.00
    2   39    6     -0.03      0.00
    3   39    6     -0.09      0.00
   -3   40    6      0.44      0.00
   -2   40    6     -0.43      0.00
   -1   40    6      0.18      0.00
    0   40    6      0.07      0.00
    1   40    6     -0.05      0.00
    2   40    6      0.00      0.00
    8    0    7      3.56      0.00
    9    0    7     -0.10      0.00
   10    0    7     -0.68      0.00
   11    0    7     -1.73      0.00
   12    0    7     -1.85      0.00
   13    0    7     -0.93      0.00
    8    1    7      1.85      0.00
    9    1    7      0.20      0.00
   10    1    7     -3.55      0.00
   11    1    7     -2.53      0.00
   12    1    7      0.83      0.00
   13    1    7      2.81      0.00
   -5    2    7      2.47      0.00
    9    2    7     -1.32      0.00
   10    2    7      1.44      0.00
   11    2    7      3.42      0.00
   12    2    7      4.45      0.00
   13    2    7      1.63      0.00
   -2    3    7     -4.31      0.00
    2    3    7      0.98      0.00
    9    3    7      0.37      0.00
   10    3    7      2.01      0.00
   11    3    7      1.93      0.00
   12    3    7     -0.65      0.00
   13    3    7     -0.97      0.00
    9    4    7      0.79      0.00
   10    4    7     -3.26      0.00
   11    4    7     -4.07      0.00
   12    4    7     -4.09      0.00
   13    4    7     -1.88      0.00
    9    5    7     -0.42      0.00
   10    5    7     -3.37      0.00
   11    5    7     -3.25      0.00
   12    5    7      0.62      0.00
   13    5    7      1.91      0.00
   -3    6    7     -0.04      0.00
   10    6    7      2.00      0.00
   11    6    7      2.51      0.00
   12    6    7      1.88      0.00
   13    6    7      0.46      0.00
   -2    7    7     -5.83      0.00
   10    7    7      3.64      0.00
   11    7    7      1.48      0.00
   12    7    7     -0.46      0.00
   13    7    7     -1.97      0.00
   -3    8    7      1.77      0.00
   10    8    7     -0.02      0.00
   11    8    7     -0.52      0.00
   12    8    7     -1.36      0.00
   13    8    7      0.42      0.00
   11    9    7     -0.84      0.00
   12    9    7      1.26      0.00
   13    9    7      1.73      0.00
   -3   10    7      1.17      0.00
   -1   10    7      2.28      0.00
   11   10    7     -0.51      0.00
   12   10    7     -0.79      0.00
   13   10    7     -0.48      0.00
   11   11    7      1.67      0.00
   12   11    7     -0.55      0.00
   13   11    7     -1.27      0.00
   11   12    7      0.61      0.00
   12   12    7      0.36      0.00
   13   12    7      0.92      0.00
    0   13    7      0.98      0.00
   11   13    7     -0.85      0.00
   12   13    7     -0.20      0.00
   -1   14    7      2.29      0.00
   11   14    7      0.67      0.00
   12   14    7     -0.01      0.00
   11   15    7     -0.06      0.00
   12   15    7      0.01      0.00
   11   16    7      0.31      0.00
   12   16    7     -0.65      0.00
   11   17    7     -0.74      0.00
   12   17    7     -0.81      0.00
   11   18    7      0.61      0.00
   12   18    7     -0.19      0.00
   -2   19    7      1.92      0.00
   11   19    7      2.57      0.00
   11   20    7     -0.14      0.00
   11   21    7     -0.52      0.00
   11   22    7     -0.96      0.00
   11   23    7     -0.24      0.00
   10   26    7     -0.35      0.00
  -10   31    7     -0.04      0.00
   -9   31    7      0.51      0.00
   -9   32    7      0.31      0.00
   -8   32    7      0.52      0.00
   -9   33    7      0.33      0.00
   -8   33    7      0.47      0.00
   -7   33    7      0.26      0.00
   -8   34    7      0.17      0.00
   -7   34    7      0.20      0.00
   -6   34    7      0.10      0.00
   -5   34    7      0.85      0.00
   -7   35    7     -0.80      0.00
   -6   35    7     -0.34      0.00
   -5   35    7     -0.78      0.00
   -4   35    7     -0.08      0.00
   -3   35    7     -1.05      0.00
   -7   36    7     -0.10      0.00
   -6   36    7     -0.65      0.00
   -5   36    7      0.31      0.00
   -4   36    7     -0.04      0.00
   -3   36    7     -0.03      0.00
   -2   36    7      0.62      0.00
   -1   36    7     -1.10      0.00
   -6   37    7      0.29      0.00
   -5   37    7     -0.18      0.00
   -4   37    7      0.89      0.00
   -3   37    7      0.27      0.00
   -2   37    7      0.36      0.00
   -1   37    7      1.07      0.00
    0   37    7     -1.22      0.00
    1   37    7     -0.54      0.00
    2   37    7      1.03      0.00
   -5   38    7      0.10      0.00
   -4   38    7     -0.67      0.00
   -3   38    7     -0.15      0.00
   -2   38    7      0.20      0.00
   -1   38    7      0.26      0.00
    0   38    7      0.74      0.00
    1   38    7     -0.95      0.00
    2   38    7     -0.58      0.00
    3   38    7      0.03      0.00
   -3   39    7     -0.50      0.00
   -2   39    7     -0.13      0.00
   -1   39    7      0.43      0.00
    0   39    7     -0.07      0.00
    1   39    7      0.42      0.00
    2   39    7     -0.51      0.00
   -7    0    8      2.00      0.00
   -5    0    8     -0.41      0.00
    9    0    8     -3.02      0.00
   10    0    8     -0.76      0.00
   11    0    8     -0.23      0.00
   12    0    8      1.69      0.00
   13    0    8     -0.32      0.00
    9    1    8     -2.26      0.00
   10    1    8     -0.34      0.00
   11    1    8      0.04      0.00
   12    1    8      1.16      0.00
   13    1    8      1.61      0.00
    9    2    8     -0.43      0.00
   10    2    8      1.60      0.00
   11    2    8      1.23      0.00
   12    2    8      0.55      0.00
   13    2    8      0.85      0.00
    9    3    8      0.61      0.00
   10    3    8     -2.13      0.00
   11    3    8     -1.55      0.00
   12    3    8     -1.61      0.00
   13    3    8     -1.02      0.00
    8    4    8      2.37      0.00
    9    4    8      0.31      0.00
   10    4    8     -1.82      0.00
   11    4    8     -2.65      0.00
   12    4    8     -1.18      0.00
   13    4    8     -1.17      0.00
   10    5    8      1.33      0.00
   11    5    8      0.59      0.00
   12    5    8      1.41      0.00
   13    5    8      1.11      0.00
   10    6    8      1.67      0.00
   11    6    8      1.94      0.00
   12    6    8      0.48      0.00
   -4    7    8     -1.45      0.00
   10    7    8      0.18      0.00
   11    7    8     -0.47      0.00
   12    7    8     -0.31      0.00
   10    8    8     -0.11      0.00
   11    8    8     -1.14      0.00
   12    8    8     -0.17      0.00
   11    9    8     -0.36      0.00
   12    9    8      0.52      0.00
   -3   10    8      3.52      0.00
   11   10    8     -0.08      0.00
   12   10    8     -1.03      0.00
   11   11    8      0.55      0.00
   12   11    8      0.49      0.00
   11   12    8      0.20      0.00
   12   12    8      1.42      0.00
   10   13    8      0.73      0.00
   11   13    8     -0.96      0.00
   12   13    8     -0.25      0.00
   11   14    8     -0.64      0.00
   12   14    8     -1.25      0.00
   11   15    8      0.01      0.00
   12   15    8      0.08      0.00
   11   16    8      0.33      0.00
   11   17    8      0.22      0.00
   11   18    8      0.71      0.00
   11   19    8      1.51      0.00
   10   20    8     -0.40      0.00
   11   20    8     -0.35      0.00
   10   21    8     -0.68      0.00
   10   22    8     -0.73      0.00
   10   23    8      0.22      0.00
   10   24    8     -0.08      0.00
  -11   27    8     -0.27      0.00
  -10   28    8      0.11      0.00
  -10   29    8      0.35      0.00
   -9   29    8      0.26      0.00
   -9   30    8      0.52      0.00
   -8   30    8     -0.23      0.00
   -9   31    8      0.56      0.00
   -8   31    8     -0.21      0.00
   -7   31    8     -0.82      0.00
   -8   32    8      0.55      0.00
   -7   32    8      0.15      0.00
   -6   32    8      0.24      0.00
   -8   33    8      0.31      0.00
   -7   33    8      0.49      0.00
   -6   33    8      1.14      0.00
   -5   33    8      0.26      0.00
   -4   33    8      0.54      0.00
   -7   34    8     -0.36      0.00
   -6   34    8     -0.56      0.00
   -5   34    8     -0.04      0.00
   -4   34    8     -1.19      0.00
   -3   34    8     -0.56      0.00
   -2   34    8      1.37      0.00
   -6   35    8     -0.13      0.00
   -5   35    8     -0.41      0.00
   -4   35    8      0.29      0.00
   -3   35    8     -0.65      0.00
   -2   35    8     -0.51      0.00
   -1   35    8      1.46      0.00
    0   35    8      0.07      0.00
   -6   36    8      0.55      0.00
   -5   36    8      0.75      0.00
   -4   36    8      0.39      0.00
   -3   36    8      0.41      0.00
   -2   36    8      0.63      0.00
   -1   36    8     -1.38      0.00
    0   36    8      0.50      0.00
    1   36    8     -0.57      0.00
    2   36    8     -0.29      0.00
   -4   37    8     -0.05      0.00
   -3   37    8     -0.40      0.00
   -2   37    8     -0.03      0.00
   -1   37    8     -0.45      0.00
    0   37    8     -1.81      0.00
    1   37    8     -0.40      0.00
    2   37    8     -0.48      0.00
    3   37    8     -1.02      0.00
   -3   38    8     -0.25      0.00
   -2   38    8      0.47      0.00
   -1   38    8      0.15      0.00
    0   38    8     -0.14      0.00
    1   38    8     -0.40      0.00
    9    0    9     -3.53      0.00
   10    0    9     -2.30      0.00
   11    0    9      0.69      0.00
   12    0    9      1.20      0.00
    9    1    9     -1.48      0.00
   10    1    9     -0.39      0.00
   11    1    9      2.28      0.00
   12    1    9      3.59      0.00
    9    2    9      0.80      0.00
   10    2    9      3.09      0.00
   11    2    9     -0.16      0.00
   12    2    9     -0.28      0.00
   10    3    9     -1.57      0.00
   11    3    9     -2.77      0.00
   12    3    9     -3.66      0.00
   10    4    9     -2.72      0.00
   11    4    9     -0.94      0.00
   12    4    9     -0.06      0.00
   10    5    9      1.16      0.00
   11    5    9      2.79      0.00
   12    5    9      3.15      0.00
   10    6    9      2.85      0.00
   11    6    9      0.98      0.00
   12    6    9      0.31      0.00
   10    7    9     -0.77      0.00
   11    7    9     -2.14      0.00
   12    7    9     -2.31      0.00
   10    8    9     -2.44      0.00
   11    8    9     -1.18      0.00
   12    8    9     -0.54      0.00
   10    9    9      0.77      0.00
   11    9    9      1.19      0.00
   12    9    9      1.48      0.00
   10   10    9      2.12      0.00
   11   10    9      1.02      0.00
   10   11    9      0.25      0.00
   11   11    9     -0.69      0.00
   10   12    9     -2.12      0.00
   11   12    9     -1.43      0.00
   10   13    9     -0.10      0.00
   11   13    9     -0.90      0.00
   10   14    9      3.01      0.00
   11   14    9      0.45      0.00
   10   15    9      0.23      0.00
   11   15    9      0.11      0.00
   10   16    9     -0.39      0.00
   11   16    9     -0.79      0.00
   10   17    9      0.62      0.00
   10   18    9      0.49      0.00
   10   19    9     -0.85      0.00
   10   20    9     -0.98      0.00
   10   21    9      0.06      0.00
  -12   22    9      0.99      0.00
  -11   24    9     -0.61      0.00
    9   24    9      0.49      0.00
  -11   25    9      0.84      0.00
  -10   26    9      0.11      0.00
  -10   27    9     -0.90      0.00
   -9   27    9     -0.48      0.00
   -9   28    9     -0.12      0.00
   -8   28    9     -0.86      0.00
   -9   29    9      0.44      0.00
   -8   29    9     -0.01      0.00
   -7   29    9      0.90      0.00
   -9   30    9      0.28      0.00
   -8   30    9     -0.44      0.00
   -7   30    9     -0.89      0.00
   -6   30    9      0.25      0.00
   -8   31    9     -0.23      0.00
   -7   31    9     -0.80      0.00
   -6   31    9     -1.15      0.00
   -5   31    9     -0.55      0.00
   -4   31    9     -0.40      0.00
   -7   32    9      0.38      0.00
   -6   32    9      0.27      0.00
   -5   32    9     -0.17      0.00
   -4   32    9      0.49      0.00
   -3   32    9     -0.12      0.00
   -7   33    9     -0.05      0.00
   -6   33    9      0.83      0.00
   -5   33    9     -0.47      0.00
   -4   33    9      0.75      0.00
   -3   33    9      1.39      0.00
   -2   33    9      0.01      0.00
   -1   33    9      3.44      0.00
   -6   34    9      0.48      0.00
   -5   34    9      0.13      0.00
   -4   34    9     -0.59      0.00
   -3   34    9     -0.15      0.00
   -2   34    9     -1.08      0.00
   -1   34    9     -1.93      0.00
    0   34    9      0.25      0.00
   -5   35    9      0.49      0.00
   -4   35    9     -0.21      0.00
   -3   35    9     -0.05      0.00
   -2   35    9     -1.33      0.00
   -1   35    9     -1.01      0.00
    0   35    9     -2.37      0.00
    1   35    9      0.02      0.00
    2   35    9      0.88      0.00
    3   35    9     -0.04      0.00
   -4   36    9      0.21      0.00
   -3   36    9     -0.04      0.00
   -2   36    9      1.41      0.00
   -1   36    9      0.43      0.00
    0   36    9     -0.34      0.00
    1   36    9     -0.86      0.00
    2   36    9     -0.72      0.00
   -1   37    9      1.30      0.00
    9    0   10     -1.71      0.00
   10    0   10      1.42      0.00
   11    0   10      0.71      0.00
    9    1   10     -1.07      0.00
   10    1   10      0.09      0.00
   11    1   10      2.05      0.00
   10    2   10      0.03      0.00
   11    2   10     -0.36      0.00
   10    3   10     -0.88      0.00
   11    3   10     -1.14      0.00
   10    4   10     -0.23      0.00
   11    4   10     -0.32      0.00
   10    5   10      0.34      0.00
   11    5   10      1.37      0.00
   10    6   10      0.49      0.00
   11    6   10      0.33      0.00
   10    7   10     -0.90      0.00
   11    7   10     -0.95      0.00
   10    8   10     -1.09      0.00
   11    8   10     -0.27      0.00
    9    9   10      0.16      0.00
   10    9   10      0.77      0.00
   11    9   10      0.71      0.00
   10   10   10      0.16      0.00
   11   10   10      0.48      0.00
   10   11   10     -0.12      0.00
   11   11   10     -0.65      0.00
   10   12   10     -0.78      0.00
   10   13   10     -0.28      0.00
   10   14   10      2.07      0.00
    9   15   10      0.05      0.00
   10   15   10      0.36      0.00
    9   16   10     -0.05      0.00
   10   16   10     -0.12      0.00
    9   17   10     -0.70      0.00
   10   17   10      0.73      0.00
  -12   18   10      0.43      0.00
    9   18   10     -0.86      0.00
  -12   19   10      0.25      0.00
    9   19   10     -0.50      0.00
    9   20   10      0.67      0.00
  -11   21   10     -0.63      0.00
    9   21   10     -0.22      0.00
  -11   22   10      0.16      0.00
  -11   23   10      0.53      0.00
  -10   23   10      0.37      0.00
  -10   24   10     -0.88      0.00
   -9   24   10     -0.66      0.00
  -10   25   10      0.41      0.00
   -9   25   10     -0.34      0.00
   -8   25   10     -0.15      0.00
   -9   26   10      0.83      0.00
   -8   26   10     -0.23      0.00
   -9   27   10      0.05      0.00
   -8   27   10     -0.61      0.00
   -7   27   10     -0.41      0.00
   -9   28   10      0.40      0.00
   -8   28   10      0.28      0.00
   -7   28   10      0.13      0.00
   -6   28   10      0.74      0.00
   -5   28   10     -0.36      0.00
   -8   29   10      0.03      0.00
   -7   29   10      0.17      0.00
   -6   29   10      0.15      0.00
   -5   29   10      0.09      0.00
   -4   29   10     -0.59      0.00
   -8   30   10     -0.81      0.00
   -7   30   10     -0.37      0.00
   -6   30   10     -0.31      0.00
   -5   30   10     -0.56      0.00
   -4   30   10      0.56      0.00
   -3   30   10     -0.44      0.00
   -7   31   10     -0.04      0.00
   -6   31   10      0.58      0.00
   -5   31   10      0.16      0.00
   -4   31   10      0.57      0.00
   -3   31   10      0.36      0.00
   -2   31   10     -1.12      0.00
   -6   32   10      0.60      0.00
   -5   32   10     -0.37      0.00
   -4   32   10      0.38      0.00
   -3   32   10     -0.78      0.00
   -2   32   10     -0.46      0.00
   -1   32   10     -0.75      0.00
    0   32   10      0.90      0.00
   -5   33   10     -0.28      0.00
   -4   33   10     -0.50      0.00
   -3   33   10      0.11      0.00
   -2   33   10     -1.48      0.00
   -1   33   10      0.12      0.00
    0   33   10     -0.96      0.00
    1   33   10      0.24      0.00
    2   33   10      0.85      0.00
   -4   34   10      0.67      0.00
   -3   34   10      0.26      0.00
   -2   34   10      0.57      0.00
   -1   34   10     -0.29      0.00
    0   34   10     -0.57      0.00
    1   34   10     -0.27      0.00
    2   34   10     -0.85      0.00
   -2   35   10     -0.18      0.00
   -1   35   10      1.14      0.00
    0   35   10     -0.46      0.00
    9    0   11     -0.54      0.00
   10    0   11      0.15      0.00
    9    1   11      1.99      0.00
   10    1   11      2.69      0.00
    9    2   11     -0.11      0.00
   10    2   11      1.13      0.00
    9    3   11     -2.49      0.00
   10    3   11     -2.80      0.00
    9    4   11     -0.43      0.00
   10    4   11     -0.55      0.00
  -13    5   11      1.18      0.00
    9    5   11      1.54      0.00
   10    5   11      2.33      0.00
  -13    6   11     -0.40      0.00
    9    6   11      0.08      0.00
   10    6   11     -0.07      0.00
  -13    7   11     -1.40      0.00
    9    7   11     -2.89      0.00
   10    7   11     -2.16      0.00
  -13    8   11      0.49      0.00
    9    8   11      0.58      0.00
   10    8   11     -0.29      0.00
  -13    9   11      1.94      0.00
    9    9   11      1.27      0.00
   10    9   11      1.58      0.00
    9   10   11     -0.15      0.00
   10   10   11     -0.43      0.00
    9   11   11      0.11      0.00
   10   11   11     -0.69      0.00
  -12   12   11      0.29      0.00
    9   12   11     -0.89      0.00
   10   12   11     -0.22      0.00
  -12   13   11      0.29      0.00
    9   13   11      0.74      0.00
  -12   14   11     -0.45      0.00
    9   14   11      1.55      0.00
  -12   15   11     -0.28      0.00
    9   15   11     -0.64      0.00
  -11   16   11      0.21      0.00
    9   16   11     -1.18      0.00
  -11   17   11     -0.74      0.00
    9   17   11      0.01      0.00
  -11   18   11     -0.40      0.00
  -10   18   11      1.01      0.00
    8   18   11      0.44      0.00
  -11   19   11      0.09      0.00
  -10   19   11      0.14      0.00
  -11   20   11     -0.03      0.00
  -10   20   11     -0.57      0.00
   -9   20   11     -1.02      0.00
    8   20   11     -0.58      0.00
  -10   21   11      0.00      0.00
   -9   21   11     -0.06      0.00
    8   21   11     -0.99      0.00
  -10   22   11      0.34      0.00
   -9   22   11     -0.60      0.00
   -8   22   11     -0.39      0.00
  -10   23   11      0.18      0.00
   -9   23   11     -0.56      0.00
   -8   23   11     -1.89      0.00
   -9   24   11      1.34      0.00
   -8   24   11      0.06      0.00
   -7   24   11      1.24      0.00
   -9   25   11      0.65      0.00
   -8   25   11      1.82      0.00
   -7   25   11      1.61      0.00
   -6   25   11      1.78      0.00
   -8   26   11     -0.69      0.00
   -7   26   11     -0.81      0.00
   -6   26   11     -1.62      0.00
   -5   26   11     -1.42      0.00
   -8   27   11     -1.01      0.00
   -7   27   11     -0.70      0.00
   -6   27   11     -1.09      0.00
   -5   27   11     -0.06      0.00
   -4   27   11     -1.09      0.00
   -7   28   11      1.12      0.00
   -6   28   11      1.63      0.00
   -5   28   11      1.48      0.00
   -4   28   11      1.63      0.00
   -3   28   11      0.84      0.00
   -7   29   11      0.10      0.00
   -6   29   11     -0.01      0.00
   -5   29   11     -0.20      0.00
   -4   29   11     -0.89      0.00
   -3   29   11      0.09      0.00
   -2   29   11     -0.16      0.00
   -6   30   11     -0.40      0.00
   -5   30   11     -1.45      0.00
   -4   30   11     -0.74      0.00
   -3   30   11     -1.40      0.00
   -2   30   11     -0.15      0.00
   -1   30   11     -1.34      0.00
    0   30   11     -0.39      0.00
   -5   31   11      1.09      0.00
   -4   31   11     -0.13      0.00
   -3   31   11      0.42      0.00
   -2   31   11     -0.28      0.00
   -1   31   11      0.88      0.00
    0   31   11      0.44      0.00
    1   31   11      0.03      0.00
   -4   32   11      0.73      0.00
   -3   32   11     -1.01      0.00
   -2   32   11      0.02      0.00
   -1   32   11     -0.43      0.00
    0   32   11      0.57      0.00
    1   32   11      0.17      0.00
   -2   33   11     -0.62      0.00
   -1   33   11     -0.12      0.00
    0   33   11     -0.79      0.00
  -12    0   12     -1.83      0.00
    8    0   12      0.20      0.00
    9    0   12     -0.45      0.00
  -12    1   12     -1.09      0.00
    8    1   12      0.20      0.00
    9    1   12      1.46      0.00
  -12    2   12      0.51      0.00
    8    2   12      0.06      0.00
    9    2   12      0.03      0.00
  -12    3   12      1.49      0.00
    8    3   12      0.46      0.00
    9    3   12     -1.78      0.00
  -12    4   12     -0.16      0.00
    8    4   12     -0.85      0.00
    9    4   12     -0.12      0.00
  -12    5   12     -0.26      0.00
    8    5   12      0.50      0.00
    9    5   12      0.64      0.00
  -12    6   12      0.56      0.00
    8    6   12     -0.32      0.00
    9    6   12     -0.04      0.00
  -12    7   12      0.89      0.00
  -11    7   12      0.11      0.00
    8    7   12      0.68      0.00
    9    7   12     -1.49      0.00
  -12    8   12     -0.91      0.00
  -11    8   12      0.45      0.00
    8    8   12     -0.14      0.00
    9    8   12      0.05      0.00
  -12    9   12     -0.25      0.00
  -11    9   12      0.28      0.00
    8    9   12     -0.68      0.00
    9    9   12      0.25      0.00
  -12   10   12      0.01      0.00
  -11   10   12     -0.13      0.00
    8   10   12      1.38      0.00
    9   10   12     -0.13      0.00
  -11   11   12     -0.97      0.00
    8   11   12      1.66      0.00
    9   11   12      0.54      0.00
  -11   12   12      1.06      0.00
  -10   12   12      0.52      0.00
    8   12   12     -1.02      0.00
  -11   13   12      0.84      0.00
  -10   13   12      1.29      0.00
    8   13   12     -1.11      0.00
  -11   14   12     -1.12      0.00
  -10   14   12     -0.80      0.00
    8   14   12      0.50      0.00
  -11   15   12     -0.20      0.00
  -10   15   12      0.08      0.00
    8   15   12      0.86      0.00
  -11   16   12     -0.39      0.00
  -10   16   12      0.48      0.00
   -9   16   12      0.95      0.00
    8   16   12     -0.43      0.00
  -10   17   12     -1.16      0.00
   -9   17   12     -0.71      0.00
  -10   18   12      0.38      0.00
   -9   18   12     -0.96      0.00
   -8   18   12      0.12      0.00
  -10   19   12      0.26      0.00
   -9   19   12      0.00      0.00
   -8   19   12      1.27      0.00
  -10   20   12      0.25      0.00
   -9   20   12     -0.50      0.00
   -8   20   12     -0.01      0.00
   -7   20   12      1.12      0.00
   -9   21   12     -0.11      0.00
   -8   21   12      0.14      0.00
   -7   21   12      0.00      0.00
   -6   21   12      1.84      0.00
   -9   22   12     -0.53      0.00
   -8   22   12     -0.45      0.00
   -7   22   12     -0.89      0.00
   -6   22   12     -0.63      0.00
   -5   22   12      0.55      0.00
   -8   23   12     -0.02      0.00
   -7   23   12     -1.56      0.00
   -6   23   12     -1.87      0.00
   -5   23   12     -0.27      0.00
   -8   24   12      0.09      0.00
   -7   24   12      1.29      0.00
   -6   24   12     -0.26      0.00
   -5   24   12      0.36      0.00
   -4   24   12      0.34      0.00
   -8   25   12     -0.17      0.00
   -7   25   12      0.37      0.00
   -6   25   12      0.84      0.00
   -5   25   12      0.44      0.00
   -4   25   12      0.29      0.00
   -3   25   12      1.61      0.00
   -7   26   12     -0.30      0.00
   -6   26   12     -0.12      0.00
   -5   26   12     -0.28      0.00
   -4   26   12     -0.51      0.00
   -3   26   12     -0.11      0.00
   -2   26   12      1.22      0.00
   -6   27   12     -0.54      0.00
   -5   27   12      1.23      0.00
   -4   27   12     -0.61      0.00
   -3   27   12      0.09      0.00
   -2   27   12     -1.47      0.00
   -1   27   12     -1.02      0.00
   -6   28   12     -0.41      0.00
   -5   28   12     -0.79      0.00
   -4   28   12     -0.02      0.00
   -3   28   12     -0.26      0.00
   -2   28   12      1.11      0.00
   -1   28   12     -0.38      0.00
    0   28   12      0.46      0.00
   -5   29   12     -0.15      0.00
   -4   29   12     -1.62      0.00
   -3   29   12      0.02      0.00
   -2   29   12     -0.11      0.00
   -1   29   12      0.56      0.00
    0   29   12      0.61      0.00
    1   29   12     -0.07      0.00
    2   29   12      0.46      0.00
   -4   30   12      0.21      0.00
   -3   30   12     -0.03      0.00
   -2   30   12      0.33      0.00
   -1   30   12     -0.69      0.00
    0   30   12     -0.21      0.00
    1   30   12      0.15      0.00
  -11    0   13      0.45      0.00
  -10    0   13      0.53      0.00
   -7    0   13      0.89      0.00
    7    0   13      1.77      0.00
    8    0   13      1.45      0.00
  -11    1   13     -0.15      0.00
  -10    1   13     -1.41      0.00
    7    1   13      0.57      0.00
    8    1   13      1.92      0.00
  -11    2   13     -0.33      0.00
  -10    2   13     -0.97      0.00
    7    2   13     -0.39      0.00
    8    2   13     -1.40      0.00
  -11    3   13     -0.65      0.00
  -10    3   13      1.65      0.00
    7    3   13     -1.12      0.00
    8    3   13     -0.51      0.00
  -11    4   13      0.48      0.00
  -10    4   13      0.91      0.00
    7    4   13      0.76      0.00
    8    4   13      0.60      0.00
  -11    5   13     -0.79      0.00
  -10    5   13     -1.86      0.00
    7    5   13     -1.04      0.00
    8    5   13      0.23      0.00
  -11    6   13      1.00      0.00
  -10    6   13      0.25      0.00
    7    6   13      0.09      0.00
    8    6   13     -1.16      0.00
  -11    7   13     -0.34      0.00
  -10    7   13      1.27      0.00
   -9    7   13      1.41      0.00
    7    7   13      1.68      0.00
    8    7   13      0.49      0.00
  -11    8   13     -0.65      0.00
  -10    8   13     -1.44      0.00
   -9    8   13     -0.68      0.00
    7    8   13      0.10      0.00
    8    8   13      0.86      0.00
  -11    9   13      0.44      0.00
  -10    9   13     -0.68      0.00
   -9    9   13      0.47      0.00
    7    9   13     -1.18      0.00
    8    9   13     -0.52      0.00
  -11   10   13      0.77      0.00
  -10   10   13      1.25      0.00
   -9   10   13      1.39      0.00
    7   10   13      0.24      0.00
  -10   11   13     -0.40      0.00
   -9   11   13     -1.07      0.00
    7   11   13      1.18      0.00
  -10   12   13     -0.24      0.00
   -9   12   13     -1.03      0.00
   -8   12   13     -2.10      0.00
    7   12   13     -0.93      0.00
  -10   13   13      0.81      0.00
   -9   13   13      2.76      0.00
   -8   13   13      1.99      0.00
    7   13   13     -0.78      0.00
  -10   14   13     -0.22      0.00
   -9   14   13      0.20      0.00
   -8   14   13      1.62      0.00
    7   14   13      0.60      0.00
  -10   15   13     -0.21      0.00
   -9   15   13     -0.70      0.00
   -8   15   13     -1.14      0.00
   -7   15   13      0.94      0.00
    7   15   13      0.62      0.00
   -9   16   13     -0.39      0.00
   -8   16   13     -0.45      0.00
   -7   16   13      0.80      0.00
   -9   17   13     -0.06      0.00
   -8   17   13     -0.89      0.00
   -7   17   13     -1.05      0.00
   -6   17   13     -0.13      0.00
   -9   18   13      0.12      0.00
   -8   18   13      0.19      0.00
   -7   18   13     -0.22      0.00
   -6   18   13      0.19      0.00
   -9   19   13     -0.38      0.00
   -8   19   13      0.28      0.00
   -7   19   13      0.12      0.00
   -6   19   13      1.60      0.00
   -5   19   13      0.33      0.00
   -8   20   13     -0.13      0.00
   -7   20   13     -0.27      0.00
   -6   20   13      0.09      0.00
   -5   20   13      0.62      0.00
   -4   20   13      0.12      0.00
   -8   21   13      0.61      0.00
   -7   21   13     -0.73      0.00
   -6   21   13     -0.30      0.00
   -5   21   13      0.43      0.00
   -4   21   13      1.14      0.00
   -7   22   13     -0.21      0.00
   -6   22   13     -0.59      0.00
   -5   22   13     -0.98      0.00
   -4   22   13     -0.75      0.00
   -3   22   13     -0.45      0.00
   -7   23   13     -0.39      0.00
   -6   23   13      0.24      0.00
   -5   23   13     -0.05      0.00
   -4   23   13     -1.37      0.00
   -3   23   13     -0.90      0.00
   -2   23   13     -0.85      0.00
   -6   24   13      0.45      0.00
   -5   24   13      1.20      0.00
   -4   24   13      1.65      0.00
   -3   24   13      0.90      0.00
   -2   24   13      0.05      0.00
   -1   24   13     -0.28      0.00
   -6   25   13     -0.62      0.00
   -5   25   13      0.30      0.00
   -4   25   13      0.40      0.00
   -3   25   13      1.49      0.00
   -2   25   13      0.06      0.00
   -1   25   13     -1.58      0.00
    0   25   13     -1.27      0.00
   -5   26   13     -1.43      0.00
   -4   26   13     -0.68      0.00
   -3   26   13     -0.88      0.00
   -2   26   13      0.72      0.00
   -1   26   13     -0.30      0.00
    0   26   13     -0.59      0.00
    1   26   13     -0.23      0.00
   -4   27   13     -0.85      0.00
   -3   27   13      0.35      0.00
   -2   27   13      0.04      0.00
   -1   27   13      0.98      0.00
    0   27   13      1.05      0.00
    1   27   13      0.52      0.00
  -10    0   14      0.63      0.00
   -9    0   14     -1.05      0.00
   -8    0   14      0.80      0.00
    7    0   14      0.76      0.00
  -10    1   14      1.97      0.00
   -9    1   14      1.63      0.00
   -8    1   14     -1.30      0.00
    7    1   14      0.65      0.00
  -10    2   14     -1.19      0.00
   -9    2   14      0.00      0.00
   -8    2   14      1.02      0.00
    7    2   14      0.40      0.00
  -10    3   14     -0.84      0.00
   -9    3   14     -1.61      0.00
   -8    3   14      0.91      0.00
    7    3   14     -1.04      0.00
  -10    4   14      1.90      0.00
   -9    4   14      0.16      0.00
   -8    4   14      0.07      0.00
   -7    4   14     -0.45      0.00
    7    4   14     -0.31      0.00
  -10    5   14     -0.41      0.00
   -9    5   14      0.44      0.00
   -8    5   14     -2.36      0.00
   -7    5   14     -1.19      0.00
    6    5   14      1.09      0.00
    7    5   14      0.69      0.00
  -10    6   14     -1.33      0.00
   -9    6   14     -0.45      0.00
   -8    6   14      0.45      0.00
   -7    6   14     -1.34      0.00
  -10    7   14      0.48      0.00
   -9    7   14      1.52      0.00
   -8    7   14      2.25      0.00
   -7    7   14      1.82      0.00
  -10    8   14      0.66      0.00
   -9    8   14      0.03      0.00
   -8    8   14     -0.17      0.00
   -7    8   14     -0.22      0.00
  -10    9   14     -1.01      0.00
   -9    9   14     -0.62      0.00
   -8    9   14     -2.96      0.00
   -7    9   14     -0.65      0.00
   -9   10   14      0.43      0.00
   -8   10   14      0.18      0.00
   -7   10   14     -0.21      0.00
   -6   10   14      2.06      0.00
   -9   11   14      0.62      0.00
   -8   11   14      1.11      0.00
   -7   11   14     -0.12      0.00
   -6   11   14     -0.07      0.00
   -9   12   14      0.09      0.00
   -8   12   14     -0.78      0.00
   -7   12   14     -0.99      0.00
   -6   12   14     -2.38      0.00
    6   12   14     -0.21      0.00
   -9   13   14      1.14      0.00
   -8   13   14      0.28      0.00
   -7   13   14      1.47      0.00
   -6   13   14     -0.69      0.00
   -5   13   14     -0.61      0.00
   -9   14   14      0.06      0.00
   -8   14   14      0.58      0.00
   -7   14   14      1.22      0.00
   -6   14   14      0.98      0.00
   -5   14   14     -0.67      0.00
   -8   15   14      0.24      0.00
   -7   15   14     -0.41      0.00
   -6   15   14     -0.65      0.00
   -5   15   14      0.02      0.00
   -4   15   14     -0.14      0.00
   -8   16   14     -0.50      0.00
   -7   16   14      1.11      0.00
   -6   16   14     -0.57      0.00
   -5   16   14      1.14      0.00
   -4   16   14      0.65      0.00
   -8   17   14     -0.86      0.00
   -7   17   14      1.01      0.00
   -6   17   14      0.52      0.00
   -5   17   14     -1.33      0.00
   -4   17   14     -0.06      0.00
   -3   17   14     -1.84      0.00
   -7   18   14     -0.09      0.00
   -6   18   14      1.34      0.00
   -5   18   14     -0.94      0.00
   -4   18   14     -0.98      0.00
   -3   18   14     -0.43      0.00
   -7   19   14     -1.63      0.00
   -6   19   14      0.04      0.00
   -5   19   14      0.58      0.00
   -4   19   14     -0.11      0.00
   -3   19   14      0.58      0.00
   -2   19   14      0.86      0.00
   -6   20   14     -0.20      0.00
   -5   20   14      0.79      0.00
   -4   20   14      0.34      0.00
   -3   20   14     -0.83      0.00
   -2   20   14     -0.63      0.00
   -1   20   14      0.66      0.00
   -6   21   14      0.38      0.00
   -5   21   14      0.59      0.00
   -4   21   14      1.62      0.00
   -3   21   14      1.02      0.00
   -2   21   14     -1.09      0.00
   -1   21   14      0.10      0.00
    0   21   14     -0.53      0.00
   -5   22   14     -1.14      0.00
   -4   22   14      0.30      0.00
   -3   22   14      1.07      0.00
   -2   22   14     -0.16      0.00
   -1   22   14     -0.53      0.00
    0   22   14     -0.23      0.00
    1   22   14     -0.79      0.00
   -4   23   14     -1.27      0.00
   -3   23   14     -0.21      0.00
   -2   23   14     -0.50      0.00
   -1   23   14     -0.23      0.00
    0   23   14     -0.29      0.00
    1   23   14      0.28      0.00
   -3   24   14     -0.53      0.00
   -2   24   14      0.09      0.00
   -1   24   14      0.87      0.00
    0   24   14      0.11      0.00
   -9    0   15      0.20      0.00
   -8    0   15      3.08      0.00
   -7    0   15      0.63      0.00
   -6    0   15     -0.36      0.00
   -5    0   15      1.97      0.00
   -9    1   15     -0.90      0.00
   -8    1   15     -1.42      0.00
   -7    1   15      0.08      0.00
   -6    1   15     -2.91      0.00
   -5    1   15     -4.04      0.00
   -9    2   15     -0.76      0.00
   -8    2   15     -1.48      0.00
   -7    2   15     -1.49      0.00
   -6    2   15      2.52      0.00
   -5    2   15     -1.64      0.00
   -9    3   15      0.23      0.00
   -8    3   15      0.68      0.00
   -7    3   15     -1.40      0.00
   -6    3   15      3.09      0.00
   -5    3   15      2.27      0.00
   -9    4   15     -0.24      0.00
   -8    4   15      1.65      0.00
   -7    4   15     -0.78      0.00
   -6    4   15     -1.33      0.00
   -5    4   15      1.07      0.00
   -8    5   15     -0.18      0.00
   -7    5   15      0.55      0.00
   -6    5   15     -1.27      0.00
   -5    5   15     -1.30      0.00
   -8    6   15     -0.21      0.00
   -7    6   15     -0.34      0.00
   -6    6   15      1.15      0.00
   -5    6   15     -1.91      0.00
   -4    6   15      0.91      0.00
   -8    7   15     -0.09      0.00
   -7    7   15     -0.89      0.00
   -6    7   15      1.36      0.00
   -5    7   15     -0.98      0.00
   -4    7   15     -1.04      0.00
   -8    8   15      0.60      0.00
   -7    8   15     -0.55      0.00
   -6    8   15     -0.81      0.00
   -5    8   15     -0.11      0.00
   -4    8   15     -0.10      0.00
   -8    9   15      0.22      0.00
   -7    9   15      1.32      0.00
   -6    9   15     -0.32      0.00
   -5    9   15     -0.51      0.00
   -4    9   15      0.69      0.00
   -8   10   15     -1.22      0.00
   -7   10   15      0.29      0.00
   -6   10   15      1.81      0.00
   -5   10   15     -0.15      0.00
   -4   10   15      1.09      0.00
   -3   10   15     -0.86      0.00
   -7   11   15     -1.10      0.00
   -6   11   15      0.78      0.00
   -5   11   15     -0.44      0.00
   -4   11   15      0.09      0.00
   -3   11   15      0.94      0.00
   -7   12   15     -0.63      0.00
   -6   12   15     -1.24      0.00
   -5   12   15      0.13      0.00
   -4   12   15     -0.95      0.00
   -3   12   15      1.18      0.00
   -7   13   15      0.26      0.00
   -6   13   15     -0.93      0.00
   -5   13   15      0.39      0.00
   -4   13   15      0.40      0.00
   -3   13   15     -0.49      0.00
   -2   13   15      0.43      0.00
   -7   14   15      1.13      0.00
   -6   14   15      0.22      0.00
   -5   14   15      0.48      0.00
   -4   14   15     -0.27      0.00
   -3   14   15     -0.77      0.00
   -2   14   15     -0.75      0.00
   -6   15   15     -0.04      0.00
   -5   15   15     -0.81      0.00
   -4   15   15     -0.33      0.00
   -3   15   15     -0.66      0.00
   -2   15   15     -1.18      0.00
   -1   15   15     -0.02      0.00
   -6   16   15     -0.84      0.00
   -5   16   15     -0.31      0.00
   -4   16   15     -0.70      0.00
   -3   16   15      1.10      0.00
   -2   16   15      0.41      0.00
   -1   16   15     -0.41      0.00
    0   16   15      0.15      0.00
   -5   17   15      0.60      0.00
   -4   17   15      0.10      0.00
   -3   17   15     -0.22      0.00
   -2   17   15      0.82      0.00
   -1   17   15      1.39      0.00
    0   17   15      0.21      0.00
   -5   18   15      0.49      0.00
   -4   18   15      0.83      0.00
   -3   18   15     -0.56      0.00
   -2   18   15     -0.40      0.00
   -1   18   15      0.03      0.00
    0   18   15      0.06      0.00
    1   18   15     -0.63      0.00
   -4   19   15     -0.10      0.00
   -3   19   15      0.09      0.00
   -2   19   15     -0.89      0.00
   -1   19   15      0.25      0.00
    0   19   15     -0.71      0.00
   -2   20   15     -0.75      0.00
   -7    0   16     -1.98      0.00
   -6    0   16      0.60      0.00
   -5    0   16      1.57      0.00
   -4    0   16      1.10      0.00
   -3    0   16      2.05      0.00
   -2    0   16      1.15      0.00
   -1    0   16      0.25      0.00
   -7    1   16      0.12      0.00
   -6    1   16     -1.10      0.00
   -5    1   16     -0.54      0.00
   -4    1   16     -1.54      0.00
   -3    1   16     -1.54      0.00
   -2    1   16     -0.94      0.00
   -1    1   16     -0.60      0.00
   -6    2   16     -0.33      0.00
   -5    2   16      0.14      0.00
   -4    2   16     -0.53      0.00
   -3    2   16     -1.73      0.00
   -2    2   16     -1.42      0.00
   -1    2   16     -0.89      0.00
   -6    3   16      0.24      0.00
   -5    3   16     -1.27      0.00
   -4    3   16      2.07      0.00
   -3    3   16      1.36      0.00
   -2    3   16      1.42      0.00
   -1    3   16      0.29      0.00
   -6    4   16      0.97      0.00
   -5    4   16      0.14      0.00
   -4    4   16     -0.60      0.00
   -3    4   16      0.86      0.00
   -2    4   16      0.76      0.00
   -1    4   16      0.64      0.00
   -6    5   16      0.27      0.00
   -5    5   16      1.18      0.00
   -4    5   16      0.85      0.00
   -3    5   16     -0.48      0.00
   -2    5   16     -0.41      0.00
   -1    5   16     -1.10      0.00
   -6    6   16     -1.48      0.00
   -5    6   16     -0.99      0.00
   -4    6   16      0.60      0.00
   -3    6   16     -0.29      0.00
   -2    6   16     -0.02      0.00
   -1    6   16     -0.46      0.00
   -6    7   16      0.60      0.00
   -5    7   16     -1.78      0.00
   -4    7   16      0.01      0.00
   -3    7   16     -0.67      0.00
   -2    7   16      0.07      0.00
   -1    7   16     -0.14      0.00
    0    7   16      0.56      0.00
   -6    8   16      1.07      0.00
   -5    8   16     -0.57      0.00
   -4    8   16     -0.30      0.00
   -3    8   16     -0.43      0.00
   -2    8   16      0.60      0.00
   -1    8   16      0.48      0.00
    0    8   16      0.76      0.00
   -5    9   16     -0.11      0.00
   -4    9   16     -0.01      0.00
   -3    9   16     -0.15      0.00
   -2    9   16      0.56      0.00
   -1    9   16      0.15      0.00
    0    9   16      0.71      0.00
   -5   10   16      0.66      0.00
   -4   10   16      1.79      0.00
   -3   10   16      0.11      0.00
   -2   10   16      0.50      0.00
   -1   10   16     -0.17      0.00
    0   10   16      0.01      0.00
    1   10   16     -0.10      0.00
   -5   11   16     -0.37      0.00
   -4   11   16      1.16      0.00
   -3   11   16      0.11      0.00
   -2   11   16     -0.13      0.00
   -1   11   16     -0.45      0.00
    0   11   16     -0.09      0.00
    1   11   16     -0.31      0.00
   -4   12   16     -1.22      0.00
   -3   12   16     -0.64      0.00
   -2   12   16     -0.01      0.00
   -1   12   16     -0.20      0.00
    0   12   16     -0.24      0.00
   -3   13   16     -0.44      0.00
   -2   13   16     -0.04      0.00
   -1   13   16      0.07      0.00
    0    0    0      0.00      0.00
# SQUEEZE RESULTS (Version = 100820)
# Note: Data are Listed for all Voids in the P1 Unit Cell
# i.e. Centre of Gravity, Solvent Accessible Volume,
# Recovered number of Electrons in the Void and
# Details about the Squeezed Material
loop_
  _platon_squeeze_void_nr
  _platon_squeeze_void_average_x
  _platon_squeeze_void_average_y
  _platon_squeeze_void_average_z
  _platon_squeeze_void_volume
  _platon_squeeze_void_count_electrons
  _platon_squeeze_void_content
   1 -0.500  0.102  0.943      1805       425 ' '
# Missing Reflections Below sin(th)/lambda = 0.25
loop_
  _platon_missing_refln_index_h
  _platon_missing_refln_index_k
  _platon_missing_refln_index_l
  _platon_missing_refln_theta
   -2    4    1     4.261
   -1    9    1     5.887
   -3    0    2     5.567
    5    0    2     9.299
   -4    1    2     7.033
    0    1    2     3.239
   -1    4    2     4.179
   -2    5    2     5.270
    3    5    2     6.958
   -5    6    2     9.294
   -3    6    2     6.663
   -1    8    2     5.941
   -2   11    2     7.973
   -3   12    2     9.210
   -4    0    3     7.692
    1    0    3     5.252
   -3    1    3     6.486
   -2    1    3     5.497
   -1    1    3     4.891
    2    1    3     6.189
   -4    2    3     7.788
    0    2    3     4.928
    1    5    3     6.073
    2    5    3     6.874
   -2    6    3     6.576
   -3    7    3     7.745
   -1    7    3     6.463
    2    7    3     7.497
   -4    8    3     9.119
   -2    8    3     7.327
   -1    8    3     6.882
   -2    9    3     7.748
    2    9    3     8.257
    1   12    3     9.021
   -2   13    3     9.647
    0   14    3     9.802
    1    2    4     6.898
    3    2    4     8.679
   -4    4    4     8.966
   -2    4    4     7.231
    3    5    4     9.122
    2    7    4     8.689
   -2    8    4     8.381
   -1    9    4     8.423
    3    9    4    10.213
   -2   10    4     9.152
    0    0    5     7.974
   -2    1    5     8.268
    0    1    5     7.998
    2    1    5     9.053
    1    2    5     8.443
    2    3    5     9.217
   -1    4    5     8.306
    1    4    5     8.705
    0    5    5     8.541
    2    5    5     9.538
    0    9    5     9.695
    0    0    6     9.583
   -1    1    6     9.536
    1    1    6     9.956
   -1    5    6     9.998
_platon_squeeze_void_probe_radius                  1.20
_platon_squeeze_details
)
TITL test_a.res in P2(1)/m
CELL   12.3640   33.5000   12.9120     90.00     97.29     90.00
SPGR P21/m
# Solvent Accessible Volume =      1796
# Electrons Found in S.A.V. =       424
# Note: Atoms in Void are Labelled as Cxxx and Qxxx for all Others
C101 0.701 0.250 0.891 !       2.50 eA-3
C102 0.518 0.953 0.123 !       2.44 eA-3
Q103 0.518 0.752 0.078 !       2.29 eA-3
C104 0.605 0.974 0.149 !       1.90 eA-3
C105 0.264 0.749 0.312 !       1.88 eA-3
Q106 0.701 0.750 0.797 !       1.77 eA-3
C107 0.481 0.560 0.028 !       1.67 eA-3
Q108 0.315 0.247 0.375 !       1.62 eA-3
C109 0.361 0.752 0.578 !       1.62 eA-3
Q110 0.685 0.750 0.266 !       1.56 eA-3
C111 0.311 0.749 0.594 !       1.49 eA-3
Q112 0.942 0.803 0.464 !       1.38 eA-3
Q113 0.058 0.197 0.536 !       1.38 eA-3
C114 0.241 0.751 0.578 !       1.35 eA-3
C115 0.377 0.752 0.469 !       1.32 eA-3
C116 0.058 0.296 0.589 !       1.31 eA-3
Q117 0.248 0.252 0.219 !       1.31 eA-3
Q118 0.809 0.749 0.375 !       1.29 eA-3
Q119 0.955 0.694 0.370 !       1.25 eA-3
C120 0.675 0.251 0.625 !       1.22 eA-3
Q121 0.160 0.252 0.109 !       1.21 eA-3
C122 0.635 0.046 0.019 !       1.19 eA-3
C123 0.425 0.539 0.101 !       1.19 eA-3
Q124 0.394 0.249 0.859 !       1.13 eA-3
C125 0.224 0.892 0.936 !       1.12 eA-3
Q126 0.187 0.251 0.172 !       1.12 eA-3
C127 0.088 0.751 0.406 !       1.10 eA-3
C128 0.967 0.344 0.849 !       1.10 eA-3
C129 0.033 0.750 0.344 !       1.10 eA-3
Q130 0.319 0.247 0.297 !       1.06 eA-3
C131 0.889 0.251 0.531 !       0.97 eA-3
Q132 0.455 0.753 0.438 !       0.97 eA-3
Q133 0.542 0.186 0.169 !       0.97 eA-3
C134 0.188 0.821 0.072 !       0.96 eA-3
Q135 0.464 0.252 0.500 !       0.94 eA-3
C136 0.614 0.248 0.594 !       0.92 eA-3
Q137 0.886 0.749 0.219 !       0.90 eA-3
C138 0.853 0.749 0.031 !       0.89 eA-3
Q139 0.157 0.211 0.343 !       0.88 eA-3
C140 0.825 0.247 0.422 !       0.86 eA-3
Q141 0.902 0.068 0.025 !       0.85 eA-3
Q142 0.487 0.183 0.199 !       0.84 eA-3
C143 0.236 0.749 0.469 !       0.84 eA-3
Q144 0.875 0.728 0.175 !       0.84 eA-3
C145 0.131 0.663 0.137 !       0.83 eA-3
C146 0.958 0.688 0.126 !       0.81 eA-3
Q147 0.891 0.751 0.266 !       0.81 eA-3
Q148 0.729 0.070 0.325 !       0.80 eA-3
C149 0.068 0.251 0.000 !       0.80 eA-3
C150 0.935 0.353 0.247 !       0.80 eA-3
C151 0.051 0.188 0.806 !       0.77 eA-3
Q152 0.343 0.558 0.688 !       0.77 eA-3
Q153 0.986 0.353 0.288 !       0.77 eA-3
Q154 0.842 0.749 0.094 !       0.77 eA-3
Q155 0.392 0.288 0.215 !       0.77 eA-3
C156 0.955 0.679 0.227 !       0.76 eA-3
Q157 0.439 0.281 0.193 !       0.75 eA-3
C158 0.043 0.188 0.730 !       0.73 eA-3
C159 0.122 0.875 0.103 !       0.72 eA-3
Q160 0.081 0.192 0.355 !       0.72 eA-3
Q161 0.955 0.159 0.211 !       0.72 eA-3
C162 0.859 0.413 0.100 !       0.71 eA-3
Q163 0.797 0.089 0.319 !       0.71 eA-3
C164 0.206 0.937 0.083 !       0.70 eA-3
C165 0.144 0.752 0.750 !       0.70 eA-3
Q166 0.520 0.218 0.087 !       0.69 eA-3
C167 0.062 0.250 0.094 !       0.68 eA-3
C168 0.122 0.751 0.109 !       0.68 eA-3
Q169 0.544 0.827 0.725 !       0.67 eA-3
Q170 0.887 0.755 0.141 !       0.67 eA-3
Q171 0.284 0.249 0.500 !       0.65 eA-3
C172 0.904 0.249 0.437 !       0.64 eA-3
C173 0.858 0.421 0.985 !       0.63 eA-3
Q174 0.127 0.210 0.265 !       0.63 eA-3
C175 0.828 0.251 0.313 !       0.62 eA-3
Q176 0.875 0.391 0.152 !       0.59 eA-3
Q177 0.921 0.302 0.187 !       0.59 eA-3
Q178 0.809 0.750 0.250 !       0.58 eA-3
Q179 0.982 0.680 0.797 !       0.57 eA-3
Q180 0.247 0.873 0.739 !       0.57 eA-3
C181 0.202 0.749 0.781 !       0.57 eA-3
Q182 0.890 0.142 0.189 !       0.57 eA-3
Q183 0.590 0.288 0.053 !       0.57 eA-3
Q184 0.624 0.125 0.296 !       0.56 eA-3
C185 0.044 0.249 0.672 !       0.56 eA-3
Q186 0.058 0.316 0.429 !       0.56 eA-3
Q187 0.068 0.212 0.264 !       0.54 eA-3
Q188 0.018 0.675 0.610 !       0.54 eA-3
C189 0.131 0.752 0.812 !       0.54 eA-3
C190 0.773 0.389 0.950 !       0.53 eA-3
Q191 0.138 0.626 0.781 !       0.53 eA-3
C192 0.112 0.771 0.610 !       0.52 eA-3
Q193 0.922 0.292 0.365 !       0.52 eA-3
Q194 0.017 0.713 0.747 !       0.51 eA-3
Q195 0.008 0.219 0.204 !       0.51 eA-3
)
;
_shelx_fab_checksum              9697
_olex2_submission_special_instructions 'No special instructions were received'
_platon_squeeze_void_probe_radius 1.20
loop_
_space_group_symop_operation_xyz
'x, y, z'
'-x, y+1/2, -z'
'-x, -y, -z'
'x, -y-1/2, z'
loop_
_atom_site_label
_atom_site_type_symbol
_atom_site_fract_x
_atom_site_fract_y
_atom_site_fract_z
_atom_site_U_iso_or_equiv
_atom_site_adp_type
_atom_site_occupancy
_atom_site_site_symmetry_order
_atom_site_calc_flag
_atom_site_refinement_flags_posn
_atom_site_refinement_flags_adp
_atom_site_refinement_flags_occupancy
_atom_site_disorder_assembly
_atom_site_disorder_group
Mn1 Mn 0.79749(4) 0.56875(2) 0.39699(4) 0.0514(2) Uani 1 1 d . . . . .
C1 C 0.7059(3) 0.64980(12) 1.2668(3) 0.0569(8) Uani 1 1 d . . . . .
H1A H 0.681023 0.674863 1.230697 0.068 Uiso 1 1 calc R U . . .
H1B H 0.765780 0.656500 1.322451 0.068 Uiso 1 1 calc R U . . .
Mn2 Mn 1.000000 0.500000 0.500000 0.0614(3) Uani 1 2 d S . P . .
N11 N 0.7464(3) 0.62290(11) 1.1929(2) 0.0580(7) Uani 1 1 d . . . . .
N12 N 0.7980(3) 0.58881(10) 1.2285(2) 0.0568(7) Uani 1 1 d . . . . .
C13 C 0.8254(4) 0.56983(13) 1.1454(3) 0.0612(9) Uani 1 1 d . . . . .
C14 C 0.7900(4) 0.59204(14) 1.0536(3) 0.0644(10) Uani 1 1 d . . . . .
C15 C 0.7393(4) 0.62539(14) 1.0868(3) 0.0639(10) Uani 1 1 d . . . . .
C16 C 0.8857(5) 0.53126(17) 1.1556(3) 0.0843(16) Uani 1 1 d . . . . .
H16A H 0.921735 0.528316 1.227300 0.127 Uiso 1 1 calc R U . . .
H16B H 0.940632 0.530913 1.107146 0.127 Uiso 1 1 calc R U . . .
H16C H 0.834469 0.509168 1.139086 0.127 Uiso 1 1 calc R U . . .
C17 C 0.6823(6) 0.6591(2) 1.0268(4) 0.0981(19) Uani 1 1 d . . . . .
H17A H 0.613570 0.664801 1.054308 0.147 Uiso 1 1 calc R U . . .
H17B H 0.667080 0.651713 0.952990 0.147 Uiso 1 1 calc R U . . .
H17C H 0.728811 0.682868 1.033908 0.147 Uiso 1 1 calc R U . . .
C21 C 0.8053(4) 0.58195(16) 0.9453(3) 0.0685(11) Uani 1 1 d . . . . .
C22A C 0.7909(6) 0.5420(2) 0.9098(5) 0.0684(19) Uani 0.636(9) 1 d . . P A 1
H22A H 0.769985 0.522215 0.955974 0.082 Uiso 0.636(9) 1 calc R U P A 1
C22B C 0.9101(10) 0.5662(5) 0.9240(9) 0.074(4) Uani 0.364(9) 1 d . . P A 2
H22B H 0.968174 0.562929 0.978987 0.089 Uiso 0.364(9) 1 calc R U P A 2
C23A C 0.8070(6) 0.5311(2) 0.8065(5) 0.0669(18) Uani 0.636(9) 1 d . . P A 1
H23A H 0.800069 0.504162 0.783469 0.080 Uiso 0.636(9) 1 calc R U P A 1
C23B C 0.9237(10) 0.5561(4) 0.8225(7) 0.068(3) Uani 0.364(9) 1 d . . P A 2
H23B H 0.991292 0.545701 0.806998 0.081 Uiso 0.364(9) 1 calc R U P A 2
C24 C 0.8335(4) 0.56156(16) 0.7401(3) 0.0662(11) Uani 1 1 d . . . . .
C25A C 0.8343(7) 0.5995(2) 0.7707(5) 0.069(2) Uani 0.636(9) 1 d . . P A 1
H25A H 0.841932 0.619946 0.721164 0.083 Uiso 0.636(9) 1 calc R U P A 1
C25B C 0.7492(12) 0.5830(6) 0.7696(9) 0.086(5) Uani 0.364(9) 1 d . . P A 2
H25B H 0.699416 0.594687 0.715982 0.104 Uiso 0.364(9) 1 calc R U P A 2
C26A C 0.8242(6) 0.6101(2) 0.8737(5) 0.0655(18) Uani 0.636(9) 1 d . . P A 1
H26A H 0.830688 0.637292 0.894031 0.079 Uiso 0.636(9) 1 calc R U P A 1
C26B C 0.7310(14) 0.5889(8) 0.8685(10) 0.111(8) Uani 0.364(9) 1 d . . P A 2
H26B H 0.661801 0.598366 0.882099 0.133 Uiso 0.364(9) 1 calc R U P A 2
C27 C 0.8488(4) 0.55113(15) 0.6296(3) 0.0653(10) Uani 1 1 d . . . . .
O28 O 0.9087(4) 0.52356(15) 0.6155(3) 0.1072(16) Uani 1 1 d . . . . .
O29 O 0.7981(3) 0.57205(13) 0.5585(2) 0.0821(11) Uani 1 1 d . . . . .
N31 N 0.6162(3) 0.63218(11) 1.3133(2) 0.0576(7) Uani 1 1 d . . . . .
N32 N 0.6385(3) 0.60015(11) 1.3762(2) 0.0602(8) Uani 1 1 d . . . . .
C33 C 0.5425(3) 0.58768(15) 1.4014(3) 0.0669(10) Uani 1 1 d . . . . .
C34 C 0.4582(3) 0.61265(15) 1.3553(4) 0.0688(10) Uani 1 1 d . . . . .
C35 C 0.5076(3) 0.64092(15) 1.2984(3) 0.0666(10) Uani 1 1 d . . . . .
C36 C 0.5338(4) 0.5524(2) 1.4702(5) 0.0889(16) Uani 1 1 d . . . . .
H36A H 0.513136 0.528881 1.427207 0.133 Uiso 1 1 calc R U . . .
H36B H 0.478251 0.557569 1.516370 0.133 Uiso 1 1 calc R U . . .
H36C H 0.604284 0.547683 1.512355 0.133 Uiso 1 1 calc R U . . .
C37 C 0.4633(5) 0.6747(2) 1.2341(6) 0.1011(19) Uani 1 1 d . . . . .
H37A H 0.469216 0.699097 1.276185 0.152 Uiso 1 1 calc R U . . .
H37B H 0.386500 0.669582 1.208471 0.152 Uiso 1 1 calc R U . . .
H37C H 0.504576 0.677874 1.174643 0.152 Uiso 1 1 calc R U . . .
C41 C 0.3414(4) 0.60867(16) 1.3665(4) 0.0731(11) Uani 1 1 d . . . . .
C42 C 0.2797(4) 0.6405(2) 1.3960(5) 0.0866(14) Uani 1 1 d . . . . .
H42 H 0.312695 0.665989 1.407859 0.104 Uiso 1 1 calc R U . . .
C43 C 0.1715(4) 0.63556(19) 1.4083(5) 0.0860(14) Uani 1 1 d . . . . .
H43 H 0.130348 0.657645 1.427822 0.103 Uiso 1 1 calc R U . . .
C44 C 0.1224(3) 0.59857(17) 1.3923(4) 0.0741(11) Uani 1 1 d . . . . .
C45 C 0.1825(4) 0.56669(17) 1.3608(4) 0.0743(12) Uani 1 1 d . . . . .
H45 H 0.148721 0.541415 1.347774 0.089 Uiso 1 1 calc R U . . .
C46 C 0.2915(4) 0.57159(17) 1.3485(4) 0.0767(12) Uani 1 1 d . . . . .
H46 H 0.332259 0.549607 1.327647 0.092 Uiso 1 1 calc R U . . .
C47 C 0.0055(4) 0.59198(16) 1.4072(3) 0.0691(11) Uani 1 1 d . . . . .
O48 O -0.0566(2) 0.62106(11) 1.4156(3) 0.0771(8) Uani 1 1 d . . . . .
O49 O -0.0295(2) 0.55571(10) 1.4061(2) 0.0636(7) Uani 1 1 d . . . . .
C51B C 0.4095(12) 0.250000 0.1297(9) 0.095(4) Uani 0.75 2 d DS T P B 2
H51A H 0.448927 0.250001 0.067516 0.114 Uiso 0.75 2 calc R U P B 2
H51B H 0.330359 0.250000 0.105067 0.114 Uiso 0.75 2 calc R U P B 2
N62B N 0.4372(11) 0.2856(2) 0.1900(9) 0.102(3) Uani 0.75 1 d D . P B 2
N61B N 0.3690(7) 0.2926(2) 0.2705(6) 0.104(2) Uani 0.75 1 d D U P B 2
C65B C 0.4117(10) 0.3272(2) 0.3134(8) 0.099(2) Uani 0.75 1 d D U P B 2
C64B C 0.4960(9) 0.3411(2) 0.2611(7) 0.092(2) Uani 0.75 1 d D U P B 2
C63B C 0.5130(7) 0.31278(17) 0.1831(5) 0.0759(17) Uani 0.75 1 d D U P B 2
C67B C 0.3681(14) 0.3453(3) 0.4062(11) 0.141(4) Uani 0.75 1 d D U P B 2
H67A H 0.383645 0.373991 0.408748 0.211 Uiso 0.75 1 calc R U P B 2
H67B H 0.403143 0.332621 0.470260 0.211 Uiso 0.75 1 calc R U P B 2
H67C H 0.289140 0.341070 0.400230 0.211 Uiso 0.75 1 calc R U P B 2
C66B C 0.5968(10) 0.3114(2) 0.1067(8) 0.107(4) Uani 0.75 1 d D . P B 2
H66A H 0.645006 0.288449 0.122636 0.161 Uiso 0.75 1 calc R U P B 2
H66B H 0.640002 0.336050 0.112716 0.161 Uiso 0.75 1 calc R U P B 2
H66C H 0.559371 0.308979 0.035365 0.161 Uiso 0.75 1 calc R U P B 2
C71B C 0.5702(5) 0.37745(10) 0.2818(5) 0.088(2) Uani 0.75 1 d DG . P B 2
C72B C 0.6800(5) 0.37327(11) 0.3198(6) 0.140(6) Uani 0.75 1 d DG . P B 2
H72B H 0.711574 0.347425 0.327904 0.168 Uiso 0.75 1 calc R U P B 2
C73B C 0.7435(4) 0.40689(15) 0.3459(6) 0.133(6) Uani 0.75 1 d DG . P B 2
H73B H 0.818498 0.404035 0.371837 0.160 Uiso 0.75 1 calc R U P B 2
C74B C 0.6973(4) 0.44470(12) 0.3340(4) 0.0658(16) Uani 0.75 1 d DG . P B 2
C75B C 0.5875(5) 0.44888(9) 0.2960(4) 0.084(2) Uani 0.75 1 d DG . P B 2
H75B H 0.555953 0.474723 0.287898 0.101 Uiso 0.75 1 calc R U P B 2
C76B C 0.5240(4) 0.41526(12) 0.2699(4) 0.090(2) Uani 0.75 1 d DG . P B 2
H76B H 0.449027 0.418114 0.243964 0.108 Uiso 0.75 1 calc R U P B 2
C51A C 0.466(3) 0.250000 0.074(2) 0.095(9) Uiso 0.25 2 d DS U P B 1
H51C H 0.512858 0.250001 0.017803 0.114 Uiso 0.25 2 calc R U P B 1
H51D H 0.388732 0.250000 0.042705 0.114 Uiso 0.25 2 calc R U P B 1
N61A N 0.488(2) 0.2845(7) 0.140(2) 0.124(8) Uiso 0.25 1 d D U P B 1
N62A N 0.408(3) 0.2878(11) 0.210(4) 0.115(10) Uiso 0.25 1 d D U P B 1
C63A C 0.4460(19) 0.3218(8) 0.264(2) 0.092(6) Uiso 0.25 1 d D U P B 1
C64A C 0.538(2) 0.3369(8) 0.229(2) 0.110(9) Uiso 0.25 1 d D U P B 1
C65A C 0.567(3) 0.3101(9) 0.151(3) 0.107(10) Uiso 0.25 1 d D U P B 1
C66A C 0.385(3) 0.3381(11) 0.349(3) 0.103(9) Uiso 0.25 1 d D U P B 1
H66D H 0.346274 0.316315 0.378940 0.154 Uiso 0.25 1 calc R U P B 1
H66E H 0.332581 0.358268 0.319440 0.154 Uiso 0.25 1 calc R U P B 1
H66F H 0.436987 0.350256 0.403508 0.154 Uiso 0.25 1 calc R U P B 1
C67A C 0.653(3) 0.3195(12) 0.078(3) 0.122(11) Uiso 0.25 1 d D U P B 1
H67D H 0.698491 0.295984 0.071803 0.183 Uiso 0.25 1 calc R U P B 1
H67E H 0.698067 0.341893 0.106011 0.183 Uiso 0.25 1 calc R U P B 1
H67F H 0.615276 0.326604 0.008749 0.183 Uiso 0.25 1 calc R U P B 1
C71A C 0.618(2) 0.3722(7) 0.244(3) 0.149(12) Uiso 0.25 1 d D U P B 1
C72A C 0.723(3) 0.3694(10) 0.297(3) 0.19(2) Uiso 0.25 1 d D U P B 1
H72A H 0.755997 0.343921 0.309088 0.225 Uiso 0.25 1 calc R U P B 1
C73A C 0.780(3) 0.4035(9) 0.332(4) 0.158(16) Uiso 0.25 1 d D U P B 1
H73A H 0.851906 0.401125 0.367482 0.189 Uiso 0.25 1 calc R U P B 1
C74A C 0.7331(18) 0.4411(8) 0.317(2) 0.079(8) Uiso 0.25 1 d D U P B 1
C75A C 0.6266(19) 0.4435(7) 0.268(2) 0.100(9) Uiso 0.25 1 d D U P B 1
H75A H 0.587619 0.467970 0.267494 0.120 Uiso 0.25 1 calc R U P B 1
C76A C 0.578(2) 0.4097(7) 0.222(3) 0.118(9) Uiso 0.25 1 d D U P B 1
H76A H 0.514765 0.412684 0.172121 0.142 Uiso 0.25 1 calc R U P B 1
C77 C 0.7689(4) 0.48068(14) 0.3685(3) 0.0713(11) Uani 1 1 d . . . . .
O78 O 0.8635(4) 0.47401(13) 0.4121(3) 0.0978(12) Uani 1 1 d . . . . .
O79 O 0.7272(3) 0.51359(10) 0.3506(3) 0.0739(8) Uani 1 1 d . . . . .
Ir3A Ir 0.2809(4) 0.250000 0.2598(5) 0.1072(13) Uiso 0.1 2 d DS U P B 1
Ir3B Ir 0.25684(9) 0.250000 0.31319(9) 0.1137(3) Uani 0.5 2 d DS TU P B 2
Cl82 Cl 0.3755(16) 0.250000 0.4987(8) 0.235(7) Uani 0.5 2 d S T P B 2
C85 C 0.119(3) 0.2113(3) 0.239(4) 0.179(13) Uiso 0.25 1 d D . P B 2
H85A H 0.052750 0.225407 0.207241 0.215 Uiso 0.25 1 calc R U P B 2
H85B H 0.139832 0.188690 0.196108 0.215 Uiso 0.25 1 calc R U P B 2
Cl81 Cl 0.6468(15) 0.750000 1.1576(15) 0.080(4) Uiso 0.1 2 d S . P C 2
C86 C 0.127(4) 0.2052(15) 0.336(4) 0.179(13) Uiso 0.25 1 d D . P B 2
H86A H 0.152412 0.178403 0.360444 0.215 Uiso 0.25 1 calc R U P B 2
H86B H 0.065377 0.215101 0.371571 0.215 Uiso 0.25 1 calc R U P B 2
loop_
_atom_site_aniso_label
_atom_site_aniso_U_11
_atom_site_aniso_U_22
_atom_site_aniso_U_33
_atom_site_aniso_U_23
_atom_site_aniso_U_13
_atom_site_aniso_U_12
Mn1 0.0534(4) 0.0697(4) 0.0311(3) 0.00119(19) 0.0049(2) 0.0035(2)
C1 0.061(2) 0.063(2) 0.0486(18) 0.0012(15) 0.0162(15) 0.0032(15)
Mn2 0.0633(5) 0.0875(6) 0.0337(4) 0.0019(3) 0.0073(3) 0.0184(4)
N11 0.0713(19) 0.069(2) 0.0362(13) 0.0064(12) 0.0154(13) 0.0088(14)
N12 0.0684(19) 0.0644(18) 0.0388(14) 0.0033(12) 0.0120(13) 0.0100(14)
C13 0.074(2) 0.075(2) 0.0355(16) 0.0049(15) 0.0106(16) 0.0136(18)
C14 0.082(3) 0.078(3) 0.0341(16) 0.0056(15) 0.0097(16) 0.0146(19)
C15 0.072(2) 0.083(3) 0.0378(16) 0.0074(16) 0.0114(16) 0.0137(19)
C16 0.129(4) 0.089(3) 0.0372(17) 0.0066(18) 0.019(2) 0.046(3)
C17 0.141(5) 0.101(4) 0.056(2) 0.026(3) 0.026(3) 0.042(4)
C21 0.076(3) 0.096(3) 0.0350(17) 0.0053(17) 0.0117(17) 0.019(2)
C22A 0.098(5) 0.072(4) 0.037(3) 0.006(2) 0.013(3) 0.005(3)
C22B 0.062(7) 0.123(11) 0.038(5) 0.002(5) 0.010(5) 0.034(6)
C23A 0.082(4) 0.081(4) 0.038(3) -0.003(3) 0.007(3) 0.012(3)
C23B 0.072(7) 0.100(9) 0.031(5) 0.007(5) 0.010(4) 0.028(6)
C24 0.069(2) 0.099(3) 0.0316(16) 0.0026(17) 0.0085(16) 0.012(2)
C25A 0.091(6) 0.079(4) 0.036(3) 0.005(3) 0.004(3) 0.005(3)
C25B 0.064(9) 0.151(14) 0.042(6) -0.004(7) -0.007(5) 0.035(9)
C26A 0.078(5) 0.077(4) 0.041(3) 0.000(3) 0.006(3) 0.004(3)
C26B 0.079(10) 0.21(2) 0.046(6) 0.011(9) 0.011(6) 0.070(13)
C27 0.074(3) 0.085(3) 0.0382(17) 0.0004(17) 0.0122(16) 0.010(2)
O28 0.150(4) 0.129(3) 0.0506(17) 0.0167(19) 0.042(2) 0.064(3)
O29 0.084(2) 0.134(3) 0.0294(12) -0.0027(14) 0.0091(12) 0.0325(19)
N31 0.0557(17) 0.072(2) 0.0472(15) 0.0079(13) 0.0160(13) 0.0085(13)
N32 0.0571(17) 0.079(2) 0.0468(15) 0.0131(14) 0.0142(13) 0.0051(14)
C33 0.062(2) 0.085(3) 0.057(2) 0.0126(19) 0.0162(17) 0.0020(18)
C34 0.056(2) 0.087(3) 0.065(2) 0.005(2) 0.0121(18) 0.0054(18)
C35 0.058(2) 0.086(3) 0.057(2) 0.0081(19) 0.0136(17) 0.0090(18)
C36 0.069(3) 0.111(4) 0.090(3) 0.041(3) 0.021(2) -0.003(2)
C37 0.076(3) 0.105(4) 0.124(5) 0.036(4) 0.018(3) 0.026(3)
C41 0.055(2) 0.092(3) 0.073(3) 0.004(2) 0.0124(19) 0.0000(19)
C42 0.063(3) 0.099(4) 0.099(4) -0.010(3) 0.016(3) -0.003(2)
C43 0.062(3) 0.096(4) 0.102(4) -0.012(3) 0.018(3) 0.003(2)
C44 0.053(2) 0.099(3) 0.071(3) -0.001(2) 0.0097(19) 0.005(2)
C45 0.061(2) 0.094(3) 0.069(3) -0.003(2) 0.015(2) 0.001(2)
C46 0.064(3) 0.097(3) 0.072(3) -0.002(2) 0.022(2) 0.004(2)
C47 0.059(2) 0.098(3) 0.052(2) 0.000(2) 0.0109(17) 0.003(2)
O48 0.0512(15) 0.098(2) 0.083(2) -0.0100(17) 0.0097(14) 0.0017(14)
O49 0.0532(15) 0.093(2) 0.0449(13) 0.0071(13) 0.0091(11) 0.0049(13)
C51B 0.131(9) 0.047(4) 0.096(7) 0.000 -0.028(7) 0.000
N62B 0.130(9) 0.064(4) 0.101(7) 0.001(3) -0.030(6) 0.000(4)
N61B 0.152(6) 0.070(3) 0.088(4) -0.003(3) 0.012(4) 0.008(4)
C65B 0.141(7) 0.065(4) 0.090(6) -0.007(4) 0.011(5) 0.010(4)
C64B 0.120(6) 0.057(3) 0.090(5) -0.010(3) -0.025(5) 0.001(4)
C63B 0.093(5) 0.055(3) 0.070(3) -0.001(2) -0.026(3) -0.001(3)
C67B 0.218(14) 0.089(6) 0.112(8) -0.028(6) 0.013(8) 0.010(7)
C66B 0.143(9) 0.067(4) 0.098(7) 0.008(4) -0.038(7) -0.007(5)
C71B 0.110(6) 0.060(3) 0.082(4) -0.005(3) -0.035(4) 0.001(3)
C72B 0.182(11) 0.061(4) 0.144(9) -0.013(5) -0.100(9) 0.022(5)
C73B 0.158(10) 0.078(5) 0.136(9) -0.025(5) -0.088(9) 0.027(5)
C74B 0.084(5) 0.064(3) 0.045(3) -0.008(2) -0.010(3) 0.007(3)
C75B 0.126(6) 0.061(3) 0.063(4) 0.001(3) 0.001(4) -0.002(4)
C76B 0.115(6) 0.068(4) 0.079(4) 0.002(3) -0.017(4) -0.006(4)
C77 0.096(3) 0.073(3) 0.0427(18) 0.0027(17) -0.002(2) -0.005(2)
O78 0.106(3) 0.088(2) 0.089(2) 0.0071(19) -0.025(2) -0.002(2)
O79 0.086(2) 0.0707(19) 0.0641(17) 0.0009(14) 0.0061(15) -0.0034(15)
Ir3B 0.1654(8) 0.0536(4) 0.1322(7) 0.000 0.0576(6) 0.000
Cl82 0.47(2) 0.099(5) 0.134(6) 0.000 0.037(9) 0.000
loop_
_atom_type_symbol
_atom_type_description
_atom_type_scat_dispersion_real
_atom_type_scat_dispersion_imag
_atom_type_scat_source
C C 0.0033 0.0016 'International Tables Vol C Tables 4.2.6.8 and 6.1.1.4'
H H 0.0000 0.0000 'International Tables Vol C Tables 4.2.6.8 and 6.1.1.4'
Cl Cl 0.1484 0.1585 'International Tables Vol C Tables 4.2.6.8 and 6.1.1.4'
Ir Ir -1.4442 7.9887 'International Tables Vol C Tables 4.2.6.8 and 6.1.1.4'
Mn Mn 0.3368 0.7283 'International Tables Vol C Tables 4.2.6.8 and 6.1.1.4'
N N 0.0061 0.0033 'International Tables Vol C Tables 4.2.6.8 and 6.1.1.4'
O O 0.0106 0.0060 'International Tables Vol C Tables 4.2.6.8 and 6.1.1.4'
loop_
_geom_angle_atom_site_label_1
_geom_angle_atom_site_label_2
_geom_angle_atom_site_label_3
_geom_angle
_geom_angle_site_symmetry_1
_geom_angle_site_symmetry_3
_geom_angle_publ_flag
N12 Mn1 O48 78.21(13) 1_554 1_654 ?
O29 Mn1 N12 159.81(15) . 1_554 ?
O29 Mn1 N32 89.23(12) . 1_554 ?
O29 Mn1 O48 87.47(15) . 1_654 ?
O29 Mn1 O49 94.47(12) . 1_654 ?
O29 Mn1 O79 106.30(16) . . ?
N32 Mn1 N12 81.63(11) 1_554 1_554 ?
N32 Mn1 O48 107.27(13) 1_554 1_654 ?
O49 Mn1 N12 89.35(11) 1_654 1_554 ?
O49 Mn1 N32 162.69(13) 1_654 1_554 ?
O49 Mn1 O48 56.15(12) 1_654 1_654 ?
O79 Mn1 N12 92.22(13) . 1_554 ?
O79 Mn1 N32 93.12(14) . 1_554 ?
O79 Mn1 O48 155.70(13) . 1_654 ?
O79 Mn1 O49 102.00(14) . 1_654 ?
H1A C1 H1B 108.0 . . ?
N11 C1 H1A 109.3 . . ?
N11 C1 H1B 109.3 . . ?
N11 C1 N31 111.5(3) . . ?
N31 C1 H1A 109.3 . . ?
N31 C1 H1B 109.3 . . ?
O28 Mn2 O28 180.0 3_766 . ?
O28 Mn2 O49 90.35(13) 3_766 3_667 ?
O28 Mn2 O49 90.35(13) . 1_654 ?
O28 Mn2 O49 89.65(13) . 3_667 ?
O28 Mn2 O49 89.65(13) 3_766 1_654 ?
O49 Mn2 O49 180.00(15) 1_654 3_667 ?
O78 Mn2 O28 85.9(2) 3_766 . ?
O78 Mn2 O28 94.1(2) . . ?
O78 Mn2 O28 85.9(2) . 3_766 ?
O78 Mn2 O28 94.1(2) 3_766 3_766 ?
O78 Mn2 O49 89.32(13) 3_766 3_667 ?
O78 Mn2 O49 90.68(14) . 3_667 ?
O78 Mn2 O49 90.68(13) 3_766 1_654 ?
O78 Mn2 O49 89.32(13) . 1_654 ?
O78 Mn2 O78 180.0 . 3_766 ?
N12 N11 C1 119.1(3) . . ?
N12 N11 C15 111.0(3) . . ?
C15 N11 C1 129.8(3) . . ?
N11 N12 Mn1 120.8(2) . 1_556 ?
C13 N12 Mn1 131.5(3) . 1_556 ?
C13 N12 N11 106.6(3) . . ?
N12 C13 C14 109.9(3) . . ?
N12 C13 C16 121.4(3) . . ?
C14 C13 C16 128.8(4) . . ?
C13 C14 C21 127.4(4) . . ?
C15 C14 C13 105.7(3) . . ?
C15 C14 C21 126.9(4) . . ?
N11 C15 C14 106.8(3) . . ?
N11 C15 C17 122.2(4) . . ?
C14 C15 C17 131.0(4) . . ?
C13 C16 H16A 109.5 . . ?
C13 C16 H16B 109.5 . . ?
C13 C16 H16C 109.5 . . ?
H16A C16 H16B 109.5 . . ?
H16A C16 H16C 109.5 . . ?
H16B C16 H16C 109.5 . . ?
C15 C17 H17A 109.5 . . ?
C15 C17 H17B 109.5 . . ?
C15 C17 H17C 109.5 . . ?
H17A C17 H17B 109.5 . . ?
H17A C17 H17C 109.5 . . ?
H17B C17 H17C 109.5 . . ?
C22A C21 C14 119.8(5) . . ?
C22B C21 C14 119.1(6) . . ?
C26A C21 C14 122.7(5) . . ?
C26A C21 C22A 117.3(5) . . ?
C26B C21 C14 121.7(7) . . ?
C26B C21 C22B 119.1(8) . . ?
C21 C22A H22A 119.3 . . ?
C21 C22A C23A 121.3(6) . . ?
C23A C22A H22A 119.3 . . ?
C21 C22B H22B 120.5 . . ?
C23B C22B C21 119.0(10) . . ?
C23B C22B H22B 120.5 . . ?
C22A C23A H23A 121.4 . . ?
C24 C23A C22A 117.3(6) . . ?
C24 C23A H23A 121.4 . . ?
C22B C23B H23B 120.4 . . ?
C22B C23B C24 119.2(9) . . ?
C24 C23B H23B 120.4 . . ?
C23A C24 C27 118.6(5) . . ?
C23B C24 C27 119.3(5) . . ?
C25A C24 C23A 120.6(5) . . ?
C25A C24 C27 120.4(5) . . ?
C25B C24 C23B 114.0(7) . . ?
C25B C24 C27 125.6(6) . . ?
C24 C25A H25A 119.1 . . ?
C24 C25A C26A 121.8(6) . . ?
C26A C25A H25A 119.1 . . ?
C24 C25B H25B 117.5 . . ?
C26B C25B C24 124.9(11) . . ?
C26B C25B H25B 117.5 . . ?
C21 C26A C25A 121.0(7) . . ?
C21 C26A H26A 119.5 . . ?
C25A C26A H26A 119.5 . . ?
C21 C26B C25B 121.3(11) . . ?
C21 C26B H26B 119.3 . . ?
C25B C26B H26B 119.3 . . ?
O28 C27 C24 118.1(4) . . ?
O28 C27 O29 125.0(4) . . ?
O29 C27 C24 116.9(4) . . ?
C27 O28 Mn2 140.7(3) . . ?
C27 O29 Mn1 129.7(3) . . ?
N32 N31 C1 117.6(3) . . ?
N32 N31 C35 112.1(3) . . ?
C35 N31 C1 130.1(3) . . ?
N31 N32 Mn1 124.0(2) . 1_556 ?
C33 N32 Mn1 128.6(3) . 1_556 ?
C33 N32 N31 105.9(3) . . ?
N32 C33 C34 110.2(4) . . ?
N32 C33 C36 121.8(4) . . ?
C34 C33 C36 128.1(4) . . ?
C33 C34 C41 125.9(4) . . ?
C35 C34 C33 106.0(4) . . ?
C35 C34 C41 128.1(4) . . ?
N31 C35 C34 105.7(4) . . ?
N31 C35 C37 122.4(4) . . ?
C34 C35 C37 131.9(4) . . ?
C33 C36 H36A 109.5 . . ?
C33 C36 H36B 109.5 . . ?
C33 C36 H36C 109.5 . . ?
H36A C36 H36B 109.5 . . ?
H36A C36 H36C 109.5 . . ?
H36B C36 H36C 109.5 . . ?
C35 C37 H37A 109.5 . . ?
C35 C37 H37B 109.5 . . ?
C35 C37 H37C 109.5 . . ?
H37A C37 H37B 109.5 . . ?
H37A C37 H37C 109.5 . . ?
H37B C37 H37C 109.5 . . ?
C42 C41 C34 122.3(5) . . ?
C42 C41 C46 118.8(4) . . ?
C46 C41 C34 118.8(4) . . ?
C41 C42 H42 119.6 . . ?
C43 C42 C41 120.9(6) . . ?
C43 C42 H42 119.6 . . ?
C42 C43 H43 119.8 . . ?
C42 C43 C44 120.3(5) . . ?
C44 C43 H43 119.8 . . ?
C43 C44 C45 119.4(4) . . ?
C43 C44 C47 121.6(5) . . ?
C45 C44 C47 119.0(5) . . ?
C44 C45 H45 119.8 . . ?
C46 C45 C44 120.4(5) . . ?
C46 C45 H45 119.8 . . ?
C41 C46 H46 119.9 . . ?
C45 C46 C41 120.1(5) . . ?
C45 C46 H46 119.9 . . ?
O48 C47 C44 120.5(5) . . ?
O48 C47 O49 121.6(4) . . ?
O49 C47 C44 117.8(4) . . ?
C47 O48 Mn1 83.7(3) . 1_456 ?
Mn1 O49 Mn2 106.85(12) 1_456 1_456 ?
C47 O49 Mn1 98.0(3) . 1_456 ?
C47 O49 Mn2 138.6(3) . 1_456 ?
H51A C51B H51B 108.0 . . ?
N62B C51B H51A 109.3 4_565 . ?
N62B C51B H51A 109.3 . . ?
N62B C51B H51B 109.3 . . ?
N62B C51B H51B 109.3 4_565 . ?
N61B N62B C51B 113.9(11) . . ?
C63B N62B C51B 131.1(13) . . ?
C63B N62B N61B 115.0(7) . . ?
N62B N61B Ir3B 122.9(5) . . ?
C65B N61B N62B 101.6(8) . . ?
C65B N61B Ir3B 134.7(7) . . ?
N61B C65B C64B 111.3(9) . . ?
N61B C65B C67B 120.5(10) . . ?
C64B C65B C67B 128.2(9) . . ?
C65B C64B C63B 107.9(7) . . ?
C65B C64B C71B 130.7(8) . . ?
C63B C64B C71B 121.1(10) . . ?
N62B C63B C64B 104.1(9) . . ?
N62B C63B C66B 125.0(8) . . ?
C64B C63B C66B 131.0(7) . . ?
C65B C67B H67A 109.5 . . ?
C65B C67B H67B 109.5 . . ?
C65B C67B H67C 109.5 . . ?
H67A C67B H67B 109.5 . . ?
H67A C67B H67C 109.5 . . ?
H67B C67B H67C 109.5 . . ?
C63B C66B H66A 109.5 . . ?
C63B C66B H66B 109.5 . . ?
C63B C66B H66C 109.5 . . ?
H66A C66B H66B 109.5 . . ?
H66A C66B H66C 109.5 . . ?
H66B C66B H66C 109.5 . . ?
C72B C71B C64B 121.3(4) . . ?
C72B C71B C76B 120.0 . . ?
C76B C71B C64B 118.5(5) . . ?
C71B C72B H72B 120.0 . . ?
C71B C72B C73B 120.0 . . ?
C73B C72B H72B 120.0 . . ?
C72B C73B H73B 120.0 . . ?
C72B C73B C74B 120.0 . . ?
C74B C73B H73B 120.0 . . ?
C73B C74B C77 118.1(4) . . ?
C75B C74B C73B 120.0 . . ?
C75B C74B C77 121.8(4) . . ?
C74B C75B H75B 120.0 . . ?
C76B C75B C74B 120.0 . . ?
C76B C75B H75B 120.0 . . ?
C71B C76B H76B 120.0 . . ?
C75B C76B C71B 120.0 . . ?
C75B C76B H76B 120.0 . . ?
H51C C51A H51D 108.6 . . ?
N61A C51A H51C 110.3 4_565 . ?
N61A C51A H51C 110.3 . . ?
N61A C51A H51D 110.3 . . ?
N61A C51A H51D 110.3 4_565 . ?
N61A C51A N61A 107(3) . 4_565 ?
N62A N61A C51A 110(2) . . ?
C65A N61A C51A 133(2) . . ?
C65A N61A N62A 116.8(17) . . ?
N61A N62A Ir3A 136.7(19) . . ?
C63A N62A N61A 99.6(15) . . ?
C63A N62A Ir3A 122.4(16) . . ?
N62A C63A C66A 120(2) . . ?
C64A C63A N62A 112.1(17) . . ?
C64A C63A C66A 128(2) . . ?
C63A C64A C65A 106.9(16) . . ?
C63A C64A C71A 142(2) . . ?
C65A C64A C71A 111.3(19) . . ?
N61A C65A C64A 104.2(18) . . ?
N61A C65A C67A 129(2) . . ?
C64A C65A C67A 124(2) . . ?
C63A C66A H66D 109.5 . . ?
C63A C66A H66E 109.5 . . ?
C63A C66A H66F 109.5 . . ?
H66D C66A H66E 109.5 . . ?
H66D C66A H66F 109.5 . . ?
H66E C66A H66F 109.5 . . ?
C65A C67A H67D 109.5 . . ?
C65A C67A H67E 109.5 . . ?
C65A C67A H67F 109.5 . . ?
H67D C67A H67E 109.5 . . ?
H67D C67A H67F 109.5 . . ?
H67E C67A H67F 109.5 . . ?
C72A C71A C64A 124(2) . . ?
C76A C71A C64A 118(2) . . ?
C76A C71A C72A 117.3(18) . . ?
C71A C72A H72A 119.8 . . ?
C73A C72A C71A 120(2) . . ?
C73A C72A H72A 119.8 . . ?
C72A C73A H73A 119.5 . . ?
C72A C73A C74A 121(2) . . ?
C74A C73A H73A 119.5 . . ?
C73A C74A C77 129(2) . . ?
C75A C74A C73A 118.2(19) . . ?
C75A C74A C77 110.7(18) . . ?
C74A C75A H75A 120.5 . . ?
C76A C75A C74A 119(2) . . ?
C76A C75A H75A 120.5 . . ?
C71A C76A C75A 122(2) . . ?
C71A C76A H76A 118.9 . . ?
C75A C76A H76A 118.9 . . ?
O78 C77 C74B 117.6(4) . . ?
O78 C77 C74A 104.2(10) . . ?
O79 C77 C74B 116.1(4) . . ?
O79 C77 C74A 127.4(11) . . ?
O79 C77 O78 126.2(5) . . ?
C77 O78 Mn2 144.1(4) . . ?
C77 O79 Mn1 126.1(3) . . ?
N62A Ir3A N62A 71(2) 4_565 . ?
N61B Ir3B N61B 85.0(4) 4_565 . ?
N61B Ir3B Cl82 85.9(4) . . ?
N61B Ir3B Cl82 85.9(4) 4_565 . ?
N61B Ir3B C85 139.8(12) . . ?
N61B Ir3B C85 89.2(9) 4_565 . ?
N61B Ir3B C86 172.3(13) 4_565 4_565 ?
N61B Ir3B C86 95.1(17) 4_565 . ?
N61B Ir3B C86 172.3(13) . . ?
N61B Ir3B C86 95.1(17) . 4_565 ?
C85 Ir3B Cl82 133.3(11) . . ?
C85 Ir3B Cl82 133.3(11) 4_565 . ?
C86 Ir3B Cl82 101.8(13) 4_565 . ?
C86 Ir3B Cl82 101.8(13) . . ?
C86 Ir3B C85 85.7(15) 4_565 . ?
C86 Ir3B C85 32.6(6) . . ?
C86 Ir3B C86 84(3) 4_565 . ?
Ir3B C85 H85A 116.2 . . ?
Ir3B C85 H85B 116.2 . . ?
H85A C85 H85B 113.2 . . ?
C86 C85 Ir3B 73.4(12) . . ?
C86 C85 H85A 116.2 . . ?
C86 C85 H85B 116.2 . . ?
Ir3B C86 H86A 116.1 . . ?
Ir3B C86 H86B 116.1 . . ?
C85 C86 Ir3B 74.1(12) . . ?
C85 C86 H86A 116.1 . . ?
C85 C86 H86B 116.1 . . ?
H86A C86 H86B 113.1 . . ?
loop_
_geom_bond_atom_site_label_1
_geom_bond_atom_site_label_2
_geom_bond_distance
_geom_bond_site_symmetry_2
_geom_bond_publ_flag
Mn1 N12 2.278(3) 1_554 ?
Mn1 O29 2.087(3) . ?
Mn1 N32 2.216(3) 1_554 ?
Mn1 O48 2.505(4) 1_654 ?
Mn1 O49 2.171(3) 1_654 ?
Mn1 O79 2.097(3) . ?
C1 H1A 0.9900 . ?
C1 H1B 0.9900 . ?
C1 N11 1.447(5) . ?
C1 N31 1.452(5) . ?
Mn2 O28 2.133(3) . ?
Mn2 O28 2.133(3) 3_766 ?
Mn2 O49 2.231(3) 3_667 ?
Mn2 O49 2.231(3) 1_654 ?
Mn2 O78 2.099(4) . ?
Mn2 O78 2.099(4) 3_766 ?
N11 N12 1.360(5) . ?
N11 C15 1.363(5) . ?
N12 C13 1.327(5) . ?
C13 C14 1.421(5) . ?
C13 C16 1.489(6) . ?
C14 C15 1.376(6) . ?
C14 C21 1.475(5) . ?
C15 C17 1.494(6) . ?
C16 H16A 0.9800 . ?
C16 H16B 0.9800 . ?
C16 H16C 0.9800 . ?
C17 H17A 0.9800 . ?
C17 H17B 0.9800 . ?
C17 H17C 0.9800 . ?
C21 C22A 1.417(9) . ?
C21 C22B 1.457(12) . ?
C21 C26A 1.360(9) . ?
C21 C26B 1.284(14) . ?
C22A H22A 0.9500 . ?
C22A C23A 1.422(9) . ?
C22B H22B 0.9500 . ?
C22B C23B 1.384(15) . ?
C23A H23A 0.9500 . ?
C23A C24 1.398(9) . ?
C23B H23B 0.9500 . ?
C23B C24 1.453(12) . ?
C24 C25A 1.330(9) . ?
C24 C25B 1.359(14) . ?
C24 C27 1.504(5) . ?
C25A H25A 0.9500 . ?
C25A C26A 1.397(9) . ?
C25B H25B 0.9500 . ?
C25B C26B 1.339(19) . ?
C26A H26A 0.9500 . ?
C26B H26B 0.9500 . ?
C27 O28 1.212(6) . ?
C27 O29 1.256(5) . ?
N31 N32 1.353(5) . ?
N31 C35 1.364(5) . ?
N32 C33 1.336(5) . ?
C33 C34 1.409(6) . ?
C33 C36 1.490(7) . ?
C34 C35 1.388(7) . ?
C34 C41 1.475(6) . ?
C35 C37 1.467(7) . ?
C36 H36A 0.9800 . ?
C36 H36B 0.9800 . ?
C36 H36C 0.9800 . ?
C37 H37A 0.9800 . ?
C37 H37B 0.9800 . ?
C37 H37C 0.9800 . ?
C41 C42 1.392(8) . ?
C41 C46 1.394(8) . ?
C42 H42 0.9500 . ?
C42 C43 1.377(7) . ?
C43 H43 0.9500 . ?
C43 C44 1.384(8) . ?
C44 C45 1.390(7) . ?
C44 C47 1.498(6) . ?
C45 H45 0.9500 . ?
C45 C46 1.387(7) . ?
C46 H46 0.9500 . ?
C47 O48 1.253(6) . ?
C47 O49 1.290(6) . ?
C51B H51A 0.9900 . ?
C51B H51B 0.9900 . ?
C51B N62B 1.441(8) 4_565 ?
C51B N62B 1.441(8) . ?
N62B N61B 1.439(14) . ?
N62B C63B 1.319(13) . ?
N61B C65B 1.362(10) . ?
N61B Ir3B 2.111(8) . ?
C65B C64B 1.392(15) . ?
C65B C67B 1.503(14) . ?
C64B C63B 1.419(12) . ?
C64B C71B 1.527(9) . ?
C63B C66B 1.519(13) . ?
C67B H67A 0.9800 . ?
C67B H67B 0.9800 . ?
C67B H67C 0.9800 . ?
C66B H66A 0.9800 . ?
C66B H66B 0.9800 . ?
C66B H66C 0.9800 . ?
C71B C72B 1.3900 . ?
C71B C76B 1.3900 . ?
C72B H72B 0.9500 . ?
C72B C73B 1.3900 . ?
C73B H73B 0.9500 . ?
C73B C74B 1.3900 . ?
C74B C75B 1.3900 . ?
C74B C77 1.528(6) . ?
C75B H75B 0.9500 . ?
C75B C76B 1.3900 . ?
C76B H76B 0.9500 . ?
C51A H51C 0.9900 . ?
C51A H51D 0.9900 . ?
C51A N61A 1.438(13) 4_565 ?
C51A N61A 1.438(13) . ?
N61A N62A 1.423(16) . ?
N61A C65A 1.29(2) . ?
N62A C63A 1.384(19) . ?
N62A Ir3A 2.183(17) . ?
C63A C64A 1.377(15) . ?
C63A C66A 1.512(15) . ?
C64A C65A 1.42(2) . ?
C64A C71A 1.537(18) . ?
C65A C67A 1.538(15) . ?
C66A H66D 0.9800 . ?
C66A H66E 0.9800 . ?
C66A H66F 0.9800 . ?
C67A H67D 0.9800 . ?
C67A H67E 0.9800 . ?
C67A H67F 0.9800 . ?
C71A C72A 1.390(18) . ?
C71A C76A 1.368(18) . ?
C72A H72A 0.9500 . ?
C72A C73A 1.388(19) . ?
C73A H73A 0.9500 . ?
C73A C74A 1.391(18) . ?
C74A C75A 1.385(18) . ?
C74A C77 1.53(2) . ?
C75A H75A 0.9500 . ?
C75A C76A 1.384(18) . ?
C76A H76A 0.9500 . ?
C77 O78 1.253(7) . ?
C77 O79 1.227(6) . ?
Ir3B Cl82 2.646(13) . ?
Ir3B C85 2.256(19) 4_565 ?
Ir3B C85 2.256(19) . ?
Ir3B C86 2.25(2) 4_565 ?
Ir3B C86 2.25(2) . ?
C85 H85A 0.9900 . ?
C85 H85B 0.9900 . ?
C85 C86 1.26(2) . ?
C86 H86A 0.9900 . ?
C86 H86B 0.9900 . ?
loop_
_geom_torsion_atom_site_label_1
_geom_torsion_atom_site_label_2
_geom_torsion_atom_site_label_3
_geom_torsion_atom_site_label_4
_geom_torsion
_geom_torsion_site_symmetry_1
_geom_torsion_site_symmetry_2
_geom_torsion_site_symmetry_3
_geom_torsion_site_symmetry_4
_geom_torsion_publ_flag
Mn1 N12 C13 C14 167.6(3) 1_556 . . . ?
Mn1 N12 C13 C16 -13.1(7) 1_556 . . . ?
Mn1 N32 C33 C34 -167.5(3) 1_556 . . . ?
Mn1 N32 C33 C36 13.4(7) 1_556 . . . ?
C1 N11 N12 Mn1 9.9(5) . . . 1_556 ?
C1 N11 N12 C13 179.5(4) . . . . ?
C1 N11 C15 C14 -179.4(4) . . . . ?
C1 N11 C15 C17 -0.8(8) . . . . ?
C1 N31 N32 Mn1 -7.7(5) . . . 1_556 ?
C1 N31 N32 C33 -174.8(4) . . . . ?
C1 N31 C35 C34 174.8(4) . . . . ?
C1 N31 C35 C37 -5.8(8) . . . . ?
N11 C1 N31 N32 66.5(4) . . . . ?
N11 C1 N31 C35 -108.1(5) . . . . ?
N11 N12 C13 C14 -0.4(5) . . . . ?
N11 N12 C13 C16 178.9(5) . . . . ?
N12 N11 C15 C14 -1.1(5) . . . . ?
N12 N11 C15 C17 177.5(5) . . . . ?
N12 C13 C14 C15 -0.3(6) . . . . ?
N12 C13 C14 C21 179.0(5) . . . . ?
C13 C14 C15 N11 0.8(5) . . . . ?
C13 C14 C15 C17 -177.6(6) . . . . ?
C13 C14 C21 C22A 41.8(8) . . . . ?
C13 C14 C21 C22B -42.0(11) . . . . ?
C13 C14 C21 C26A -143.8(6) . . . . ?
C13 C14 C21 C26B 142.2(15) . . . . ?
C14 C21 C22A C23A -178.8(6) . . . . ?
C14 C21 C22B C23B 178.9(11) . . . . ?
C14 C21 C26A C25A -177.6(6) . . . . ?
C14 C21 C26B C25B 173.9(17) . . . . ?
C15 N11 N12 Mn1 -168.6(3) . . . 1_556 ?
C15 N11 N12 C13 1.0(5) . . . . ?
C15 C14 C21 C22A -139.1(6) . . . . ?
C15 C14 C21 C22B 137.1(9) . . . . ?
C15 C14 C21 C26A 35.2(8) . . . . ?
C15 C14 C21 C26B -38.7(16) . . . . ?
C16 C13 C14 C15 -179.5(5) . . . . ?
C16 C13 C14 C21 -0.3(9) . . . . ?
C21 C14 C15 N11 -178.4(5) . . . . ?
C21 C14 C15 C17 3.1(9) . . . . ?
C21 C22A C23A C24 -2.5(10) . . . . ?
C21 C22B C23B C24 0(2) . . . . ?
C22A C21 C26A C25A -3.1(10) . . . . ?
C22A C23A C24 C25A -5.4(9) . . . . ?
C22A C23A C24 C27 -178.7(5) . . . . ?
C22B C21 C26B C25B -2(3) . . . . ?
C22B C23B C24 C25B 11.0(19) . . . . ?
C22B C23B C24 C27 179.1(11) . . . . ?
C23A C24 C25A C26A 9.1(11) . . . . ?
C23A C24 C27 O28 -50.2(7) . . . . ?
C23A C24 C27 O29 130.1(5) . . . . ?
C23B C24 C25B C26B -19(3) . . . . ?
C23B C24 C27 O28 33.1(10) . . . . ?
C23B C24 C27 O29 -146.6(8) . . . . ?
C24 C25A C26A C21 -4.8(12) . . . . ?
C24 C25B C26B C21 15(4) . . . . ?
C24 C27 O28 Mn2 -160.4(5) . . . . ?
C24 C27 O29 Mn1 178.9(3) . . . . ?
C25A C24 C27 O28 136.5(7) . . . . ?
C25A C24 C27 O29 -43.2(8) . . . . ?
C25B C24 C27 O28 -160.3(12) . . . . ?
C25B C24 C27 O29 20.0(14) . . . . ?
C26A C21 C22A C23A 6.6(9) . . . . ?
C26B C21 C22B C23B -5(2) . . . . ?
C27 C24 C25A C26A -177.7(6) . . . . ?
C27 C24 C25B C26B 173.4(18) . . . . ?
O28 C27 O29 Mn1 -0.8(9) . . . . ?
O29 C27 O28 Mn2 19.3(11) . . . . ?
N31 C1 N11 N12 -67.6(4) . . . . ?
N31 C1 N11 C15 110.5(5) . . . . ?
N31 N32 C33 C34 -1.2(5) . . . . ?
N31 N32 C33 C36 179.7(5) . . . . ?
N32 N31 C35 C34 0.0(5) . . . . ?
N32 N31 C35 C37 179.3(5) . . . . ?
N32 C33 C34 C35 1.2(6) . . . . ?
N32 C33 C34 C41 -179.1(4) . . . . ?
C33 C34 C35 N31 -0.7(5) . . . . ?
C33 C34 C35 C37 -179.9(6) . . . . ?
C33 C34 C41 C42 128.7(6) . . . . ?
C33 C34 C41 C46 -50.3(7) . . . . ?
C34 C41 C42 C43 -178.4(5) . . . . ?
C34 C41 C46 C45 178.5(5) . . . . ?
C35 N31 N32 Mn1 167.9(3) . . . 1_556 ?
C35 N31 N32 C33 0.8(5) . . . . ?
C35 C34 C41 C42 -51.5(8) . . . . ?
C35 C34 C41 C46 129.4(6) . . . . ?
C36 C33 C34 C35 -179.8(6) . . . . ?
C36 C33 C34 C41 0.0(9) . . . . ?
C41 C34 C35 N31 179.6(5) . . . . ?
C41 C34 C35 C37 0.4(10) . . . . ?
C41 C42 C43 C44 0.6(9) . . . . ?
C42 C41 C46 C45 -0.6(8) . . . . ?
C42 C43 C44 C45 -1.8(9) . . . . ?
C42 C43 C44 C47 178.7(5) . . . . ?
C43 C44 C45 C46 1.8(8) . . . . ?
C43 C44 C47 O48 13.4(7) . . . . ?
C43 C44 C47 O49 -169.8(5) . . . . ?
C44 C45 C46 C41 -0.6(8) . . . . ?
C44 C47 O48 Mn1 169.4(4) . . . 1_456 ?
C44 C47 O49 Mn1 -168.4(3) . . . 1_456 ?
C44 C47 O49 Mn2 64.6(5) . . . 1_456 ?
C45 C44 C47 O48 -166.2(5) . . . . ?
C45 C44 C47 O49 10.6(6) . . . . ?
C46 C41 C42 C43 0.6(9) . . . . ?
C47 C44 C45 C46 -178.6(5) . . . . ?
O48 C47 O49 Mn1 8.4(4) . . . 1_456 ?
O48 C47 O49 Mn2 -118.6(4) . . . 1_456 ?
O49 C47 O48 Mn1 -7.2(4) . . . 1_456 ?
C51B N62B N61B C65B -179.6(9) . . . . ?
C51B N62B N61B Ir3B 9.8(12) . . . . ?
C51B N62B C63B C64B 177.6(11) . . . . ?
C51B N62B C63B C66B -2.7(16) . . . . ?
N62B C51B N62B N61B -70.5(17) 4_565 . . . ?
N62B C51B N62B C63B 110.4(14) 4_565 . . . ?
N62B N61B C65B C64B 2.2(10) . . . . ?
N62B N61B C65B C67B -177.1(10) . . . . ?
N61B N62B C63B C64B -1.5(10) . . . . ?
N61B N62B C63B C66B 178.2(7) . . . . ?
N61B C65B C64B C63B -3.2(10) . . . . ?
N61B C65B C64B C71B -177.9(7) . . . . ?
C65B C64B C63B N62B 2.7(9) . . . . ?
C65B C64B C63B C66B -176.9(7) . . . . ?
C65B C64B C71B C72B 109.3(9) . . . . ?
C65B C64B C71B C76B -65.6(10) . . . . ?
C64B C71B C72B C73B -174.8(7) . . . . ?
C64B C71B C76B C75B 174.9(7) . . . . ?
C63B N62B N61B C65B -0.4(11) . . . . ?
C63B N62B N61B Ir3B -170.9(6) . . . . ?
C63B C64B C71B C72B -64.8(8) . . . . ?
C63B C64B C71B C76B 120.4(7) . . . . ?
C67B C65B C64B C63B 176.0(10) . . . . ?
C67B C65B C64B C71B 1.4(16) . . . . ?
C71B C64B C63B N62B 178.0(7) . . . . ?
C71B C64B C63B C66B -1.6(11) . . . . ?
C71B C72B C73B C74B 0.0 . . . . ?
C72B C71B C76B C75B 0.0 . . . . ?
C72B C73B C74B C75B 0.0 . . . . ?
C72B C73B C74B C77 177.2(5) . . . . ?
C73B C74B C75B C76B 0.0 . . . . ?
C73B C74B C77 O78 -4.6(6) . . . . ?
C73B C74B C77 O79 175.5(4) . . . . ?
C74B C75B C76B C71B 0.0 . . . . ?
C74B C77 O78 Mn2 -166.5(5) . . . . ?
C74B C77 O79 Mn1 175.2(3) . . . . ?
C75B C74B C77 O78 172.5(4) . . . . ?
C75B C74B C77 O79 -7.4(7) . . . . ?
C76B C71B C72B C73B 0.0 . . . . ?
C51A N61A N62A C63A 179(3) . . . . ?
C51A N61A N62A Ir3A 13(8) . . . . ?
C51A N61A C65A C64A 180(4) . . . . ?
C51A N61A C65A C67A 19(8) . . . . ?
N61A C51A N61A N62A -70(5) 4_565 . . . ?
N61A C51A N61A C65A 105(5) 4_565 . . . ?
N61A N62A C63A C64A 0(6) . . . . ?
N61A N62A C63A C66A 179(3) . . . . ?
N62A N61A C65A C64A -6(6) . . . . ?
N62A N61A C65A C67A -167(5) . . . . ?
N62A C63A C64A C65A -4(5) . . . . ?
N62A C63A C64A C71A 176(5) . . . . ?
C63A C64A C65A N61A 6(4) . . . . ?
C63A C64A C65A C67A 168(4) . . . . ?
C63A C64A C71A C72A 106(5) . . . . ?
C63A C64A C71A C76A -62(6) . . . . ?
C64A C71A C72A C73A -163(3) . . . . ?
C64A C71A C76A C75A 154(3) . . . . ?
C65A N61A N62A C63A 4(6) . . . . ?
C65A N61A N62A Ir3A -163(4) . . . . ?
C65A C64A C71A C72A -75(4) . . . . ?
C65A C64A C71A C76A 117(4) . . . . ?
C66A C63A C64A C65A 177(3) . . . . ?
C66A C63A C64A C71A -3(7) . . . . ?
C71A C64A C65A N61A -174(3) . . . . ?
C71A C64A C65A C67A -12(5) . . . . ?
C71A C72A C73A C74A 1(2) . . . . ?
C72A C71A C76A C75A -15(4) . . . . ?
C72A C73A C74A C75A 2(4) . . . . ?
C72A C73A C74A C77 165(2) . . . . ?
C73A C74A C75A C76A -11(4) . . . . ?
C73A C74A C77 O78 14(3) . . . . ?
C73A C74A C77 O79 178(3) . . . . ?
C74A C75A C76A C71A 18(4) . . . . ?
C74A C77 O78 Mn2 177.4(12) . . . . ?
C74A C77 O79 Mn1 -165.0(13) . . . . ?
C75A C74A C77 O78 177.4(19) . . . . ?
C75A C74A C77 O79 -19(3) . . . . ?
C76A C71A C72A C73A 5(2) . . . . ?
C77 C74B C75B C76B -177.1(5) . . . . ?
C77 C74A C75A C76A -177(3) . . . . ?
O78 C77 O79 Mn1 -4.7(7) . . . . ?
O79 C77 O78 Mn2 13.4(10) . . . . ?
Ir3A N62A C63A C64A 170(3) . . . . ?
Ir3A N62A C63A C66A -11(6) . . . . ?
Ir3B N61B C65B C64B 171.0(6) . . . . ?
Ir3B N61B C65B C67B -8.3(15) . . . . ?
loop_
_platon_squeeze_void_nr
_platon_squeeze_void_average_x
_platon_squeeze_void_average_y
_platon_squeeze_void_average_z
_platon_squeeze_void_volume
_platon_squeeze_void_count_electrons
_platon_squeeze_void_content
1 -0.500 0.102 0.943 1805 425 ' '
