#------------------------------------------------------------------------------
#$Date: 2021-02-05 00:27:37 +0200 (Fri, 05 Feb 2021) $
#$Revision: 261525 $
#$URL: file:///home/coder/svn-repositories/cod/cif/7/12/75/7127527.cif $
#------------------------------------------------------------------------------
#
# This file is available in the Crystallography Open Database (COD),
# http://www.crystallography.net/
#
# All data on this site have been placed in the public domain by the
# contributors.
#
data_7127527
loop_
_publ_author_name
'Chen, Xi'
'Zhang, Zhongyue'
'Chen, Jin'
'Sapchenko, Sergei'
'Han, Xue'
'da-Silva, Ivan'
'Li, Ming'
'Vitorica-Yrezabal, Inigo J'
'Whitehead, George'
'Tang, Chiu C.'
'Awaga, Kunio'
'Yang, Sihai'
'Schr\"oder, Martin'
_publ_section_title
;
 Enhanced proton conductivity in a flexible metal-organic framework
 promoted by single-crystal-to-single-crystal transformation.
;
_journal_issue                   1
_journal_name_full
'Chemical communications (Cambridge, England)'
_journal_page_first              65
_journal_page_last               68
_journal_paper_doi               10.1039/d0cc05270a
_journal_volume                  57
_journal_year                    2021
_chemical_formula_moiety         '0.25(C48 H48 N4 O20 Pb4)'
_chemical_formula_sum            'C12 H12 N O5 Pb'
_chemical_formula_weight         457.42
_space_group_crystal_system      triclinic
_space_group_IT_number           2
_space_group_name_Hall           '-P 1'
_space_group_name_H-M_alt        'P -1'
_atom_sites_solution_hydrogens   geom
_atom_sites_solution_primary     dual
_audit_creation_date             2018-01-30
_audit_creation_method
;
Olex2 1.2
(compiled 2017.08.10 svn.r3458 for OlexSys, GUI svn.r5381)
;
_audit_update_record
;
2020-04-07 deposited with the CCDC.	2020-11-17 downloaded from the CCDC.
;
_cell_angle_alpha                111.886(4)
_cell_angle_beta                 101.798(3)
_cell_angle_gamma                103.943(4)
_cell_formula_units_Z            4
_cell_length_a                   10.4855(4)
_cell_length_b                   11.1137(5)
_cell_length_c                   12.4920(4)
_cell_measurement_reflns_used    4165
_cell_measurement_temperature    150.0(2)
_cell_measurement_theta_max      26.3440
_cell_measurement_theta_min      1.8610
_cell_volume                     1239.04(11)
_computing_cell_refinement       'CrysAlisPro 1.171.39.30c (Rigaku OD, 2017)'
_computing_data_collection       'CrysAlisPro 1.171.39.30c (Rigaku OD, 2017)'
_computing_data_reduction        'CrysAlisPro 1.171.39.30c (Rigaku OD, 2017)'
_computing_molecular_graphics    'Olex2 (Dolomanov et al., 2009)'
_computing_publication_material  'Olex2 (Dolomanov et al., 2009)'
_computing_structure_refinement  'ShelXL (Sheldrick, 2015)'
_computing_structure_solution    'ShelXT (Sheldrick, 2015)'
_diffrn_ambient_temperature      150.0(2)
_diffrn_detector                 'CCD plate'
_diffrn_measured_fraction_theta_full 1.000
_diffrn_measured_fraction_theta_max 0.994
_diffrn_measurement_details
;
List of Runs (angles in degrees, time in seconds):

  # Type    Start    End  Width  t~exp~   \w     \q     \k     \f   Frames
#--------------------------------------------------------------------------
  1  \w    -44.00 -18.00   1.00    1.00    --   -7.70  31.00  57.00   26
  2  \w    -95.00  28.00   1.00    1.00    --   -7.70 -31.00-102.00  123
  3  \w    -86.00  25.00   1.00    1.00    --   -7.70 -57.00  90.00  111
  4  \w    -94.00  16.00   1.00    1.00    --   -7.70 -57.00-180.00  110
  5  \w    -31.00  -2.00   1.00    1.00    --   -7.70 -57.00 -30.00   29
  6  \w      7.00  64.00   1.00    1.00    --   -7.70  31.00  57.00   57
;
_diffrn_measurement_device       'four-circle diffractometer'
_diffrn_measurement_device_type  'XtaLAB AFC11 (RINC): Kappa single'
_diffrn_measurement_method       '\w scans'
_diffrn_orient_matrix_type
'CrysAlisPro convention (1999,Acta A55,543-557)'
_diffrn_orient_matrix_UB_11      0.0730453000
_diffrn_orient_matrix_UB_12      0.0350721000
_diffrn_orient_matrix_UB_13      0.0240782000
_diffrn_orient_matrix_UB_21      0.0103087000
_diffrn_orient_matrix_UB_22      -0.0635949000
_diffrn_orient_matrix_UB_23      -0.0100969000
_diffrn_orient_matrix_UB_31      0.0015576000
_diffrn_orient_matrix_UB_32      -0.0105063000
_diffrn_orient_matrix_UB_33      -0.0592295000
_diffrn_radiation_monochromator  graphite
_diffrn_radiation_probe          x-ray
_diffrn_radiation_type           MoK\a
_diffrn_radiation_wavelength     0.71073
_diffrn_reflns_av_R_equivalents  0.0507
_diffrn_reflns_av_unetI/netI     0.0456
_diffrn_reflns_Laue_measured_fraction_full 1.000
_diffrn_reflns_Laue_measured_fraction_max 0.994
_diffrn_reflns_limit_h_max       13
_diffrn_reflns_limit_h_min       -13
_diffrn_reflns_limit_k_max       13
_diffrn_reflns_limit_k_min       -13
_diffrn_reflns_limit_l_max       15
_diffrn_reflns_limit_l_min       -15
_diffrn_reflns_number            24359
_diffrn_reflns_point_group_measured_fraction_full 1.000
_diffrn_reflns_point_group_measured_fraction_max 0.994
_diffrn_reflns_theta_full        25.242
_diffrn_reflns_theta_max         26.480
_diffrn_reflns_theta_min         1.859
_diffrn_source                   'fine-focus sealed X-ray tube'
_diffrn_source_type              'Enhance (Mo) X-ray Source'
_exptl_absorpt_coefficient_mu    13.632
_exptl_absorpt_correction_T_max  0.513
_exptl_absorpt_correction_T_min  0.134
_exptl_absorpt_correction_type   analytical
_exptl_absorpt_process_details
;
CrysAlisPro 1.171.39.30c (Rigaku Oxford Diffraction, 2017)
Analytical numeric absorption correction using a multifaceted crystal
			model based on expressions derived by R.C. Clark & J.S. Reid.
(Clark, R. C. & Reid, J. S. (1995). Acta Cryst. A51, 887-897)
Empirical absorption correction using spherical harmonics,
 implemented in SCALE3 ABSPACK scaling algorithm.
;
_exptl_crystal_colour            'clear colourless'
_exptl_crystal_colour_lustre     clear
_exptl_crystal_colour_primary    colourless
_exptl_crystal_density_diffrn    2.452
_exptl_crystal_description       plate
_exptl_crystal_F_000             852
_exptl_crystal_size_max          0.248
_exptl_crystal_size_mid          0.123
_exptl_crystal_size_min          0.051
_refine_diff_density_max         5.219
_refine_diff_density_min         -1.141
_refine_diff_density_rms         0.268
_refine_ls_extinction_method     none
_refine_ls_goodness_of_fit_ref   1.010
_refine_ls_hydrogen_treatment    constr
_refine_ls_matrix_type           full
_refine_ls_number_parameters     350
_refine_ls_number_reflns         7619
_refine_ls_number_restraints     76
_refine_ls_restrained_S_all      1.018
_refine_ls_R_factor_all          0.0441
_refine_ls_R_factor_gt           0.0358
_refine_ls_shift/su_max          0.001
_refine_ls_shift/su_mean         0.000
_refine_ls_structure_factor_coef Fsqd
_refine_ls_weighting_details
'w=1/[\s^2^(Fo^2^)+(0.0681P)^2^] where P=(Fo^2^+2Fc^2^)/3'
_refine_ls_weighting_scheme      calc
_refine_ls_wR_factor_gt          0.0918
_refine_ls_wR_factor_ref         0.0946
_reflns_Friedel_coverage         0.000
_reflns_number_gt                6439
_reflns_number_total             7619
_reflns_threshold_expression     'I > 2\s(I)'
_twin_special_details
;
Component 2 rotated by -179.9588\% 
 around [0.70 0.71 -0.00] (reciprocal) or [0.67 0.66 0.33] (direct)
;
_cod_data_source_file            d0cc05270a2.cif
_cod_data_source_block           s5102r_twin1_hklf4
_cod_depositor_comments
'Adding full bibliography for 7127527--7127529.cif.'
_cod_original_cell_volume        1239.04(9)
_cod_database_code               7127527
_shelx_shelxl_version_number     2017/1
_chemical_oxdiff_formula         C24H24N2O10Pb2
_shelx_space_group_comment
;
The symmetry employed for this shelxl refinement is uniquely defined
by the following loop, which should always be used as a source of
symmetry information in preference to the above space-group names.
They are only intended as comments.
;
_olex2_refinement_description
;
1. Others
 Fixed Uiso: H15A(0.074) H15B(0.074) H15C(0.074) H18(0.019) H16A(0.087)
 H16B(0.087) H16C(0.087) H3(0.019) H22A(0.089) H22B(0.089) H22C(0.089)
 H23A(0.095) H23B(0.095) H23C(0.095) H8(0.021) H13(0.023) H17A(0.077)
 H17B(0.077) H17C(0.077) H11(0.02) H20(0.019) H24A(0.092) H24B(0.092)
 H24C(0.092)
 Fixed X: H15A(0.784876) H15B(0.883659) H15C(0.943435) H18(0.478257)
 H16A(0.854639) H16B(0.94824) H16C(0.787842) H3(0.483186) H22A(1.171925)
 H22B(1.074419) H22C(1.198234) H23A(1.101324) H23B(1.022972) H23C(1.177189) H8(-
 0.01195) H13(0.189088) H17A(0.726324) H17B(0.69605) H17C(0.847174) H11(-
 0.202544) H20(0.52252) H24A(0.846271) H24B(0.957124) H24C(0.804816)
 Fixed Y: H15A(0.671518) H15B(0.653881) H15C(0.706183) H18(0.304261)
 H16A(0.324932) H16B(0.451729) H16C(0.389358) H3(0.517815) H22A(1.431154)
 H22B(1.289287) H22C(1.294398) H23A(1.197432) H23B(1.285172) H23C(1.356598)
 H8(0.044165) H13(-0.001096) H17A(0.514736) H17B(0.595097) H17C(0.637333) H11(-
 0.001544) H20(0.703297) H24A(1.268427) H24B(1.418335) H24C(1.391949)
 Fixed Z: H15A(-0.046279) H15B(-0.125307) H15C(0.01611) H18(0.342286) H16A(-
 0.173167) H16B(-0.182128) H16C(-0.251974) H3(0.145171) H22A(0.398348)
 H22B(0.28802) H22C(0.38634) H23A(0.52411) H23B(0.595449) H23C(0.607737) H8(-
 0.345932) H13(-0.060347) H17A(0.147072) H17B(0.070668) H17C(0.156854) H11(-
 0.106915) H20(0.496339) H24A(0.244065) H24B(0.315858) H24C(0.31992)
;
_shelx_res_file
;
TITL s5102r_twin1_hklf4_a.res in P-1
    s5102r_twin1_hklf4.res
    created by SHELXL-2017/1 at 09:51:06 on 30-Jan-2018
REM Old TITL s5102r_twin1_hklf4 in P1
REM SHELXT solution in P-1
REM R1 0.158, Rweak 0.010, Alpha 0.183, Orientation as input
REM Formula found by SHELXT: C36 O5 Pb2
CELL 0.71073 10.4855 11.1137 12.492 111.886 101.798 103.943
ZERR 4 0.0004 0.0005 0.0004 0.004 0.003 0.004
LATT 1
SFAC C H N O Pb
UNIT 48 48 4 20 4
DFIX 1.45 C24 C21 C17 C14
SADI N1 C14 N2 C21
SADI N2 C23 N2 C22 N1 C15 N1 C16
SADI O10 C21 O9 C14
RIGU O10 N2 C22 C23 C21 C24 O9 N1 C15 C16 C14 C17

L.S. 10
PLAN  20
BOND $H
list 4
fmap 2
acta
REM <olex2.extras>
REM <HklSrc "%.\\s5102r_twin1_hklf5.hkl">
REM </olex2.extras>

WGHT    0.068100
BASF   0.29725
FVAR       2.35559
PB2   5    0.554620    0.121134   -0.093329    11.00000    0.01927    0.01702 =
         0.01389    0.00885    0.00730    0.00982
PB1   5    0.638860    1.097593    0.447937    11.00000    0.01548    0.01962 =
         0.01396    0.00988    0.00783    0.00942
O9    4    0.778383    0.334455   -0.015882    11.00000    0.02698    0.05065 =
         0.07286    0.03550    0.00228    0.00328
O3    4    0.478836    0.160447    0.125085    11.00000    0.06131    0.01568 =
         0.02107    0.00806    0.02084    0.02078
O1    4    0.529966    0.867022    0.409088    11.00000    0.03154    0.01478 =
         0.02724    0.01298    0.01813    0.01713
O6    4   -0.368904   -0.009199   -0.293939    11.00000    0.01023    0.03188 =
         0.01192    0.00813   -0.00082    0.00697
O7    4   -0.232364    0.086613   -0.380893    11.00000    0.02321    0.03886 =
         0.02361    0.02193    0.01136    0.01670
O2    4    0.502324    0.761975    0.210775    11.00000    0.03724    0.02051 =
         0.02525    0.01594    0.01340    0.01628
O4    4    0.317891   -0.023231   -0.212758    11.00000    0.02190    0.02734 =
         0.02263    0.01564    0.01430    0.01510
O5    4    0.205716    0.009216   -0.365389    11.00000    0.02503    0.03724 =
         0.02658    0.02133    0.01888    0.02020
O8    4    0.462503    0.279817    0.018823    11.00000    0.04902    0.02672 =
         0.01684    0.01242    0.01971    0.02339
O10   4    0.851746    1.319540    0.502031    11.00000    0.04730    0.02726 =
         0.05132    0.00897    0.02649    0.00375
N2    3    1.037778    1.315292    0.443785    11.00000    0.05645    0.05290 =
         0.07728    0.00864    0.02846    0.01052
N1    3    0.836055    0.502292   -0.074244    11.00000    0.05808    0.04820 =
         0.06552    0.02457    0.02063    0.01652
C15   1    0.864468    0.645912   -0.055835    11.00000    0.03622    0.03358 =
         0.07442    0.02687    0.01050    0.00727
AFIX 137
H15A  2    0.784876    0.671518   -0.046279    11.00000   -1.50000
H15B  2    0.883659    0.653881   -0.125307    11.00000   -1.50000
H15C  2    0.943435    0.706183    0.016110    11.00000   -1.50000
AFIX   0
C18   1    0.483713    0.386572    0.337087    11.00000    0.02375    0.01829 =
         0.01552    0.01273    0.00875    0.01178
AFIX  43
H18   2    0.478257    0.304261    0.342286    11.00000   -1.20000
AFIX   0
C16   1    0.858571    0.409327   -0.179122    11.00000    0.02906    0.04935 =
         0.06460   -0.00331    0.01334    0.00909
AFIX 137
H16A  2    0.854639    0.324932   -0.173167    11.00000   -1.50000
H16B  2    0.948240    0.451729   -0.182128    11.00000   -1.50000
H16C  2    0.787842    0.389358   -0.251974    11.00000   -1.50000
AFIX   0
C19   1    0.497595    0.502526    0.441264    11.00000    0.01730    0.02311 =
         0.01445    0.01124    0.00689    0.01413
C10   1   -0.255847    0.034222   -0.311058    11.00000    0.01857    0.02160 =
         0.01128    0.00795    0.00848    0.01080
C1    1    0.510700    0.761876    0.310222    11.00000    0.01988    0.01390 =
         0.01896    0.00874    0.01089    0.01186
C5    1    0.470178    0.263865    0.114766    11.00000    0.02615    0.01687 =
         0.01616    0.00933    0.01277    0.01364
C3    1    0.486737    0.513338    0.218544    11.00000    0.01908    0.02127 =
         0.00673    0.00606    0.00203    0.00812
AFIX  43
H3    2    0.483186    0.517815    0.145171    11.00000   -1.20000
AFIX   0
C2    1    0.500826    0.628563    0.319442    11.00000    0.02305    0.00746 =
         0.01505    0.00441    0.00569    0.00839
C9    1   -0.128307    0.024281   -0.235880    11.00000    0.02074    0.01839 =
         0.01534    0.00771    0.01004    0.01156
C22   1    1.128247    1.334127    0.373143    11.00000    0.04274    0.04434 =
         0.08031    0.01752    0.03045    0.00528
AFIX 137
H22A  2    1.171925    1.431154    0.398348    11.00000   -1.50000
H22B  2    1.074419    1.289287    0.288020    11.00000   -1.50000
H22C  2    1.198234    1.294398    0.386340    11.00000   -1.50000
AFIX   0
C6    1    0.219052    0.003433   -0.265580    11.00000    0.01756    0.01723 =
         0.02114    0.00929    0.01143    0.00831
C4    1    0.477755    0.389944    0.225628    11.00000    0.02754    0.01856 =
         0.01102    0.00819    0.01077    0.01114
C23   1    1.089728    1.285838    0.553108    11.00000    0.05828    0.04522 =
         0.04463   -0.00261   -0.01192    0.00945
AFIX 137
H23A  2    1.101324    1.197432    0.524110    11.00000   -1.50000
H23B  2    1.022972    1.285172    0.595449    11.00000   -1.50000
H23C  2    1.177189    1.356598    0.607737    11.00000   -1.50000
AFIX   0
C14   1    0.793626    0.460075   -0.001713    11.00000    0.02727    0.06689 =
         0.05017    0.03061   -0.00343   -0.00229
C8    1   -0.011785    0.030414   -0.276894    11.00000    0.02392    0.02262 =
         0.01932    0.01337    0.01789    0.01363
AFIX  43
H8    2   -0.011950    0.044165   -0.345932    11.00000   -1.20000
AFIX   0
C7    1    0.102471    0.015521   -0.212130    11.00000    0.01739    0.02125 =
         0.01967    0.01009    0.00935    0.01245
C13   1    0.109440    0.005080   -0.103603    11.00000    0.02039    0.02773 =
         0.02546    0.01901    0.01349    0.01950
AFIX  43
H13   2    0.189088   -0.001096   -0.060347    11.00000   -1.20000
AFIX   0
C17   1    0.762953    0.561173    0.102909    11.00000    0.02872    0.08704 =
         0.03238    0.03106    0.00247    0.01023
AFIX 137
H17A  2    0.726324    0.514736    0.147072    11.00000   -1.50000
H17B  2    0.696050    0.595097    0.070668    11.00000   -1.50000
H17C  2    0.847174    0.637333    0.156854    11.00000   -1.50000
AFIX   0
C11   1   -0.123683    0.007539   -0.130707    11.00000    0.01968    0.02602 =
         0.01640    0.01406    0.01211    0.01570
AFIX  43
H11   2   -0.202544   -0.001544   -0.106915    11.00000   -1.20000
AFIX   0
C12   1   -0.004033    0.003827   -0.058874    11.00000    0.01207    0.02064 =
         0.01984    0.01299    0.00918    0.01241
C21   1    0.919386    1.328099    0.429960    11.00000    0.05423    0.04780 =
         0.05994    0.00447    0.02188    0.00660
C20   1    0.508880    0.622882    0.428223    11.00000    0.02489    0.01069 =
         0.01127    0.00336    0.00480    0.00836
AFIX  43
H20   2    0.522520    0.703297    0.496339    11.00000   -1.20000
AFIX   0
C24   1    0.877977    1.354172    0.316727    11.00000    0.05215    0.03272 =
         0.05326    0.00451   -0.00579   -0.01977
AFIX 137
H24A  2    0.846271    1.268427    0.244065    11.00000   -1.50000
H24B  2    0.957124    1.418335    0.315858    11.00000   -1.50000
H24C  2    0.804816    1.391949    0.319920    11.00000   -1.50000
AFIX   0
HKLF 5




REM  s5102r_twin1_hklf4_a.res in P-1
REM R1 =  0.0358 for    6439 Fo > 4sig(Fo)  and  0.0441 for all    7619 data
REM    350 parameters refined using     76 restraints

END

WGHT      0.0681      0.0000

REM Highest difference peak  5.219,  deepest hole -1.141,  1-sigma level  0.268
Q1    1   0.6306  0.0887 -0.0536  11.00000  0.05    5.22
Q2    1   0.5654  1.1230  0.4069  11.00000  0.05    5.14
Q3    1   0.6036  1.0196  0.4148  11.00000  0.05    2.94
Q4    1   0.9839  1.3255  0.3814  11.00000  0.05    1.93
Q5    1   0.9739  1.3186  0.4939  11.00000  0.05    1.85
Q6    1   0.7189  1.1173  0.5056  11.00000  0.05    1.85
Q7    1   0.5441  0.0620 -0.1274  11.00000  0.05    1.83
Q8    1   0.4706  0.0860 -0.1617  11.00000  0.05    1.64
Q9    1   0.8184  0.5614  0.0120  11.00000  0.05    1.62
Q10   1   0.6039  1.1043  0.5009  11.00000  0.05    1.41
Q11   1   0.6565  1.0830  0.3817  11.00000  0.05    1.36
Q12   1   0.5055  0.1535 -0.1193  11.00000  0.05    1.33
Q13   1   0.5317  0.1279 -0.0426  11.00000  0.05    1.26
Q14   1  -0.4793 -0.0985 -0.3282  11.00000  0.05    1.00
Q15   1   0.8202  1.2805  0.2937  11.00000  0.05    0.95
Q16   1   0.6851  0.2435 -0.0535  11.00000  0.05    0.94
Q17   1   0.5058  0.9738  0.4151  11.00000  0.05    0.93
Q18   1   0.4997  1.1004  0.4641  11.00000  0.05    0.92
Q19   1  -0.4673 -0.0314 -0.2244  11.00000  0.05    0.89
Q20   1   0.2162 -0.1020 -0.0539  11.00000  0.05    0.89
;
_shelx_res_checksum              57236
_shelx_hkl_file
;
   0   0   1 1550.77 88.2116   1
   1   1  -2 113356. 832.059  -2
   0   0   2 113356. 832.059   1
   0   0   3 23900.0 464.770   1
   2   2  -4 30408.9 609.833  -2
   0   0   4 30408.9 609.833   1
   0   0   5 39687.1 604.552   1
  -3  -3   6 191367. 1828.49  -2
   0   0  -6 191367. 1828.49   1
   0   0   7 470.029 249.714   1
   4   4  -8 77613.3 1364.78  -2
   0   0   8 77613.3 1364.78   1
   0   0   9 93940.3 1249.89   1
  -5  -5  10 1113.46 451.420  -2
   0   0 -10 1113.46 451.420   1
   0   0  11 58437.7 1438.18   1
   6   6 -12 15386.8 1096.96  -2
   0   0  12 15386.8 1096.96   1
   0   0  13 6576.71 749.629   1
   6   7 -14 6770.78 966.689  -2
   0  -1  14 6770.78 966.689   1
   0  -1  13 5850.97 731.125   1
   5   6 -12 20207.4 1224.91  -2
   0  -1  12 20207.4 1224.91   1
   0  -1  11 24061.2 974.787   1
   4   5 -10 15357.9 1001.36  -2
   0  -1  10 15357.9 1001.36   1
   0  -1   9 113675. 1709.67   1
  -3  -4   8 6257.05 495.883  -2
   0   1  -8 6257.05 495.883   1
   0  -1   7 52095.5 798.270   1
  -2  -3   6 231670. 1921.81  -2
   0   1  -6 231670. 1921.81   1
   0  -1   5 8879.87 311.227   1
  -1  -2   4 171954. 758.668  -2
   0   1  -4 171954. 758.668   1
   0  -1   3 30579.2 295.665   1
   0   1  -2 23656.1 355.861  -2
   0  -1   2 23656.1 355.861   1
   0  -1   1 22972.2 301.444   1
  -1   0   0 450266. 279.411  -2
   0  -1   0 450266. 279.411   1
   0   1   1 85.8187 69.9333   1
   2   1  -2 195831. 1086.94  -2
   0   1   2 195831. 1086.94   1
   0   1   3 14050.2 157.094   1
   3   2  -4 13300.2 242.329  -2
   0   1   4 13300.2 242.329   1
   0   1   5 63717.3 804.110   1
   4   3  -6 59021.0 1069.10  -2
   0   1   6 59021.0 1069.10   1
   0  -1  -7 25944.6 623.861   1
  -5  -4   8 80664.7 1422.30  -2
   0  -1  -8 80664.7 1422.30   1
   0   1   9 668.409 343.098   1
  -6  -5  10 22116.1 888.994  -2
   0  -1 -10 22116.1 888.994   1
   0   1  11 50793.8 1062.00   1
   7   6 -12 3970.83 851.683  -2
   0   1  12 3970.83 851.683   1
   0   1  13 30741.0 1929.93   1
   5   7 -14 1009.98 784.769  -2
   0  -2  14 1009.98 784.769   1
   0  -2  13 42192.6 1319.72   1
   4   6 -12 10630.9 636.897  -2
   0  -2  12 10630.9 636.897   1
   0  -2  11 1172.50 479.533   1
   3   5 -10 20208.4 1054.83  -2
   0  -2  10 20208.4 1054.83   1
   0  -2   9 57422.5 1221.52   1
   2   4  -8 5134.35 569.467  -2
   0  -2   8 5134.35 569.467   1
   0   2  -7 131246. 760.249   1
   1   3  -6 138541. 863.183  -2
   0  -2   6 138541. 863.183   1
   0  -2   5 25890.2 281.534   1
   0   2  -4 328578. 1287.40  -2
   0  -2   4 328578. 1287.40   1
   0  -2   3 12143.5 438.155   1
  -1   1  -2 234071. 1322.90  -2
   0  -2   2 234071. 1322.90   1
   0   2  -1 28602.5 348.667   1
  -2   0   0 145794. 238.469  -2
   0  -2   0 145794. 238.469   1
   0  -2  -1 12885.5 262.556   1
  -3  -1   2 114063. 762.116  -2
   0  -2  -2 114063. 762.116   1
   0  -2  -3 1276.59 111.209   1
  -4  -2   4 233719. 1107.62  -2
   0  -2  -4 233719. 1107.62   1
   0   2   5 24321.4 322.163   1
   5   3  -6 2592.89 185.132  -2
   0   2   6 2592.89 185.132   1
   0   2   7 71018.3 1038.65   1
   6   4  -8 56313.6 1255.83  -2
   0   2   8 56313.6 1255.83   1
   0   2   9 9704.56 525.797   1
   7   5 -10 48371.8 1248.41  -2
   0   2  10 48371.8 1248.41   1
   0  -2 -11 13192.4 665.451   1
   8   6 -12 4015.28 664.279  -2
   0   2  12 4015.28 664.279   1
   4   7 -14 4473.72 859.508  -2
   0  -3  14 4473.72 859.508   1
   0  -3  13 66890.7 1567.18   1
   3   6 -12 3474.31 453.610  -2
   0  -3  12 3474.31 453.610   1
   0  -3  11 56884.2 863.340   1
   2   5 -10 8062.98 492.380  -2
   0  -3  10 8062.98 492.380   1
   0  -3   9 589.473 143.335   1
   1   4  -8 9907.46 300.201  -2
   0  -3   8 9907.46 300.201   1
   0   3  -7 123100. 722.907   1
   0   3  -6 3938.75 275.000  -2
   0  -3   6 3938.75 275.000   1
   0   3  -5 111420. 714.173   1
   1  -2   4 79582.9 951.895  -2
   0   3  -4 79582.9 951.895   1
   0  -3   3 8349.44 290.655   1
  -2   1  -2 447598. 2117.82  -2
   0  -3   2 447598. 2117.82   1
   0   3  -1 35681.4 491.216   1
  -3   0   0 30587.6 777.383  -2
   0  -3   0 30587.6 777.383   1
   0  -3  -1 3624.56 206.870   1
  -4  -1   2 48836.0 590.756  -2
   0  -3  -2 48836.0 590.756   1
   0  -3  -3 29283.7 368.374   1
  -5  -2   4 261464. 1423.96  -2
   0  -3  -4 261464. 1423.96   1
   0   3   5 3211.34 184.699   1
   6   3  -6 75128.2 851.472  -2
   0   3   6 75128.2 851.472   1
   0   3   7 43049.7 886.018   1
   7   4  -8 4165.81 567.992  -2
   0   3   8 4165.81 567.992   1
   0   3   9 34762.0 869.877   1
   8   5 -10 29890.8 1085.16  -2
   0   3  10 29890.8 1085.16   1
   0   3  11 1187.90 445.528   1
   0  -4  15 707.602 639.441   1
   3   7 -14 23444.0 1251.57  -2
   0  -4  14 23444.0 1251.57   1
   0  -4  13 24001.2 1012.74   1
   2   6 -12 1047.84 296.714  -2
   0  -4  12 1047.84 296.714   1
   0  -4  11 79175.4 767.113   1
   1   5 -10 1576.39 295.608  -2
   0  -4  10 1576.39 295.608   1
   0   4  -9 39366.2 560.807   1
   0   4  -8 13413.7 470.927  -2
   0  -4   8 13413.7 470.927   1
   0  -4   7 17914.1 388.500   1
   1  -3   6 18346.7 490.618  -2
   0   4  -6 18346.7 490.618   1
   0   4  -5 140757. 978.277   1
  -2   2  -4 1720.35 300.646  -2
   0  -4   4 1720.35 300.646   1
   0  -4   3 64279.3 594.222   1
   3  -1   2 239504. 1524.98  -2
   0   4  -2 239504. 1524.98   1
   0  -4   1 8063.73 308.683   1
   4   0   0 112631. 1358.31  -2
   0   4   0 112631. 1358.31   1
   0   4   1 223.465 158.466   1
  -5  -1   2 30178.0 578.686  -2
   0  -4  -2 30178.0 578.686   1
   0   4   3 291.274 151.135   1
  -6  -2   4 106183. 1024.86  -2
   0  -4  -4 106183. 1024.86   1
   0  -4  -5 690.867 167.996   1
  -7  -3   6 89921.8 1014.58  -2
   0  -4  -6 89921.8 1014.58   1
   0  -4  -7 7916.32 303.662   1
  -8  -4   8 15429.4 387.386  -2
   0  -4  -8 15429.4 387.386   1
   0  -4  -9 25016.9 818.080   1
   9   5 -10 6717.76 729.452  -2
   0   4  10 6717.76 729.452   1
   0   4  11 15736.2 1481.94   1
   0  -5  15 19573.8 1030.58   1
   2   7 -14 19474.6 1197.94  -2
   0  -5  14 19474.6 1197.94   1
   0  -5  13 72.0809 519.423   1
   1   6 -12 8887.86 435.839  -2
   0  -5  12 8887.86 435.839   1
   0  -5  11 73873.8 878.944   1
   0   5 -10 329.937 302.156  -2
   0  -5  10 329.937 302.156   1
   0   5  -9 112181. 1008.38   1
  -1   4  -8 3961.47 373.942  -2
   0  -5   8 3961.47 373.942   1
   0   5  -7 23862.3 457.012   1
  -2   3  -6 31474.1 612.849  -2
   0  -5   6 31474.1 612.849   1
   0   5  -5 29972.6 511.314   1
  -3   2  -4 18490.1 615.532  -2
   0  -5   4 18490.1 615.532   1
   0   5  -3 121673. 926.938   1
   4  -1   2 112759. 1211.25  -2
   0   5  -2 112759. 1211.25   1
   0  -5   1 12343.1 414.492   1
   5   0   0 120287. 1422.69  -2
   0   5   0 120287. 1422.69   1
   0  -5  -1 7063.16 286.533   1
  -6  -1   2 208473. 1690.50  -2
   0  -5  -2 208473. 1690.50   1
   0  -5  -3 155.311 193.546   1
  -7  -2   4 427.567 155.675  -2
   0  -5  -4 427.567 155.675   1
   0   5   5 2911.76 235.250   1
   8   3  -6 49117.8 900.281  -2
   0   5   6 49117.8 900.281   1
   0   5   7 1113.62 252.950   1
  -9  -4   8 31234.1 1186.67  -2
   0  -5  -8 31234.1 1186.67   1
   0   5   9 7694.20 594.175   1
  10   5 -10 4095.99 1542.55  -2
   0   5  10 4095.99 1542.55   1
   0  -6  15 28006.2 1150.69   1
  -1  -7  14 12548.6 627.166  -2
   0   6 -14 12548.6 627.166   1
   0  -6  13 16182.1 501.590   1
   0  -6  12 13606.5 596.797  -2
   0   6 -12 13606.5 596.797   1
   0  -6  11 8775.54 386.700   1
  -1   5 -10 1742.57 374.376  -2
   0  -6  10 1742.57 374.376   1
   0   6  -9 116272. 1113.38   1
   2  -4   8 1128.88 258.983  -2
   0   6  -8 1128.88 258.983   1
   0  -6   7 117840. 925.474   1
  -3   3  -6 22810.8 647.068  -2
   0  -6   6 22810.8 647.068   1
   0  -6   5 5407.78 323.770   1
   4  -2   4 54395.6 921.988  -2
   0   6  -4 54395.6 921.988   1
   0   6  -3 55497.7 647.232   1
   5  -1   2 15003.3 557.197  -2
   0   6  -2 15003.3 557.197   1
   0  -6   1 40198.4 644.502   1
  -6   0   0 11519.4 438.498  -2
   0  -6   0 11519.4 438.498   1
   0  -6  -1 4589.15 280.937   1
   7   1  -2 122893. 1396.75  -2
   0   6   2 122893. 1396.75   1
   0  -6  -3 342.220 234.319   1
  -8  -2   4 37401.6 834.484  -2
   0  -6  -4 37401.6 834.484   1
   0  -6  -5 1589.15 269.575   1
  -9  -3   6 347.561 230.110  -2
   0  -6  -6 347.561 230.110   1
   0   6   7 8897.19 586.576   1
 -10  -4   8 34654.6 1068.70  -2
   0  -6  -8 34654.6 1068.70   1
   0   6   9 468.904 990.469   1
   0  -7  15 13675.3 921.159   1
   0   7 -14 1976.83 569.577  -2
   0  -7  14 1976.83 569.577   1
   0  -7  13 31745.4 706.792   1
  -1   6 -12 14366.3 720.818  -2
   0  -7  12 14366.3 720.818   1
   0  -7  11 15239.4 499.850   1
  -2   5 -10 21782.1 632.973  -2
   0  -7  10 21782.1 632.973   1
   0   7  -9 38671.3 574.998   1
  -3   4  -8 8020.07 426.370  -2
   0  -7   8 8020.07 426.370   1
   0  -7   7 116479. 1102.40   1
  -4   3  -6 16796.6 593.715  -2
   0  -7   6 16796.6 593.715   1
   0  -7   5 78319.3 891.332   1
   5  -2   4 36023.6 746.776  -2
   0   7  -4 36023.6 746.776   1
   0  -7   3 2293.20 244.320   1
   6  -1   2 45804.8 1092.90  -2
   0   7  -2 45804.8 1092.90   1
   0  -7   1 49338.1 638.922   1
   7   0   0 11770.3 479.359  -2
   0   7   0 11770.3 479.359   1
   0   7   1 17410.2 433.681   1
   8   1  -2 43458.2 854.708  -2
   0   7   2 43458.2 854.708   1
   0   7   3 874.486 270.496   1
   9   2  -4 63145.7 1227.48  -2
   0   7   4 63145.7 1227.48   1
   0  -7  -5 341.863 329.894   1
 -10  -3   6 14096.1 890.862  -2
   0  -7  -6 14096.1 890.862   1
   0  -7  -7 6442.39 609.460   1
  11   4  -8 7629.48 1657.69  -2
   0   7   8 7629.48 1657.69   1
   0  -8  15 1349.65 917.131   1
   1  -7  14 17361.1 933.912  -2
   0   8 -14 17361.1 933.912   1
   0  -8  13 29037.3 798.577   1
   2  -6  12 4339.23 431.955  -2
   0   8 -12 4339.23 431.955   1
   0  -8  11 56848.1 769.788   1
  -3   5 -10 51421.2 874.588  -2
   0  -8  10 51421.2 874.588   1
   0   8  -9 10989.0 387.235   1
   4  -4   8 6637.03 445.970  -2
   0   8  -8 6637.03 445.970   1
   0  -8   7 55116.8 825.816   1
  -5   3  -6 7481.92 579.264  -2
   0  -8   6 7481.92 579.264   1
   0  -8   5 123042. 1197.21   1
   6  -2   4 17468.9 597.295  -2
   0   8  -4 17468.9 597.295   1
   0   8  -3 22751.0 580.662   1
  -7   1  -2 53639.0 1087.01  -2
   0  -8   2 53639.0 1087.01   1
   0   8  -1 6986.18 334.544   1
   8   0   0 73866.8 1118.50  -2
   0   8   0 73866.8 1118.50   1
   0  -8  -1 14950.8 447.553   1
  -9  -1   2 9434.98 550.186  -2
   0  -8  -2 9434.98 550.186   1
   0  -8  -3 2574.04 330.553   1
 -10  -2   4 48547.7 1104.69  -2
   0  -8  -4 48547.7 1104.69   1
   0  -8  -5 550.523 595.169   1
 -11  -3   6 47327.2 1679.57  -2
   0  -8  -6 47327.2 1679.57   1
   2  -7  14 50405.9 1316.01  -2
   0   9 -14 50405.9 1316.01   1
   0  -9  13 5890.55 524.506   1
  -3   6 -12 11151.6 590.604  -2
   0  -9  12 11151.6 590.604   1
   0  -9  11 60973.6 742.148   1
  -4   5 -10 17465.5 606.300  -2
   0  -9  10 17465.5 606.300   1
   0  -9   9 41585.9 697.011   1
  -5   4  -8 38050.8 929.646  -2
   0  -9   8 38050.8 929.646   1
   0  -9   7 1113.05 303.001   1
  -6   3  -6 2804.43 524.023  -2
   0  -9   6 2804.43 524.023   1
   0  -9   5 73070.4 911.678   1
  -7   2  -4 4028.09 442.522  -2
   0  -9   4 4028.09 442.522   1
   0  -9   3 53691.2 997.212   1
   8  -1   2 44681.7 904.241  -2
   0   9  -2 44681.7 904.241   1
   0  -9   1 9400.30 392.842   1
   9   0   0 64057.1 1101.37  -2
   0   9   0 64057.1 1101.37   1
   0  -9  -1 6646.53 406.591   1
 -10  -1   2 12747.0 646.905  -2
   0  -9  -2 12747.0 646.905   1
   0  -9  -3 3344.00 360.052   1
 -11  -2   4 10507.4 863.127  -2
   0  -9  -4 10507.4 863.127   1
   0   9   5 521.695 576.119   1
  -3   7 -14 34367.6 1459.97  -2
   0 -10  14 34367.6 1459.97   1
   0 -10  13 2560.87 577.583   1
  -4   6 -12 42065.3 1202.84  -2
   0 -10  12 42065.3 1202.84   1
   0  10 -11 18566.1 626.889   1
  -5   5 -10 8469.58 639.262  -2
   0 -10  10 8469.58 639.262   1
   0 -10   9 60535.1 1077.31   1
  -6   4  -8 28388.3 1147.05  -2
   0 -10   8 28388.3 1147.05   1
   0 -10   7 26524.9 888.900   1
   7  -3   6 24791.5 946.358  -2
   0  10  -6 24791.5 946.358   1
   0 -10   5 5383.20 488.323   1
  -8   2  -4 9031.43 872.349  -2
   0 -10   4 9031.43 872.349   1
   0 -10   3 57497.2 1096.33   1
  -9   1  -2 15571.7 773.011  -2
   0 -10   2 15571.7 773.011   1
   0 -10   1 34748.0 973.317   1
  10   0   0 40544.8 1663.21  -2
   0  10   0 40544.8 1663.21   1
   0 -10  -1 85.5595 530.174   1
 -11  -1   2 40452.1 1742.24  -2
   0 -10  -2 40452.1 1742.24   1
   0 -10  -3 1300.54 604.574   1
 -12  -2   4 12446.7 1165.59  -2
   0 -10  -4 12446.7 1165.59   1
   0 -11  13 11226.3 895.434   1
  -5   6 -12 49457.3 1386.44  -2
   0 -11  12 49457.3 1386.44   1
   0  11 -11 488.988 548.600   1
   6  -5  10 16272.2 1203.98  -2
   0  11 -10 16272.2 1203.98   1
   0 -11   9 31357.6 986.572   1
  -7   4  -8 9010.76 829.715  -2
   0 -11   8 9010.76 829.715   1
   0 -11   7 79312.9 1533.74   1
  -8   3  -6 27462.8 1081.00  -2
   0 -11   6 27462.8 1081.00   1
   0 -11   5 9715.10 620.602   1
   9  -2   4 17119.5 1087.04  -2
   0  11  -4 17119.5 1087.04   1
   0  11  -3 10126.9 821.943   1
  10  -1   2 6546.52 949.934  -2
   0  11  -2 6546.52 949.934   1
   0  11  -1 25840.6 1154.85   1
 -11   0   0 15096.0 1235.27  -2
   0 -11   0 15096.0 1235.27   1
   0  11   1 3253.47 696.741   1
 -12  -1   2 32744.3 1669.96  -2
   0 -11  -2 32744.3 1669.96   1
  -6   6 -12 31475.8 2210.54  -2
   0 -12  12 31475.8 2210.54   1
   0 -12  11 7144.41 1088.50   1
  -7   5 -10 28160.4 2155.07  -2
   0 -12  10 28160.4 2155.07   1
   0 -12   9 235.778 906.655   1
  -8   4  -8 1496.10 1306.36  -2
   0 -12   8 1496.10 1306.36   1
   0 -12   7 42613.7 1220.77   1
  -9   3  -6 9637.18 1179.76  -2
   0 -12   6 9637.18 1179.76   1
   0  12  -5 40958.3 2031.22   1
  10  -2   4 24172.7 1929.51  -2
   0  12  -4 24172.7 1929.51   1
   0 -12   3 1585.83 673.848   1
  11  -1   2 7551.64 1066.68  -2
   0  12  -2 7551.64 1066.68   1
   0 -12   1 7582.82 833.133   1
  12   0   0 5718.73 1049.45  -2
   0  12   0 5718.73 1049.45   1
  -8   5 -10 18168.2 2040.60  -2
   0 -13  10 18168.2 2040.60   1
   0 -13   9 10585.0 1388.75   1
  -9   4  -8 10069.1 1819.29  -2
   0 -13   8 10069.1 1819.29   1
   0 -13   7 5692.31 1251.53   1
 -10   3  -6 2348.27 1051.27  -2
   0 -13   6 2348.27 1051.27   1
   0  13  -5 34326.6 1904.79   1
  11  -2   4 11311.0 1243.17  -2
   0  13  -4 11311.0 1243.17   1
   0  13  -3 23744.5 1221.20   1
 -12   2  -2 3327.13 986.536  -2
   1 -13   2 3327.13 986.536   1
   1 -13   3 5092.50 800.869   1
 -11   3  -4 15358.8 1356.50  -2
   1 -13   4 15358.8 1356.50   1
  -1  13  -5 37371.7 2042.72   1
 -10   4  -6 10900.4 1296.24  -2
   1 -13   6 10900.4 1296.24   1
   1 -13   7 24078.4 1798.26   1
  -9   5  -8 12609.1 1867.10  -2
   1 -13   8 12609.1 1867.10   1
   1 -13   9 921.010 999.359   1
  -8   6 -10 28331.7 2294.78  -2
   1 -13  10 28331.7 2294.78   1
  12  -1   0 19921.6 1416.23  -2
  -1  12   0 19921.6 1416.23   1
   1 -12   1 29784.1 1257.09   1
 -11   2  -2 3648.57 933.874  -2
   1 -12   2 3648.57 933.874   1
   1 -12   3 8379.02 839.439   1
  10  -3   4 6170.59 1399.44  -2
  -1  12  -4 6170.59 1399.44   1
   1 -12   5 17094.9 1069.97   1
   9  -4   6 28217.1 1563.98  -2
  -1  12  -6 28217.1 1563.98   1
   1 -12   7 50609.8 2255.56   1
  -8   5  -8 9991.41 1624.75  -2
   1 -12   8 9991.41 1624.75   1
   1 -12   9 17775.3 1471.26   1
  -7   6 -10 22920.2 1398.00  -2
   1 -12  10 22920.2 1398.00   1
   1 -12  11 203.087 483.455   1
  -6   7 -12 54870.1 2023.50  -2
   1 -12  12 54870.1 2023.50   1
  -1  11   3 5844.59 790.816   1
 -12   0   2 22125.6 1457.81  -2
   1 -11  -2 22125.6 1457.81   1
  -1  11   1 1827.37 640.505   1
  11  -1   0 33089.2 1608.26  -2
  -1  11   0 33089.2 1608.26   1
   1 -11   1 33677.2 1249.63   1
  10  -2   2 16135.6 1217.95  -2
  -1  11  -2 16135.6 1217.95   1
  -1  11  -3 57859.4 2122.94   1
  -9   3  -4-136.838 856.923  -2
   1 -11   4-136.838 856.923   1
   1 -11   5 3813.11 489.389   1
  -8   4  -6 35937.2 1408.80  -2
   1 -11   6 35937.2 1408.80   1
   1 -11   7 32807.6 1062.02   1
  -7   5  -8 31392.8 1309.02  -2
   1 -11   8 31392.8 1309.02   1
   1 -11   9 42728.0 1140.17   1
   6  -6  10 10698.8 733.797  -2
  -1  11 -10 10698.8 733.797   1
   1 -11  11 7490.94 576.639   1
  -5   7 -12 50133.5 1833.65  -2
   1 -11  12 50133.5 1833.65   1
   1 -11  13 1465.34 590.067   1
  12   1  -4 10980.8 1112.34  -2
  -1  10   4 10980.8 1112.34   1
  -1  10   3 17555.4 801.280   1
 -11   0   2 13440.0 889.069  -2
   1 -10  -2 13440.0 889.069   1
   1 -10  -1 5437.30 528.151   1
 -10   1   0 28846.1 1151.20  -2
   1 -10   0 28846.1 1151.20   1
   1 -10   1 12625.8 649.701   1
  -9   2  -2 32795.4 999.599  -2
   1 -10   2 32795.4 999.599   1
   1 -10   3 83487.5 1576.70   1
   8  -3   4 9185.68 739.981  -2
  -1  10  -4 9185.68 739.981   1
   1 -10   5 47477.0 1016.10   1
  -7   4  -6 9274.04 843.045  -2
   1 -10   6 9274.04 843.045   1
   1 -10   7 576.200 420.963   1
  -6   5  -8 40520.6 1354.48  -2
   1 -10   8 40520.6 1354.48   1
   1 -10   9 35743.9 1027.45   1
  -5   6 -10 18247.5 709.742  -2
   1 -10  10 18247.5 709.742   1
   1 -10  11 22342.6 591.099   1
  -4   7 -12 19102.0 1218.08  -2
   1 -10  12 19102.0 1218.08   1
   1 -10  13 912.672 540.669   1
  -3   8 -14 56899.5 3001.52  -2
   1 -10  14 56899.5 3001.52   1
 -12  -2   6 33377.7 1957.25  -2
   1  -9  -6 33377.7 1957.25   1
   1  -9  -5 213.609 434.014   1
 -11  -1   4 31378.9 966.280  -2
   1  -9  -4 31378.9 966.280   1
   1  -9  -3 12608.4 489.575   1
 -10   0   2 15326.5 665.300  -2
   1  -9  -2 15326.5 665.300   1
  -1   9   1 35267.5 696.361   1
  -9   1   0 9592.32 522.584  -2
   1  -9   0 9592.32 522.584   1
   1  -9   1 1664.50 269.250   1
   8  -2   2 24757.5 847.821  -2
  -1   9  -2 24757.5 847.821   1
  -1   9  -3 39025.8 874.537   1
  -7   3  -4 31417.1 808.410  -2
   1  -9   4 31417.1 808.410   1
   1  -9   5 116955. 1271.82   1
  -6   4  -6 4655.05 562.472  -2
   1  -9   6 4655.05 562.472   1
  -1   9  -7 34779.4 724.262   1
  -5   5  -8 24312.9 790.085  -2
   1  -9   8 24312.9 790.085   1
  -1   9  -9 8486.38 379.524   1
   4  -6  10 53324.8 855.014  -2
  -1   9 -10 53324.8 855.014   1
   1  -9  11 35681.2 675.245   1
  -3   7 -12 10547.5 556.747  -2
   1  -9  12 10547.5 556.747   1
  -1   9 -13 11554.1 612.540   1
   2  -8  14 39707.4 1570.43  -2
  -1   9 -14 39707.4 1570.43   1
   1  -8  -7 312.410 549.198   1
 -11  -2   6 14494.3 795.697  -2
   1  -8  -6 14494.3 795.697   1
  -1   8   5 674.668 304.384   1
 -10  -1   4 60341.3 1228.04  -2
   1  -8  -4 60341.3 1228.04   1
   1  -8  -3 1430.75 333.274   1
  -9   0   2 53485.3 1045.03  -2
   1  -8  -2 53485.3 1045.03   1
   1  -8  -1 12429.8 403.897   1
  -8   1   0 11560.2 507.394  -2
   1  -8   0 11560.2 507.394   1
   1  -8   1 56270.9 782.095   1
   7  -2   2 26319.3 926.867  -2
  -1   8  -2 26319.3 926.867   1
  -1   8  -3 190.470 256.667   1
   6  -3   4 30080.5 820.080  -2
  -1   8  -4 30080.5 820.080   1
   1  -8   5 64085.8 1216.38   1
  -5   4  -6 24428.1 846.403  -2
   1  -8   6 24428.1 846.403   1
   1  -8   7 99176.7 1126.82   1
  -4   5  -8 1022.90 380.337  -2
   1  -8   8 1022.90 380.337   1
   1  -8   9 7814.47 314.616   1
  -3   6 -10 84793.7 1011.30  -2
   1  -8  10 84793.7 1011.30   1
   1  -8  11 7838.62 374.775   1
  -2   7 -12 34284.5 802.049  -2
   1  -8  12 34284.5 802.049   1
  -1   8 -13 16141.6 648.410   1
  -1   8 -14 5159.73 982.884  -2
   1  -8  14 5159.73 982.884   1
  11   3  -8 26563.6 2420.93  -2
  -1   7   8 26563.6 2420.93   1
   1  -7  -7 1393.51 460.474   1
  10   2  -6 2886.53 419.610  -2
  -1   7   6 2886.53 419.610   1
   1  -7  -5 1142.72 276.659   1
  -9  -1   4 40162.7 910.581  -2
   1  -7  -4 40162.7 910.581   1
   1  -7  -3 278.972 237.040   1
  -8   0   2 83127.7 1192.66  -2
   1  -7  -2 83127.7 1192.66   1
   1  -7  -1 16314.9 499.947   1
  -7   1   0 17626.6 598.282  -2
   1  -7   0 17626.6 598.282   1
  -1   7  -1 108277. 1270.89   1
  -6   2  -2 16811.4 711.165  -2
   1  -7   2 16811.4 711.165   1
  -1   7  -3 47565.9 728.313   1
  -5   3  -4 24182.9 698.443  -2
   1  -7   4 24182.9 698.443   1
   1  -7   5 7109.49 471.295   1
  -4   4  -6 20929.2 731.225  -2
   1  -7   6 20929.2 731.225   1
  -1   7  -7 78360.7 1036.85   1
  -3   5  -8 3360.09 309.895  -2
   1  -7   8 3360.09 309.895   1
  -1   7  -9 98617.2 807.186   1
  -2   6 -10 37540.1 930.316  -2
   1  -7  10 37540.1 930.316   1
   1  -7  11 3843.22 344.976   1
  -1   7 -12 53138.8 1027.66  -2
   1  -7  12 53138.8 1027.66   1
   1  -7  13 10032.9 516.073   1
   0   8 -14 11857.5 1127.74  -2
   1  -7  14 11857.5 1127.74   1
  -1   6   9 1328.81 942.670   1
 -10  -3   8 44452.8 1629.94  -2
   1  -6  -8 44452.8 1629.94   1
   1  -6  -7 3137.33 431.684   1
   9   2  -6 42120.3 821.095  -2
  -1   6   6 42120.3 821.095   1
   1  -6  -5 447.550 219.891   1
  -8  -1   4 2697.34 343.862  -2
   1  -6  -4 2697.34 343.862   1
   1  -6  -3 8743.83 332.190   1
   7   0  -2 104477. 1412.59  -2
  -1   6   2 104477. 1412.59   1
   1  -6  -1 951.920 230.193   1
  -6   1   0 124493. 1491.50  -2
   1  -6   0 124493. 1491.50   1
  -1   6  -1 49392.9 974.620   1
  -5   2  -2 11249.0 493.360  -2
   1  -6   2 11249.0 493.360   1
   1  -6   3 126046. 1056.58   1
  -4   3  -4 6668.53 564.536  -2
   1  -6   4 6668.53 564.536   1
  -1   6  -5 53881.3 819.386   1
   3  -4   6 5097.27 434.456  -2
  -1   6  -6 5097.27 434.456   1
  -1   6  -7 16860.1 376.141   1
  -2   5  -8 10619.8 403.555  -2
   1  -6   8 10619.8 403.555   1
   1  -6   9 102072. 1050.78   1
  -1   6 -10 1683.25 271.783  -2
   1  -6  10 1683.25 271.783   1
   1  -6  11 45265.7 720.418   1
   0  -7  12 24181.2 675.951  -2
  -1   6 -12 24181.2 675.951   1
  -1   6 -13-175.756 370.227   1
   1   8 -14 35015.8 1543.14  -2
   1  -6  14 35015.8 1543.14   1
  10   4 -10 6543.45 1668.93  -2
  -1   5  10 6543.45 1668.93   1
  -1   5   9 6225.85 225.556   1
   9   3  -8 15837.0 587.567  -2
  -1   5   8 15837.0 587.567   1
   1  -5  -7 1798.66 232.150   1
  -8  -2   6 123440. 1175.95  -2
   1  -5  -6 123440. 1175.95   1
  -1   5   5 433.497 187.011   1
  -7  -1   4 40542.1 715.461  -2
   1  -5  -4 40542.1 715.461   1
   1  -5  -3 9890.51 349.131   1
   6   0  -2 19014.0 548.050  -2
  -1   5   2 19014.0 548.050   1
   1  -5  -1 43771.1 640.978   1
  -5   1   0 140966. 2043.26  -2
   1  -5   0 140966. 2043.26   1
   1  -5   1 932.411 274.628   1
   4  -2   2 132744. 1539.71  -2
  -1   5  -2 132744. 1539.71   1
   1  -5   3 145518. 1034.19   1
  -3   3  -4 1051.70 349.387  -2
   1  -5   4 1051.70 349.387   1
   1  -5   5 197198. 1409.04   1
   2  -4   6 531.696 227.758  -2
  -1   5  -6 531.696 227.758   1
  -1   5  -7 12853.8 328.797   1
  -1   5  -8 911.401 297.736  -2
   1  -5   8 911.401 297.736   1
  -1   5  -9 52539.7 697.118   1
   0   6 -10 1614.59 321.569  -2
   1  -5  10 1614.59 321.569   1
  -1   5 -11 87310.7 882.848   1
  -1  -7  12 5571.93 520.319  -2
  -1   5 -12 5571.93 520.319   1
   1  -5  13 8259.65 764.495   1
   2   8 -14 37235.8 1569.85  -2
   1  -5  14 37235.8 1569.85   1
  -1   4  11 2829.64 1034.19   1
  -9  -4  10 27631.5 984.415  -2
   1  -4 -10 27631.5 984.415   1
  -1   4   9 15187.8 599.161   1
   8   3  -8 4940.76 294.813  -2
  -1   4   8 4940.76 294.813   1
  -1   4   7 9850.79 354.680   1
   7   2  -6 114200. 1021.27  -2
  -1   4   6 114200. 1021.27   1
   1  -4  -5 328.664 137.629   1
   6   1  -4 187892. 1321.24  -2
  -1   4   4 187892. 1321.24   1
  -1   4   3 827.506 192.186   1
  -5   0   2 46425.0 323.686  -2
   1  -4  -2 46425.0 323.686   1
   1  -4  -1 34992.8 466.039   1
   4  -1   0 51251.5 320.301  -2
  -1   4   0 51251.5 320.301   1
   1  -4   1 35164.5 553.085   1
  -3   2  -2 168734. 1501.65  -2
   1  -4   2 168734. 1501.65   1
   1  -4   3 8486.31 362.037   1
  -2   3  -4 5403.12 421.610  -2
   1  -4   4 5403.12 421.610   1
  -1   4  -5 219559. 1103.84   1
  -1   4  -6 643.149 280.174  -2
   1  -4   6 643.149 280.174   1
   1  -4   7 128599. 1135.85   1
   0   5  -8 2415.55 281.073  -2
   1  -4   8 2415.55 281.073   1
   1  -4   9 246.154 177.553   1
   1   6 -10 2881.85 344.069  -2
   1  -4  10 2881.85 344.069   1
   1  -4  11 42178.7 535.383   1
   2   7 -12 3857.69 782.150  -2
   1  -4  12 3857.69 782.150   1
   1  -4  13 32173.9 1196.86   1
   3   8 -14 12952.6 1103.27  -2
   1  -4  14 12952.6 1103.27   1
   9   5 -12 2512.95 1464.32  -2
  -1   3  12 2512.95 1464.32   1
  -1   3  11 5124.38 477.714   1
   8   4 -10 51922.8 1235.55  -2
  -1   3  10 51922.8 1235.55   1
  -1   3   9 6850.86 444.920   1
   7   3  -8 58198.9 1111.69  -2
  -1   3   8 58198.9 1111.69   1
   1  -3  -7 19264.8 309.705   1
   6   2  -6 20496.6 473.314  -2
  -1   3   6 20496.6 473.314   1
   1  -3  -5 516.998 134.156   1
  -5  -1   4 225804. 1280.20  -2
   1  -3  -4 225804. 1280.20   1
   1  -3  -3 20067.8 313.478   1
   4   0  -2 225374. 644.274  -2
  -1   3   2 225374. 644.274   1
   1  -3  -1 34594.4 443.947   1
  -3   1   0 12021.3 159.849  -2
   1  -3   0 12021.3 159.849   1
   1  -3   1 65538.0 541.659   1
   2  -2   2 108181. 1075.92  -2
  -1   3  -2 108181. 1075.92   1
   1  -3   3 19133.0 646.187   1
  -1   3  -4 74035.3 678.102  -2
   1  -3   4 74035.3 678.102   1
  -1   3  -5 74422.1 754.628   1
   0   4  -6 8425.14 393.650  -2
   1  -3   6 8425.14 393.650   1
   1  -3   7 203841. 1222.84   1
  -1  -5   8 342.266 148.999  -2
  -1   3  -8 342.266 148.999   1
  -1   3  -9 48901.4 401.684   1
  -2  -6  10 4736.19 86.9019  -2
  -1   3 -10 4736.19 86.9019   1
   1  -3  11 1828.52 247.910   1
   3   7 -12 13202.7 579.279  -2
   1  -3  12 13202.7 579.279   1
   1  -3  13 30529.9 1204.94   1
   4   8 -14 1307.78 1001.73  -2
   1  -3  14 1307.78 1001.73   1
   8   5 -12 4819.15 1475.38  -2
  -1   2  12 4819.15 1475.38   1
  -1   2  11 40281.3 898.379   1
   7   4 -10 38883.2 1060.42  -2
  -1   2  10 38883.2 1060.42   1
   1  -2  -9 2089.14 341.212   1
  -6  -3   8 149875. 1654.53  -2
   1  -2  -8 149875. 1654.53   1
   1  -2  -7 17989.8 464.814   1
  -5  -2   6 24288.5 350.441  -2
   1  -2  -6 24288.5 350.441   1
  -1   2   5 6746.87 213.928   1
   4   1  -4 31393.3 440.354  -2
  -1   2   4 31393.3 440.354   1
   1  -2  -3 724.595 95.9374   1
  -3   0   2 493024. 822.334  -2
   1  -2  -2 493024. 822.334   1
  -1   2   1 62938.0 599.600   1
   2  -1   0 140578. 409.698  -2
  -1   2   0 140578. 409.698   1
  -1   2  -1 190266. 775.996   1
  -1   2  -2 6672.81 317.252  -2
   1  -2   2 6672.81 317.252   1
   1  -2   3 108669. 770.110   1
   0  -3   4 92107.0 881.026  -2
  -1   2  -4 92107.0 881.026   1
   1  -2   5 278.913 86.2263   1
  -1  -4   6 186029. 1500.79  -2
  -1   2  -6 186029. 1500.79   1
   1  -2   7 90357.2 502.945   1
  -2  -5   8 3180.35 203.133  -2
  -1   2  -8 3180.35 203.133   1
  -1   2  -9 106920. 1366.13   1
   3   6 -10 5988.58 771.378  -2
   1  -2  10 5988.58 771.378   1
   1  -2  11 18405.6 923.314   1
   4   7 -12 22174.4 774.186  -2
   1  -2  12 22174.4 774.186   1
   1  -2  13 7967.58 817.101   1
   5   8 -14 8964.03 1070.94  -2
   1  -2  14 8964.03 1070.94   1
  -1   1  13 7817.09 1190.99   1
   7   5 -12 26307.8 1268.38  -2
  -1   1  12 26307.8 1268.38   1
  -1   1  11 47902.8 1267.88   1
   6   4 -10 1414.45 423.288  -2
  -1   1  10 1414.45 423.288   1
  -1   1   9 13973.8 520.466   1
   5   3  -8 121570. 1579.65  -2
  -1   1   8 121570. 1579.65   1
   1  -1  -7 510.463 212.817   1
   4   2  -6 116315. 1216.03  -2
  -1   1   6 116315. 1216.03   1
  -1   1   5 4776.20 128.584   1
   3   1  -4 39877.1 402.432  -2
  -1   1   4 39877.1 402.432   1
   1  -1  -3 946.102 72.6043   1
   2   0  -2 163933. 1098.57  -2
  -1   1   2 163933. 1098.57   1
   1  -1  -1 5324.81 149.029   1
  -1   1   0 453695. 504.141  -2
   1  -1   0 453695. 504.141   1
   1  -1   1 43975.5 310.275   1
   0  -2   2 231752. 1471.84  -2
  -1   1  -2 231752. 1471.84   1
   1  -1   3 120285. 578.747   1
  -1  -3   4 8265.02 233.585  -2
  -1   1  -4 8265.02 233.585   1
   1  -1   5 103300. 518.499   1
  -2  -4   6 119420. 1521.17  -2
  -1   1  -6 119420. 1521.17   1
   1  -1   7 3509.07 331.696   1
   3   5  -8 27391.4 913.163  -2
   1  -1   8 27391.4 913.163   1
   1  -1   9 85742.0 1252.52   1
   4   6 -10 2628.04 533.743  -2
   1  -1  10 2628.04 533.743   1
   1  -1  11 73094.3 1279.12   1
   5   7 -12 10420.1 1048.62  -2
   1  -1  12 10420.1 1048.62   1
   1  -1  13 4358.90 699.665   1
   7   6 -14 5830.63 1568.29  -2
  -1   0  14 5830.63 1568.29   1
  -1   0  13 4534.75 651.623   1
   6   5 -12 39564.5 1511.11  -2
  -1   0  12 39564.5 1511.11   1
  -1   0  11 15910.6 806.085   1
   5   4 -10 27636.0 1181.69  -2
  -1   0  10 27636.0 1181.69   1
  -1   0   9 108130. 1586.16   1
   4   3  -8 43111.2 1234.05  -2
  -1   0   8 43111.2 1234.05   1
  -1   0   7 30538.4 583.362   1
  -3  -2   6 199697. 1495.19  -2
   1   0  -6 199697. 1495.19   1
  -1   0   5 117.640 89.3651   1
   2   1  -4 286873. 1106.49  -2
  -1   0   4 286873. 1106.49   1
  -1   0   3 5364.64 127.302   1
   1   0  -2 5781.50 223.345  -2
  -1   0   2 5781.50 223.345   1
  -1   0   1 2247.47 112.958   1
   0   1   0 385129. 381.692  -2
   1   0   0 385129. 381.692   1
   1   0   1 1958.31 113.536   1
   1   2  -2 286030. 1324.04  -2
   1   0   2 286030. 1324.04   1
  -1   0  -3 35778.4 321.989   1
  -2  -3   4 36674.7 402.898  -2
  -1   0  -4 36674.7 402.898   1
   1   0   5 111788. 1112.04   1
   3   4  -6 31424.0 856.588  -2
   1   0   6 31424.0 856.588   1
   1   0   7 21622.7 613.610   1
  -4  -5   8 50617.8 1222.95  -2
  -1   0  -8 50617.8 1222.95   1
  -1   0  -9 27130.9 788.159   1
   5   6 -10 9873.89 724.417  -2
   1   0  10 9873.89 724.417   1
  -1   0 -11 50305.3 1111.83   1
   6   7 -12 2191.28 819.637  -2
   1   0  12 2191.28 819.637   1
   1   0  13 27002.1 1209.31   1
   6   6 -14 1258.62 760.193  -2
  -1  -1  14 1258.62 760.193   1
  -1  -1  13 41572.4 1257.30   1
   5   5 -12 29607.7 1326.75  -2
  -1  -1  12 29607.7 1326.75   1
  -1  -1  11 204.215 451.358   1
   4   4 -10 60672.3 1652.31  -2
  -1  -1  10 60672.3 1652.31   1
  -1  -1   9 68757.4 1263.33   1
   3   3  -8 6641.18 589.989  -2
  -1  -1   8 6641.18 589.989   1
  -1  -1   7 82202.3 474.464   1
   2   2  -6 47568.7 568.835  -2
  -1  -1   6 47568.7 568.835   1
  -1  -1   5 9877.50 183.599   1
   1   1  -4 558587. 790.468  -2
  -1  -1   4 558587. 790.468   1
  -1  -1   3 2481.98 125.071   1
   0   0  -2 64089.5 654.377  -2
  -1  -1   2 64089.5 654.377   1
   1   1  -1 303.720 96.7351   1
   1   1   0 9380.78 238.110  -2
   1   1   0 9380.78 238.110   1
   1   1   1 20189.3 252.824   1
   2   2  -2 224650. 1088.91  -2
   1   1   2 224650. 1088.91   1
   1   1   3 982.798 98.8282   1
  -3  -3   4 146722. 974.210  -2
  -1  -1  -4 146722. 974.210   1
  -1  -1  -5 75832.9 505.291   1
   4   4  -6 600.193 320.470  -2
   1   1   6 600.193 320.470   1
  -1  -1  -7 75212.1 1117.77   1
   5   5  -8 26244.6 936.998  -2
   1   1   8 26244.6 936.998   1
   1   1   9 23579.2 754.794   1
   6   6 -10 33084.6 1115.21  -2
   1   1  10 33084.6 1115.21   1
   1   1  11 20486.4 803.150   1
   7   7 -12 5667.11 977.460  -2
   1   1  12 5667.11 977.460   1
   5   6 -14 4857.33 845.749  -2
  -1  -2  14 4857.33 845.749   1
  -1  -2  13 74330.7 1125.40   1
   4   5 -12 7738.14 594.106  -2
  -1  -2  12 7738.14 594.106   1
  -1  -2  11 36067.0 750.231   1
   3   4 -10 36149.0 1253.40  -2
  -1  -2  10 36149.0 1253.40   1
  -1  -2   9 5183.54 184.525   1
   2   3  -8 31941.8 479.937  -2
  -1  -2   8 31941.8 479.937   1
  -1  -2   7 83927.2 595.619   1
   1   2  -6 2891.25 216.801  -2
  -1  -2   6 2891.25 216.801   1
  -1  -2   5 57636.9 584.218   1
   0  -1   4 140166. 966.652  -2
   1   2  -4 140166. 966.652   1
  -1  -2   3 1024.34 174.477   1
  -1   0  -2 348964. 1303.27  -2
  -1  -2   2 348964. 1303.27   1
   1   2  -1 13575.6 217.572   1
  -2  -1   0 117299. 938.934  -2
  -1  -2   0 117299. 938.934   1
   1   2   1 1208.77 146.078   1
   3   2  -2 95000.5 841.369  -2
   1   2   2 95000.5 841.369   1
  -1  -2  -3 5872.75 206.218   1
   4   3  -4 257709. 1457.05  -2
   1   2   4 257709. 1457.05   1
  -1  -2  -5 5592.15 248.809   1
   5   4  -6 55688.3 679.917  -2
   1   2   6 55688.3 679.917   1
   1   2   7 54189.4 1028.41   1
   6   5  -8 5008.18 589.881  -2
   1   2   8 5008.18 589.881   1
   1   2   9 55468.5 1127.40   1
  -7  -6  10 24573.8 1018.19  -2
  -1  -2 -10 24573.8 1018.19   1
   1   2  11 725.397 609.394   1
   8   7 -12 13890.7 1245.18  -2
   1   2  12 13890.7 1245.18   1
  -1  -3  15 1412.65 602.677   1
   4   6 -14 5538.98 818.456  -2
  -1  -3  14 5538.98 818.456   1
  -1  -3  13 45324.1 871.153   1
   3   5 -12 1133.95 412.440  -2
  -1  -3  12 1133.95 412.440   1
  -1  -3  11 80832.1 560.395   1
   2   4 -10 4291.12 264.840  -2
  -1  -3  10 4291.12 264.840   1
  -1  -3   9 28487.5 407.151   1
   1   3  -8 24382.1 505.792  -2
  -1  -3   8 24382.1 505.792   1
  -1  -3   7 13810.2 327.719   1
   0   2  -6 147604. 1349.16  -2
  -1  -3   6 147604. 1349.16   1
   1   3  -5 50673.1 560.529   1
   1  -1   4 16542.0 387.782  -2
   1   3  -4 16542.0 387.782   1
  -1  -3   3 7010.78 177.285   1
  -2   0  -2 299634. 1347.87  -2
  -1  -3   2 299634. 1347.87   1
   1   3  -1 12541.8 255.342   1
  -3  -1   0 521794. 3498.81  -2
  -1  -3   0 521794. 3498.81   1
   1   3   1 1360.37 164.949   1
  -4  -2   2 11667.2 383.544  -2
  -1  -3  -2 11667.2 383.544   1
   1   3   3 67398.4 635.495   1
   5   3  -4 102820. 1046.12  -2
   1   3   4 102820. 1046.12   1
   1   3   5 5062.09 240.166   1
  -6  -4   6 90248.8 1167.92  -2
  -1  -3  -6 90248.8 1167.92   1
   1   3   7 12402.2 323.569   1
   7   5  -8 16421.2 893.972  -2
   1   3   8 16421.2 893.972   1
  -1  -3  -9 51017.6 1136.45   1
  -8  -6  10 3284.83 678.828  -2
  -1  -3 -10 3284.83 678.828   1
   1   3  11 18755.2 1034.16   1
  -1  -4  15 22701.3 1030.20   1
   3   6 -14 5467.49 798.870  -2
  -1  -4  14 5467.49 798.870   1
  -1  -4  13 1046.65 497.231   1
   2   5 -12 1058.37 235.933  -2
  -1  -4  12 1058.37 235.933   1
  -1  -4  11 53975.0 600.658   1
   1   4 -10 325.534 199.262  -2
  -1  -4  10 325.534 199.262   1
  -1  -4   9 89407.5 869.054   1
   0  -3   8 12617.4 580.929  -2
   1   4  -8 12617.4 580.929   1
  -1  -4   7 9123.36 374.406   1
   1  -2   6 245846. 1862.34  -2
   1   4  -6 245846. 1862.34   1
   1   4  -5 57212.7 552.378   1
  -2   1  -4 52316.7 833.327  -2
  -1  -4   4 52316.7 833.327   1
   1   4  -3 33295.2 404.296   1
  -3   0  -2 86808.5 927.684  -2
  -1  -4   2 86808.5 927.684   1
   1   4  -1 11273.9 373.983   1
  -4  -1   0 357292. 3171.61  -2
  -1  -4   0 357292. 3171.61   1
  -1  -4  -1 80.3039 163.706   1
  -5  -2   2 128338. 1227.97  -2
  -1  -4  -2 128338. 1227.97   1
   1   4   3 19063.6 431.207   1
   6   3  -4 6636.52 378.542  -2
   1   4   4 6636.52 378.542   1
  -1  -4  -5 30322.4 507.604   1
   7   4  -6 54467.0 869.642  -2
   1   4   6 54467.0 869.642   1
  -1  -4  -7 2528.59 266.982   1
   8   5  -8 25788.3 512.428  -2
   1   4   8 25788.3 512.428   1
   1   4   9 22069.5 867.199   1
   9   6 -10 1641.42 901.646  -2
   1   4  10 1641.42 901.646   1
  -1  -5  15 41160.0 1260.89   1
   2   6 -14 3339.41 749.460  -2
  -1  -5  14 3339.41 749.460   1
  -1  -5  13 20167.6 568.014   1
   1   5 -12 6689.09 436.144  -2
  -1  -5  12 6689.09 436.144   1
  -1  -5  11 9808.95 383.391   1
   0   4 -10 2776.32 378.184  -2
  -1  -5  10 2776.32 378.184   1
   1   5  -9 99246.9 1140.63   1
  -1   3  -8 295.426 175.839  -2
  -1  -5   8 295.426 175.839   1
  -1  -5   7 99491.7 782.784   1
   2  -2   6 119012. 1147.28  -2
   1   5  -6 119012. 1147.28   1
  -1  -5   5 565.438 196.331   1
  -3   1  -4 151224. 1335.50  -2
  -1  -5   4 151224. 1335.50   1
   1   5  -3 65729.3 657.868   1
   4   0   2 6099.28 359.167  -2
   1   5  -2 6099.28 359.167   1
   1   5  -1 8076.38 374.845   1
  -5  -1   0 82362.3 1014.79  -2
  -1  -5   0 82362.3 1014.79   1
  -1  -5  -1 9090.60 322.678   1
  -6  -2   2 133692. 1419.23  -2
  -1  -5  -2 133692. 1419.23   1
  -1  -5  -3-9.73217 197.315   1
  -7  -3   4 31713.8 789.587  -2
  -1  -5  -4 31713.8 789.587   1
  -1  -5  -5 12587.6 397.986   1
   8   4  -6 5847.03 460.516  -2
   1   5   6 5847.03 460.516   1
   1   5   7 23729.5 662.194   1
  -9  -5   8 22695.7 606.057  -2
  -1  -5  -8 22695.7 606.057   1
   1   5   9 680.476 594.268   1
  -1  -6  15 31977.1 1138.37   1
   1   6 -14 1578.69 700.653  -2
  -1  -6  14 1578.69 700.653   1
  -1  -6  13 54319.4 824.336   1
   0   5 -12 4201.82 447.967  -2
  -1  -6  12 4201.82 447.967   1
   1   6 -11 12912.7 523.951   1
  -1   4 -10 5198.51 562.364  -2
  -1  -6  10 5198.51 562.364   1
   1   6  -9 40121.0 633.799   1
  -2   3  -8 7003.01 380.314  -2
  -1  -6   8 7003.01 380.314   1
  -1  -6   7 134956. 984.191   1
  -3   2  -6 23327.0 649.618  -2
  -1  -6   6 23327.0 649.618   1
  -1  -6   5 41667.1 711.783   1
   4  -1   4 66828.9 940.210  -2
   1   6  -4 66828.9 940.210   1
  -1  -6   3 50.5621 184.156   1
  -5   0  -2 77584.3 1310.27  -2
  -1  -6   2 77584.3 1310.27   1
  -1  -6   1 15867.3 422.267   1
  -6  -1   0 4910.43 365.928  -2
  -1  -6   0 4910.43 365.928   1
  -1  -6  -1 1464.96 230.073   1
  -7  -2   2 58682.9 989.046  -2
  -1  -6  -2 58682.9 989.046   1
  -1  -6  -3 98.0941 242.435   1
   8   3  -4 64076.0 1252.92  -2
   1   6   4 64076.0 1252.92   1
  -1  -6  -5 5622.43 394.574   1
  -9  -4   6 10926.0 634.922  -2
  -1  -6  -6 10926.0 634.922   1
   1   6   7 29752.3 786.424   1
  10   5  -8 7461.00 701.087  -2
   1   6   8 7461.00 701.087   1
  -1  -7  15 4576.74 976.275   1
   0  -6  14 16263.6 829.767  -2
   1   7 -14 16263.6 829.767   1
  -1  -7  13 45767.8 818.160   1
  -1   5 -12 2432.24 532.196  -2
  -1  -7  12 2432.24 532.196   1
   1   7 -11 80993.5 944.449   1
  -2   4 -10 13290.2 566.161  -2
  -1  -7  10 13290.2 566.161   1
  -1  -7   9 717.869 218.494   1
   3  -3   8 13032.2 494.186  -2
   1   7  -8 13032.2 494.186   1
  -1  -7   7 63343.2 759.164   1
  -4   2  -6 1793.93 388.546  -2
  -1  -7   6 1793.93 388.546   1
  -1  -7   5 77107.1 877.012   1
  -5   1  -4 15177.6 548.088  -2
  -1  -7   4 15177.6 548.088   1
   1   7  -3 5498.08 313.975   1
   6   0   2 117555. 1522.46  -2
   1   7  -2 117555. 1522.46   1
  -1  -7   1 9524.26 350.492   1
   7   1   0 32057.0 757.663  -2
   1   7   0 32057.0 757.663   1
  -1  -7  -1 329.519 234.038   1
   8   2  -2 2255.21 197.048  -2
   1   7   2 2255.21 197.048   1
   1   7   3 506.768 306.469   1
  -9  -3   4 65784.3 1287.03  -2
  -1  -7  -4 65784.3 1287.03   1
  -1  -7  -5 437.633 362.263   1
 -10  -4   6 33903.9 1757.60  -2
  -1  -7  -6 33903.9 1757.60   1
  -1  -7  -7 10048.7 939.460   1
  -1  -8  15 5474.58 1035.33   1
   1  -6  14 28425.5 1000.89  -2
   1   8 -14 28425.5 1000.89   1
  -1  -8  13 10001.7 505.135   1
  -2   5 -12 1893.50 431.527  -2
  -1  -8  12 1893.50 431.527   1
   1   8 -11 89514.1 1024.74   1
   3  -4  10 16427.0 562.218  -2
   1   8 -10 16427.0 562.218   1
  -1  -8   9 70351.5 826.570   1
   4  -3   8 22879.7 676.551  -2
   1   8  -8 22879.7 676.551   1
  -1  -8   7 321.236 252.999   1
  -5   2  -6 14013.6 725.234  -2
  -1  -8   6 14013.6 725.234   1
  -1  -8   5 45146.7 690.284   1
   6  -1   4 1865.99 363.804  -2
   1   8  -4 1865.99 363.804   1
   1   8  -3 36887.4 717.138   1
  -7   0  -2 59350.6 995.655  -2
  -1  -8   2 59350.6 995.655   1
  -1  -8   1 520.141 245.654   1
   8   1   0 110399. 1387.21  -2
   1   8   0 110399. 1387.21   1
  -1  -8  -1 4651.81 334.819   1
  -9  -2   2 20222.5 726.766  -2
  -1  -8  -2 20222.5 726.766   1
   1   8   3 361.690 328.189   1
  10   3  -4 7155.32 696.255  -2
   1   8   4 7155.32 696.255   1
  -1  -8  -5 1317.42 577.798   1
 -11  -4   6 32071.6 1477.84  -2
  -1  -8  -6 32071.6 1477.84   1
  -2   6 -14 40635.3 1529.47  -2
  -1  -9  14 40635.3 1529.47   1
  -1  -9  13 1473.08 562.731   1
  -3   5 -12 16279.9 1167.51  -2
  -1  -9  12 16279.9 1167.51   1
   1   9 -11 40126.7 794.454   1
   4  -4  10 1094.31 419.230  -2
   1   9 -10 1094.31 419.230   1
  -1  -9   9 67606.1 866.529   1
  -5   3  -8 21683.6 750.348  -2
  -1  -9   8 21683.6 750.348   1
  -1  -9   7 15490.6 521.437   1
  -6   2  -6 41517.8 1007.04  -2
  -1  -9   6 41517.8 1007.04   1
  -1  -9   5 8253.18 391.846   1
   7  -1   4 17208.5 741.910  -2
   1   9  -4 17208.5 741.910   1
  -1  -9   3 40742.7 788.960   1
  -8   0  -2 9926.48 526.519  -2
  -1  -9   2 9926.48 526.519   1
   1   9  -1 12700.8 452.491   1
  -9  -1   0 40313.7 1307.34  -2
  -1  -9   0 40313.7 1307.34   1
  -1  -9  -1 348.379 526.278   1
 -10  -2   2 41707.1 1722.45  -2
  -1  -9  -2 41707.1 1722.45   1
  -1  -9  -3-143.453 532.307   1
 -11  -3   4 4614.74 928.988  -2
  -1  -9  -4 4614.74 928.988   1
  -3   6 -14 11205.4 1135.26  -2
  -1 -10  14 11205.4 1135.26   1
  -1 -10  13 25455.1 1117.54   1
  -4   5 -12 30878.4 1290.52  -2
  -1 -10  12 30878.4 1290.52   1
  -1 -10  11 1038.06 497.795   1
   5  -4  10 12178.9 719.602  -2
   1  10 -10 12178.9 719.602   1
  -1 -10   9 46522.8 949.279   1
  -6   3  -8 6296.80 705.953  -2
  -1 -10   8 6296.80 705.953   1
  -1 -10   7 71687.9 1384.49   1
  -7   2  -6 31383.4 1045.31  -2
  -1 -10   6 31383.4 1045.31   1
   1  10  -5 12711.0 620.062   1
   8  -1   4 35210.9 1342.90  -2
   1  10  -4 35210.9 1342.90   1
  -1 -10   3 10404.2 582.868   1
   9   0   2 12162.2 834.690  -2
   1  10  -2 12162.2 834.690   1
   1  10  -1 18893.7 986.789   1
 -10  -1   0 11089.0 1097.53  -2
  -1 -10   0 11089.0 1097.53   1
   1  10   1 3600.26 677.543   1
 -11  -2   2 41837.5 1817.06  -2
  -1 -10  -2 41837.5 1817.06   1
  -1 -10  -3 1522.11 672.849   1
  -1 -11  13 34683.0 1313.46   1
   5  -5  12 20496.3 1206.35  -2
   1  11 -12 20496.3 1206.35   1
  -1 -11  11 12644.2 1226.23   1
  -6   4 -10 23809.5 2015.82  -2
  -1 -11  10 23809.5 2015.82   1
  -1 -11   9 3171.91 964.729   1
  -7   3  -8 1034.40 626.250  -2
  -1 -11   8 1034.40 626.250   1
  -1 -11   7 66718.4 1396.98   1
   8  -2   6 21452.8 988.805  -2
   1  11  -6 21452.8 988.805   1
  -1 -11   5 38891.9 998.005   1
   9  -1   4 33902.3 1388.28  -2
   1  11  -4 33902.3 1388.28   1
   1  11  -3 354.892 552.610   1
 -10   0  -2 20707.3 1331.92  -2
  -1 -11   2 20707.3 1331.92   1
   1  11  -1 4681.51 723.355   1
 -11  -1   0 7788.05 1078.90  -2
  -1 -11   0 7788.05 1078.90   1
   1  11   1 9681.55 879.602   1
  -6   5 -12 2754.84 315.936  -2
  -1 -12  12 2754.84 315.936   1
  -1 -12  11 24779.0 1677.31   1
  -7   4 -10 23829.9 2120.55  -2
  -1 -12  10 23829.9 2120.55   1
  -1 -12   9 10752.7 1306.02   1
  -8   3  -8 5622.88 1586.33  -2
  -1 -12   8 5622.88 1586.33   1
  -1 -12   7 10873.7 1355.69   1
  -9   2  -6 1625.55 938.884  -2
  -1 -12   6 1625.55 938.884   1
   1  12  -5 39701.0 1906.49   1
  10  -1   4 14878.9 1244.52  -2
   1  12  -4 14878.9 1244.52   1
  -1 -12   3 9869.29 880.286   1
  11   0   2 24290.8 1493.23  -2
   1  12  -2 24290.8 1493.23   1
  -1 -12   1 177.483 616.306   1
  -1 -13   9 35394.4 2088.53   1
  -9   3  -8 16284.1 2069.11  -2
  -1 -13   8 16284.1 2069.11   1
  -1 -13   7 3009.62 1183.62   1
  10  -2   6 3436.84 1350.39  -2
   1  13  -6 3436.84 1350.39   1
   1  13  -5 14904.0 1397.75   1
 -12   3  -2 3201.75 992.786  -2
   2 -13   2 3201.75 992.786   1
  -2  13  -3 2183.69 739.201   1
  11  -4   4 12486.6 1742.16  -2
  -2  13  -4 12486.6 1742.16   1
   2 -13   5 13854.9 1077.72   1
 -10   5  -6 22301.2 2242.45  -2
   2 -13   6 22301.2 2242.45   1
   2 -13   7 16888.8 1584.55   1
  -9   6  -8 13626.5 1901.53  -2
   2 -13   8 13626.5 1901.53   1
   2 -13   9 7498.41 1216.21   1
  -8   7 -10 34471.5 1753.05  -2
   2 -13  10 34471.5 1753.05   1
  -2  12   1 2932.72 734.089   1
  12  -2   0 16969.4 1327.34  -2
  -2  12   0 16969.4 1327.34   1
  -2  12  -1 32364.4 1286.19   1
  11  -3   2 16263.5 1301.67  -2
  -2  12  -2 16263.5 1301.67   1
   2 -12   3 47866.0 1522.90   1
  10  -4   4 5660.96 1419.53  -2
  -2  12  -4 5660.96 1419.53   1
  -2  12  -5 775.222 631.886   1
  -9   5  -6 30048.8 2330.37  -2
   2 -12   6 30048.8 2330.37   1
   2 -12   7 12453.8 1334.99   1
  -8   6  -8 24619.0 2057.82  -2
   2 -12   8 24619.0 2057.82   1
   2 -12   9 15863.8 1403.40   1
  -7   7 -10 12590.3 1712.34  -2
   2 -12  10 12590.3 1712.34   1
   2 -12  11 1903.62 653.678   1
  -6   8 -12 49797.6 2507.62  -2
   2 -12  12 49797.6 2507.62   1
  -2  11   3 24626.4 922.163   1
 -12   1   2 11160.8 875.418  -2
   2 -11  -2 11160.8 875.418   1
  -2  11   1 6169.81 571.901   1
 -11   2   0 10768.4 841.894  -2
   2 -11   0 10768.4 841.894   1
   2 -11   1 9374.99 627.679   1
  10  -3   2 28375.9 1176.32  -2
  -2  11  -2 28375.9 1176.32   1
  -2  11  -3 79402.2 2575.29   1
  -9   4  -4 14918.9 1195.33  -2
   2 -11   4 14918.9 1195.33   1
   2 -11   5 40401.6 1008.07   1
  -8   5  -6 30192.5 1347.25  -2
   2 -11   6 30192.5 1347.25   1
   2 -11   7 1920.41 533.826   1
  -7   6  -8 44179.5 1499.51  -2
   2 -11   8 44179.5 1499.51   1
   2 -11   9 21610.3 890.912   1
   6  -7  10 16219.3 885.137  -2
  -2  11 -10 16219.3 885.137   1
  -2  11 -11 6184.16 489.490   1
  -5   8 -12 25162.2 1361.26  -2
   2 -11  12 25162.2 1361.26   1
   2 -11  13 311.602 543.765   1
   2 -10  -5 628.133 792.936   1
 -12   0   4 27791.1 1412.37  -2
   2 -10  -4 27791.1 1412.37   1
   2 -10  -3 23896.7 1034.52   1
 -11   1   2 19297.0 983.968  -2
   2 -10  -2 19297.0 983.968   1
   2 -10  -1 45533.3 1060.39   1
  10  -2   0 4935.48 673.970  -2
  -2  10   0 4935.48 673.970   1
   2 -10   1 2170.89 435.574   1
  -9   3  -2 19559.3 967.710  -2
   2 -10   2 19559.3 967.710   1
  -2  10  -3 39729.4 1154.10   1
   8  -4   4 39014.2 1218.87  -2
  -2  10  -4 39014.2 1218.87   1
  -2  10  -5 68504.2 1194.02   1
  -7   5  -6 9989.41 872.308  -2
   2 -10   6 9989.41 872.308   1
   2 -10   7 17215.5 805.206   1
  -6   6  -8 44643.0 1481.02  -2
   2 -10   8 44643.0 1481.02   1
   2 -10   9 7533.09 501.316   1
  -5   7 -10 47382.6 988.077  -2
   2 -10  10 47382.6 988.077   1
   2 -10  11 9521.17 423.263   1
  -4   8 -12 12145.0 1023.64  -2
   2 -10  12 12145.0 1023.64   1
   2 -10  13 2002.44 561.391   1
  12   1  -6 14630.9 943.047  -2
  -2   9   6 14630.9 943.047   1
   2  -9  -5 1460.57 418.256   1
 -11   0   4 48254.9 1133.04  -2
   2  -9  -4 48254.9 1133.04   1
   2  -9  -3 5327.52 419.511   1
 -10   1   2 30077.6 923.978  -2
   2  -9  -2 30077.6 923.978   1
   2  -9  -1 71380.8 1180.15   1
  -9   2   0 6955.20 502.525  -2
   2  -9   0 6955.20 502.525   1
  -2   9  -1 41351.4 818.741   1
   8  -3   2 7078.28 633.542  -2
  -2   9  -2 7078.28 633.542   1
  -2   9  -3 2022.74 333.864   1
   7  -4   4 33969.4 929.008  -2
  -2   9  -4 33969.4 929.008   1
   2  -9   5 80904.1 1486.56   1
  -6   5  -6 28827.6 980.310  -2
   2  -9   6 28827.6 980.310   1
   2  -9   7 97391.5 1310.17   1
  -5   6  -8 8650.12 584.182  -2
   2  -9   8 8650.12 584.182   1
   2  -9   9 11621.6 408.998   1
  -4   7 -10 63187.0 879.634  -2
   2  -9  10 63187.0 879.634   1
   2  -9  11 3481.58 343.463   1
   3  -8  12 48325.1 1126.81  -2
  -2   9 -12 48325.1 1126.81   1
   2  -9  13 6350.85 540.322   1
  -2   9 -14 10134.0 1548.98  -2
   2  -9  14 10134.0 1548.98   1
   2  -8  -7 1943.95 448.987   1
 -11  -1   6 5439.64 595.263  -2
   2  -8  -6 5439.64 595.263   1
   2  -8  -5 6315.43 391.362   1
 -10   0   4 37141.9 910.379  -2
   2  -8  -4 37141.9 910.379   1
   2  -8  -3 837.105 357.838   1
  -9   1   2 46951.7 1071.76  -2
   2  -8  -2 46951.7 1071.76   1
   2  -8  -1 15299.6 508.473   1
   8  -2   0 24549.5 777.495  -2
  -2   8   0 24549.5 777.495   1
  -2   8  -1 118975. 1435.04   1
   7  -3   2 6193.47 554.019  -2
  -2   8  -2 6193.47 554.019   1
   2  -8   3 39152.1 735.108   1
  -6   4  -4 11171.0 572.984  -2
   2  -8   4 11171.0 572.984   1
   2  -8   5 9813.21 585.554   1
  -5   5  -6 49580.5 1149.18  -2
   2  -8   6 49580.5 1149.18   1
   2  -8   7 77698.4 987.730   1
  -4   6  -8 19884.8 700.429  -2
   2  -8   8 19884.8 700.429   1
   2  -8   9 24186.0 483.638   1
  -3   7 -10 62132.1 1086.90  -2
   2  -8  10 62132.1 1086.90   1
   2  -8  11 732.361 287.774   1
  -2   8 -12 79997.7 1317.88  -2
   2  -8  12 79997.7 1317.88   1
  -2   8 -13 3791.17 458.280   1
  -1   9 -14 25066.5 2024.88  -2
   2  -8  14 25066.5 2024.88   1
  -2   7   9 362.084 950.097   1
 -11  -2   8 51226.2 1201.27  -2
   2  -7  -8 51226.2 1201.27   1
   2  -7  -7 685.802 323.307   1
  10   1  -6 30331.0 754.303  -2
  -2   7   6 30331.0 754.303   1
  -2   7   5 7668.32 373.965   1
   9   0  -4 11390.8 566.556  -2
  -2   7   4 11390.8 566.556   1
  -2   7   3 31581.1 622.274   1
  -8   1   2 33132.1 793.151  -2
   2  -7  -2 33132.1 793.151   1
   2  -7  -1 441.188 248.623   1
  -7   2   0 36393.4 1047.81  -2
   2  -7   0 36393.4 1047.81   1
   2  -7   1 111035. 1527.86   1
  -6   3  -2 15837.0 609.659  -2
   2  -7   2 15837.0 609.659   1
  -2   7  -3 197289. 1442.75   1
  -5   4  -4 953.549 447.449  -2
   2  -7   4 953.549 447.449   1
   2  -7   5 40679.5 785.865   1
  -4   5  -6 33449.2 916.685  -2
   2  -7   6 33449.2 916.685   1
  -2   7  -7 23247.0 555.545   1
   3  -6   8 16590.3 482.511  -2
  -2   7  -8 16590.3 482.511   1
  -2   7  -9 86682.6 1217.52   1
  -2   7 -10 8679.48 557.054  -2
   2  -7  10 8679.48 557.054   1
   2  -7  11 13873.4 495.464   1
  -1   8 -12 56897.4 1053.70  -2
   2  -7  12 56897.4 1053.70   1
   2  -7  13 273.358 468.951   1
   0   9 -14 66143.2 2108.87  -2
   2  -7  14 66143.2 2108.87   1
  11   3 -10 1910.97 1332.88  -2
  -2   6  10 1910.97 1332.88   1
   2  -6  -9 1348.17 362.664   1
 -10  -2   8 34930.9 800.275  -2
   2  -6  -8 34930.9 800.275   1
  -2   6   7 432.216 235.512   1
  -9  -1   6 71872.1 991.192  -2
   2  -6  -6 71872.1 991.192   1
   2  -6  -5 625.083 249.371   1
  -8   0   4 14734.7 556.723  -2
   2  -6  -4 14734.7 556.723   1
   2  -6  -3 40271.1 653.276   1
   7  -1  -2 3129.76 335.714  -2
  -2   6   2 3129.76 335.714   1
   2  -6  -1 41555.2 596.634   1
  -6   2   0 53092.9 1353.42  -2
   2  -6   0 53092.9 1353.42   1
   2  -6   1 5330.18 402.995   1
  -5   3  -2 15276.0 634.257  -2
   2  -6   2 15276.0 634.257   1
   2  -6   3 111248. 1164.33   1
  -4   4  -4 2292.62 450.973  -2
   2  -6   4 2292.62 450.973   1
  -2   6  -5 132446. 1269.02   1
  -3   5  -6 9507.00 479.907  -2
   2  -6   6 9507.00 479.907   1
  -2   6  -7 3042.29 224.572   1
   2  -6   8 31945.5 926.403  -2
  -2   6  -8 31945.5 926.403   1
  -2   6  -9 56597.1 946.338   1
  -1   7 -10 24292.2 706.990  -2
   2  -6  10 24292.2 706.990   1
   2  -6  11 42785.7 703.876   1
   0   8 -12 10511.3 552.974  -2
   2  -6  12 10511.3 552.974   1
   2  -6  13 5020.48 482.290   1
   1   9 -14 62185.5 2041.03  -2
   2  -6  14 62185.5 2041.03   1
  10   3 -10 22526.9 2209.48  -2
  -2   5  10 22526.9 2209.48   1
   2  -5  -9 2509.59 328.461   1
  -9  -2   8 1374.94 265.546  -2
   2  -5  -8 1374.94 265.546   1
  -2   5   7 238.122 175.607   1
  -8  -1   6 82567.7 1077.78  -2
   2  -5  -6 82567.7 1077.78   1
  -2   5   5-5.78323 212.919   1
  -7   0   4 82655.2 1027.99  -2
   2  -5  -4 82655.2 1027.99   1
  -2   5   3 34088.9 543.828   1
   6  -1  -2 21327.8 554.121  -2
  -2   5   2 21327.8 554.121   1
   2  -5  -1 91230.5 921.684   1
   5  -2   0 30432.9 803.605  -2
  -2   5   0 30432.9 803.605   1
   2  -5   1 42466.0 691.237   1
  -4   3  -2 87769.9 1257.63  -2
   2  -5   2 87769.9 1257.63   1
   2  -5   3 65717.0 1019.79   1
  -3   4  -4 3339.72 442.011  -2
   2  -5   4 3339.72 442.011   1
   2  -5   5 160964. 1374.68   1
   2  -5   6 107.562 98.2676  -2
  -2   5  -6 107.562 98.2676   1
   2  -5   7 64398.0 905.968   1
  -1   6  -8 18548.7 688.822  -2
   2  -5   8 18548.7 688.822   1
   2  -5   9 1362.67 289.067   1
   0   7 -10 35510.8 923.496  -2
   2  -5  10 35510.8 923.496   1
   2  -5  11 37388.0 581.193   1
   1   8 -12 1472.18 296.290  -2
   2  -5  12 1472.18 296.290   1
   2  -5  13 11802.1 909.545   1
   2   9 -14 30809.5 1504.34  -2
   2  -5  14 30809.5 1504.34   1
  -2   4  11 1507.95 976.401   1
   9   3 -10 54468.0 1144.00  -2
  -2   4  10 54468.0 1144.00   1
   2  -4  -9 1819.55 212.106   1
   8   2  -8 47842.0 587.101  -2
  -2   4   8 47842.0 587.101   1
   2  -4  -7 2547.42 174.153   1
   7   1  -6 10082.2 412.602  -2
  -2   4   6 10082.2 412.602   1
  -2   4   5 3723.31 234.630   1
   6   0  -4 181631. 1394.17  -2
  -2   4   4 181631. 1394.17   1
   2  -4  -3 7532.54 272.847   1
  -5   1   2 197126. 1418.19  -2
   2  -4  -2 197126. 1418.19   1
   2  -4  -1 52227.3 721.222   1
   4  -2   0 1122.34 257.930  -2
  -2   4   0 1122.34 257.930   1
  -2   4  -1 79425.4 719.732   1
   3  -3   2 72948.9 1043.91  -2
  -2   4  -2 72948.9 1043.91   1
   2  -4   3 8331.26 391.111   1
  -2   4  -4 12008.1 488.647  -2
   2  -4   4 12008.1 488.647   1
   2  -4   5 124757. 1110.16   1
  -1   5  -6 1429.45 296.186  -2
   2  -4   6 1429.45 296.186   1
  -2   4  -7 166823. 1312.96   1
   0   6  -8 2198.46 462.915  -2
   2  -4   8 2198.46 462.915   1
   2  -4   9 37377.2 633.024   1
   1   7 -10 32100.0 597.722  -2
   2  -4  10 32100.0 597.722   1
   2  -4  11 579.225 163.974   1
   2   8 -12 29476.0 1401.81  -2
   2  -4  12 29476.0 1401.81   1
   2  -4  13 18923.2 1053.96   1
   3   9 -14 2247.28 864.403  -2
   2  -4  14 2247.28 864.403   1
   9   4 -12 3003.28 1425.16  -2
  -2   3  12 3003.28 1425.16   1
  -2   3  11 14872.9 1343.55   1
   8   3 -10 37874.5 970.299  -2
  -2   3  10 37874.5 970.299   1
   2  -3  -9 1607.94 305.858   1
   7   2  -8 98519.5 697.873  -2
  -2   3   8 98519.5 697.873   1
  -2   3   7 3236.67 171.736   1
   6   1  -6 34417.3 513.111  -2
  -2   3   6 34417.3 513.111   1
  -2   3   5 1246.89 138.535   1
  -5   0   4 50961.4 645.800  -2
   2  -3  -4 50961.4 645.800   1
   2  -3  -3 18677.5 346.031   1
   4  -1  -2 456407. 458.045  -2
  -2   3   2 456407. 458.045   1
  -2   3   1 21564.0 419.334   1
   3  -2   0 65761.4 785.855  -2
  -2   3   0 65761.4 785.855   1
   2  -3   1 87744.6 677.791   1
  -2   3  -2 4262.08 358.617  -2
   2  -3   2 4262.08 358.617   1
   2  -3   3 149100. 1308.24   1
   1  -4   4 6455.62 301.524  -2
  -2   3  -4 6455.62 301.524   1
  -2   3  -5 3767.78 220.594   1
   0  -5   6 12388.2 585.778  -2
  -2   3  -6 12388.2 585.778   1
  -2   3  -7 97143.8 890.545   1
   1   6  -8 3315.74 281.159  -2
   2  -3   8 3315.74 281.159   1
  -2   3  -9 76352.7 654.559   1
  -2  -7  10 9452.24 271.984  -2
  -2   3 -10 9452.24 271.984   1
   2  -3  11 13131.3 858.436   1
   3   8 -12 31558.7 1439.77  -2
   2  -3  12 31558.7 1439.77   1
   2  -3  13 6484.84 786.887   1
   4   9 -14 9669.66 1112.89  -2
   2  -3  14 9669.66 1112.89   1
  -2   2  13 9520.48 1280.27   1
   8   4 -12 28666.0 2282.94  -2
  -2   2  12 28666.0 2282.94   1
  -2   2  11 25354.1 916.132   1
   7   3 -10 5460.49 680.100  -2
  -2   2  10 5460.49 680.100   1
  -2   2   9 11113.2 533.673   1
  -6  -2   8 96747.4 610.120  -2
   2  -2  -8 96747.4 610.120   1
  -2   2   7 417.801 118.464   1
  -5  -1   6 159847. 976.542  -2
   2  -2  -6 159847. 976.542   1
  -2   2   5 2534.05 134.334   1
   4   0  -4 18123.2 146.441  -2
  -2   2   4 18123.2 146.441   1
  -2   2   3 10164.3 281.930   1
   3  -1  -2 212908. 1873.93  -2
  -2   2   2 212908. 1873.93   1
   2  -2  -1 10617.0 185.459   1
   2  -2   0 151660. 450.980  -2
  -2   2   0 151660. 450.980   1
  -2   2  -1 70864.2 606.702   1
  -1   3  -2 53363.0 904.480  -2
   2  -2   2 53363.0 904.480   1
  -2   2  -3 266448. 1119.57   1
   0   4  -4 3128.31 214.234  -2
   2  -2   4 3128.31 214.234   1
  -2   2  -5 126112. 917.628   1
  -1  -5   6 52553.1 761.737  -2
  -2   2  -6 52553.1 761.737   1
  -2   2  -7 5711.87 224.454   1
   2   6  -8 18830.6 397.092  -2
   2  -2   8 18830.6 397.092   1
  -2   2  -9 71528.6 1197.98   1
   3   7 -10 2715.58 559.749  -2
   2  -2  10 2715.58 559.749   1
   2  -2  11 45961.1 1389.55   1
   4   8 -12 13790.4 1127.36  -2
   2  -2  12 13790.4 1127.36   1
   2  -2  13 320.635 674.686   1
  -2   1  13 1582.92 953.178   1
   7   4 -12 40726.6 1387.00  -2
  -2   1  12 40726.6 1387.00   1
  -2   1  11 18153.2 775.096   1
   6   3 -10 32238.0 1189.01  -2
  -2   1  10 32238.0 1189.01   1
   2  -1  -9 15757.8 568.964   1
   5   2  -8 34084.3 886.267  -2
  -2   1   8 34084.3 886.267   1
  -2   1   7 7517.41 190.305   1
   4   1  -6 275080. 1350.79  -2
  -2   1   6 275080. 1350.79   1
  -2   1   5 266.821 108.832   1
   3   0  -4 324928. 822.096  -2
  -2   1   4 324928. 822.096   1
  -2   1   3 449.042 117.199   1
   2  -1  -2 10402.2 121.332  -2
  -2   1   2 10402.2 121.332   1
  -2   1   1 111779. 528.548   1
   1  -2   0 134958. 542.079  -2
  -2   1   0 134958. 542.079   1
  -2   1  -1 35092.0 431.527   1
   0   3  -2 401644. 1402.44  -2
   2  -1   2 401644. 1402.44   1
  -2   1  -3 61907.7 660.529   1
  -1  -4   4 32637.0 570.769  -2
  -2   1  -4 32637.0 570.769   1
   2  -1   5 206198. 1084.71   1
  -2  -5   6 17467.3 455.618  -2
  -2   1  -6 17467.3 455.618   1
   2  -1   7 27194.2 312.186   1
   3   6  -8 29884.6 999.597  -2
   2  -1   8 29884.6 999.597   1
   2  -1   9 18197.8 691.218   1
   4   7 -10 7993.32 704.091  -2
   2  -1  10 7993.32 704.091   1
   2  -1  11 69486.4 1685.43   1
   5   8 -12 1476.96 786.588  -2
   2  -1  12 1476.96 786.588   1
   2  -1  13 15357.3 1019.92   1
   7   5 -14 2209.85 1391.96  -2
  -2   0  14 2209.85 1391.96   1
  -2   0  13 34734.0 1099.43   1
   6   4 -12 24733.3 1178.42  -2
  -2   0  12 24733.3 1178.42   1
  -2   0  11 2359.98 481.131   1
   5   3 -10 98177.4 1873.59  -2
  -2   0  10 98177.4 1873.59   1
  -2   0   9 52285.2 1028.59   1
   4   2  -8 13593.1 240.434  -2
  -2   0   8 13593.1 240.434   1
  -2   0   7 30347.5 437.656   1
  -3  -1   6 110527. 836.782  -2
   2   0  -6 110527. 836.782   1
  -2   0   5 1074.80 116.445   1
   2   0  -4 500135. 868.723  -2
  -2   0   4 500135. 868.723   1
  -2   0   3 99.0081 98.3683   1
   1  -1  -2 138477. 275.362  -2
  -2   0   2 138477. 275.362   1
  -2   0   1 22826.7 305.150   1
   0  -2   0 152341. 564.160  -2
  -2   0   0 152341. 564.160   1
   2   0   1 34677.8 482.023   1
  -1  -3   2 204953. 1232.12  -2
  -2   0  -2 204953. 1232.12   1
   2   0   3 18512.4 331.509   1
  -2  -4   4 152471. 1123.11  -2
  -2   0  -4 152471. 1123.11   1
  -2   0  -5 122550. 746.625   1
  -3  -5   6 4252.13 195.335  -2
  -2   0  -6 4252.13 195.335   1
   2   0   7 89185.1 1264.98   1
   4   6  -8 28602.9 1019.07  -2
   2   0   8 28602.9 1019.07   1
   2   0   9 1758.89 421.681   1
   5   7 -10 31075.2 1120.86  -2
   2   0  10 31075.2 1120.86   1
   2   0  11 15515.9 966.570   1
   6   8 -12 8846.56 1076.90  -2
   2   0  12 8846.56 1076.90   1
   6   5 -14 9596.28 1605.04  -2
  -2  -1  14 9596.28 1605.04   1
  -2  -1  13 63821.0 1401.80   1
   5   4 -12 8849.35 803.918  -2
  -2  -1  12 8849.35 803.918   1
  -2  -1  11 25888.6 867.352   1
   4   3 -10 147506. 2207.81  -2
  -2  -1  10 147506. 2207.81   1
  -2  -1   9 9189.20 206.365   1
   3   2  -8 134730. 935.569  -2
  -2  -1   8 134730. 935.569   1
  -2  -1   7 33466.3 379.424   1
   2   1  -6 337.851 79.6712  -2
  -2  -1   6 337.851 79.6712   1
  -2  -1   5 387.248 143.198   1
   1   0  -4 279602. 1236.34  -2
  -2  -1   4 279602. 1236.34   1
  -2  -1   3 62.6776 139.432   1
   0  -1  -2 221947. 762.739  -2
  -2  -1   2 221947. 762.739   1
  -2  -1   1 61032.7 501.607   1
   1   2   0 71925.5 995.813  -2
   2   1   0 71925.5 995.813   1
  -2  -1  -1 193321. 1697.02   1
  -2  -3   2 87671.3 959.697  -2
  -2  -1  -2 87671.3 959.697   1
  -2  -1  -3 19342.3 391.956   1
   3   4  -4 179080. 1177.88  -2
   2   1   4 179080. 1177.88   1
   2   1   5 24281.8 344.726   1
   4   5  -6 28724.8 517.022  -2
   2   1   6 28724.8 517.022   1
   2   1   7 72527.2 650.800   1
  -5  -6   8 1150.83 509.846  -2
  -2  -1  -8 1150.83 509.846   1
  -2  -1  -9 82626.4 1389.13   1
   6   7 -10 27704.0 1403.68  -2
   2   1  10 27704.0 1403.68   1
   2   1  11 571.172 628.976   1
   7   8 -12 25207.0 1494.20  -2
   2   1  12 25207.0 1494.20   1
  -2  -2  15 34.9482 817.700   1
   5   5 -14 11606.9 963.616  -2
  -2  -2  14 11606.9 963.616   1
  -2  -2  13 42056.4 872.857   1
   4   4 -12 4681.06 509.680  -2
  -2  -2  12 4681.06 509.680   1
  -2  -2  11 65723.0 538.789   1
   3   3 -10 20015.8 405.753  -2
  -2  -2  10 20015.8 405.753   1
  -2  -2   9 14642.5 302.215   1
   2   2  -8 134460. 1116.99  -2
  -2  -2   8 134460. 1116.99   1
  -2  -2   7 11935.8 249.088   1
  -1  -1   6 44858.7 646.355  -2
   2   2  -6 44858.7 646.355   1
   2   2  -5 11225.5 239.615   1
   0   0  -4 48639.5 1033.39  -2
  -2  -2   4 48639.5 1033.39   1
  -2  -2   3 498.774 265.514   1
  -1  -1  -2 317887. 548.497  -2
  -2  -2   2 317887. 548.497   1
   2   2  -1 96.4947 90.8144   1
   2   2   0 455213. 2183.36  -2
   2   2   0 455213. 2183.36   1
   2   2   1 50222.6 546.952   1
   3   3  -2 4171.93 300.800  -2
   2   2   2 4171.93 300.800   1
   2   2   3 67492.0 657.958   1
   4   4  -4 89675.1 949.777  -2
   2   2   4 89675.1 949.777   1
   2   2   5 12396.8 344.646   1
  -5  -5   6 62761.2 853.661  -2
  -2  -2  -6 62761.2 853.661   1
   2   2   7 26972.9 418.252   1
   6   6  -8 4929.78 664.394  -2
   2   2   8 4929.78 664.394   1
   2   2   9 78922.4 1423.51   1
   7   7 -10 6691.38 1018.12  -2
   2   2  10 6691.38 1018.12   1
   2   2  11 16812.4 1019.44   1
  -2  -3  15 18341.8 906.920   1
   4   5 -14 7921.14 627.184  -2
  -2  -3  14 7921.14 627.184   1
  -2  -3  13 3701.43 390.954   1
   3   4 -12 15219.7 353.017  -2
  -2  -3  12 15219.7 353.017   1
  -2  -3  11 57603.8 574.654   1
   2   3 -10 418.139 250.757  -2
  -2  -3  10 418.139 250.757   1
  -2  -3   9 59573.4 698.630   1
  -1  -2   8 38693.7 754.730  -2
   2   3  -8 38693.7 754.730   1
  -2  -3   7 2284.07 184.335   1
   0  -1   6 261144. 1617.20  -2
   2   3  -6 261144. 1617.20   1
   2   3  -5 2853.01 144.662   1
  -1   0  -4 40023.6 589.211  -2
  -2  -3   4 40023.6 589.211   1
   2   3  -3 1545.59 111.551   1
  -2  -1  -2 78564.6 754.656  -2
  -2  -3   2 78564.6 754.656   1
   2   3  -1 2409.58 179.066   1
   3   2   0 304322. 1895.64  -2
   2   3   0 304322. 1895.64   1
   2   3   1 1105.32 187.860   1
  -4  -3   2 107087. 1092.63  -2
  -2  -3  -2 107087. 1092.63   1
   2   3   3 77142.4 715.529   1
  -5  -4   4 13433.0 502.782  -2
  -2  -3  -4 13433.0 502.782   1
  -2  -3  -5 55764.7 722.366   1
  -6  -5   6 39668.2 775.421  -2
  -2  -3  -6 39668.2 775.421   1
  -2  -3  -7 1123.66 233.251   1
  -7  -6   8 18072.8 408.968  -2
  -2  -3  -8 18072.8 408.968   1
   2   3   9 34015.6 1270.12   1
   8   7 -10 1235.93 923.243  -2
   2   3  10 1235.93 923.243   1
  -2  -4  15 45889.4 1251.99   1
   3   5 -14 667.867 457.792  -2
  -2  -4  14 667.867 457.792   1
  -2  -4  13 18641.5 445.394   1
   2   4 -12 17898.4 490.201  -2
  -2  -4  12 17898.4 490.201   1
  -2  -4  11 16043.3 429.280   1
   1   3 -10 6221.72 380.900  -2
  -2  -4  10 6221.72 380.900   1
   2   4  -9 92037.0 1042.70   1
   0  -2   8 7892.91 495.407  -2
   2   4  -8 7892.91 495.407   1
   2   4  -7 37356.8 680.307   1
   1  -1   6 185112. 1278.84  -2
   2   4  -6 185112. 1278.84   1
  -2  -4   5 234.285 140.795   1
  -2   0  -4 258931. 1561.21  -2
  -2  -4   4 258931. 1561.21   1
  -2  -4   3 1416.17 155.163   1
   3   1   2 8187.77 319.596  -2
   2   4  -2 8187.77 319.596   1
   2   4  -1 795.140 205.967   1
   4   2   0 113477. 1148.41  -2
   2   4   0 113477. 1148.41   1
  -2  -4  -1 408.565 168.368   1
  -5  -3   2 114996. 1330.89  -2
  -2  -4  -2 114996. 1330.89   1
   2   4   3 8629.63 360.383   1
   6   4  -4 10917.5 518.723  -2
   2   4   4 10917.5 518.723   1
  -2  -4  -5 51939.8 755.438   1
   7   5  -6 7947.31 476.390  -2
   2   4   6 7947.31 476.390   1
   2   4   7 23933.6 538.491   1
   8   6  -8 20360.9 578.895  -2
   2   4   8 20360.9 578.895   1
   2   4   9 980.546 642.222   1
  -2  -5  15 36137.4 1123.90   1
   2   5 -14 762.919 613.374  -2
  -2  -5  14 762.919 613.374   1
  -2  -5  13 81445.9 1052.68   1
  -1  -4  12 1565.34 260.248  -2
   2   5 -12 1565.34 260.248   1
  -2  -5  11 3253.03 310.350   1
   0   3 -10 18169.3 761.875  -2
  -2  -5  10 18169.3 761.875   1
   2   5  -9 40177.2 743.126   1
  -1   2  -8 6537.50 375.332  -2
  -2  -5   8 6537.50 375.332   1
  -2  -5   7 85303.7 760.736   1
  -2   1  -6 27673.9 567.951  -2
  -2  -5   6 27673.9 567.951   1
  -2  -5   5 22347.8 479.441   1
   3   0   4 153025. 1266.06  -2
   2   5  -4 153025. 1266.06   1
  -2  -5   3 11456.2 309.217   1
   4   1   2 101149. 1412.61  -2
   2   5  -2 101149. 1412.61   1
  -2  -5   1 160.763 234.852   1
  -5  -2   0 5988.51 406.366  -2
  -2  -5   0 5988.51 406.366   1
  -2  -5  -1 1289.40 243.862   1
  -6  -3   2 94233.3 1181.51  -2
  -2  -5  -2 94233.3 1181.51   1
   2   5   3 594.614 237.613   1
  -7  -4   4 56204.2 1056.36  -2
  -2  -5  -4 56204.2 1056.36   1
  -2  -5  -5 16704.5 547.998   1
  -8  -5   6 2270.80 565.577  -2
  -2  -5  -6 2270.80 565.577   1
  -2  -5  -7 33834.2 785.001   1
  -9  -6   8 5251.92 613.460  -2
  -2  -5  -8 5251.92 613.460   1
   2   5   9 8686.26 1157.69   1
  -2  -6  15 7986.91 1023.25   1
   1   5 -14 3479.88 708.477  -2
  -2  -6  14 3479.88 708.477   1
  -2  -6  13 73853.5 940.212   1
   0  -4  12 2238.56 434.106  -2
   2   6 -12 2238.56 434.106   1
  -2  -6  11 48330.8 782.688   1
   1  -3  10 17249.6 663.955  -2
   2   6 -10 17249.6 663.955   1
   2   6  -9 416.345 201.203   1
   2  -2   8 44672.3 823.802  -2
   2   6  -8 44672.3 823.802   1
  -2  -6   7 41159.5 550.623   1
   3  -1   6 6452.75 382.027  -2
   2   6  -6 6452.75 382.027   1
  -2  -6   5 51624.6 650.420   1
   4   0   4 32137.0 691.407  -2
   2   6  -4 32137.0 691.407   1
   2   6  -3 2426.57 226.176   1
   5   1   2 152990. 1877.17  -2
   2   6  -2 152990. 1877.17   1
   2   6  -1 1626.96 234.107   1
  -6  -2   0 40701.0 896.360  -2
  -2  -6   0 40701.0 896.360   1
  -2  -6  -1 5249.83 347.592   1
   7   3  -2 7469.86 519.726  -2
   2   6   2 7469.86 519.726   1
   2   6   3 13671.7 450.353   1
   8   4  -4 49313.1 1058.36  -2
   2   6   4 49313.1 1058.36   1
   2   6   5 172.262 315.320   1
  -9  -5   6 28393.6 1304.43  -2
  -2  -6  -6 28393.6 1304.43   1
  -2  -6  -7 23472.4 940.370   1
  10   6  -8 196.286 391.209  -2
   2   6   8 196.286 391.209   1
  -2  -7  15 5553.96 993.596   1
   0  -5  14 14949.5 768.857  -2
   2   7 -14 14949.5 768.857   1
   2   7 -13 23765.4 625.288   1
  -1   4 -12 2192.12 329.724  -2
  -2  -7  12 2192.12 329.724   1
  -2  -7  11 73371.8 959.238   1
  -2   3 -10 5627.32 408.921  -2
  -2  -7  10 5627.32 408.921   1
   2   7  -9 20875.2 476.256   1
  -3   2  -8 26955.3 660.388  -2
  -2  -7   8 26955.3 660.388   1
   2   7  -7 165.865 209.810   1
  -4   1  -6 57061.1 1219.40  -2
  -2  -7   6 57061.1 1219.40   1
  -2  -7   5 52647.8 693.287   1
  -5   0  -4 1670.53 335.997  -2
  -2  -7   4 1670.53 335.997   1
   2   7  -3 11129.0 482.017   1
  -6  -1  -2 95668.3 1329.78  -2
  -2  -7   2 95668.3 1329.78   1
  -2  -7   1 172.243 236.047   1
  -7  -2   0 91129.4 1330.38  -2
  -2  -7   0 91129.4 1330.38   1
  -2  -7  -1 94.3863 274.538   1
  -8  -3   2 26586.7 816.366  -2
  -2  -7  -2 26586.7 816.366   1
   2   7   3 10219.3 515.199   1
   9   4  -4 8055.78 700.718  -2
   2   7   4 8055.78 700.718   1
  -2  -7  -5 6457.28 681.799   1
 -10  -5   6 18821.3 1215.91  -2
  -2  -7  -6 18821.3 1215.91   1
  -2  -8  15 33606.6 1802.20   1
  -1   5 -14 19868.4 950.433  -2
  -2  -8  14 19868.4 950.433   1
   2   8 -13 195.572 423.392   1
  -2   4 -12 12809.2 1004.24  -2
  -2  -8  12 12809.2 1004.24   1
  -2  -8  11 28297.5 575.432   1
  -3   3 -10 6150.87 450.251  -2
  -2  -8  10 6150.87 450.251   1
   2   8  -9 95577.8 939.232   1
  -4   2  -8 21237.0 654.664  -2
  -2  -8   8 21237.0 654.664   1
  -2  -8   7 20960.7 553.191   1
   5  -1   6 71645.5 1206.14  -2
   2   8  -6 71645.5 1206.14   1
  -2  -8   5 8241.64 368.322   1
  -6   0  -4 31838.7 834.712  -2
  -2  -8   4 31838.7 834.712   1
   2   8  -3 13319.7 496.128   1
  -7  -1  -2 11090.4 534.242  -2
  -2  -8   2 11090.4 534.242   1
  -2  -8   1 534.458 269.291   1
   8   2   0 89421.7 1375.70  -2
   2   8   0 89421.7 1375.70   1
  -2  -8  -1 287.003 317.038   1
  -9  -3   2 37995.1 1190.68  -2
  -2  -8  -2 37995.1 1190.68   1
   2   8   3 2818.00 436.804   1
 -10  -4   4 2821.14 830.281  -2
  -2  -8  -4 2821.14 830.281   1
  -2  -8  -5 9395.77 813.530   1
  -2   5 -14 14867.4 1199.15  -2
  -2  -9  14 14867.4 1199.15   1
  -2  -9  13 22569.7 1035.65   1
  -3   4 -12 20122.5 1734.42  -2
  -2  -9  12 20122.5 1734.42   1
   2   9 -11 574.739 462.290   1
   4  -3  10 8655.11 589.912  -2
   2   9 -10 8655.11 589.912   1
  -2  -9   9 62762.8 992.862   1
  -5   2  -8 3877.03 525.930  -2
  -2  -9   8 3877.03 525.930   1
  -2  -9   7 60765.0 1162.21   1
  -6   1  -6 48840.8 1172.31  -2
  -2  -9   6 48840.8 1172.31   1
  -2  -9   5 453.560 345.814   1
  -7   0  -4 60069.7 1593.30  -2
  -2  -9   4 60069.7 1593.30   1
  -2  -9   3 5072.78 470.564   1
  -8  -1  -2 10875.3 775.678  -2
  -2  -9   2 10875.3 775.678   1
  -2  -9   1 9235.36 603.774   1
  -9  -2   0 14942.1 1148.34  -2
  -2  -9   0 14942.1 1148.34   1
   2   9   1 1078.57 551.589   1
 -10  -3   2 41711.0 1731.24  -2
  -2  -9  -2 41711.0 1731.24   1
   2   9   3 34.5152 569.067   1
 -11  -4   4 16008.9 1267.14  -2
  -2  -9  -4 16008.9 1267.14   1
  -3   5 -14 3260.65 977.929  -2
  -2 -10  14 3260.65 977.929   1
  -2 -10  13 43161.9 1853.48   1
  -4   4 -12 19131.7 1183.95  -2
  -2 -10  12 19131.7 1183.95   1
  -2 -10  11 27222.5 1116.27   1
  -5   3 -10 24230.7 1942.93  -2
  -2 -10  10 24230.7 1942.93   1
  -2 -10   9 8021.26 540.956   1
  -6   2  -8 2810.32 622.335  -2
  -2 -10   8 2810.32 622.335   1
  -2 -10   7 62781.7 1267.30   1
  -7   1  -6 14877.8 803.302  -2
  -2 -10   6 14877.8 803.302   1
  -2 -10   5 23917.6 771.524   1
  -8   0  -4 40345.6 1411.62  -2
  -2 -10   4 40345.6 1411.62   1
  -2 -10   3 161.112 403.323   1
  -9  -1  -2 32002.4 1506.89  -2
  -2 -10   2 32002.4 1506.89   1
  -2 -10   1 4412.07 656.162   1
  10   2   0 4042.05 868.359  -2
   2  10   0 4042.05 868.359   1
  -2 -10  -1 760.680 591.571   1
 -11  -3   2 28267.7 1513.85  -2
  -2 -10  -2 28267.7 1513.85   1
  -2 -11  13 25285.4 1598.00   1
  -5   4 -12 5395.79 1430.60  -2
  -2 -11  12 5395.79 1430.60   1
  -2 -11  11 59534.8 2318.21   1
  -6   3 -10 22561.0 2003.68  -2
  -2 -11  10 22561.0 2003.68   1
  -2 -11   9 5238.77 1098.76   1
  -7   2  -8 12665.4 1781.87  -2
  -2 -11   8 12665.4 1781.87   1
   2  11  -7 20791.1 1054.13   1
  -8   1  -6 8160.71 746.829  -2
  -2 -11   6 8160.71 746.829   1
   2  11  -5 23612.8 929.727   1
   9   0   4 19110.1 989.163  -2
   2  11  -4 19110.1 989.163   1
   2  11  -3 7093.80 758.490   1
 -10  -1  -2 39314.4 1704.69  -2
  -2 -11   2 39314.4 1704.69   1
   2  11  -1 553.695 618.662   1
  11   2   0 26184.9 1526.21  -2
   2  11   0 26184.9 1526.21   1
  -2 -12  11 37771.0 2018.48   1
  -7   3 -10 10621.0 1754.93  -2
  -2 -12  10 10621.0 1754.93   1
  -2 -12   9 29125.7 1871.95   1
  -8   2  -8 16508.7 2013.11  -2
  -2 -12   8 16508.7 2013.11   1
   2  12  -7 413.643 702.449   1
  -9   1  -6 13905.3 1276.58  -2
  -2 -12   6 13905.3 1276.58   1
   2  12  -5 10532.4 1146.89   1
 -10   0  -4 6985.01 996.482  -2
  -2 -12   4 6985.01 996.482   1
   2  12  -3 14823.3 1007.13   1
   3 -13   1 37383.5 1421.92   1
  12  -4   2 14268.8 1294.54  -2
  -3  13  -2 14268.8 1294.54   1
   3 -13   3 18311.5 1123.10   1
  11  -5   4 18894.2 2031.26  -2
  -3  13  -4 18894.2 2031.26   1
   3 -13   5 4.05456 686.397   1
 -10   6  -6 29252.4 2392.70  -2
   3 -13   6 29252.4 2392.70   1
   3 -13   7 9508.78 1315.34   1
  -9   7  -8 19510.2 1391.45  -2
   3 -13   8 19510.2 1391.45   1
   3 -13   9 2784.65 679.749   1
  -8   8 -10 21538.2 1484.48  -2
   3 -13  10 21538.2 1484.48   1
  -3  12   1 3002.65 706.485   1
  12  -3   0 6687.88 1023.58  -2
  -3  12   0 6687.88 1023.58   1
   3 -12   1 12686.3 927.162   1
 -11   4  -2 24393.1 1476.27  -2
   3 -12   2 24393.1 1476.27   1
  -3  12  -3 51464.4 2264.82   1
  10  -5   4 14483.5 1790.61  -2
  -3  12  -4 14483.5 1790.61   1
   3 -12   5 16239.5 1479.07   1
  -9   6  -6 27646.8 2226.01  -2
   3 -12   6 27646.8 2226.01   1
   3 -12   7 2281.35 984.358   1
  -8   7  -8 66217.2 2173.36  -2
   3 -12   8 66217.2 2173.36   1
   3 -12   9 3103.47 656.697   1
  -7   8 -10 10535.6 1498.56  -2
   3 -12  10 10535.6 1498.56   1
   3 -12  11 760.159 797.171   1
   3 -11  -3 36077.1 1236.98   1
 -12   2   2 12874.0 885.332  -2
   3 -11  -2 12874.0 885.332   1
   3 -11  -1 41092.3 1044.02   1
 -11   3   0 1122.88 596.791  -2
   3 -11   0 1122.88 596.791   1
   3 -11   1 820.959 447.401   1
 -10   4  -2 21717.3 1380.89  -2
   3 -11   2 21717.3 1380.89   1
  -3  11  -3 34914.5 1812.63   1
  -9   5  -4 33820.1 1606.10  -2
   3 -11   4 33820.1 1606.10   1
   3 -11   5 51810.5 2195.00   1
  -8   6  -6 22829.9 2008.00  -2
   3 -11   6 22829.9 2008.00   1
   3 -11   7 1901.03 546.878   1
  -7   7  -8 93268.8 2444.72  -2
   3 -11   8 93268.8 2444.72   1
   3 -11   9 2012.60 805.583   1
  -6   8 -10 36063.9 1200.13  -2
   3 -11  10 36063.9 1200.13   1
   3 -11  11 1629.18 376.897   1
  -5   9 -12 13610.5 1103.00  -2
   3 -11  12 13610.5 1103.00   1
   3 -10  -5 2945.88 697.962   1
 -12   1   4 23106.8 1263.89  -2
   3 -10  -4 23106.8 1263.89   1
   3 -10  -3 11714.8 797.425   1
 -11   2   2 23646.9 1210.73  -2
   3 -10  -2 23646.9 1210.73   1
   3 -10  -1 65261.7 1442.56   1
 -10   3   0 15236.3 869.560  -2
   3 -10   0 15236.3 869.560   1
  -3  10  -1 27931.7 1120.34   1
  -9   4  -2 9071.68 909.058  -2
   3 -10   2 9071.68 909.058   1
   3 -10   3 4877.88 502.937   1
   8  -5   4 49056.7 1367.64  -2
  -3  10  -4 49056.7 1367.64   1
   3 -10   5 46631.2 1248.62   1
  -7   6  -6 31232.6 1293.42  -2
   3 -10   6 31232.6 1293.42   1
   3 -10   7 27389.5 795.756   1
  -6   7  -8 53275.2 1646.32  -2
   3 -10   8 53275.2 1646.32   1
   3 -10   9 572.484 432.441   1
  -5   8 -10 52626.9 1060.93  -2
   3 -10  10 52626.9 1060.93   1
   3 -10  11 887.267 549.319   1
  -4   9 -12 44676.8 1603.98  -2
   3 -10  12 44676.8 1603.98   1
   3 -10  13 883.405 575.546   1
  12   0  -6 6824.64 763.528  -2
  -3   9   6 6824.64 763.528   1
   3  -9  -5 16124.4 542.760   1
  11  -1  -4 20748.3 823.344  -2
  -3   9   4 20748.3 823.344   1
  -3   9   3 918.798 340.671   1
 -10   2   2 17766.1 850.549  -2
   3  -9  -2 17766.1 850.549   1
   3  -9  -1 41799.2 915.803   1
  -9   3   0 23568.4 977.493  -2
   3  -9   0 23568.4 977.493   1
   3  -9   1 74807.6 1078.42   1
   8  -4   2 7391.71 644.685  -2
  -3   9  -2 7391.71 644.685   1
   3  -9   3 33621.7 737.221   1
  -7   5  -4 21663.6 779.897  -2
   3  -9   4 21663.6 779.897   1
   3  -9   5 8999.67 635.993   1
  -6   6  -6 75798.0 1315.52  -2
   3  -9   6 75798.0 1315.52   1
  -3   9  -7 51187.6 989.955   1
  -5   7  -8 21516.9 872.127  -2
   3  -9   8 21516.9 872.127   1
   3  -9   9 14128.8 426.245   1
  -4   8 -10 29363.1 924.179  -2
   3  -9  10 29363.1 924.179   1
  -3   9 -11 150.022 404.351   1
  -3   9 -12 87049.3 1684.49  -2
   3  -9  12 87049.3 1684.49   1
   3  -9  13 230.071 434.975   1
  12   1  -8 37609.4 1508.04  -2
  -3   8   8 37609.4 1508.04   1
   3  -8  -7 2687.20 560.720   1
 -11   0   6 20403.3 802.014  -2
   3  -8  -6 20403.3 802.014   1
   3  -8  -5 21608.1 649.835   1
 -10   1   4 16138.4 730.877  -2
   3  -8  -4 16138.4 730.877   1
  -3   8   3 27793.5 677.068   1
   9  -2  -2 20639.4 688.694  -2
  -3   8   2 20639.4 688.694   1
  -3   8   1 404.091 269.410   1
  -8   3   0 30124.8 1002.36  -2
   3  -8   0 30124.8 1002.36   1
  -3   8  -1 89262.7 1462.62   1
  -7   4  -2 25631.2 906.458  -2
   3  -8   2 25631.2 906.458   1
   3  -8   3 119678. 1221.39   1
  -6   5  -4 7746.01 729.882  -2
   3  -8   4 7746.01 729.882   1
   3  -8   5 16364.1 506.964   1
  -5   6  -6 73360.6 1397.69  -2
   3  -8   6 73360.6 1397.69   1
  -3   8  -7 22698.1 665.425   1
  -4   7  -8 44508.9 1003.45  -2
   3  -8   8 44508.9 1003.45   1
   3  -8   9 15130.7 357.029   1
  -3   8 -10 11934.8 646.632  -2
   3  -8  10 11934.8 646.632   1
   3  -8  11 2299.23 422.624   1
   2  -9  12 78502.7 2043.52  -2
  -3   8 -12 78502.7 2043.52   1
  -3   8 -13 461.960 531.047   1
  -1  10 -14 53082.6 2600.80  -2
   3  -8  14 53082.6 2600.80   1
   3  -7  -9 505.202 532.072   1
 -11  -1   8 38451.1 840.610  -2
   3  -7  -8 38451.1 840.610   1
   3  -7  -7 790.983 280.798   1
 -10   0   6 53998.0 1017.26  -2
   3  -7  -6 53998.0 1017.26   1
  -3   7   5 7300.68 428.416   1
  -9   1   4 7463.64 498.588  -2
   3  -7  -4 7463.64 498.588   1
   3  -7  -3 78916.7 896.021   1
  -8   2   2 5060.93 402.613  -2
   3  -7  -2 5060.93 402.613   1
   3  -7  -1 48765.8 801.008   1
  -7   3   0 15669.9 865.152  -2
   3  -7   0 15669.9 865.152   1
  -3   7  -1 18354.0 689.336   1
   6  -4   2 31761.2 933.525  -2
  -3   7  -2 31761.2 933.525   1
   3  -7   3 125228. 1360.38   1
  -5   5  -4 6552.40 653.153  -2
   3  -7   4 6552.40 653.153   1
  -3   7  -5 83781.9 1118.93   1
   4  -6   6 41620.4 1064.60  -2
  -3   7  -6 41620.4 1064.60   1
  -3   7  -7 1548.19 284.614   1
  -3   7  -8 16951.4 402.808  -2
   3  -7   8 16951.4 402.808   1
   3  -7   9 23876.4 724.638   1
  -2   8 -10 39673.1 1073.61  -2
   3  -7  10 39673.1 1073.61   1
  -3   7 -11 9416.52 703.870   1
   1  -9  12 26219.8 861.977  -2
  -3   7 -12 26219.8 861.977   1
   3  -7  13 2171.67 534.248   1
   0  10 -14 57168.8 2069.35  -2
   3  -7  14 57168.8 2069.35   1
  11   2 -10 13548.7 1889.06  -2
  -3   6  10 13548.7 1889.06   1
   3  -6  -9 250.492 242.661   1
  10   1  -8 6654.67 425.921  -2
  -3   6   8 6654.67 425.921   1
  -3   6   7 7962.67 346.155   1
   9   0  -6 55579.2 1020.69  -2
  -3   6   6 55579.2 1020.69   1
  -3   6   5 171.330 245.154   1
  -8   1   4 42460.5 873.531  -2
   3  -6  -4 42460.5 873.531   1
   3  -6  -3 53433.9 705.337   1
   7  -2  -2 18141.1 555.638  -2
  -3   6   2 18141.1 555.638   1
   3  -6  -1 132287. 1183.60   1
   6  -3   0 4899.50 459.289  -2
  -3   6   0 4899.50 459.289   1
   3  -6   1 26230.4 539.067   1
   5  -4   2 8939.26 528.961  -2
  -3   6  -2 8939.26 528.961   1
   3  -6   3 45353.2 776.784   1
  -4   5  -4 4937.73 556.549  -2
   3  -6   4 4937.73 556.549   1
   3  -6   5 150883. 1408.29   1
  -3   6  -6 5209.13 424.198  -2
   3  -6   6 5209.13 424.198   1
   3  -6   7 42791.6 446.988   1
  -2   7  -8 28245.2 864.127  -2
   3  -6   8 28245.2 864.127   1
   3  -6   9 163.548 312.632   1
   1  -8  10 110719. 2215.17  -2
  -3   6 -10 110719. 2215.17   1
   3  -6  11 13273.3 526.832   1
   0   9 -12 5457.89 462.728  -2
   3  -6  12 5457.89 462.728   1
   3  -6  13 6107.31 845.588   1
   1  10 -14 28195.8 1532.63  -2
   3  -6  14 28195.8 1532.63   1
  -3   5  11 1979.51 1007.31   1
  10   2 -10 43865.4 892.096  -2
  -3   5  10 43865.4 892.096   1
  -3   5   9 337.543 214.021   1
   9   1  -8 21807.6 536.971  -2
  -3   5   8 21807.6 536.971   1
  -3   5   7 7137.37 286.252   1
   8   0  -6 18650.8 496.674  -2
  -3   5   6 18650.8 496.674   1
  -3   5   5 12106.8 394.335   1
  -7   1   4 66176.5 318.999  -2
   3  -5  -4 66176.5 318.999   1
  -3   5   3 12713.0 389.435   1
  -6   2   2 51119.0 800.984  -2
   3  -5  -2 51119.0 800.984   1
  -3   5   1 112711. 1164.72   1
   5  -3   0 430.860 302.717  -2
  -3   5   0 430.860 302.717   1
   3  -5   1 159916. 1163.65   1
  -4   4  -2 34513.5 647.312  -2
   3  -5   2 34513.5 647.312   1
   3  -5   3 2013.53 329.611   1
  -3   5  -4 252.692 165.626  -2
   3  -5   4 252.692 165.626   1
   3  -5   5 95574.5 1108.19   1
   2  -6   6 5249.35 441.128  -2
  -3   5  -6 5249.35 441.128   1
  -3   5  -7 93111.8 1127.87   1
   1  -7   8 3039.37 517.087  -2
  -3   5  -8 3039.37 517.087   1
   3  -5   9 26462.7 641.706   1
   0   8 -10 96746.7 1371.01  -2
   3  -5  10 96746.7 1371.01   1
   3  -5  11 4503.35 333.055   1
  -1  -9  12 21632.8 806.079  -2
  -3   5 -12 21632.8 806.079   1
   3  -5  13 5606.51 826.403   1
   2  10 -14 3516.25 950.333  -2
   3  -5  14 3516.25 950.333   1
  10   3 -12 5183.06 1517.87  -2
  -3   4  12 5183.06 1517.87   1
  -3   4  11 4178.57 1008.40   1
   9   2 -10 49115.4 2806.28  -2
  -3   4  10 49115.4 2806.28   1
  -3   4   9 247.135 172.399   1
  -8  -1   8 92512.8 931.515  -2
   3  -4  -8 92512.8 931.515   1
   3  -4  -7 1307.71 183.075   1
   7   0  -6 19709.2 453.326  -2
  -3   4   6 19709.2 453.326   1
   3  -4  -5 20488.1 346.331   1
   6  -1  -4 44162.9 231.982  -2
  -3   4   4 44162.9 231.982   1
   3  -4  -3 6097.15 262.654   1
   5  -2  -2 132726. 1532.15  -2
  -3   4   2 132726. 1532.15   1
  -3   4   1 30578.2 576.405   1
  -4   3   0 5816.01 284.494  -2
   3  -4   0 5816.01 284.494   1
  -3   4  -1 171659. 967.463   1
  -3   4  -2 7548.12 529.085  -2
   3  -4   2 7548.12 529.085   1
   3  -4   3 195546. 2460.65   1
   2  -5   4 5098.97 396.541  -2
  -3   4  -4 5098.97 396.541   1
   3  -4   5 826.115 208.103   1
   1  -6   6 11132.1 533.038  -2
  -3   4  -6 11132.1 533.038   1
  -3   4  -7 75392.1 926.358   1
   0   7  -8 12958.8 524.349  -2
   3  -4   8 12958.8 524.349   1
   3  -4   9 75307.2 931.424   1
   1   8 -10 33531.6 768.180  -2
   3  -4  10 33531.6 768.180   1
   3  -4  11 4224.17 261.976   1
   2   9 -12 46554.7 1731.34  -2
   3  -4  12 46554.7 1731.34   1
   3  -4  13 2245.35 728.001   1
   9   3 -12 39260.1 2613.07  -2
  -3   3  12 39260.1 2613.07   1
  -3   3  11 14024.6 1339.18   1
   8   2 -10 9664.30 744.314  -2
  -3   3  10 9664.30 744.314   1
   3  -3  -9 736.090 162.124   1
   7   1  -8 93073.8 960.432  -2
  -3   3   8 93073.8 960.432   1
  -3   3   7 30.2439 152.940   1
  -6   0   6 117373. 567.559  -2
   3  -3  -6 117373. 567.559   1
   3  -3  -5 12526.4 365.096   1
  -5   1   4 19174.6 216.504  -2
   3  -3  -4 19174.6 216.504   1
   3  -3  -3 104708. 987.876   1
   4  -2  -2 142274. 1011.14  -2
  -3   3   2 142274. 1011.14   1
  -3   3   1 7066.22 230.899   1
   3  -3   0 124425. 479.798  -2
  -3   3   0 124425. 479.798   1
  -3   3  -1 69641.4 722.423   1
   2  -4   2 34320.3 1130.38  -2
  -3   3  -2 34320.3 1130.38   1
   3  -3   3 290328. 1375.54   1
  -1   5  -4 1338.25 233.029  -2
   3  -3   4 1338.25 233.029   1
   3  -3   5 79645.5 787.169   1
   0  -6   6 28845.2 664.232  -2
  -3   3  -6 28845.2 664.232   1
  -3   3  -7 10506.5 373.748   1
  -1  -7   8 22603.1 574.327  -2
  -3   3  -8 22603.1 574.327   1
  -3   3  -9 82244.5 771.819   1
   2   8 -10 5612.14 422.947  -2
   3  -3  10 5612.14 422.947   1
   3  -3  11 22046.1 1053.24   1
   3   9 -12 29869.9 1507.95  -2
   3  -3  12 29869.9 1507.95   1
   3  -3  13 344.801 663.872   1
  -3   2  13 350.966 900.991   1
   8   3 -12 78949.0 3447.37  -2
  -3   2  12 78949.0 3447.37   1
  -3   2  11 15804.9 679.750   1
   7   2 -10 14625.4 720.860  -2
  -3   2  10 14625.4 720.860   1
  -3   2   9 7114.94 205.516   1
   6   1  -8 39286.3 605.532  -2
  -3   2   8 39286.3 605.532   1
   3  -2  -7 497.434 150.911   1
   5   0  -6 183295. 1172.46  -2
  -3   2   6 183295. 1172.46   1
  -3   2   5 6438.61 262.682   1
   4  -1  -4 142401. 318.059  -2
  -3   2   4 142401. 318.059   1
   3  -2  -3 75076.0 770.306   1
   3  -2  -2 17100.4 232.364  -2
  -3   2   2 17100.4 232.364   1
   3  -2  -1 96859.9 575.957   1
   2  -3   0 79933.4 958.419  -2
  -3   2   0 79933.4 958.419   1
  -3   2  -1 1393.90 203.357   1
   1  -4   2 126893. 929.370  -2
  -3   2  -2 126893. 929.370   1
  -3   2  -3 148585. 974.486   1
   0  -5   4 6876.55 333.828  -2
  -3   2  -4 6876.55 333.828   1
   3  -2   5 132715. 1088.83   1
  -1  -6   6 9148.64 262.566  -2
  -3   2  -6 9148.64 262.566   1
   3  -2   7 16611.5 270.817   1
   2   7  -8 33162.9 602.926  -2
   3  -2   8 33162.9 602.926   1
  -3   2  -9 27092.6 380.870   1
   3   8 -10 9097.08 965.628  -2
   3  -2  10 9097.08 965.628   1
   3  -2  11 34284.4 1297.40   1
   4   9 -12 1095.25 853.484  -2
   3  -2  12 1095.25 853.484   1
   3  -2  13 5320.31 823.975   1
  -3   1  13 13465.1 1319.31   1
   7   3 -12 50406.1 1416.77  -2
  -3   1  12 50406.1 1416.77   1
  -3   1  11 1136.55 395.032   1
   6   2 -10 107387. 1629.86  -2
  -3   1  10 107387. 1629.86   1
  -3   1   9 365.729 140.847   1
  -5  -1   8 23306.0 456.501  -2
   3  -1  -8 23306.0 456.501   1
  -3   1   7 639.103 144.941   1
  -4   0   6 104557. 962.970  -2
   3  -1  -6 104557. 962.970   1
  -3   1   5 2161.35 134.513   1
   3  -1  -4 619835. 420.527  -2
  -3   1   4 619835. 420.527   1
  -3   1   3 10301.7 204.217   1
  -2   2   2 175898. 428.621  -2
   3  -1  -2 175898. 428.621   1
  -3   1   1 132099. 899.584   1
  -1   3   0 17296.4 408.446  -2
   3  -1   0 17296.4 408.446   1
  -3   1  -1 42878.6 471.750   1
   0  -4   2 146818. 964.895  -2
  -3   1  -2 146818. 964.895   1
  -3   1  -3 38438.7 420.476   1
   1   5  -4 63548.1 954.531  -2
   3  -1   4 63548.1 954.531   1
   3  -1   5 162537. 1570.98   1
   2   6  -6 3388.93 320.985  -2
   3  -1   6 3388.93 320.985   1
   3  -1   7 99881.4 768.210   1
   3   7  -8 23918.9 451.681  -2
   3  -1   8 23918.9 451.681   1
   3  -1   9 863.791 414.229   1
   4   8 -10 33978.3 1510.95  -2
   3  -1  10 33978.3 1510.95   1
   3  -1  11 14228.5 960.106   1
   5   9 -12 8974.32 1096.64  -2
   3  -1  12 8974.32 1096.64   1
   7   4 -14 15706.6 1758.40  -2
  -3   0  14 15706.6 1758.40   1
  -3   0  13 33883.0 1697.64   1
   6   3 -12 11996.8 819.786  -2
  -3   0  12 11996.8 819.786   1
  -3   0  11 15527.0 665.763   1
   5   2 -10 141418. 842.058  -2
  -3   0  10 141418. 842.058   1
  -3   0   9 3920.34 180.188   1
  -4  -1   8 179228. 673.657  -2
   3   0  -8 179228. 673.657   1
  -3   0   7 1807.97 164.191   1
   3   0  -6 2261.23 69.8945  -2
  -3   0   6 2261.23 69.8945   1
  -3   0   5 409.405 150.480   1
  -2   1   4 371408. 1103.87  -2
   3   0  -4 371408. 1103.87   1
   3   0  -3 648.821 95.2294   1
   1  -2  -2 426198. 1110.28  -2
  -3   0   2 426198. 1110.28   1
  -3   0   1 48654.2 467.493   1
   0   3   0 64915.0 851.495  -2
   3   0   0 64915.0 851.495   1
   3   0   1 206503. 1139.17   1
  -1  -4   2 87418.4 961.664  -2
  -3   0  -2 87418.4 961.664   1
  -3   0  -3 24519.6 449.378   1
  -2  -5   4 75977.6 969.565  -2
  -3   0  -4 75977.6 969.565   1
  -3   0  -5 25459.5 439.858   1
   3   6  -6 27612.9 572.437  -2
   3   0   6 27612.9 572.437   1
  -3   0  -7 113747. 727.032   1
   4   7  -8 1391.63 183.906  -2
   3   0   8 1391.63 183.906   1
  -3   0  -9 16697.0 748.926   1
   5   8 -10 31216.9 1486.74  -2
   3   0  10 31216.9 1486.74   1
   3   0  11 623.750 637.690   1
   6   9 -12 31244.3 1611.02  -2
   3   0  12 31244.3 1611.02   1
   6   4 -14 37577.4 1474.59  -2
  -3  -1  14 37577.4 1474.59   1
  -3  -1  13 27761.8 931.527   1
   5   3 -12 5003.85 650.390  -2
  -3  -1  12 5003.85 650.390   1
  -3  -1  11 24547.6 334.470   1
   4   2 -10 55897.7 744.763  -2
  -3  -1  10 55897.7 744.763   1
  -3  -1   9 1724.78 169.675   1
   3   1  -8 292063. 1599.70  -2
  -3  -1   8 292063. 1599.70   1
  -3  -1   7 2286.09 184.803   1
   2   0  -6 94667.6 1007.71  -2
  -3  -1   6 94667.6 1007.71   1
  -3  -1   5 1505.07 132.782   1
   1  -1  -4 59688.0 515.982  -2
  -3  -1   4 59688.0 515.982   1
  -3  -1   3 1370.17 165.747   1
   0  -2  -2 140579. 1102.80  -2
  -3  -1   2 140579. 1102.80   1
  -3  -1   1 1472.60 168.711   1
  -1  -3   0 329259. 2442.98  -2
  -3  -1   0 329259. 2442.98   1
  -3  -1  -1 115376. 984.235   1
  -2  -4   2 3722.92 327.060  -2
  -3  -1  -2 3722.92 327.060   1
   3   1   3 100205. 1060.65   1
  -3  -5   4 31573.7 668.500  -2
  -3  -1  -4 31573.7 668.500   1
   3   1   5 16629.5 352.643   1
  -4  -6   6 42782.6 653.762  -2
  -3  -1  -6 42782.6 653.762   1
   3   1   7 28736.7 469.296   1
  -5  -7   8 16392.8 363.907  -2
  -3  -1  -8 16392.8 363.907   1
   3   1   9 61827.6 1642.05   1
   6   8 -10 9259.27 1072.53  -2
   3   1  10 9259.27 1072.53   1
   3   1  11 13328.1 1005.32   1
  -3  -2  15 10128.8 1090.85   1
   5   4 -14 25693.6 937.658  -2
  -3  -2  14 25693.6 937.658   1
  -3  -2  13 2531.66 376.890   1
   4   3 -12 23284.3 409.775  -2
  -3  -2  12 23284.3 409.775   1
  -3  -2  11 32314.1 446.940   1
   3   2 -10 286.288 119.687  -2
  -3  -2  10 286.288 119.687   1
  -3  -2   9 30721.0 413.123   1
   2   1  -8 156471. 1319.64  -2
  -3  -2   8 156471. 1319.64   1
   3   2  -7 49.6997 147.603   1
   1   0  -6 189206. 921.587  -2
  -3  -2   6 189206. 921.587   1
  -3  -2   5 188.283 204.813   1
   0  -1  -4 7633.83 191.726  -2
  -3  -2   4 7633.83 191.726   1
  -3  -2   3 19901.7 422.493   1
   1   2   2 81541.9 861.554  -2
   3   2  -2 81541.9 861.554   1
   3   2  -1 50023.9 640.612   1
  -2  -3   0 273315. 2074.73  -2
  -3  -2   0 273315. 2074.73   1
   3   2   1 15691.5 387.891   1
  -3  -4   2 90429.1 1247.68  -2
  -3  -2  -2 90429.1 1247.68   1
  -3  -2  -3 77767.4 872.731   1
  -4  -5   4 5661.33 364.277  -2
  -3  -2  -4 5661.33 364.277   1
   3   2   5 78036.7 798.380   1
   5   6  -6 34895.0 752.308  -2
   3   2   6 34895.0 752.308   1
   3   2   7 390.935 221.215   1
   6   7  -8 21882.9 635.187  -2
   3   2   8 21882.9 635.187   1
   3   2   9 29009.0 1231.19   1
   7   8 -10 1039.98 880.902  -2
   3   2  10 1039.98 880.902   1
  -3  -3  15 41662.4 1713.33   1
   4   4 -14 8345.95 642.867  -2
  -3  -3  14 8345.95 642.867   1
  -3  -3  13 9688.72 482.815   1
   3   3 -12 37542.0 649.331  -2
  -3  -3  12 37542.0 649.331   1
  -3  -3  11 15217.4 371.517   1
   2   2 -10 25596.1 591.529  -2
  -3  -3  10 25596.1 591.529   1
  -3  -3   9 63803.6 672.143   1
  -1  -1   8 14316.3 456.160  -2
   3   3  -8 14316.3 456.160   1
  -3  -3   7 12820.8 295.302   1
   0   0   6 261554. 1879.70  -2
   3   3  -6 261554. 1879.70   1
  -3  -3   5 313.123 301.537   1
  -1  -1  -4 214551. 3669.55  -2
  -3  -3   4 214551. 3669.55   1
   3   3  -3 3210.79 180.530   1
  -2  -2  -2 5513.18 286.770  -2
  -3  -3   2 5513.18 286.770   1
  -3  -3   1 57156.1 598.547   1
  -3  -3   0 117231. 1100.58  -2
  -3  -3   0 117231. 1100.58   1
   3   3   1 7843.03 315.656   1
   4   4  -2 129781. 1437.93  -2
   3   3   2 129781. 1437.93   1
   3   3   3 48102.4 784.974   1
  -5  -5   4 16347.3 570.724  -2
  -3  -3  -4 16347.3 570.724   1
  -3  -3  -5 84516.3 1033.34   1
   6   6  -6 12167.7 584.034  -2
   3   3   6 12167.7 584.034   1
   3   3   7 17660.7 474.058   1
   7   7  -8 23462.6 608.459  -2
   3   3   8 23462.6 608.459   1
   3   3   9 1374.08 690.470   1
   8   8 -10 11551.1 1318.74  -2
   3   3  10 11551.1 1318.74   1
  -3  -4  15 40987.6 1567.08   1
   3   4 -14 756.524 459.775  -2
  -3  -4  14 756.524 459.775   1
  -3  -4  13 60556.3 772.554   1
   2   3 -12 23469.9 605.746  -2
  -3  -4  12 23469.9 605.746   1
  -3  -4  11 5855.41 295.911   1
  -1  -2  10 56509.6 985.538  -2
   3   4 -10 56509.6 985.538   1
   3   4  -9 22536.4 441.082   1
   0  -1   8 12436.1 474.156  -2
   3   4  -8 12436.1 474.156   1
   3   4  -7 20197.9 223.161   1
   1   0   6 54793.3 1073.77  -2
   3   4  -6 54793.3 1073.77   1
  -3  -4   5 177.949 455.101   1
   2   1   4 263568. 1351.85  -2
   3   4  -4 263568. 1351.85   1
  -3  -4   3 900.006 160.320   1
  -3  -2  -2 134639. 1298.33  -2
  -3  -4   2 134639. 1298.33   1
  -3  -4   1 16757.1 414.106   1
   4   3   0 6144.56 372.222  -2
   3   4   0 6144.56 372.222   1
   3   4   1 15602.5 396.844   1
  -5  -4   2 80355.0 1027.37  -2
  -3  -4  -2 80355.0 1027.37   1
   3   4   3 548.647 262.191   1
  -6  -5   4 43588.5 1279.84  -2
  -3  -4  -4 43588.5 1279.84   1
   3   4   5 40308.0 811.296   1
   7   6  -6 1344.03 407.934  -2
   3   4   6 1344.03 407.934   1
  -3  -4  -7 40269.8 833.392   1
   8   7  -8 10153.7 517.295  -2
   3   4   8 10153.7 517.295   1
   3   4   9 14175.0 998.780   1
  -3  -5  15 10317.8 1011.45   1
   2   4 -14 1375.45 579.734  -2
  -3  -5  14 1375.45 579.734   1
  -3  -5  13 83844.2 1077.50   1
   1   3 -12 1087.22 373.442  -2
  -3  -5  12 1087.22 373.442   1
   3   5 -11 36936.6 731.637   1
   0  -2  10 41142.7 999.843  -2
   3   5 -10 41142.7 999.843   1
  -3  -5   9 173.847 182.134   1
   1  -1   8 62705.9 585.188  -2
   3   5  -8 62705.9 585.188   1
   3   5  -7 18628.4 313.372   1
  -2   0  -6 5175.95 304.381  -2
  -3  -5   6 5175.95 304.381   1
   3   5  -5 6754.44 251.112   1
  -3  -1  -4 76467.5 891.405  -2
  -3  -5   4 76467.5 891.405   1
  -3  -5   3 1028.70 185.115   1
  -4  -2  -2 129021. 1379.75  -2
  -3  -5   2 129021. 1379.75   1
   3   5  -1 19071.2 464.511   1
  -5  -3   0 29439.9 757.692  -2
  -3  -5   0 29439.9 757.692   1
  -3  -5  -1 22340.8 493.763   1
   6   4  -2 19200.7 645.781  -2
   3   5   2 19200.7 645.781   1
   3   5   3 27738.6 581.671   1
  -7  -5   4 38813.3 967.698  -2
  -3  -5  -4 38813.3 967.698   1
  -3  -5  -5 755.699 309.887   1
   8   6  -6 7704.44 635.904  -2
   3   5   6 7704.44 635.904   1
   3   5   7 31600.2 819.216   1
   9   7  -8 1891.45 1432.57  -2
   3   5   8 1891.45 1432.57   1
  -3  -6  15 2801.27 816.931   1
   1   4 -14 3387.89 667.827  -2
  -3  -6  14 3387.89 667.827   1
  -3  -6  13 35744.6 768.072   1
   0  -3  12 3586.02 335.394  -2
   3   6 -12 3586.02 335.394   1
  -3  -6  11 63247.1 818.336   1
   1  -2  10 8493.48 338.840  -2
   3   6 -10 8493.48 338.840   1
   3   6  -9 17229.3 289.772   1
   2  -1   8 66815.5 908.637  -2
   3   6  -8 66815.5 908.637   1
  -3  -6   7 4678.22 254.223   1
   3   0   6 72194.4 1176.00  -2
   3   6  -6 72194.4 1176.00   1
   3   6  -5 13563.0 359.669   1
  -4  -1  -4 1278.05 280.078  -2
  -3  -6   4 1278.05 280.078   1
  -3  -6   3 449.172 217.731   1
   5   2   2 102605. 1605.66  -2
   3   6  -2 102605. 1605.66   1
   3   6  -1 260.814 271.715   1
   6   3   0 92843.0 1342.70  -2
   3   6   0 92843.0 1342.70   1
  -3  -6  -1 6458.62 386.924   1
   7   4  -2 6504.61 528.259  -2
   3   6   2 6504.61 528.259   1
   3   6   3 34818.7 725.089   1
  -8  -5   4 10500.2 692.204  -2
  -3  -6  -4 10500.2 692.204   1
   3   6   5 12908.0 567.132   1
  -9  -6   6 13024.3 723.520  -2
  -3  -6  -6 13024.3 723.520   1
   3   6   7 2848.31 518.891   1
  -3  -7  15 33292.1 1671.50   1
   0  -4  14 10880.2 774.082  -2
   3   7 -14 10880.2 774.082   1
  -3  -7  13 633.327 413.789   1
   1  -3  12 8464.36 584.426  -2
   3   7 -12 8464.36 584.426   1
   3   7 -11 40854.2 654.598   1
   2  -2  10 1818.26 310.776  -2
   3   7 -10 1818.26 310.776   1
   3   7  -9 41275.3 590.568   1
   3  -1   8 17887.5 574.831  -2
   3   7  -8 17887.5 574.831   1
  -3  -7   7 13852.9 426.328   1
   4   0   6 95987.7 1316.13  -2
   3   7  -6 95987.7 1316.13   1
  -3  -7   5 2769.85 268.826   1
  -5  -1  -4 44912.4 909.387  -2
  -3  -7   4 44912.4 909.387   1
  -3  -7   3 533.844 296.859   1
   6   2   2 10960.1 620.637  -2
   3   7  -2 10960.1 620.637   1
   3   7  -1 1617.12 308.941   1
  -7  -3   0 60890.5 1147.73  -2
  -3  -7   0 60890.5 1147.73   1
  -3  -7  -1 736.755 309.906   1
   8   4  -2 36602.9 1247.92  -2
   3   7   2 36602.9 1247.92   1
   3   7   3 16712.6 670.661   1
   9   5  -4 860.400 550.941  -2
   3   7   4 860.400 550.941   1
  -3  -7  -5 20976.6 1006.87   1
 -10  -6   6 3649.26 846.725  -2
  -3  -7  -6 3649.26 846.725   1
  -3  -8  15 57074.9 2190.77   1
  -1   4 -14 5556.23 945.736  -2
  -3  -8  14 5556.23 945.736   1
  -3  -8  13 25361.4 1419.29   1
  -2   3 -12 17531.2 1612.98  -2
  -3  -8  12 17531.2 1612.98   1
   3   8 -11 2340.39 431.743   1
   3  -2  10 18769.4 620.939  -2
   3   8 -10 18769.4 620.939   1
   3   8  -9 71388.5 842.350   1
  -4   1  -8 2738.47 397.690  -2
  -3  -8   8 2738.47 397.690   1
  -3  -8   7 36467.8 767.706   1
  -5   0  -6 72994.3 1196.80  -2
  -3  -8   6 72994.3 1196.80   1
   3   8  -5 437.803 268.353   1
   6   1   4 89487.1 1574.59  -2
   3   8  -4 89487.1 1574.59   1
   3   8  -3 1054.24 348.312   1
  -7  -2  -2 14522.4 645.762  -2
  -3  -8   2 14522.4 645.762   1
   3   8  -1 204.842 323.144   1
   8   3   0 32241.5 1008.11  -2
   3   8   0 32241.5 1008.11   1
  -3  -8  -1 905.984 520.585   1
  -9  -4   2 33084.3 1566.90  -2
  -3  -8  -2 33084.3 1566.90   1
   3   8   3 2817.34 633.962   1
 -10  -5   4 10333.7 1092.95  -2
  -3  -8  -4 10333.7 1092.95   1
  -2   4 -14 1235.07 837.743  -2
  -3  -9  14 1235.07 837.743   1
  -3  -9  13 50035.9 1988.16   1
  -3   3 -12 15578.7 1594.69  -2
  -3  -9  12 15578.7 1594.69   1
   3   9 -11 12375.1 847.159   1
   4  -2  10 29339.7 1512.43  -2
   3   9 -10 29339.7 1512.43   1
  -3  -9   9 10983.4 475.544   1
  -5   1  -8 16490.0 850.557  -2
  -3  -9   8 16490.0 850.557   1
  -3  -9   7 37103.3 950.884   1
  -6   0  -6 8106.72 626.302  -2
  -3  -9   6 8106.72 626.302   1
  -3  -9   5 9690.18 544.750   1
  -7  -1  -4 50615.8 1464.94  -2
  -3  -9   4 50615.8 1464.94   1
  -3  -9   3 59.6760 380.321   1
   8   2   2 44414.0 1335.31  -2
   3   9  -2 44414.0 1335.31   1
  -3  -9   1 434.540 423.281   1
  -9  -3   0 5787.55 906.093  -2
  -3  -9   0 5787.55 906.093   1
  -3  -9  -1 4449.90 682.211   1
 -10  -4   2 17755.3 1269.65  -2
  -3  -9  -2 17755.3 1269.65   1
   3   9   3 747.368 613.607   1
  -3 -10  13 40913.4 1910.07   1
  -4   3 -12 3272.57 1355.18  -2
  -3 -10  12 3272.57 1355.18   1
  -3 -10  11 47277.2 2058.65   1
  -5   2 -10 18507.2 1886.83  -2
  -3 -10  10 18507.2 1886.83   1
  -3 -10   9 3167.17 947.771   1
  -6   1  -8 27776.5 2251.74  -2
  -3 -10   8 27776.5 2251.74   1
  -3 -10   7 10427.3 542.760   1
  -7   0  -6 6357.31 656.849  -2
  -3 -10   6 6357.31 656.849   1
   3  10  -5 18418.3 828.269   1
  -8  -1  -4 18961.3 918.099  -2
  -3 -10   4 18961.3 918.099   1
  -3 -10   3 2309.08 485.354   1
  -9  -2  -2 56100.5 1868.24  -2
  -3 -10   2 56100.5 1868.24   1
  -3 -10   1 555.244 586.632   1
 -10  -3   0 25487.5 1484.85  -2
  -3 -10   0 25487.5 1484.85   1
  -3 -10  -1 2765.41 681.625   1
  -5   3 -12 106.033 1350.06  -2
  -3 -11  12 106.033 1350.06   1
  -3 -11  11 41167.7 2055.66   1
  -6   2 -10 5739.20 1534.45  -2
  -3 -11  10 5739.20 1534.45   1
  -3 -11   9 24157.4 1650.98   1
  -7   1  -8 25285.5 2222.31  -2
  -3 -11   8 25285.5 2222.31   1
   3  11  -7 441.525 606.504   1
   8   0   6 30126.6 1559.78  -2
   3  11  -6 30126.6 1559.78   1
   3  11  -5 7557.00 960.809   1
  -9  -1  -4 4731.96 873.192  -2
  -3 -11   4 4731.96 873.192   1
   3  11  -3 5006.35 731.576   1
 -10  -2  -2 24767.1 1409.90  -2
  -3 -11   2 24767.1 1409.90   1
  -3 -11   1 317.446 593.939   1
  -7   2 -10 1671.71 1456.86  -2
  -3 -12  10 1671.71 1456.86   1
  -3 -12   9 38936.0 2120.51   1
  -8   1  -8 13751.9 1966.96  -2
  -3 -12   8 13751.9 1966.96   1
   3  12  -7 12493.1 1023.04   1
   9   0   6 34179.7 2122.58  -2
   3  12  -6 34179.7 2122.58   1
  -3 -12   5 806.976 601.830   1
   4 -13   1 12995.8 995.804   1
 -12   5  -2 18796.5 1422.85  -2
   4 -13   2 18796.5 1422.85   1
  -4  13  -3 17025.2 1115.49   1
  11  -6   4 13162.1 1848.58  -2
  -4  13  -4 13162.1 1848.58   1
   4 -13   5 3959.84 1092.12   1
 -10   7  -6 38263.7 1797.19  -2
   4 -13   6 38263.7 1797.19   1
   4 -13   7 496.937 610.712   1
  -9   8  -8 25391.2 1547.49  -2
   4 -13   8 25391.2 1547.49   1
   4 -13   9 473.916 638.024   1
 -13   3   2 12355.2 1745.68  -2
   4 -12  -2 12355.2 1745.68   1
  -4  12   1 23153.9 861.466   1
 -12   4   0 7658.08 828.287  -2
   4 -12   0 7658.08 828.287   1
   4 -12   1 65.6073 458.969   1
 -11   5  -2 23875.6 1510.27  -2
   4 -12   2 23875.6 1510.27   1
  -4  12  -3 22164.3 1647.50   1
  10  -6   4 29804.3 1622.93  -2
  -4  12  -4 29804.3 1622.93   1
   4 -12   5 13861.9 1453.19   1
  -9   7  -6 22847.8 1388.47  -2
   4 -12   6 22847.8 1388.47   1
   4 -12   7 2550.74 639.968   1
  -8   8  -8 53229.3 1974.95  -2
   4 -12   8 53229.3 1974.95   1
   4 -12   9 861.718 592.926   1
  -7   9 -10 34134.4 1576.63  -2
   4 -12  10 34134.4 1576.63   1
   4 -12  11 1421.40 846.754   1
 -13   2   4 6708.17 1458.15  -2
   4 -11  -4 6708.17 1458.15   1
   4 -11  -3 12805.2 1306.35   1
 -12   3   2 22851.9 1238.58  -2
   4 -11  -2 22851.9 1238.58   1
   4 -11  -1 56365.5 1399.20   1
 -11   4   0 13885.4 903.749  -2
   4 -11   0 13885.4 903.749   1
   4 -11   1 24594.9 1143.80   1
  10  -5   2 13214.1 1653.47  -2
  -4  11  -2 13214.1 1653.47   1
  -4  11  -3 2305.75 936.421   1
  -9   6  -4 61865.4 3022.87  -2
   4 -11   4 61865.4 3022.87   1
   4 -11   5 23509.0 993.835   1
  -8   7  -6 21586.9 1244.30  -2
   4 -11   6 21586.9 1244.30   1
   4 -11   7 6476.22 692.637   1
  -7   8  -8 42057.3 1682.66  -2
   4 -11   8 42057.3 1682.66   1
   4 -11   9 47.4561 532.309   1
  -6   9 -10 72100.9 1362.18  -2
   4 -11  10 72100.9 1362.18   1
   4 -11  11 305.257 763.513   1
  -5  10 -12 29884.0 1433.51  -2
   4 -11  12 29884.0 1433.51   1
   4 -10  -5 22782.3 1120.88   1
 -12   2   4 1826.95 613.120  -2
   4 -10  -4 1826.95 613.120   1
   4 -10  -3 230.969 402.968   1
 -11   3   2 14454.7 1007.97  -2
   4 -10  -2 14454.7 1007.97   1
   4 -10  -1 44617.9 1198.58   1
 -10   4   0 38400.9 2356.76  -2
   4 -10   0 38400.9 2356.76   1
   4 -10   1 67782.4 2309.22   1
   9  -5   2 10930.0 1452.60  -2
  -4  10  -2 10930.0 1452.60   1
   4 -10   3 15245.8 689.929   1
  -8   6  -4 53196.6 1712.28  -2
   4 -10   4 53196.6 1712.28   1
   4 -10   5 5024.04 479.380   1
  -7   7  -6 49922.2 1331.71  -2
   4 -10   6 49922.2 1331.71   1
   4 -10   7 19538.8 912.161   1
  -6   8  -8 32296.5 1417.07  -2
   4 -10   8 32296.5 1417.07   1
   4 -10   9 3470.08 862.314   1
  -4  10 -10 36820.5 757.302   1
  -5   9 -10 43282.5 2159.75  -2
   4 -10  10 43282.5 2159.75   1
   4 -10  11 267.835 551.809   1
  -4  10 -12 57128.3 1801.73  -2
   4 -10  12 57128.3 1801.73   1
  -4   9   7 4205.50 712.100   1
  12  -1  -6 18096.2 1948.25  -2
  -4   9   6 18096.2 1948.25   1
   4  -9  -5 31907.4 788.873   1
 -11   2   4 7910.41 612.734  -2
   4  -9  -4 7910.41 612.734   1
   4  -9  -3 26322.8 680.786   1
 -10   3   2 2837.68 468.570  -2
   4  -9  -2 2837.68 468.570   1
  -4   9   1 10845.2 481.795   1
   9  -4   0 26603.4 1023.12  -2
  -4   9   0 26603.4 1023.12   1
   4  -9   1 58741.1 1287.42   1
   8  -5   2 38587.9 1352.05  -2
  -4   9  -2 38587.9 1352.05   1
   4  -9   3 65844.4 1057.00   1
  -7   6  -4 23994.5 941.435  -2
   4  -9   4 23994.5 941.435   1
   4  -9   5 2572.27 347.640   1
  -6   7  -6 77060.1 1360.55  -2
   4  -9   6 77060.1 1360.55   1
   4  -9   7 17736.3 579.477   1
  -5   8  -8 77592.5 1501.96  -2
   4  -9   8 77592.5 1501.96   1
   4  -9   9 5921.95 327.699   1
  -4   9 -10 16848.8 885.505  -2
   4  -9  10 16848.8 885.505   1
   4  -9  11 291.665 420.354   1
   3 -10  12 78550.8 2131.68  -2
  -4   9 -12 78550.8 2131.68   1
   4  -9  13 156.704 938.367   1
 -12   0   8 21887.6 1296.70  -2
   4  -8  -8 21887.6 1296.70   1
  -4   8   7 84.1079 539.042   1
  11  -1  -6 23693.5 750.419  -2
  -4   8   6 23693.5 750.419   1
  -4   8   5 20829.0 612.397   1
 -10   2   4 14076.2 689.541  -2
   4  -8  -4 14076.2 689.541   1
   4  -8  -3 79865.8 1033.32   1
   9  -3  -2 13449.4 574.300  -2
  -4   8   2 13449.4 574.300   1
  -4   8   1 57673.2 934.928   1
  -8   4   0 10245.1 602.234  -2
   4  -8   0 10245.1 602.234   1
  -4   8  -1 13601.6 681.772   1
   7  -5   2 65617.1 1394.16  -2
  -4   8  -2 65617.1 1394.16   1
  -4   8  -3 93242.4 1081.38   1
  -6   6  -4 15048.5 748.110  -2
   4  -8   4 15048.5 748.110   1
   4  -8   5 46232.1 805.985   1
   5  -7   6 53682.9 1098.07  -2
  -4   8  -6 53682.9 1098.07   1
   4  -8   7 179.427 318.575   1
  -4   8  -8 178094. 2234.28  -2
   4  -8   8 178094. 2234.28   1
   4  -8   9 3984.62 396.575   1
  -3   9 -10 16885.5 830.989  -2
   4  -8  10 16885.5 830.989   1
   4  -8  11 480.212 396.119   1
   2 -10  12 29164.4 1007.64  -2
  -4   8 -12 29164.4 1007.64   1
   4  -8  13 460.270 976.035   1
  -4   7   9 5005.34 691.515   1
 -11   0   8 9375.96 916.254  -2
   4  -7  -8 9375.96 916.254   1
   4  -7  -7 11890.3 560.026   1
  10  -1  -6 32454.7 677.495  -2
  -4   7   6 32454.7 677.495   1
   4  -7  -5 1076.58 311.561   1
   9  -2  -4 30857.7 839.789  -2
  -4   7   4 30857.7 839.789   1
   4  -7  -3 59597.1 844.038   1
  -8   3   2 10844.1 493.243  -2
   4  -7  -2 10844.1 493.243   1
   4  -7  -1 95747.8 1103.92   1
  -7   4   0 743.907 394.567  -2
   4  -7   0 743.907 394.567   1
  -4   7  -1 9236.98 350.395   1
  -6   5  -2 63143.5 1095.58  -2
   4  -7   2 63143.5 1095.58   1
   4  -7   3 56446.1 949.591   1
  -5   6  -4 20741.2 809.470  -2
   4  -7   4 20741.2 809.470   1
   4  -7   5 81079.8 1009.95   1
  -4   7  -6 14416.0 711.626  -2
   4  -7   6 14416.0 711.626   1
   4  -7   7 20029.5 638.847   1
   3  -8   8 87035.7 1533.75  -2
  -4   7  -8 87035.7 1533.75   1
  -4   7  -9 2132.01 501.000   1
  -2   9 -10 64505.2 1348.63  -2
   4  -7  10 64505.2 1348.63   1
   4  -7  11 876.338 382.301   1
  -1  10 -12 9786.62 642.769  -2
   4  -7  12 9786.62 642.769   1
   4  -7  13 1290.72 1019.56   1
  11   1 -10 47625.0 2872.78  -2
  -4   6  10 47625.0 2872.78   1
   4  -6  -9 1729.34 534.968   1
 -10   0   8 4209.24 721.170  -2
   4  -6  -8 4209.24 721.170   1
  -4   6   7 40341.1 833.524   1
  -9   1   6 7513.21 307.456  -2
   4  -6  -6 7513.21 307.456   1
  -4   6   5 21205.1 411.813   1
  -8   2   4 52165.8 976.972  -2
   4  -6  -4 52165.8 976.972   1
  -4   6   3 8075.72 352.527   1
  -7   3   2 8952.08 589.980  -2
   4  -6  -2 8952.08 589.980   1
   4  -6  -1 111353. 1112.87   1
   6  -4   0 5715.36 397.640  -2
  -4   6   0 5715.36 397.640   1
   4  -6   1 125784. 999.169   1
  -5   5  -2 40366.3 832.717  -2
   4  -6   2 40366.3 832.717   1
   4  -6   3 1188.94 285.974   1
  -4   6  -4 21491.4 670.587  -2
   4  -6   4 21491.4 670.587   1
   4  -6   5 65976.8 1007.92   1
   3  -7   6 27686.0 1039.58  -2
  -4   6  -6 27686.0 1039.58   1
  -4   6  -7 60770.9 1262.91   1
   2  -8   8 43917.2 1356.60  -2
  -4   6  -8 43917.2 1356.60   1
  -4   6  -9 1767.04 345.570   1
  -1   9 -10 94173.2 1471.98  -2
   4  -6  10 94173.2 1471.98   1
   4  -6  11 592.434 337.107   1
   0  10 -12 35474.1 1297.70  -2
   4  -6  12 35474.1 1297.70   1
   4  -6  13 294.014 719.895   1
  -4   5  11 37.6149 891.532   1
 -10  -1  10 64259.7 1134.90  -2
   4  -5 -10 64259.7 1134.90   1
  -4   5   9 121.679 440.863   1
   9   0  -8 60818.2 1185.44  -2
  -4   5   8 60818.2 1185.44   1
  -4   5   7 13317.7 477.423   1
   8  -1  -6 5103.92 451.293  -2
  -4   5   6 5103.92 451.293   1
  -4   5   5 43139.0 730.718   1
   7  -2  -4 36639.6 423.856  -2
  -4   5   4 36639.6 423.856   1
   4  -5  -3 17618.3 363.022   1
   6  -3  -2 23531.3 557.613  -2
  -4   5   2 23531.3 557.613   1
  -4   5   1 47377.1 619.269   1
  -5   4   0 80.6766 94.6107  -2
   4  -5   0 80.6766 94.6107   1
  -4   5  -1 274379. 1384.68   1
  -4   5  -2 1897.65 349.656  -2
   4  -5   2 1897.65 349.656   1
   4  -5   3 77098.3 997.062   1
   3  -6   4 9936.01 664.556  -2
  -4   5  -4 9936.01 664.556   1
  -4   5  -5 2360.11 517.472   1
  -2   7  -6 48145.5 1010.38  -2
   4  -5   6 48145.5 1010.38   1
   4  -5   7 48966.8 871.823   1
   1  -8   8 1006.83 370.377  -2
  -4   5  -8 1006.83 370.377   1
   4  -5   9 15590.2 547.658   1
   0   9 -10 41245.2 968.689  -2
   4  -5  10 41245.2 968.689   1
   4  -5  11 206.459 292.229   1
   1  10 -12 52143.2 1201.45  -2
   4  -5  12 52143.2 1201.45   1
   4  -5  13 222.336 718.344   1
  10   2 -12 9271.58 1665.29  -2
  -4   4  12 9271.58 1665.29   1
  -4   4  11 808.656 815.647   1
   9   1 -10 20100.7 915.989  -2
  -4   4  10 20100.7 915.989   1
  -4   4   9 1177.78 274.968   1
   8   0  -8 87074.8 1268.37  -2
  -4   4   8 87074.8 1268.37   1
   4  -4  -7 866.957 262.552   1
  -7   1   6 65776.7 1125.21  -2
   4  -4  -6 65776.7 1125.21   1
  -4   4   5 34374.7 624.972   1
   6  -2  -4 7840.64 442.375  -2
  -4   4   4 7840.64 442.375   1
   4  -4  -3 87431.0 537.543   1
   5  -3  -2 18762.7 198.901  -2
  -4   4   2 18762.7 198.901   1
   4  -4  -1 8436.85 309.697   1
   4  -4   0 14513.5 510.685  -2
  -4   4   0 14513.5 510.685   1
  -4   4  -1 124975. 982.733   1
  -3   5  -2 19595.6 535.193  -2
   4  -4   2 19595.6 535.193   1
  -4   4  -3 179516. 1411.04   1
   2  -6   4 2251.98 337.406  -2
  -4   4  -4 2251.98 337.406   1
   4  -4   5 25968.1 533.152   1
   1  -7   6 52115.6 874.132  -2
  -4   4  -6 52115.6 874.132   1
   4  -4   7 6991.96 354.888   1
   0  -8   8 15439.5 610.808  -2
  -4   4  -8 15439.5 610.808   1
  -4   4  -9 19792.1 556.183   1
   1   9 -10 1539.11 381.743  -2
   4  -4  10 1539.11 381.743   1
   4  -4  11 8637.30 482.990   1
   2  10 -12 48394.5 1845.13  -2
   4  -4  12 48394.5 1845.13   1
   4  -4  13 633.400 740.994   1
   9   2 -12 83273.7 3500.75  -2
  -4   3  12 83273.7 3500.75   1
  -4   3  11 2162.58 906.733   1
   8   1 -10 6943.72 616.109  -2
  -4   3  10 6943.72 616.109   1
   4  -3  -9 1846.30 265.085   1
  -7   0   8 34597.5 403.020  -2
   4  -3  -8 34597.5 403.020   1
   4  -3  -7 4691.51 310.503   1
  -6   1   6 143027. 1569.89  -2
   4  -3  -6 143027. 1569.89   1
   4  -3  -5 11706.8 380.348   1
  -5   2   4 31452.0 204.990  -2
   4  -3  -4 31452.0 204.990   1
   4  -3  -3 278807. 1461.84   1
   4  -3  -2 3355.30 246.150  -2
  -4   3   2 3355.30 246.150   1
  -4   3   1 141834. 778.388   1
   3  -4   0 6257.56 282.790  -2
  -4   3   0 6257.56 282.790   1
  -4   3  -1 222.618 165.093   1
  -2   5  -2 48696.4 1083.79  -2
   4  -3   2 48696.4 1083.79   1
  -4   3  -3 130625. 890.288   1
   1  -6   4 4267.42 322.727  -2
  -4   3  -4 4267.42 322.727   1
   4  -3   5 121974. 1055.15   1
   0  -7   6 39821.8 759.489  -2
  -4   3  -6 39821.8 759.489   1
  -4   3  -7 4702.60 335.205   1
  -1  -8   8 41700.3 816.765  -2
  -4   3  -8 41700.3 816.765   1
   4  -3   9 5447.96 322.196   1
   2   9 -10 19194.7 586.899  -2
   4  -3  10 19194.7 586.899   1
   4  -3  11 14967.3 1007.69   1
   3  10 -12 6735.36 1077.58  -2
   4  -3  12 6735.36 1077.58   1
  -4   2  13 2824.47 963.127   1
   8   2 -12 85693.2 3395.20  -2
  -4   2  12 85693.2 3395.20   1
  -4   2  11 1160.61 172.376   1
   7   1 -10 60289.0 682.835  -2
  -4   2  10 60289.0 682.835   1
  -4   2   9 163.220 180.952   1
   6   0  -8 10752.9 162.887  -2
  -4   2   8 10752.9 162.887   1
   4  -2  -7 16249.2 433.107   1
  -5   1   6 108284. 311.497  -2
   4  -2  -6 108284. 311.497   1
  -4   2   5 3734.57 250.578   1
  -4   2   4 216482. 414.875  -2
   4  -2  -4 216482. 414.875   1
   4  -2  -3 83823.2 483.003   1
  -3   3   2 95303.5 733.333  -2
   4  -2  -2 95303.5 733.333   1
  -4   2   1 141667. 879.882   1
   2  -4   0 2092.27 212.338  -2
  -4   2   0 2092.27 212.338   1
   4  -2   1 36929.7 553.308   1
   1  -5   2 76363.0 860.933  -2
  -4   2  -2 76363.0 860.933   1
   4  -2   3 13493.5 447.776   1
   0   6  -4 23355.8 604.329  -2
   4  -2   4 23355.8 604.329   1
  -4   2  -5 119778. 1053.57   1
  -1  -7   6 845.481 194.881  -2
  -4   2  -6 845.481 194.881   1
   4  -2   7 59394.8 530.955   1
   2   8  -8 18705.6 433.718  -2
   4  -2   8 18705.6 433.718   1
  -4   2  -9 2952.59 150.944   1
  -3  -9  10 29665.3 439.840  -2
  -4   2 -10 29665.3 439.840   1
   4  -2  11 9618.69 915.417   1
   4  10 -12 5278.79 1026.36  -2
   4  -2  12 5278.79 1026.36   1
   8   3 -14 18437.0 1855.54  -2
  -4   1  14 18437.0 1855.54   1
  -4   1  13 14726.2 1295.50   1
   7   2 -12 20358.4 1808.49  -2
  -4   1  12 20358.4 1808.49   1
   4  -1 -11 943.970 139.452   1
   6   1 -10 113513. 962.078  -2
  -4   1  10 113513. 962.078   1
  -4   1   9 11843.8 295.622   1
  -5   0   8 101892. 602.822  -2
   4  -1  -8 101892. 602.822   1
   4  -1  -7 11750.5 267.651   1
   4  -1  -6 3306.74 53.0471  -2
  -4   1   6 3306.74 53.0471   1
  -4   1   5 26135.8 348.134   1
  -3   2   4 140475. 321.117  -2
   4  -1  -4 140475. 321.117   1
   4  -1  -3 3797.31 161.983   1
  -2   3   2 309616. 812.593  -2
   4  -1  -2 309616. 812.593   1
   4  -1  -1 132795. 816.911   1
   1  -4   0 35698.4 706.629  -2
  -4   1   0 35698.4 706.629   1
   4  -1   1 119584. 1039.23   1
   0   5  -2 77296.1 833.570  -2
   4  -1   2 77296.1 833.570   1
   4  -1   3 31213.5 454.428   1
   1   6  -4 30807.3 582.864  -2
   4  -1   4 30807.3 582.864   1
   4  -1   5 46549.0 602.822   1
  -2  -7   6 26272.1 804.383  -2
  -4   1  -6 26272.1 804.383   1
  -4   1  -7 96581.4 888.809   1
  -3  -8   8 2295.78 299.892  -2
  -4   1  -8 2295.78 299.892   1
   4  -1   9 36213.3 438.553   1
   4   9 -10 36234.7 1627.64  -2
   4  -1  10 36234.7 1627.64   1
   4  -1  11 2354.81 710.561   1
   5  10 -12 28880.8 1629.02  -2
   4  -1  12 28880.8 1629.02   1
   7   3 -14 50944.5 2623.08  -2
  -4   0  14 50944.5 2623.08   1
  -4   0  13 19098.7 1331.51   1
   6   2 -12 7838.56 703.929  -2
  -4   0  12 7838.56 703.929   1
  -4   0  11 16341.1 306.800   1
  -5  -1  10 58363.1 879.848  -2
   4   0 -10 58363.1 879.848   1
  -4   0   9 440.919 180.933   1
   4   0  -8 258787. 718.209  -2
  -4   0   8 258787. 718.209   1
   4   0  -7 885.982 152.302   1
   3  -1  -6 74254.0 347.189  -2
  -4   0   6 74254.0 347.189   1
   4   0  -5 28169.6 373.658   1
   2  -2  -4 36263.1 227.518  -2
  -4   0   4 36263.1 227.518   1
  -4   0   3 16075.5 293.052   1
  -1   3   2 265472. 1349.40  -2
   4   0  -2 265472. 1349.40   1
  -4   0   1 2957.48 222.275   1
   0   4   0 51406.6 936.165  -2
   4   0   0 51406.6 936.165   1
  -4   0  -1 177791. 1086.95   1
   1   5  -2 7253.64 350.676  -2
   4   0   2 7253.64 350.676   1
  -4   0  -3 180248. 1127.65   1
   2   6  -4 14094.8 586.660  -2
   4   0   4 14094.8 586.660   1
  -4   0  -5 8235.99 367.701   1
   3   7  -6 41928.3 773.800  -2
   4   0   6 41928.3 773.800   1
   4   0   7 31752.8 679.591   1
   4   8  -8 12837.1 415.177  -2
   4   0   8 12837.1 415.177   1
   4   0   9 31155.3 426.344   1
   5   9 -10 14484.8 1246.03  -2
   4   0  10 14484.8 1246.03   1
   4   0  11 4314.96 798.923   1
   6   3 -14 56297.8 1779.57  -2
  -4  -1  14 56297.8 1779.57   1
  -4  -1  13 4055.60 409.231   1
   5   2 -12 45362.8 823.060  -2
  -4  -1  12 45362.8 823.060   1
   4   1 -11 20202.7 379.647   1
   4   1 -10 2847.75 285.976  -2
  -4  -1  10 2847.75 285.976   1
  -4  -1   9 5837.24 277.454   1
   3   0  -8 188904. 1671.20  -2
  -4  -1   8 188904. 1671.20   1
  -4  -1   7 371.512 154.425   1
   2  -1  -6 254137. 1037.25  -2
  -4  -1   6 254137. 1037.25   1
  -4  -1   5 14027.1 225.460   1
   1  -2  -4 18018.5 275.389  -2
  -4  -1   4 18018.5 275.389   1
  -4  -1   3 32654.6 372.451   1
   0  -3  -2 53666.6 768.691  -2
  -4  -1   2 53666.6 768.691   1
  -4  -1   1 28361.1 533.511   1
   1   4   0 210982. 2081.70  -2
   4   1   0 210982. 2081.70   1
   4   1   1 37694.4 518.897   1
  -2  -5   2 51204.3 950.099  -2
  -4  -1  -2 51204.3 950.099   1
   4   1   3 157610. 1487.73   1
   3   6  -4 1558.96 358.999  -2
   4   1   4 1558.96 358.999   1
   4   1   5 59953.9 852.259   1
   4   7  -6 33810.2 673.034  -2
   4   1   6 33810.2 673.034   1
   4   1   7 401.014 202.008   1
   5   8  -8 34294.0 914.144  -2
   4   1   8 34294.0 914.144   1
   4   1   9 51087.0 1584.28   1
   6   9 -10 799.260 491.009  -2
   4   1  10 799.260 491.009   1
   5   3 -14 16232.7 773.835  -2
  -4  -2  14 16232.7 773.835   1
  -4  -2  13 3307.22 390.754   1
   4   2 -12 58589.8 837.182  -2
  -4  -2  12 58589.8 837.182   1
   4   2 -11 5514.22 252.961   1
   3   1 -10 51951.7 756.243  -2
  -4  -2  10 51951.7 756.243   1
  -4  -2   9 9688.89 327.867   1
   2   0  -8 31917.5 636.595  -2
  -4  -2   8 31917.5 636.595   1
  -4  -2   7 90.3466 133.851   1
   1  -1  -6 154786. 1904.14  -2
  -4  -2   6 154786. 1904.14   1
  -4  -2   5 1269.84 235.799   1
   0  -2  -4 245039. 1167.71  -2
  -4  -2   4 245039. 1167.71   1
  -4  -2   3 22549.9 368.870   1
  -1  -3  -2 8126.61 369.325  -2
  -4  -2   2 8126.61 369.325   1
  -4  -2   1 121448. 1094.55   1
  -2  -4   0 89052.6 1298.80  -2
  -4  -2   0 89052.6 1298.80   1
   4   2   1 11145.3 379.685   1
   3   5  -2 66482.9 1155.60  -2
   4   2   2 66482.9 1155.60   1
   4   2   3 44447.8 677.708   1
   4   6  -4 15267.3 572.682  -2
   4   2   4 15267.3 572.682   1
   4   2   5 98613.5 995.264   1
  -5  -7   6 8312.32 453.734  -2
  -4  -2  -6 8312.32 453.734   1
   4   2   7 20403.1 589.292   1
   6   8  -8 24059.4 659.874  -2
   4   2   8 24059.4 659.874   1
   4   2   9 1242.68 149.750   1
   7   9 -10 18982.5 1488.85  -2
   4   2  10 18982.5 1488.85   1
  -4  -3  15 39211.7 1481.91   1
   4   3 -14 1896.74 477.684  -2
  -4  -3  14 1896.74 477.684   1
  -4  -3  13 24595.0 541.824   1
   3   2 -12 36231.5 723.658  -2
  -4  -3  12 36231.5 723.658   1
   4   3 -11 487.927 198.880   1
  -2  -1  10 168483. 1499.57  -2
   4   3 -10 168483. 1499.57   1
  -4  -3   9 9069.76 315.942   1
   1   0  -8 43089.1 598.398  -2
  -4  -3   8 43089.1 598.398   1
  -4  -3   7 882.721 258.849   1
   0   1   6 81638.8 1139.37  -2
   4   3  -6 81638.8 1139.37   1
  -4  -3   5 377.477 344.492   1
  -1  -2  -4 302116. 1539.87  -2
  -4  -3   4 302116. 1539.87   1
  -4  -3   3 6418.01 265.017   1
   2   3   2 99212.1 1101.96  -2
   4   3  -2 99212.1 1101.96   1
   4   3  -1 81142.3 876.195   1
   3   4   0 11191.8 477.071  -2
   4   3   0 11191.8 477.071   1
   4   3   1 64277.7 823.973   1
   4   5  -2 59512.1 1067.58  -2
   4   3   2 59512.1 1067.58   1
   4   3   3 5155.56 317.191   1
   5   6  -4 39010.6 814.521  -2
   4   3   4 39010.6 814.521   1
  -4  -3  -5 54243.5 792.135   1
   6   7  -6 2430.97 472.063  -2
   4   3   6 2430.97 472.063   1
   4   3   7 45893.2 901.270   1
  -7  -8   8 11709.9 579.605  -2
  -4  -3  -8 11709.9 579.605   1
   4   3   9 4169.08 775.057   1
  -4  -4  15 11958.8 693.020   1
   3   3 -14 8805.25 808.594  -2
  -4  -4  14 8805.25 808.594   1
  -4  -4  13 48546.9 752.382   1
   2   2 -12 6479.67 425.591  -2
  -4  -4  12 6479.67 425.591   1
  -4  -4  11 24400.8 537.090   1
  -1  -1  10 107946. 1149.94  -2
   4   4 -10 107946. 1149.94   1
  -4  -4   9 116.544 77.0420   1
   0   0   8 124023. 2091.14  -2
   4   4  -8 124023. 2091.14   1
   4   4  -7 5122.00 353.396   1
  -1  -1  -6 487.714 355.208  -2
  -4  -4   6 487.714 355.208   1
  -4  -4   5 3545.71 454.951   1
   2   2   4 141405. 1239.46  -2
   4   4  -4 141405. 1239.46   1
  -4  -4   3 1500.23 202.809   1
   3   3   2 148931. 1717.13  -2
   4   4  -2 148931. 1717.13   1
  -4  -4   1 16005.3 422.102   1
   4   4   0 17207.5 654.588  -2
   4   4   0 17207.5 654.588   1
   4   4   1 57233.9 802.476   1
  -5  -5   2 10563.4 521.502  -2
  -4  -4  -2 10563.4 521.502   1
  -4  -4  -3 23507.4 541.737   1
   6   6  -4 29621.7 870.658  -2
   4   4   4 29621.7 870.658   1
   4   4   5 3748.95 396.353   1
  -7  -7   6 8785.20 607.770  -2
  -4  -4  -6 8785.20 607.770   1
  -4  -4  -7 34908.5 849.308   1
   8   8  -8 432.528 559.789  -2
   4   4   8 432.528 559.789   1
  -4  -5  15 1303.19 717.843   1
   2   3 -14 13187.9 1375.77  -2
  -4  -5  14 13187.9 1375.77   1
  -4  -5  13 27179.0 591.980   1
   1   2 -12 11351.6 607.977  -2
  -4  -5  12 11351.6 607.977   1
  -4  -5  11 34503.5 409.275   1
   0   1 -10 30480.2 1136.37  -2
  -4  -5  10 30480.2 1136.37   1
   4   5  -9 10529.4 559.725   1
   1   0   8 107646. 1695.73  -2
   4   5  -8 107646. 1695.73   1
   4   5  -7 3558.17 362.746   1
  -2  -1  -6 58649.6 1400.88  -2
  -4  -5   6 58649.6 1400.88   1
   4   5  -5 223.894 180.512   1
  -3  -2  -4 11873.9 463.689  -2
  -4  -5   4 11873.9 463.689   1
   4   5  -3 23710.7 455.512   1
  -4  -3  -2 84967.4 1192.54  -2
  -4  -5   2 84967.4 1192.54   1
   4   5  -1 197.260 230.432   1
   5   4   0 61879.3 1168.24  -2
   4   5   0 61879.3 1168.24   1
  -4  -5  -1 28241.5 575.070   1
  -6  -5   2 3358.55 426.773  -2
  -4  -5  -2 3358.55 426.773   1
   4   5   3 61192.6 959.119   1
  -7  -6   4 7788.85 623.799  -2
  -4  -5  -4 7788.85 623.799   1
   4   5   5 15288.1 605.121   1
   8   7  -6 11205.4 686.266  -2
   4   5   6 11205.4 686.266   1
  -4  -5  -7 5298.32 557.388   1
  -4  -6  15 25635.2 1447.58   1
   1   3 -14 12052.9 1011.63  -2
  -4  -6  14 12052.9 1011.63   1
  -4  -6  13 734.853 422.306   1
   0   2 -12 23124.5 612.620  -2
  -4  -6  12 23124.5 612.620   1
   4   6 -11 34699.0 1127.74   1
   1  -1  10 2654.28 760.178  -2
   4   6 -10 2654.28 760.178   1
   4   6  -9 34532.1 787.683   1
   2   0   8 60523.5 1379.09  -2
   4   6  -8 60523.5 1379.09   1
   4   6  -7-86.9201 295.238   1
  -3  -1  -6 104259. 1222.48  -2
  -4  -6   6 104259. 1222.48   1
   4   6  -5 78.4047 182.338   1
  -4  -2  -4 30762.4 672.279  -2
  -4  -6   4 30762.4 672.279   1
  -4  -6   3 5432.24 314.693   1
   5   3   2 15172.6 594.683  -2
   4   6  -2 15172.6 594.683   1
   4   6  -1 7127.31 380.735   1
   6   4   0 54933.0 1074.05  -2
   4   6   0 54933.0 1074.05   1
  -4  -6  -1 752.811 340.186   1
   7   5  -2 22757.6 925.307  -2
   4   6   2 22757.6 925.307   1
   4   6   3 31329.7 773.144   1
   8   6  -4 1443.07 518.348  -2
   4   6   4 1443.07 518.348   1
   4   6   5 26489.7 774.340   1
  -9  -7   6 5952.48 768.336  -2
  -4  -6  -6 5952.48 768.336   1
  -4  -7  15 53363.8 2041.24   1
   0   3 -14 4252.25 864.057  -2
  -4  -7  14 4252.25 864.057   1
   4   7 -13 25663.2 1042.44   1
   1  -2  12 24666.6 1409.88  -2
   4   7 -12 24666.6 1409.88   1
  -4  -7  11 4597.52 647.522   1
   2  -1  10 16504.4 968.459  -2
   4   7 -10 16504.4 968.459   1
  -4  -7   9 14571.7 678.107   1
   3   0   8 1219.96 584.606  -2
   4   7  -8 1219.96 584.606   1
   4   7  -7 3729.24 272.190   1
  -4  -1  -6 79114.1 1049.39  -2
  -4  -7   6 79114.1 1049.39   1
   4   7  -5 208.552 225.723   1
  -5  -2  -4 108262. 1463.78  -2
  -4  -7   4 108262. 1463.78   1
  -4  -7   3 3377.38 343.081   1
   6   3   2 8235.08 576.978  -2
   4   7  -2 8235.08 576.978   1
   4   7  -1 15858.6 580.375   1
   7   4   0 13658.9 744.682  -2
   4   7   0 13658.9 744.682   1
   4   7   1 7504.40 486.633   1
   8   5  -2 32751.8 1223.87  -2
   4   7   2 32751.8 1223.87   1
   4   7   3 3876.03 480.164   1
  -9  -6   4 4315.41 695.420  -2
  -4  -7  -4 4315.41 695.420   1
   4   7   5 28167.6 1148.88   1
  -1   3 -14 2648.04 1151.94  -2
  -4  -8  14 2648.04 1151.94   1
  -4  -8  13 55061.6 2083.80   1
  -2   2 -12 12060.9 1585.54  -2
  -4  -8  12 12060.9 1585.54   1
  -4  -8  11 9112.68 1144.89   1
  -3   1 -10 48991.6 2748.76  -2
  -4  -8  10 48991.6 2748.76   1
   4   8  -9 16280.4 944.553   1
  -4   0  -8 19956.0 704.464  -2
  -4  -8   8 19956.0 704.464   1
  -4  -8   7 10282.2 548.590   1
  -5  -1  -6 6392.09 538.976  -2
  -4  -8   6 6392.09 538.976   1
  -4  -8   5 2946.50 398.185   1
  -6  -2  -4 65681.4 1565.46  -2
  -4  -8   4 65681.4 1565.46   1
   4   8  -3 231.270 358.131   1
   7   3   2 52647.2 1394.28  -2
   4   8  -2 52647.2 1394.28   1
  -4  -8   1 7229.30 561.366   1
   8   4   0 336.126 280.896  -2
   4   8   0 336.126 280.896   1
   4   8   1 6587.74 720.388   1
   9   5  -2 12716.4 1125.90  -2
   4   8   2 12716.4 1125.90   1
   4   8   3 1809.58 626.229   1
  -2   3 -14 4922.27 1409.57  -2
  -4  -9  14 4922.27 1409.57   1
  -4  -9  13 38237.4 1908.29   1
  -3   2 -12 2535.99 1229.72  -2
  -4  -9  12 2535.99 1229.72   1
  -4  -9  11 32961.4 1797.58   1
  -4   1 -10 26617.6 2202.87  -2
  -4  -9  10 26617.6 2202.87   1
  -4  -9   9 866.322 883.917   1
  -5   0  -8 46545.4 2792.16  -2
  -4  -9   8 46545.4 2792.16   1
  -4  -9   7 1934.84 357.160   1
  -6  -1  -6 7652.22 649.133  -2
  -4  -9   6 7652.22 649.133   1
  -4  -9   5 4070.91 507.938   1
   7   2   4 18811.7 994.708  -2
   4   9  -4 18811.7 994.708   1
   4   9  -3 190.744 414.351   1
  -8  -3  -2 49180.6 1407.67  -2
  -4  -9   2 49180.6 1407.67   1
   4   9  -1 741.239 575.716   1
   9   4   0 19091.8 1299.51  -2
   4   9   0 19091.8 1299.51   1
   4   9   1 9185.21 833.149   1
 -10  -5   2 2554.90 863.528  -2
  -4  -9  -2 2554.90 863.528   1
  -4 -10  13 10299.5 1308.61   1
  -4   2 -12 4029.08 1454.97  -2
  -4 -10  12 4029.08 1454.97   1
  -4 -10  11 42620.0 2062.07   1
  -5   1 -10 8936.12 1625.67  -2
  -4 -10  10 8936.12 1625.67   1
  -4 -10   9 18006.8 1500.50   1
  -6   0  -8 42843.5 2707.89  -2
  -4 -10   8 42843.5 2707.89   1
  -4 -10   7 359.801 545.858   1
   7   1   6 34141.6 1566.23  -2
   4  10  -6 34141.6 1566.23   1
   4  10  -5 4801.73 795.207   1
   8   2   4 2025.14 711.415  -2
   4  10  -4 2025.14 711.415   1
   4  10  -3 682.754 547.886   1
   9   3   2 27718.9 1457.48  -2
   4  10  -2 27718.9 1457.48   1
   4  10  -1 1644.22 626.411   1
 -10  -4   0 37521.6 1645.00  -2
  -4 -10   0 37521.6 1645.00   1
  -4 -11  11 14841.9 1484.58   1
  -6   1 -10 3946.74 1534.82  -2
  -4 -11  10 3946.74 1534.82   1
  -4 -11   9 26498.9 1783.86   1
  -7   0  -8 18584.6 2013.11  -2
  -4 -11   8 18584.6 2013.11   1
   4  11  -7 7172.66 830.653   1
   8   1   6 52711.5 2392.02  -2
   4  11  -6 52711.5 2392.02   1
   4  11  -5 1105.21 562.084   1
  -9  -2  -4 18463.1 1249.10  -2
  -4 -11   4 18463.1 1249.10   1
   4  11  -3 809.613 604.678   1
   5 -13   1 1193.07 717.541   1
  12  -6   2 39023.3 1452.64  -2
  -5  13  -2 39023.3 1452.64   1
  -5  13  -3 3844.97 711.215   1
 -11   7  -4 12093.5 1186.81  -2
   5 -13   4 12093.5 1186.81   1
   5 -13   5 2530.16 672.948   1
 -10   8  -6 31375.2 1640.83  -2
   5 -13   6 31375.2 1640.83   1
   5 -13   7 290.770 613.053   1
  -9   9  -8 44575.0 1880.27  -2
   5 -13   8 44575.0 1880.27   1
 -13   4   2 14760.9 1862.49  -2
   5 -12  -2 14760.9 1862.49   1
   5 -12  -1 35337.6 1179.70   1
 -12   5   0 14690.0 1129.42  -2
   5 -12   0 14690.0 1129.42   1
   5 -12   1 8909.67 903.882   1
  11  -6   2 38362.1 1372.27  -2
  -5  12  -2 38362.1 1372.27   1
  -5  12  -3 2332.22 635.325   1
 -10   7  -4 48768.7 1822.32  -2
   5 -12   4 48768.7 1822.32   1
   5 -12   5 5319.76 699.482   1
  -9   8  -6 18542.2 1264.54  -2
   5 -12   6 18542.2 1264.54   1
   5 -12   7-107.214 567.080   1
  -8   9  -8 39002.5 1717.70  -2
   5 -12   8 39002.5 1717.70   1
   5 -12   9 231.133 581.709   1
  -7  10 -10 43589.6 1787.52  -2
   5 -12  10 43589.6 1787.52   1
  13  -3  -4 3219.97 968.584  -2
  -5  11   4 3219.97 968.584   1
   5 -11  -3-105.269 616.596   1
 -12   4   2 16841.7 941.535  -2
   5 -11  -2 16841.7 941.535   1
   5 -11  -1 35266.8 1130.89   1
 -11   5   0 28910.1 2244.89  -2
   5 -11   0 28910.1 2244.89   1
   5 -11   1 42080.3 1210.98   1
  10  -6   2 22199.1 1235.54  -2
  -5  11  -2 22199.1 1235.54   1
  -5  11  -3 2215.96 491.828   1
  -9   7  -4 66370.2 1997.97  -2
   5 -11   4 66370.2 1997.97   1
   5 -11   5 10955.2 779.977   1
  -8   8  -6 36383.3 1566.35  -2
   5 -11   6 36383.3 1566.35   1
   5 -11   7 239.751 536.614   1
  -7   9  -8 16890.3 1190.97  -2
   5 -11   8 16890.3 1190.97   1
   5 -11   9 1084.73 599.382   1
  -6  10 -10 43821.5 2301.42  -2
   5 -11  10 43821.5 2301.42   1
   5 -11  11 32.3259 759.259   1
  -5  10   5 47329.0 2119.49   1
 -12   3   4 10917.0 808.695  -2
   5 -10  -4 10917.0 808.695   1
   5 -10  -3 20790.6 748.597   1
  11  -4  -2 9423.91 745.772  -2
  -5  10   2 9423.91 745.772   1
   5 -10  -1 8121.50 556.577   1
 -10   5   0 41244.5 2432.19  -2
   5 -10   0 41244.5 2432.19   1
   5 -10   1 46567.7 1496.10   1
  -9   6  -2 22449.7 1513.40  -2
   5 -10   2 22449.7 1513.40   1
   5 -10   3 31146.6 1062.13   1
  -8   7  -4 43815.0 1587.99  -2
   5 -10   4 43815.0 1587.99   1
   5 -10   5 1230.99 536.983   1
  -7   8  -6 72683.9 2008.46  -2
   5 -10   6 72683.9 2008.46   1
   5 -10   7 573.324 541.834   1
  -6   9  -8 45092.2 1649.39  -2
   5 -10   8 45092.2 1649.39   1
   5 -10   9 2263.93 848.448   1
  -5  10 -10 21558.8 1685.24  -2
   5 -10  10 21558.8 1685.24   1
   5 -10  11 1428.91 994.947   1
  -4  11 -12 54308.2 1758.62  -2
   5 -10  12 54308.2 1758.62   1
   5  -9  -7 645.451 621.136   1
  12  -2  -6 10486.4 1062.89  -2
  -5   9   6 10486.4 1062.89   1
   5  -9  -5 34084.8 660.928   1
 -11   3   4 20890.9 1135.03  -2
   5  -9  -4 20890.9 1135.03   1
   5  -9  -3 72928.3 1018.21   1
 -10   4   2 7811.19 566.745  -2
   5  -9  -2 7811.19 566.745   1
  -5   9   1 5081.56 391.221   1
   9  -5   0 14479.8 679.288  -2
  -5   9   0 14479.8 679.288   1
  -5   9  -1 8908.80 446.506   1
   8  -6   2 44870.1 1049.26  -2
  -5   9  -2 44870.1 1049.26   1
  -5   9  -3 42851.5 825.458   1
  -7   7  -4 25763.4 983.846  -2
   5  -9   4 25763.4 983.846   1
   5  -9   5 8423.72 467.755   1
   6  -8   6 65676.3 1278.16  -2
  -5   9  -6 65676.3 1278.16   1
  -5   9  -7 204.625 389.906   1
   5  -9   8 104237. 2200.27  -2
  -5   9  -8 104237. 2200.27   1
   5  -9   9 237.805 742.786   1
  -4  10 -10 24917.6 2044.67  -2
   5  -9  10 24917.6 2044.67   1
   5  -9  11 2483.28 605.792   1
  -3  11 -12 30112.4 1295.93  -2
   5  -9  12 30112.4 1295.93   1
 -12   1   8 7192.24 965.438  -2
   5  -8  -8 7192.24 965.438   1
   5  -8  -7 16249.6 916.180   1
 -11   2   6 11077.2 754.994  -2
   5  -8  -6 11077.2 754.994   1
   5  -8  -5 2553.38 227.401   1
 -10   3   4 19729.3 705.080  -2
   5  -8  -4 19729.3 705.080   1
   5  -8  -3 61019.0 756.114   1
   9  -4  -2 24929.3 697.743  -2
  -5   8   2 24929.3 697.743   1
  -5   8   1 105028. 1016.29   1
  -8   5   0 8097.93 525.209  -2
   5  -8   0 8097.93 525.209   1
   5  -8   1 7338.62 397.407   1
   7  -6   2 53851.2 1002.82  -2
  -5   8  -2 53851.2 1002.82   1
   5  -8   3 16665.2 617.946   1
  -6   7  -4 55534.6 1318.62  -2
   5  -8   4 55534.6 1318.62   1
  -5   8  -5 23264.7 633.214   1
   5  -8   6 19860.5 754.045  -2
  -5   8  -6 19860.5 754.045   1
   5  -8   7 4071.55 441.536   1
   4  -9   8 138739. 3429.95  -2
  -5   8  -8 138739. 3429.95   1
   5  -8   9 1420.37 412.474   1
  -3  10 -10 49184.1 1254.25  -2
   5  -8  10 49184.1 1254.25   1
   5  -8  11 1263.53 417.774   1
  -2  11 -12 14499.9 1131.24  -2
   5  -8  12 14499.9 1131.24   1
   5  -7  -9 13021.9 863.248   1
  11  -1  -8 6443.65 871.769  -2
  -5   7   8 6443.65 871.769   1
  -5   7   7 37575.1 881.319   1
  10  -2  -6 7865.56 652.264  -2
  -5   7   6 7865.56 652.264   1
  -5   7   5 17871.8 658.269   1
  -9   3   4 6044.12 358.817  -2
   5  -7  -4 6044.12 358.817   1
   5  -7  -3 20438.8 465.222   1
   8  -4  -2 12344.2 536.711  -2
  -5   7   2 12344.2 536.711   1
  -5   7   1 95366.8 924.811   1
   7  -5   0 7411.00 471.876  -2
  -5   7   0 7411.00 471.876   1
   5  -7   1 59271.0 769.625   1
  -6   6  -2 41143.6 925.548  -2
   5  -7   2 41143.6 925.548   1
   5  -7   3 195.731 305.132   1
   5  -7   4 82058.3 1301.53  -2
  -5   7  -4 82058.3 1301.53   1
   5  -7   5 38664.2 760.440   1
  -4   8  -6 26936.4 1128.23  -2
   5  -7   6 26936.4 1128.23   1
  -5   7  -7 27869.8 923.772   1
   3  -9   8 37388.3 1066.94  -2
  -5   7  -8 37388.3 1066.94   1
   5  -7   9 903.033 381.262   1
   2 -10  10 74994.6 1444.95  -2
  -5   7 -10 74994.6 1444.95   1
   5  -7  11 413.370 377.201   1
  -1  11 -12 38714.3 1571.35  -2
   5  -7  12 38714.3 1571.35   1
  11   0 -10 27240.0 1295.34  -2
  -5   6  10 27240.0 1295.34   1
   5  -6  -9 1311.45 549.013   1
  10  -1  -8 20453.9 840.454  -2
  -5   6   8 20453.9 840.454   1
  -5   6   7 38582.4 852.827   1
   9  -2  -6 2414.63 439.592  -2
  -5   6   6 2414.63 439.592   1
   5  -6  -5 70360.1 989.844   1
   8  -3  -4 5837.47 489.640  -2
  -5   6   4 5837.47 489.640   1
   5  -6  -3 7812.45 254.873   1
   7  -4  -2 3274.63 359.400  -2
  -5   6   2 3274.63 359.400   1
  -5   6   1 48352.9 771.766   1
   6  -5   0 5052.16 390.900  -2
  -5   6   0 5052.16 390.900   1
  -5   6  -1 160978. 1443.12   1
  -5   6  -2 17746.8 698.173  -2
   5  -6   2 17746.8 698.173   1
   5  -6   3 67194.5 1224.60   1
  -4   7  -4 42531.6 1063.33  -2
   5  -6   4 42531.6 1063.33   1
   5  -6   5 2816.20 345.823   1
   3  -8   6 78016.0 848.084  -2
  -5   6  -6 78016.0 848.084   1
  -5   6  -7 31240.4 813.707   1
   2  -9   8 5568.95 544.996  -2
  -5   6  -8 5568.95 544.996   1
  -5   6  -9 4901.37 447.939   1
   1 -10  10 44533.5 1075.75  -2
  -5   6 -10 44533.5 1075.75   1
   5  -6  11 234.894 359.926   1
   0  11 -12 66192.4 2819.34  -2
   5  -6  12 66192.4 2819.34   1
  -5   5  11 5065.13 1073.55   1
  10   0 -10 7890.12 849.990  -2
  -5   5  10 7890.12 849.990   1
   5  -5  -9 1837.52 510.987   1
   9  -1  -8 53522.3 1216.06  -2
  -5   5   8 53522.3 1216.06   1
   5  -5  -7 5649.20 389.696   1
  -8   2   6 18561.2 714.042  -2
   5  -5  -6 18561.2 714.042   1
   5  -5  -5 78402.6 989.484   1
  -7   3   4 284.972 131.414  -2
   5  -5  -4 284.972 131.414   1
  -5   5   3 74062.3 624.707   1
  -6   4   2 1075.17 176.270  -2
   5  -5  -2 1075.17 176.270   1
  -5   5   1 2170.78 259.801   1
   5  -5   0 2297.18 301.567  -2
  -5   5   0 2297.18 301.567   1
   5  -5   1 131997. 1128.62   1
  -4   6  -2 26656.7 799.821  -2
   5  -5   2 26656.7 799.821   1
  -5   5  -3 122907. 1004.50   1
   3  -7   4 17867.5 656.805  -2
  -5   5  -4 17867.5 656.805   1
  -5   5  -5 17394.7 375.580   1
   2  -8   6 101130. 1317.34  -2
  -5   5  -6 101130. 1317.34   1
  -5   5  -7 3265.91 340.263   1
   1  -9   8 36656.8 963.397  -2
  -5   5  -8 36656.8 963.397   1
  -5   5  -9 7857.40 478.174   1
   0 -10  10 7316.45 566.744  -2
  -5   5 -10 7316.45 566.744   1
   5  -5  11 1713.41 545.406   1
   1  11 -12 45172.9 1855.95  -2
   5  -5  12 45172.9 1855.95   1
  10   1 -12 28110.9 2238.31  -2
  -5   4  12 28110.9 2238.31   1
  -5   4  11 2845.47 932.141   1
  -9   0  10 8104.55 832.663  -2
   5  -4 -10 8104.55 832.663   1
  -5   4   9 6337.23 419.274   1
  -8   1   8 36981.2 936.886  -2
   5  -4  -8 36981.2 936.886   1
   5  -4  -7 9025.82 430.799   1
  -7   2   6 94955.8 402.299  -2
   5  -4  -6 94955.8 402.299   1
   5  -4  -5 31314.4 616.774   1
   6  -3  -4 11607.1 523.386  -2
  -5   4   4 11607.1 523.386   1
   5  -4  -3 109302. 746.184   1
   5  -4  -2 224.381 98.6499  -2
  -5   4   2 224.381 98.6499   1
  -5   4   1 117359. 1084.99   1
   4  -5   0 396.504 217.815  -2
  -5   4   0 396.504 217.815   1
  -5   4  -1 961.259 210.045   1
  -3   6  -2 21465.3 577.246  -2
   5  -4   2 21465.3 577.246   1
  -5   4  -3 130433. 1316.13   1
   2  -7   4 1764.77 246.775  -2
  -5   4  -4 1764.77 246.775   1
   5  -4   5 50440.3 771.406   1
  -1   8  -6 56068.8 981.886  -2
   5  -4   6 56068.8 981.886   1
   5  -4   7 2196.68 306.122   1
   0   9  -8 88722.9 1395.57  -2
   5  -4   8 88722.9 1395.57   1
  -5   4  -9 5581.27 413.104   1
  -1 -10  10 21536.0 781.780  -2
  -5   4 -10 21536.0 781.780   1
   5  -4  11 1012.03 412.908   1
   2  11 -12 14350.3 1297.48  -2
   5  -4  12 14350.3 1297.48   1
   9   1 -12 65325.3 3007.70  -2
  -5   3  12 65325.3 3007.70   1
  -5   3  11 215.052 741.316   1
   8   0 -10 67958.7 1304.64  -2
  -5   3  10 67958.7 1304.64   1
   5  -3  -9 3501.01 332.496   1
  -7   1   8 8693.91 237.832  -2
   5  -3  -8 8693.91 237.832   1
   5  -3  -7 46124.3 746.943   1
  -6   2   6 61558.6 285.416  -2
   5  -3  -6 61558.6 285.416   1
  -5   3   5 3080.32 268.948   1
   5  -3  -4 68315.7 640.203  -2
  -5   3   4 68315.7 640.203   1
  -5   3   3 92018.5 737.515   1
   4  -4  -2 8725.17 300.201  -2
  -5   3   2 8725.17 300.201   1
   5  -3  -1 191936. 1122.69   1
  -3   5   0 182.322 139.543  -2
   5  -3   0 182.322 139.543   1
   5  -3   1 70585.5 904.608   1
  -2   6  -2 15269.8 468.594  -2
   5  -3   2 15269.8 468.594   1
  -5   3  -3 22382.0 445.455   1
  -1   7  -4 19800.5 595.256  -2
   5  -3   4 19800.5 595.256   1
  -5   3  -5 83768.3 965.330   1
   0  -8   6 10960.6 508.633  -2
  -5   3  -6 10960.6 508.633   1
  -5   3  -7 22422.8 629.212   1
   1   9  -8 46865.8 1044.21  -2
   5  -3   8 46865.8 1044.21   1
   5  -3   9 489.144 282.122   1
  -2 -10  10 64020.6 1088.52  -2
  -5   3 -10 64020.6 1088.52   1
  -5   3 -11 1295.35 323.370   1
   3  11 -12 2555.81 1007.94  -2
   5  -3  12 2555.81 1007.94   1
  -5   2  13 351.711 817.222   1
  -8  -1  12 35556.6 987.445  -2
   5  -2 -12 35556.6 987.445   1
  -5   2  11 81.2831 307.844   1
   7   0 -10 113580. 1315.51  -2
  -5   2  10 113580. 1315.51   1
  -5   2   9 256.049 259.437   1
   6  -1  -8 74849.7 369.981  -2
  -5   2   8 74849.7 369.981   1
  -5   2   7 56615.8 787.510   1
  -5   2   6 9135.33 122.698  -2
   5  -2  -6 9135.33 122.698   1
   5  -2  -5 37756.6 598.113   1
   4  -3  -4 44294.8 273.404  -2
  -5   2   4 44294.8 273.404   1
   5  -2  -3 1356.32 149.637   1
  -3   4   2 80069.9 863.156  -2
   5  -2  -2 80069.9 863.156   1
  -5   2   1 145945. 932.448   1
   2  -5   0 16515.0 435.644  -2
  -5   2   0 16515.0 435.644   1
  -5   2  -1 152085. 1242.15   1
   1  -6   2 16236.9 483.047  -2
  -5   2  -2 16236.9 483.047   1
   5  -2   3 2229.59 263.505   1
   0   7  -4 42288.2 981.369  -2
   5  -2   4 42288.2 981.369   1
   5  -2   5 35234.1 662.273   1
  -1  -8   6 10793.6 585.622  -2
  -5   2  -6 10793.6 585.622   1
  -5   2  -7 53052.5 899.286   1
  -2  -9   8 8825.80 504.435  -2
  -5   2  -8 8825.80 504.435   1
  -5   2  -9 4561.89 349.374   1
  -3 -10  10 49977.4 888.055  -2
  -5   2 -10 49977.4 888.055   1
   5  -2  11 349.911 706.632   1
   8   2 -14 51468.9 2616.53  -2
  -5   1  14 51468.9 2616.53   1
  -5   1  13 2451.14 846.121   1
   7   1 -12 11234.7 739.945  -2
  -5   1  12 11234.7 739.945   1
   5  -1 -11 540.578 176.042   1
   6   0 -10 81249.5 546.559  -2
  -5   1  10 81249.5 546.559   1
  -5   1   9 86.9180 149.448   1
   5  -1  -8 205330. 444.374  -2
  -5   1   8 205330. 444.374   1
  -5   1   7 13921.4 267.966   1
   4  -2  -6 55828.7 301.375  -2
  -5   1   6 55828.7 301.375   1
  -5   1   5 54857.7 545.385   1
   3  -3  -4 35791.8 239.348  -2
  -5   1   4 35791.8 239.348   1
   5  -1  -3 87501.6 776.915   1
  -2   4   2 146098. 1172.60  -2
   5  -1  -2 146098. 1172.60   1
   5  -1  -1 52642.4 707.270   1
   1  -5   0 86961.5 1225.10  -2
  -5   1   0 86961.5 1225.10   1
  -5   1  -1 232175. 1741.93   1
   0   6  -2 7775.16 397.645  -2
   5  -1   2 7775.16 397.645   1
  -5   1  -3 122166. 965.808   1
   1   7  -4 10948.5 429.505  -2
   5  -1   4 10948.5 429.505   1
   5  -1   5 618.743 217.567   1
   2   8  -6 45358.9 880.307  -2
   5  -1   6 45358.9 880.307   1
  -5   1  -7 33482.0 529.795   1
  -3  -9   8 7055.63 393.157  -2
  -5   1  -8 7055.63 393.157   1
   5  -1   9 16502.0 498.165   1
  -4 -10  10 14624.1 413.280  -2
  -5   1 -10 14624.1 413.280   1
   5  -1  11 684.041 690.479   1
   7   2 -14 75823.5 2918.07  -2
  -5   0  14 75823.5 2918.07   1
  -5   0  13 1902.27 802.545   1
   6   1 -12 73084.7 1010.04  -2
  -5   0  12 73084.7 1010.04   1
  -5   0  11 11343.9 383.192   1
   5   0 -10 7662.43 177.128  -2
  -5   0  10 7662.43 177.128   1
  -5   0   9 12944.6 331.194   1
   4  -1  -8 151944. 402.877  -2
  -5   0   8 151944. 402.877   1
  -5   0   7 1893.64 183.493   1
   3  -2  -6 158475. 853.910  -2
  -5   0   6 158475. 853.910   1
  -5   0   5 39242.0 436.657   1
   2  -3  -4 23588.3 543.606  -2
  -5   0   4 23588.3 543.606   1
  -5   0   3 180098. 1037.67   1
   1  -4  -2 61348.6 1003.74  -2
  -5   0   2 61348.6 1003.74   1
   5   0  -1 26571.7 492.176   1
   0   5   0 57402.6 1105.10  -2
   5   0   0 57402.6 1105.10   1
  -5   0  -1 42174.8 680.695   1
  -1  -6   2 37683.2 729.153  -2
  -5   0  -2 37683.2 729.153   1
   5   0   3 91948.1 898.039   1
   2   7  -4 1988.63 312.378  -2
   5   0   4 1988.63 312.378   1
   5   0   5 44038.0 711.228   1
   3   8  -6 46257.8 945.399  -2
   5   0   6 46257.8 945.399   1
   5   0   7 1258.91 372.809   1
   4   9  -8 48272.1 832.406  -2
   5   0   8 48272.1 832.406   1
   5   0   9 4501.30 347.215   1
   5  10 -10 1601.53 949.896  -2
   5   0  10 1601.53 949.896   1
   6   2 -14 40018.3 1522.60  -2
  -5  -1  14 40018.3 1522.60   1
  -5  -1  13 934.464 483.698   1
   5   1 -12 98516.9 1001.88  -2
  -5  -1  12 98516.9 1001.88   1
  -5  -1  11 4076.56 252.661   1
   4   0 -10 28693.6 623.993  -2
  -5  -1  10 28693.6 623.993   1
  -5  -1   9 17950.8 449.241   1
   3  -1  -8 48557.5 547.254  -2
  -5  -1   8 48557.5 547.254   1
  -5  -1   7 4928.85 192.067   1
   2  -2  -6 189062. 1108.16  -2
  -5  -1   6 189062. 1108.16   1
  -5  -1   5 5524.94 231.025   1
   1  -3  -4 167909. 1211.25  -2
  -5  -1   4 167909. 1211.25   1
  -5  -1   3 173043. 1086.97   1
   0  -4  -2 13315.1 488.903  -2
  -5  -1   2 13315.1 488.903   1
  -5  -1   1 80061.5 1318.37   1
  -1  -5   0 46382.3 1057.27  -2
  -5  -1   0 46382.3 1057.27   1
   5   1   1 220.757 191.847   1
  -2  -6   2 65808.4 946.067  -2
  -5  -1  -2 65808.4 946.067   1
   5   1   3 46564.9 745.446   1
  -3  -7   4 18270.3 705.235  -2
  -5  -1  -4 18270.3 705.235   1
   5   1   5 86519.2 1123.53   1
   4   8  -6 5259.32 449.846  -2
   5   1   6 5259.32 449.846   1
   5   1   7 15229.6 482.591   1
   5   9  -8 40007.8 1099.61  -2
   5   1   8 40007.8 1099.61   1
   5   1   9 2237.31 384.758   1
   6  10 -10 18775.4 2017.17  -2
   5   1  10 18775.4 2017.17   1
  -5  -2  15 20330.2 1252.77   1
   5   2 -14 2656.21 1014.00  -2
  -5  -2  14 2656.21 1014.00   1
  -5  -2  13 11341.7 433.842   1
   4   1 -12 60128.6 844.241  -2
  -5  -2  12 60128.6 844.241   1
  -5  -2  11 322.944 198.608   1
   3   0 -10 148352. 1395.06  -2
  -5  -2  10 148352. 1395.06   1
  -5  -2   9 4084.07 239.594   1
   2  -1  -8 18954.1 458.409  -2
  -5  -2   8 18954.1 458.409   1
  -5  -2   7 8444.33 389.637   1
   1  -2  -6 35129.8 846.180  -2
  -5  -2   6 35129.8 846.180   1
  -5  -2   5 15931.6 480.065   1
   0  -3  -4 224109. 1063.03  -2
  -5  -2   4 224109. 1063.03   1
  -5  -2   3 34101.3 487.275   1
   1   4   2 86538.8 1073.92  -2
   5   2  -2 86538.8 1073.92   1
  -5  -2   1 96704.1 1176.82   1
  -2  -5   0 10068.5 450.382  -2
  -5  -2   0 10068.5 450.382   1
   5   2   1 60032.1 743.721   1
   3   6  -2 50717.3 1009.01  -2
   5   2   2 50717.3 1009.01   1
   5   2   3 261.894 294.757   1
   4   7  -4 45910.8 885.657  -2
   5   2   4 45910.8 885.657   1
   5   2   5 66172.8 837.318   1
   5   8  -6 1990.26 405.367  -2
   5   2   6 1990.26 405.367   1
   5   2   7 36224.7 697.821   1
   6   9  -8 14517.1 663.921  -2
   5   2   8 14517.1 663.921   1
   5   2   9 1726.42 1055.07   1
  -5  -3  15 8531.61 926.560   1
   4   2 -14 10942.6 842.660  -2
  -5  -3  14 10942.6 842.660   1
  -5  -3  13 14115.8 467.869   1
   3   1 -12 9503.57 417.750  -2
  -5  -3  12 9503.57 417.750   1
   5   3 -11 2785.15 247.896   1
  -2   0  10 133244. 1165.91  -2
   5   3 -10 133244. 1165.91   1
  -5  -3   9 6243.09 406.020   1
  -1   1   8 148085. 1873.87  -2
   5   3  -8 148085. 1873.87   1
  -5  -3   7 770.012 257.490   1
   0  -2  -6 990.866 428.062  -2
  -5  -3   6 990.866 428.062   1
   5   3  -5 24202.3 606.173   1
  -1  -3  -4 101231. 1027.78  -2
  -5  -3   4 101231. 1027.78   1
  -5  -3   3 1167.04 212.622   1
  -2  -4  -2 90689.9 1490.14  -2
  -5  -3   2 90689.9 1490.14   1
  -5  -3   1 30673.3 606.816   1
  -3  -5   0 14866.3 612.186  -2
  -5  -3   0 14866.3 612.186   1
   5   3   1 111861. 1065.58   1
   4   6  -2 8782.17 547.390  -2
   5   3   2 8782.17 547.390   1
   5   3   3 32188.4 628.350   1
  -5  -7   4 35272.2 833.136  -2
  -5  -3  -4 35272.2 833.136   1
  -5  -3  -5 7341.43 401.837   1
  -6  -8   6 13564.6 605.455  -2
  -5  -3  -6 13564.6 605.455   1
   5   3   7 29325.3 735.526   1
   7   9  -8 783.325 578.425  -2
   5   3   8 783.325 578.425   1
  -5  -4  15 1081.39 718.769   1
   3   2 -14 34424.7 1349.84  -2
  -5  -4  14 34424.7 1349.84   1
  -5  -4  13 12161.0 566.243   1
   2   1 -12 5036.91 349.661  -2
  -5  -4  12 5036.91 349.661   1
  -5  -4  11 11067.4 504.470   1
   1   0 -10 43738.4 1119.86  -2
  -5  -4  10 43738.4 1119.86   1
  -5  -4   9 8500.75 556.813   1
   0  -1  -8 142522. 2341.02  -2
  -5  -4   8 142522. 2341.02   1
   5   4  -7-86.3187 249.641   1
  -1  -2  -6 64347.2 1848.32  -2
  -5  -4   6 64347.2 1848.32   1
  -5  -4   5 24355.1 956.861   1
   2   3   4 24701.1 591.421  -2
   5   4  -4 24701.1 591.421   1
   5   4  -3 5010.01 283.589   1
  -3  -4  -2 77354.9 1223.24  -2
  -5  -4   2 77354.9 1223.24   1
  -5  -4   1 689.271 242.553   1
   4   5   0 42742.1 917.683  -2
   5   4   0 42742.1 917.683   1
  -5  -4  -1 57175.1 878.156   1
   5   6  -2 4874.28 463.816  -2
   5   4   2 4874.28 463.816   1
   5   4   3 84620.2 1063.98   1
  -6  -7   4 10280.8 597.455  -2
  -5  -4  -4 10280.8 597.455   1
   5   4   5 5290.23 458.333   1
   7   8  -6 20868.1 839.172  -2
   5   4   6 20868.1 839.172   1
   5   4   7 6702.18 591.419   1
  -5  -5  15 23369.9 1302.57   1
   2   2 -14 24966.9 1293.05  -2
  -5  -5  14 24966.9 1293.05   1
  -5  -5  13 861.011 402.388   1
   1   1 -12 49113.1 1712.67  -2
  -5  -5  12 49113.1 1712.67   1
  -5  -5  11 12268.0 654.951   1
   0   0 -10 741.899 559.758  -2
  -5  -5  10 741.899 559.758   1
  -5  -5   9 17518.2 730.217   1
   1   1   8 53226.7 1149.24  -2
   5   5  -8 53226.7 1149.24   1
   5   5  -7 1596.71 304.454   1
  -2  -2  -6 133504. 2695.74  -2
  -5  -5   6 133504. 2695.74   1
  -5  -5   5 8570.26 337.671   1
   3   3   4 21101.7 611.125  -2
   5   5  -4 21101.7 611.125   1
   5   5  -3 30234.7 609.111   1
   4   4   2 12299.5 676.573  -2
   5   5  -2 12299.5 676.573   1
   5   5  -1 31346.8 659.683   1
   5   5   0 48874.9 1092.36  -2
   5   5   0 48874.9 1092.36   1
  -5  -5  -1 1114.82 301.332   1
  -6  -6   2 11019.8 637.913  -2
  -5  -5  -2 11019.8 637.913   1
   5   5   3 56423.4 908.939   1
   7   7  -4 868.109 498.072  -2
   5   5   4 868.109 498.072   1
   5   5   5 29854.4 814.324   1
   8   8  -6 7117.30 801.207  -2
   5   5   6 7117.30 801.207   1
  -5  -6  15 39964.4 1706.71   1
   1   2 -14 7759.97 998.869  -2
  -5  -6  14 7759.97 998.869   1
  -5  -6  13 10701.4 818.249   1
   0   1 -12 42083.2 1758.69  -2
  -5  -6  12 42083.2 1758.69   1
   5   6 -11 1168.35 541.755   1
   1   0  10 22739.5 1157.28  -2
   5   6 -10 22739.5 1157.28   1
   5   6  -9 19437.6 667.035   1
   2   1   8 2567.06 488.173  -2
   5   6  -8 2567.06 488.173   1
   5   6  -7 1498.45 358.039   1
  -3  -2  -6 81745.9 1147.09  -2
  -5  -6   6 81745.9 1147.09   1
   5   6  -5 1120.42 271.914   1
  -4  -3  -4 80441.1 1152.27  -2
  -5  -6   4 80441.1 1152.27   1
   5   6  -3 7506.57 442.630   1
   5   4   2 8977.29 571.080  -2
   5   6  -2 8977.29 571.080   1
   5   6  -1 36788.0 787.196   1
   6   5   0 11366.4 708.549  -2
   5   6   0 11366.4 708.549   1
   5   6   1 5939.97 408.171   1
   7   6  -2 15467.3 840.044  -2
   5   6   2 15467.3 840.044   1
   5   6   3 15375.8 657.478   1
   8   7  -4 1346.79 557.240  -2
   5   6   4 1346.79 557.240   1
   5   6   5 30523.8 1006.77   1
   0   2 -14 2154.20 1229.90  -2
  -5  -7  14 2154.20 1229.90   1
  -5  -7  13 43053.1 2011.99   1
  -1   1 -12 22411.0 2062.93  -2
  -5  -7  12 22411.0 2062.93   1
  -5  -7  11 3009.79 918.164   1
  -2   0 -10 62963.1 3118.88  -2
  -5  -7  10 62963.1 3118.88   1
   5   7  -9 1108.72 568.782   1
   3   1   8 41113.1 1825.39  -2
   5   7  -8 41113.1 1825.39   1
  -5  -7   7 318.208 760.443   1
   4   2   6 17424.4 780.458  -2
   5   7  -6 17424.4 780.458   1
   5   7  -5 1074.22 359.418   1
   5   3   4 68732.5 1729.92  -2
   5   7  -4 68732.5 1729.92   1
   5   7  -3 930.299 371.150   1
   6   4   2 35614.0 1234.46  -2
   5   7  -2 35614.0 1234.46   1
   5   7  -1 29109.6 1079.03   1
   7   5   0 1562.56 726.317  -2
   5   7   0 1562.56 726.317   1
   5   7   1 25035.3 1041.02   1
   8   6  -2 12397.0 1137.22  -2
   5   7   2 12397.0 1137.22   1
   5   7   3 155.473 565.812   1
   9   7  -4 2652.74 850.008  -2
   5   7   4 2652.74 850.008   1
  -1   2 -14 10390.1 1612.28  -2
  -5  -8  14 10390.1 1612.28   1
  -5  -8  13 39553.5 2019.35   1
  -2   1 -12 2153.12 1312.37  -2
  -5  -8  12 2153.12 1312.37   1
  -5  -8  11 24434.5 1653.35   1
  -3   0 -10 49314.1 2818.83  -2
  -5  -8  10 49314.1 2818.83   1
  -5  -8   9 1083.58 833.724   1
  -4  -1  -8 66612.8 3198.81  -2
  -5  -8   8 66612.8 3198.81   1
  -5  -8   7 282.349 800.927   1
   5   2   6 4757.52 714.604  -2
   5   8  -6 4757.52 714.604   1
  -5  -8   5 772.737 444.873   1
   6   3   4 18005.5 1237.52  -2
   5   8  -4 18005.5 1237.52   1
   5   8  -3 2969.47 548.813   1
  -7  -4  -2 42958.0 1602.34  -2
  -5  -8   2 42958.0 1602.34   1
   5   8  -1 5177.96 657.298   1
   8   5   0 4358.82 876.806  -2
   5   8   0 4358.82 876.806   1
   5   8   1 21287.0 1052.92   1
   9   6  -2 901.137 818.787  -2
   5   8   2 901.137 818.787   1
  -5  -9  13 11440.4 1353.33   1
  -3   1 -12 9319.06 1672.95  -2
  -5  -9  12 9319.06 1672.95   1
  -5  -9  11 30409.4 1850.52   1
  -4   0 -10 9413.15 1743.84  -2
  -5  -9  10 9413.15 1743.84   1
  -5  -9   9 4315.94 1019.98   1
  -5  -1  -8 58981.9 3158.81  -2
  -5  -9   8 58981.9 3158.81   1
   5   9  -7 139.330 435.498   1
   6   2   6 34418.6 1462.22  -2
   5   9  -6 34418.6 1462.22   1
   5   9  -5 256.691 558.513   1
   7   3   4 358.502 740.250  -2
   5   9  -4 358.502 740.250   1
   5   9  -3 4469.55 616.681   1
   8   4   2 28740.9 1442.50  -2
   5   9  -2 28740.9 1442.50   1
  -5  -9   1 392.197 574.555   1
   9   5   0 26456.1 1463.35  -2
   5   9   0 26456.1 1463.35   1
  -4   1 -12 20493.0 2137.83  -2
  -5 -10  12 20493.0 2137.83   1
  -5 -10  11 14821.5 1483.59   1
  -5   0 -10 4555.23 1525.33  -2
  -5 -10  10 4555.23 1525.33   1
  -5 -10   9 11875.7 1399.49   1
  -6  -1  -8 21975.5 2199.44  -2
  -5 -10   8 21975.5 2199.44   1
  -5 -10   7 1541.80 596.767   1
   7   2   6 46522.1 2133.38  -2
   5  10  -6 46522.1 2133.38   1
   5  10  -5 723.474 633.985   1
   8   3   4 21324.1 1251.48  -2
   5  10  -4 21324.1 1251.48   1
  -5 -10   3 3789.41 659.121   1
   9   4   2 3157.51 833.758  -2
   5  10  -2 3157.51 833.758   1
  -5 -11   9 6331.93 1182.31   1
  -7  -1  -8 1222.11 1377.04  -2
  -5 -11   8 1222.11 1377.04   1
  -5 -11   7 3426.14 744.832   1
   8   2   6 25848.2 1738.98  -2
   5  11  -6 25848.2 1738.98   1
  -6  13  -1 2317.97 567.246   1
  12  -7   2 48389.9 1578.41  -2
  -6  13  -2 48389.9 1578.41   1
   6 -13   3 396.637 744.759   1
 -11   8  -4 27232.0 1516.05  -2
   6 -13   4 27232.0 1516.05   1
   6 -13   5 185.480 610.933   1
 -10   9  -6 8440.72 1096.35  -2
   6 -13   6 8440.72 1096.35   1
   6 -13   7 2057.53 676.823   1
 -13   5   2 14313.3 1001.66  -2
   6 -12  -2 14313.3 1001.66   1
   6 -12  -1 13273.5 708.858   1
 -12   6   0 16464.9 1124.89  -2
   6 -12   0 16464.9 1124.89   1
   6 -12   1 16804.2 913.913   1
 -11   7  -2 32919.1 1914.38  -2
   6 -12   2 32919.1 1914.38   1
   6 -12   3 183.284 558.604   1
 -10   8  -4 70880.5 2111.07  -2
   6 -12   4 70880.5 2111.07   1
   6 -12   5 669.984 598.124   1
  -9   9  -6 31702.2 1539.80  -2
   6 -12   6 31702.2 1539.80   1
   6 -12   7 1604.63 625.772   1
  -8  10  -8 11578.9 1159.61  -2
   6 -12   8 11578.9 1159.61   1
   6 -12   9 2891.97 696.680   1
 -13   4   4 14311.8 1305.56  -2
   6 -11  -4 14311.8 1305.56   1
   6 -11  -3 9176.45 598.346   1
 -12   5   2 14276.7 727.117  -2
   6 -11  -2 14276.7 727.117   1
   6 -11  -1 4251.86 409.955   1
 -11   6   0 32984.7 1198.35  -2
   6 -11   0 32984.7 1198.35   1
   6 -11   1 27632.2 1032.59   1
 -10   7  -2 23122.6 1614.73  -2
   6 -11   2 23122.6 1614.73   1
   6 -11   3 6235.87 688.912   1
  -9   8  -4 55218.1 1815.88  -2
   6 -11   4 55218.1 1815.88   1
   6 -11   5-189.817 517.508   1
  -8   9  -6 59934.8 1941.63  -2
   6 -11   6 59934.8 1941.63   1
   6 -11   7 1612.24 623.216   1
  -7  10  -8 24876.2 1385.79  -2
   6 -11   8 24876.2 1385.79   1
   6 -11   9 10714.1 1282.38   1
  -6  11 -10 21045.8 1957.04  -2
   6 -11  10 21045.8 1957.04   1
  -6  10   5 31415.8 1265.91   1
  12  -4  -4 16738.0 679.627  -2
  -6  10   4 16738.0 679.627   1
   6 -10  -3 37477.5 799.746   1
 -11   5   2 17293.8 775.027  -2
   6 -10  -2 17293.8 775.027   1
   6 -10  -1 4984.33 471.991   1
 -10   6   0 52241.0 1369.35  -2
   6 -10   0 52241.0 1369.35   1
   6 -10   1 12284.7 742.429   1
  -9   7  -2 51698.3 1664.92  -2
   6 -10   2 51698.3 1664.92   1
   6 -10   3 10268.2 764.028   1
  -8   8  -4 28875.4 1354.61  -2
   6 -10   4 28875.4 1354.61   1
   6 -10   5 690.161 538.061   1
  -7   9  -6 65577.6 1919.23  -2
   6 -10   6 65577.6 1919.23   1
   6 -10   7-244.055 566.732   1
  -6  10  -8 77596.0 3090.22  -2
   6 -10   8 77596.0 3090.22   1
   6 -10   9 7055.16 773.935   1
  -5  11 -10 24643.9 1709.84  -2
   6 -10  10 24643.9 1709.84   1
   6 -10  11 13584.1 1210.88   1
  -6   9   7 12421.0 932.377   1
 -12   3   6 2533.01 842.318  -2
   6  -9  -6 2533.01 842.318   1
   6  -9  -5 3588.07 679.715   1
 -11   4   4 11897.4 559.673  -2
   6  -9  -4 11897.4 559.673   1
   6  -9  -3 46388.8 749.327   1
 -10   5   2 32674.6 1141.32  -2
   6  -9  -2 32674.6 1141.32   1
   6  -9  -1 35317.0 877.340   1
  -9   6   0 17733.1 844.242  -2
   6  -9   0 17733.1 844.242   1
  -6   9  -1 3983.50 526.234   1
  -8   7  -2 74018.2 1873.14  -2
   6  -9   2 74018.2 1873.14   1
   6  -9   3 10332.2 778.713   1
  -7   8  -4 68370.2 1882.60  -2
   6  -9   4 68370.2 1882.60   1
   6  -9   5 4018.38 614.139   1
  -6   9  -6 32325.6 1958.34  -2
   6  -9   6 32325.6 1958.34   1
   6  -9   7 1716.41 868.086   1
  -5  10  -8 88227.7 2174.20  -2
   6  -9   8 88227.7 2174.20   1
   6  -9   9 871.413 768.780   1
  -4  11 -10 63346.9 2370.26  -2
   6  -9  10 63346.9 2370.26   1
   6  -9  11 8964.90 811.373   1
 -12   2   8 10122.3 1076.68  -2
   6  -8  -8 10122.3 1076.68   1
   6  -8  -7 40604.8 1315.86   1
  11  -3  -6 4236.07 645.471  -2
  -6   8   6 4236.07 645.471   1
   6  -8  -5 15183.0 676.035   1
 -10   4   4 3155.88 333.077  -2
   6  -8  -4 3155.88 333.077   1
   6  -8  -3 10125.3 343.999   1
   9  -5  -2 36633.4 887.269  -2
  -6   8   2 36633.4 887.269   1
  -6   8   1 101655. 1254.69   1
   8  -6   0 25063.9 782.308  -2
  -6   8   0 25063.9 782.308   1
  -6   8  -1 26620.7 647.184   1
   7  -7   2 59918.1 1309.95  -2
  -6   8  -2 59918.1 1309.95   1
   6  -8   3 597.632 434.165   1
   6  -8   4 92607.5 1666.94  -2
  -6   8  -4 92607.5 1666.94   1
   6  -8   5 10102.5 565.483   1
  -5   9  -6 32220.4 1052.53  -2
   6  -8   6 32220.4 1052.53   1
  -6   8  -7 382.574 407.905   1
   4 -10   8 72492.5 1823.16  -2
  -6   8  -8 72492.5 1823.16   1
  -6   8  -9 484.529 486.595   1
   3 -11  10 59030.0 1389.32  -2
  -6   8 -10 59030.0 1389.32   1
   6  -8  11 2720.28 485.029   1
  -6   7   9 817.623 600.238   1
  11  -2  -8 9506.53 1000.76  -2
  -6   7   8 9506.53 1000.76   1
  -6   7   7 40056.6 946.733   1
  10  -3  -6 9218.82 736.821  -2
  -6   7   6 9218.82 736.821   1
  -6   7   5 82486.3 1313.90   1
  -9   4   4 1754.72 454.333  -2
   6  -7  -4 1754.72 454.333   1
  -6   7   3 4982.64 276.523   1
  -8   5   2 20620.6 644.559  -2
   6  -7  -2 20620.6 644.559   1
   6  -7  -1 55818.7 919.573   1
   7  -6   0 28032.2 894.191  -2
  -6   7   0 28032.2 894.191   1
  -6   7  -1 67862.8 945.388   1
  -6   7  -2 23457.7 743.475  -2
   6  -7   2 23457.7 743.475   1
   6  -7   3 12306.4 561.770   1
  -5   8  -4 101070. 1449.13  -2
   6  -7   4 101070. 1449.13   1
   6  -7   5 611.149 313.395   1
  -4   9  -6 77671.8 1342.05  -2
   6  -7   6 77671.8 1342.05   1
  -6   7  -7 1462.98 487.138   1
   3 -10   8 25601.5 1137.52  -2
  -6   7  -8 25601.5 1137.52   1
  -6   7  -9 1376.94 416.703   1
   2 -11  10 39534.1 1131.45  -2
  -6   7 -10 39534.1 1131.45   1
  -6   7 -11 425.479 406.100   1
  -1  12 -12 59310.8 2912.95  -2
   6  -7  12 59310.8 2912.95   1
 -11   1  10 10252.9 1009.31  -2
   6  -6 -10 10252.9 1009.31   1
   6  -6  -9 13525.2 856.905   1
  10  -2  -8 13491.3 779.089  -2
  -6   6   8 13491.3 779.089   1
  -6   6   7 16210.3 648.262   1
   9  -3  -6 9842.18 628.305  -2
  -6   6   6 9842.18 628.305   1
   6  -6  -5 107266. 1240.20   1
   8  -4  -4 3796.92 478.013  -2
  -6   6   4 3796.92 478.013   1
   6  -6  -3 76695.3 737.422   1
  -7   5   2 1498.88 274.204  -2
   6  -6  -2 1498.88 274.204   1
  -6   6   1 264.773 265.723   1
   6  -6   0 17870.8 681.004  -2
  -6   6   0 17870.8 681.004   1
   6  -6   1 62282.7 1004.71   1
  -5   7  -2 18701.7 772.244  -2
   6  -6   2 18701.7 772.244   1
   6  -6   3 53838.5 845.327   1
  -4   8  -4 32015.8 845.185  -2
   6  -6   4 32015.8 845.185   1
  -6   6  -5 4828.70 281.820   1
  -3   9  -6 134456. 2225.38  -2
   6  -6   6 134456. 2225.38   1
  -6   6  -7 257.586 424.895   1
   2 -10   8 46819.1 1176.29  -2
  -6   6  -8 46819.1 1176.29   1
  -6   6  -9 210.331 370.043   1
  -1  11 -10 10985.3 705.877  -2
   6  -6  10 10985.3 705.877   1
  -6   6 -11 2958.05 639.076   1
   0  12 -12 56094.2 2732.44  -2
   6  -6  12 56094.2 2732.44   1
  -6   5  11 8285.51 741.977   1
 -10   1  10 576.898 661.898  -2
   6  -5 -10 576.898 661.898   1
   6  -5  -9 34129.1 1134.35   1
   9  -2  -8 19632.7 871.189  -2
  -6   5   8 19632.7 871.189   1
   6  -5  -7 3763.36 372.282   1
  -8   3   6 16506.8 698.296  -2
   6  -5  -6 16506.8 698.296   1
   6  -5  -5 57391.0 885.306   1
  -7   4   4 1338.26 375.121  -2
   6  -5  -4 1338.26 375.121   1
   6  -5  -3 132230. 938.061   1
   6  -5  -2 765.294 261.562  -2
  -6   5   2 765.294 261.562   1
  -6   5   1 50612.3 716.486   1
   5  -6   0 11568.1 549.284  -2
  -6   5   0 11568.1 549.284   1
   6  -5   1 5168.65 326.711   1
   4  -7   2 78049.1 1295.02  -2
  -6   5  -2 78049.1 1295.02   1
   6  -5   3 37686.4 623.363   1
   3  -8   4 4064.76 323.585  -2
  -6   5  -4 4064.76 323.585   1
   6  -5   5 21382.0 466.150   1
  -2   9  -6 64022.7 1277.97  -2
   6  -5   6 64022.7 1277.97   1
   6  -5   7 1625.67 380.467   1
   1 -10   8 80085.3 1448.60  -2
  -6   5  -8 80085.3 1448.60   1
   6  -5   9 483.236 363.976   1
   0 -11  10 13705.1 730.758  -2
  -6   5 -10 13705.1 730.758   1
   6  -5  11 5943.12 1219.44   1
  10   0 -12 45248.2 604.343  -2
  -6   4  12 45248.2 604.343   1
  -6   4  11 3220.40 962.250   1
  -9   1  10 22166.0 1251.60  -2
   6  -4 -10 22166.0 1251.60   1
   6  -4  -9 38631.6 782.214   1
  -8   2   8 3890.82 480.898  -2
   6  -4  -8 3890.82 480.898   1
   6  -4  -7 53642.9 865.507   1
   7  -3  -6 32449.7 498.394  -2
  -6   4   6 32449.7 498.394   1
  -6   4   5 562.310 263.019   1
   6  -4  -4 852.318 203.655  -2
  -6   4   4 852.318 203.655   1
   6  -4  -3 65212.7 694.686   1
   5  -5  -2 1254.48 218.559  -2
  -6   4   2 1254.48 218.559   1
   6  -4  -1 143800. 997.797   1
   4  -6   0 6137.73 339.189  -2
  -6   4   0 6137.73 339.189   1
   6  -4   1 33254.0 697.776   1
  -3   7  -2 79151.6 1238.65  -2
   6  -4   2 79151.6 1238.65   1
  -6   4  -3 15159.9 391.753   1
   2  -8   4 25276.1 614.771  -2
  -6   4  -4 25276.1 614.771   1
   6  -4   5 37707.8 825.404   1
   1  -9   6 9033.80 530.572  -2
  -6   4  -6 9033.80 530.572   1
   6  -4   7 10277.3 529.244   1
   0 -10   8 72984.1 1374.61  -2
  -6   4  -8 72984.1 1374.61   1
  -6   4  -9 480.857 356.851   1
  -1 -11  10 56092.2 1565.96  -2
  -6   4 -10 56092.2 1565.96   1
  -6   4 -11 897.507 418.136   1
   9   0 -12 34548.0 2235.81  -2
  -6   3  12 34548.0 2235.81   1
  -6   3  11 566.016 798.092   1
   8  -1 -10 75663.3 445.094  -2
  -6   3  10 75663.3 445.094   1
   6  -3  -9 20413.9 587.228   1
   7  -2  -8 39145.9 321.390  -2
  -6   3   8 39145.9 321.390   1
  -6   3   7 74963.0 982.380   1
  -6   3   6 10601.0 147.301  -2
   6  -3  -6 10601.0 147.301   1
  -6   3   5 56179.4 795.674   1
  -5   4   4 12766.4 196.195  -2
   6  -3  -4 12766.4 196.195   1
   6  -3  -3 6169.55 251.039   1
   4  -5  -2 10474.3 404.947  -2
  -6   3   2 10474.3 404.947   1
  -6   3   1 126445. 941.867   1
   3  -6   0 2115.26 272.664  -2
  -6   3   0 2115.26 272.664   1
  -6   3  -1 153926. 1195.59   1
   2  -7   2 40124.7 762.004  -2
  -6   3  -2 40124.7 762.004   1
   6  -3   3 5288.42 347.823   1
   1  -8   4 56664.0 1156.53  -2
  -6   3  -4 56664.0 1156.53   1
  -6   3  -5 33511.9 703.403   1
   0   9  -6 3386.81 432.930  -2
   6  -3   6 3386.81 432.930   1
   6  -3   7 23332.4 709.111   1
   1  10  -8 16225.9 753.908  -2
   6  -3   8 16225.9 753.908   1
  -6   3  -9 402.379 336.802   1
  -2 -11  10 60241.7 1141.66  -2
  -6   3 -10 60241.7 1141.66   1
   6  -3  11 689.381 771.694   1
  -6   2  13 1269.77 823.938   1
   8   0 -12 10500.3 1451.59  -2
  -6   2  12 10500.3 1451.59   1
  -6   2  11 10871.8 558.681   1
   7  -1 -10 39295.8 398.079  -2
  -6   2  10 39295.8 398.079   1
   6  -2  -9 451.382 286.057   1
  -6   2   8 85966.9 454.330  -2
   6  -2  -8 85966.9 454.330   1
   6  -2  -7 45290.4 859.910   1
   5  -3  -6 30254.4 310.164  -2
  -6   2   6 30254.4 310.164   1
   6  -2  -5 91229.2 686.591   1
   4  -4  -4 4582.54 249.746  -2
  -6   2   4 4582.54 249.746   1
   6  -2  -3 27988.1 491.415   1
  -3   5   2 25048.6 547.926  -2
   6  -2  -2 25048.6 547.926   1
   6  -2  -1 36544.8 490.400   1
  -2   6   0 25825.6 655.395  -2
   6  -2   0 25825.6 655.395   1
   6  -2   1 182452. 1353.00   1
   1  -7   2 9165.78 545.298  -2
  -6   2  -2 9165.78 545.298   1
  -6   2  -3 76898.0 1118.56   1
   0  -8   4 35553.4 839.106  -2
  -6   2  -4 35553.4 839.106   1
   6  -2   5 149.869 344.828   1
  -1  -9   6 62767.8 1142.26  -2
  -6   2  -6 62767.8 1142.26   1
  -6   2  -7 13516.7 582.230   1
   2  10  -8 4365.26 484.355  -2
   6  -2   8 4365.26 484.355   1
   6  -2   9 2587.36 380.358   1
   3  11 -10 16682.4 745.898  -2
   6  -2  10 16682.4 745.898   1
   6  -1 -13 143.893 428.424   1
  -7   0  12 68613.5 1995.18  -2
   6  -1 -12 68613.5 1995.18   1
  -6   1  11 10256.1 504.563   1
   6  -1 -10 7547.96 237.803  -2
  -6   1  10 7547.96 237.803   1
  -6   1   9 709.129 134.787   1
   5  -2  -8 81827.3 586.722  -2
  -6   1   8 81827.3 586.722   1
  -6   1   7 356.920 162.451   1
   4  -3  -6 119835. 778.718  -2
  -6   1   6 119835. 778.718   1
   6  -1  -5 93813.8 756.646   1
  -3   4   4 22925.5 523.757  -2
   6  -1  -4 22925.5 523.757   1
   6  -1  -3 195616. 1293.42   1
  -2   5   2 16682.3 496.059  -2
   6  -1  -2 16682.3 496.059   1
   6  -1  -1 6110.62 298.927   1
  -1   6   0 60119.0 1027.33  -2
   6  -1   0 60119.0 1027.33   1
  -6   1  -1 41620.4 854.088   1
   0  -7   2 23426.9 819.761  -2
  -6   1  -2 23426.9 819.761   1
   6  -1   3 100310. 969.940   1
   1   8  -4 4188.94 371.641  -2
   6  -1   4 4188.94 371.641   1
   6  -1   5 14208.3 416.739   1
   2   9  -6 63827.8 1041.38  -2
   6  -1   6 63827.8 1041.38   1
   6  -1   7 1878.74 283.359   1
   3  10  -8 40516.6 960.572  -2
   6  -1   8 40516.6 960.572   1
   6  -1   9 1756.04 366.960   1
   4  11 -10 2387.62 1018.17  -2
   6  -1  10 2387.62 1018.17   1
   7   1 -14 31739.7 2132.96  -2
  -6   0  14 31739.7 2132.96   1
   6   0 -13 181.751 359.322   1
  -6   0  12 110982. 1625.84  -2
   6   0 -12 110982. 1625.84   1
   6   0 -11 658.606 190.422   1
   5  -1 -10 54415.8 503.500  -2
  -6   0  10 54415.8 503.500   1
  -6   0   9 9704.37 263.208   1
   4  -2  -8 22605.8 319.068  -2
  -6   0   8 22605.8 319.068   1
  -6   0   7 13172.7 298.763   1
   3  -3  -6 97913.8 567.937  -2
  -6   0   6 97913.8 567.937   1
  -6   0   5 7680.97 291.027   1
   2  -4  -4 101970. 1081.26  -2
  -6   0   4 101970. 1081.26   1
   6   0  -3 156740. 1118.81   1
  -1   5   2 12037.5 563.724  -2
   6   0  -2 12037.5 563.724   1
   6   0  -1 121716. 1224.79   1
   0   6   0 13045.4 650.541  -2
   6   0   0 13045.4 650.541   1
  -6   0  -1 178.326 213.572   1
   1   7  -2 60952.2 982.555  -2
   6   0   2 60952.2 982.555   1
   6   0   3 55368.7 772.424   1
   2   8  -4 15397.1 533.485  -2
   6   0   4 15397.1 533.485   1
   6   0   5 46448.2 786.284   1
   3   9  -6 14946.2 608.829  -2
   6   0   6 14946.2 608.829   1
   6   0   7 2054.83 316.570   1
  -4 -10   8 64866.1 1270.26  -2
  -6   0  -8 64866.1 1270.26   1
   6   0   9 379.113 378.170   1
  -6  -1  14 6440.10 775.529  -2
   6   1 -14 6440.10 775.529   1
   6   1 -13 545.629 345.627   1
   5   0 -12 91544.9 1029.55  -2
  -6  -1  12 91544.9 1029.55   1
  -6  -1  11 1445.79 224.266   1
   4  -1 -10 116388. 1245.40  -2
  -6  -1  10 116388. 1245.40   1
  -6  -1   9 7048.14 255.832   1
   3  -2  -8 18877.0 434.055  -2
  -6  -1   8 18877.0 434.055   1
  -6  -1   7 43596.3 574.071   1
   2  -3  -6 48949.8 735.303  -2
  -6  -1   6 48949.8 735.303   1
  -6  -1   5 12631.5 331.110   1
  -1   4   4 127461. 1186.32  -2
   6   1  -4 127461. 1186.32   1
  -6  -1   3 23936.4 605.532   1
   0  -5  -2 99626.9 1253.56  -2
  -6  -1   2 99626.9 1253.56   1
   6   1  -1 100710. 1601.35   1
  -1  -6   0 2454.56 381.421  -2
  -6  -1   0 2454.56 381.421   1
   6   1   1 46410.7 670.365   1
   2   7  -2 45770.6 851.307  -2
   6   1   2 45770.6 851.307   1
   6   1   3 3655.39 309.375   1
   3   8  -4 46178.6 949.577  -2
   6   1   4 46178.6 949.577   1
  -6  -1  -5 45910.8 772.448   1
   4   9  -6 2934.10 388.457  -2
   6   1   6 2934.10 388.457   1
   6   1   7 23985.6 630.757   1
   5  10  -8 20397.5 1012.32  -2
   6   1   8 20397.5 1012.32   1
   6   1   9-365.438 1037.50   1
  -5  -1  14 29042.7 1288.26  -2
   6   2 -14 29042.7 1288.26   1
  -6  -2  13 2990.82 343.352   1
   4   0 -12 16134.1 500.295  -2
  -6  -2  12 16134.1 500.295   1
  -6  -2  11 1907.69 241.652   1
   3  -1 -10 143563. 929.176  -2
  -6  -2  10 143563. 929.176   1
  -6  -2   9 328.819 278.436   1
   2  -2  -8 122645. 1626.29  -2
  -6  -2   8 122645. 1626.29   1
  -6  -2   7 37232.6 737.019   1
   1  -3  -6 10225.5 326.690  -2
  -6  -2   6 10225.5 326.690   1
   6   2  -5 54259.8 442.234   1
   0   4   4 82075.3 801.925  -2
   6   2  -4 82075.3 801.925   1
  -6  -2   3 359.924 188.635   1
  -1  -5  -2 76356.0 1320.08  -2
  -6  -2   2 76356.0 1320.08   1
   6   2  -1 72732.4 979.011   1
  -2  -6   0 16429.3 575.500  -2
  -6  -2   0 16429.3 575.500   1
   6   2   1 123343. 1110.24   1
   3   7  -2 5518.41 444.292  -2
   6   2   2 5518.41 444.292   1
   6   2   3 27360.9 631.009   1
   4   8  -4 36624.9 930.494  -2
   6   2   4 36624.9 930.494   1
   6   2   5 9256.69 451.038   1
   5   9  -6 18480.4 696.821  -2
   6   2   6 18480.4 696.821   1
   6   2   7 21007.3 663.634   1
   6  10  -8 3201.38 616.728  -2
   6   2   8 3201.38 616.728   1
  -6  -3  15 56.7193 680.223   1
   4   1 -14 56824.4 2565.76  -2
  -6  -3  14 56824.4 2565.76   1
  -6  -3  13 1749.81 347.942   1
  -3   0  12 7140.16 589.091  -2
   6   3 -12 7140.16 589.091   1
  -6  -3  11 2283.19 366.651   1
   2  -1 -10 53498.4 1089.84  -2
  -6  -3  10 53498.4 1089.84   1
  -6  -3   9 9057.82 438.731   1
   1  -2  -8 182266. 2124.36  -2
  -6  -3   8 182266. 2124.36   1
  -6  -3   7 5821.16 427.316   1
   0  -3  -6 58010.9 713.208  -2
  -6  -3   6 58010.9 713.208   1
  -6  -3   5 55526.3 407.583   1
  -1  -4  -4 9172.81 432.057  -2
  -6  -3   4 9172.81 432.057   1
  -6  -3   3 38143.9 637.994   1
  -2  -5  -2 66230.0 1387.28  -2
  -6  -3   2 66230.0 1387.28   1
  -6  -3   1 2170.16 295.600   1
  -3  -6   0 43559.5 884.927  -2
  -6  -3   0 43559.5 884.927   1
   6   3   1 90596.3 931.289   1
   4   7  -2 3700.00 487.335  -2
   6   3   2 3700.00 487.335   1
   6   3   3 46790.8 833.640   1
   5   8  -4 12599.3 653.424  -2
   6   3   4 12599.3 653.424   1
   6   3   5 3535.86 370.552   1
   6   9  -6 33039.9 881.610  -2
   6   3   6 33039.9 881.610   1
   6   3   7 4298.12 528.392   1
  -6  -4  15 7804.49 972.609   1
   3   1 -14 61467.9 1510.48  -2
  -6  -4  14 61467.9 1510.48   1
  -6  -4  13 213.226 339.034   1
   2   0 -12 31162.0 1024.73  -2
  -6  -4  12 31162.0 1024.73   1
   6   4 -11 5594.72 464.010   1
   1  -1 -10 631.085 296.179  -2
  -6  -4  10 631.085 296.179   1
  -6  -4   9 6618.13 490.208   1
   0  -2  -8 99054.2 1758.33  -2
  -6  -4   8 99054.2 1758.33   1
  -6  -4   7-18.3293 328.856   1
  -1  -3  -6 109837. 2044.82  -2
  -6  -4   6 109837. 2044.82   1
  -6  -4   5 25813.1 436.991   1
  -2  -4  -4 9641.67 451.853  -2
  -6  -4   4 9641.67 451.853   1
  -6  -4   3 62909.6 932.874   1
  -3  -5  -2 16784.6 679.400  -2
  -6  -4   2 16784.6 679.400   1
  -6  -4   1 37771.0 634.157   1
  -4  -6   0 30371.8 770.866  -2
  -6  -4   0 30371.8 770.866   1
   6   4   1 6527.53 427.942   1
  -5  -7   2 15815.9 725.442  -2
  -6  -4  -2 15815.9 725.442   1
   6   4   3 46469.7 856.289   1
   6   8  -4 206.020 239.410  -2
   6   4   4 206.020 239.410   1
   6   4   5 23764.7 646.838   1
   7   9  -6 15621.4 977.162  -2
   6   4   6 15621.4 977.162   1
   2   1 -14 20106.2 1273.80  -2
  -6  -5  14 20106.2 1273.80   1
  -6  -5  13 2137.86 486.780   1
  -1   0  12 72454.3 1789.71  -2
   6   5 -12 72454.3 1789.71   1
   6   5 -11 1620.26 418.448   1
   0  -1 -10 41895.3 1261.87  -2
  -6  -5  10 41895.3 1261.87   1
   6   5  -9 3117.84 457.613   1
  -1  -2  -8 11145.5 661.853  -2
  -6  -5   8 11145.5 661.853   1
  -6  -5   7 3284.56 501.889   1
  -2  -3  -6 79970.6 2268.93  -2
  -6  -5   6 79970.6 2268.93   1
   6   5  -5 459.855 213.860   1
   3   4   4 53620.3 968.121  -2
   6   5  -4 53620.3 968.121   1
  -6  -5   3 44682.4 837.670   1
  -4  -5  -2 2510.29 419.622  -2
  -6  -5   2 2510.29 419.622   1
   6   5  -1 53945.7 819.816   1
   5   6   0 7974.04 611.568  -2
   6   5   0 7974.04 611.568   1
  -6  -5  -1 7763.61 461.653   1
   6   7  -2 10616.0 654.713  -2
   6   5   2 10616.0 654.713   1
   6   5   3 11954.9 524.837   1
   7   8  -4 3931.55 608.575  -2
   6   5   4 3931.55 608.575   1
   6   5   5 35014.1 899.787   1
   1   1 -14 1504.50 1243.26  -2
  -6  -6  14 1504.50 1243.26   1
  -6  -6  13 11874.1 1320.06   1
   0   0 -12 35682.2 1779.50  -2
  -6  -6  12 35682.2 1779.50   1
   6   6 -11 433.246 586.525   1
  -1  -1 -10 82374.4 2543.47  -2
  -6  -6  10 82374.4 2543.47   1
   6   6  -9 2647.60 524.255   1
  -2  -2  -8 11928.7 936.916  -2
  -6  -6   8 11928.7 936.916   1
  -6  -6   7 6192.84 696.140   1
  -3  -3  -6 20466.0 612.417  -2
  -6  -6   6 20466.0 612.417   1
  -6  -6   5 5800.75 385.384   1
   4   4   4 52402.8 1495.71  -2
   6   6  -4 52402.8 1495.71   1
  -6  -6   3 1072.15 385.709   1
   5   5   2 12047.5 844.547  -2
   6   6  -2 12047.5 844.547   1
   6   6  -1 36730.6 971.308   1
   6   6   0 1510.92 767.193  -2
   6   6   0 1510.92 767.193   1
   6   6   1 32541.9 850.082   1
   7   7  -2 4047.85 760.368  -2
   6   6   2 4047.85 760.368   1
   6   6   3 795.557 506.864   1
   8   8  -4 5201.61 825.958  -2
   6   6   4 5201.61 825.958   1
   0   1 -14 14652.3 1935.04  -2
  -6  -7  14 14652.3 1935.04   1
  -6  -7  13 20769.9 1619.21   1
  -1   0 -12 1603.43 1311.34  -2
  -6  -7  12 1603.43 1311.34   1
  -6  -7  11 2020.73 661.138   1
   2   1  10 57641.0 2259.93  -2
   6   7 -10 57641.0 2259.93   1
   6   7  -9 7063.67 778.327   1
   3   2   8 63047.6 2320.46  -2
   6   7  -8 63047.6 2320.46   1
  -6  -7   7 825.586 716.758   1
   4   3   6 5111.56 573.656  -2
   6   7  -6 5111.56 573.656   1
   6   7  -5 5745.81 466.644   1
   5   4   4 20536.8 1073.93  -2
   6   7  -4 20536.8 1073.93   1
  -6  -7   3 2919.38 457.512   1
   6   5   2 21755.3 1078.62  -2
   6   7  -2 21755.3 1078.62   1
   6   7  -1 11687.0 678.611   1
  -7  -6   0 8015.90 990.995  -2
  -6  -7   0 8015.90 990.995   1
  -6  -7  -1 37526.7 1263.19   1
  -8  -7   2 1473.48 814.922  -2
  -6  -7  -2 1473.48 814.922   1
  -6  -8  13 8343.86 1286.70   1
  -2   0 -12 11378.5 1816.51  -2
  -6  -8  12 11378.5 1816.51   1
  -6  -8  11 8783.50 1272.10   1
  -3  -1 -10 17755.1 2012.59  -2
  -6  -8  10 17755.1 2012.59   1
  -6  -8   9 947.333 939.251   1
  -4  -2  -8 41528.1 2564.08  -2
  -6  -8   8 41528.1 2564.08   1
   6   8  -7 551.895 598.386   1
   5   3   6 27405.9 1113.10  -2
   6   8  -6 27405.9 1113.10   1
   6   8  -5 5798.06 566.136   1
   6   4   4 1161.97 583.877  -2
   6   8  -4 1161.97 583.877   1
  -6  -8   3 13256.4 780.933   1
   7   5   2 16622.7 1156.15  -2
   6   8  -2 16622.7 1156.15   1
   6   8  -1 718.053 573.177   1
   8   6   0 6084.55 963.082  -2
   6   8   0 6084.55 963.082   1
   6   8   1 9038.82 836.400   1
  -3   0 -12 35464.7 2705.02  -2
  -6  -9  12 35464.7 2705.02   1
  -6  -9  11 4036.81 1130.18   1
  -4  -1 -10 805.873 1305.09  -2
  -6  -9  10 805.873 1305.09   1
  -6  -9   9 7302.21 1164.64   1
  -5  -2  -8 17325.9 1957.01  -2
  -6  -9   8 17325.9 1957.01   1
  -6  -9   7 556.769 434.860   1
  -6  -3  -6 48922.0 1641.44  -2
  -6  -9   6 48922.0 1641.44   1
   6   9  -5 574.846 562.592   1
   7   4   4 15326.2 1047.40  -2
   6   9  -4 15326.2 1047.40   1
   6   9  -3 9687.25 767.904   1
   8   5   2 490.183 339.228  -2
   6   9  -2 490.183 339.228   1
   6   9  -1 8579.79 831.604   1
  -5  -1 -10 28990.4 2451.00  -2
  -6 -10  10 28990.4 2451.00   1
  -6 -10   9 4385.44 1153.05   1
  -6  -2  -8 2650.27 1428.13  -2
  -6 -10   8 2650.27 1428.13   1
   6  10  -7 188.538 530.996   1
   7   3   6 24543.4 1581.76  -2
   6  10  -6 24543.4 1581.76   1
   6  10  -5 597.886 524.608   1
   8   4   4 29072.3 499.275  -2
   6  10  -4 29072.3 499.275   1
 -12   8  -2 36651.7 1635.33  -2
   7 -13   2 36651.7 1635.33   1
   7 -13   3-28.3957 784.088   1
 -11   9  -4 37644.7 1693.51  -2
   7 -13   4 37644.7 1693.51   1
   7 -13   5 3177.75 740.699   1
 -10  10  -6 9523.59 475.965  -2
   7 -13   6 9523.59 475.965   1
   7 -12  -1 999.112 507.843   1
  12  -7   0 30041.6 1382.30  -2
  -7  12   0 30041.6 1382.30   1
   7 -12   1 4204.06 669.806   1
 -11   8  -2 19922.3 1575.50  -2
   7 -12   2 19922.3 1575.50   1
   7 -12   3-129.211 555.189   1
 -10   9  -4 45587.7 1761.67  -2
   7 -12   4 45587.7 1761.67   1
   7 -12   5 707.144 619.115   1
  -9  10  -6 54170.1 2600.82  -2
   7 -12   6 54170.1 2600.82   1
   7 -12   7 5947.69 1088.13   1
  -8  11  -8 11737.1 1627.86  -2
   7 -12   8 11737.1 1627.86   1
   7 -11  -3 21903.3 1170.56   1
 -12   6   2 17155.5 851.623  -2
   7 -11  -2 17155.5 851.623   1
   7 -11  -1 3732.50 565.827   1
  11  -7   0 53268.9 1653.07  -2
  -7  11   0 53268.9 1653.07   1
  -7  11  -1 4665.59 626.739   1
 -10   8  -2 32890.1 1839.25  -2
   7 -11   2 32890.1 1839.25   1
   7 -11   3 474.396 703.177   1
  -9   9  -4 29016.5 1878.98  -2
   7 -11   4 29016.5 1878.98   1
   7 -11   5 1098.99 797.211   1
  -8  10  -6 56828.3 2554.62  -2
   7 -11   6 56828.3 2554.62   1
   7 -11   7 1008.18 928.734   1
  -7  11  -8 32680.3 1536.76  -2
   7 -11   8 32680.3 1536.76   1
   7 -11   9 12907.3 971.081   1
   7 -10  -5 7427.86 842.820   1
  12  -5  -4 19536.4 1397.15  -2
  -7  10   4 19536.4 1397.15   1
   7 -10  -3 29308.1 609.600   1
 -11   6   2 28105.0 803.012  -2
   7 -10  -2 28105.0 803.012   1
   7 -10  -1 23467.9 750.361   1
  10  -7   0 49786.5 1529.03  -2
  -7  10   0 49786.5 1529.03   1
   7 -10   1 210.300 588.797   1
  -9   8  -2 66675.2 2353.78  -2
   7 -10   2 66675.2 2353.78   1
   7 -10   3 1519.35 754.265   1
  -8   9  -4 46905.8 2253.81  -2
   7 -10   4 46905.8 2253.81   1
   7 -10   5 449.010 550.152   1
  -7  10  -6 41534.6 1613.59  -2
   7 -10   6 41534.6 1613.59   1
   7 -10   7 1531.03 644.595   1
  -6  11  -8 54187.2 1832.60  -2
   7 -10   8 54187.2 1832.60   1
   7 -10   9 2367.54 708.352   1
  -5  12 -10 31659.0 1504.07  -2
   7 -10  10 31659.0 1504.07   1
   7  -9  -7 41023.9 1425.75   1
 -12   4   6 7948.07 1043.09  -2
   7  -9  -6 7948.07 1043.09   1
   7  -9  -5 6478.63 761.423   1
 -11   5   4 11357.3 1136.36  -2
   7  -9  -4 11357.3 1136.36   1
   7  -9  -3 9398.35 380.731   1
 -10   6   2 49481.4 1175.23  -2
   7  -9  -2 49481.4 1175.23   1
   7  -9  -1 23235.1 729.016   1
   9  -7   0 33395.3 1242.88  -2
  -7   9   0 33395.3 1242.88   1
   7  -9   1 13138.8 923.970   1
  -8   8  -2 67024.7 1734.91  -2
   7  -9   2 67024.7 1734.91   1
   7  -9   3 532.625 493.718   1
  -7   9  -4 118702. 2405.58  -2
   7  -9   4 118702. 2405.58   1
   7  -9   5 385.184 541.875   1
  -6  10  -6 29499.5 1373.39  -2
   7  -9   6 29499.5 1373.39   1
   7  -9   7 9132.17 825.104   1
  -5  11  -8 30698.9 1421.14  -2
   7  -9   8 30698.9 1421.14   1
   7  -9   9 2953.80 684.684   1
  -4  12 -10 46180.4 2123.83  -2
   7  -9  10 46180.4 2123.83   1
  12  -3  -8 6416.20 1011.64  -2
  -7   8   8 6416.20 1011.64   1
  -7   8   7 48175.3 1447.42   1
 -11   4   6 15272.8 1222.31  -2
   7  -8  -6 15272.8 1222.31   1
   7  -8  -5 53159.1 1500.28   1
 -10   5   4 7984.56 976.328  -2
   7  -8  -4 7984.56 976.328   1
   7  -8  -3 2398.51 314.224   1
  -9   6   2 64059.6 1233.63  -2
   7  -8  -2 64059.6 1233.63   1
  -7   8   1 60586.2 924.064   1
   8  -7   0 36957.8 1072.82  -2
  -7   8   0 36957.8 1072.82   1
   7  -8   1 34144.7 867.033   1
  -7   8  -2 28406.7 852.477  -2
   7  -8   2 28406.7 852.477   1
   7  -8   3 4120.46 577.774   1
  -6   9  -4 131325. 1979.88  -2
   7  -8   4 131325. 1979.88   1
   7  -8   5 471.369 507.929   1
  -5  10  -6 74386.6 1951.42  -2
   7  -8   6 74386.6 1951.42   1
   7  -8   7 3657.95 291.802   1
  -4  11  -8 27850.3 1293.02  -2
   7  -8   8 27850.3 1293.02   1
   7  -8   9 6803.15 945.935   1
  -3  12 -10 27651.0 1306.39  -2
   7  -8  10 27651.0 1306.39   1
   7  -8  11 975.063 1085.25   1
   7  -7  -9 8230.37 814.457   1
 -11   3   8 3119.74 869.136  -2
   7  -7  -8 3119.74 869.136   1
  -7   7   7 12274.1 654.784   1
 -10   4   6 12220.9 854.089  -2
   7  -7  -6 12220.9 854.089   1
  -7   7   5 71925.5 1275.73   1
  -9   5   4 7268.47 692.728  -2
   7  -7  -4 7268.47 692.728   1
  -7   7   3 41783.9 617.285   1
  -8   6   2 34727.9 743.985  -2
   7  -7  -2 34727.9 743.985   1
  -7   7   1 1644.46 309.744   1
   7  -7   0 57227.8 1377.67  -2
  -7   7   0 57227.8 1377.67   1
  -7   7  -1 26185.2 755.936   1
  -6   8  -2 28037.5 1149.09  -2
   7  -7   2 28037.5 1149.09   1
   7  -7   3 9799.96 478.089   1
  -5   9  -4 54540.9 1148.41  -2
   7  -7   4 54540.9 1148.41   1
   7  -7   5 172.397 387.096   1
  -4  10  -6 87165.6 1100.13  -2
   7  -7   6 87165.6 1100.13   1
  -7   7  -7 1386.66 454.026   1
  -3  11  -8 67483.7 1733.13  -2
   7  -7   8 67483.7 1733.13   1
  -7   7  -9 11679.4 654.645   1
   2 -12  10 9684.98 740.783  -2
  -7   7 -10 9684.98 740.783   1
   7  -7  11 5261.34 1263.55   1
 -11   2  10 952.542 759.601  -2
   7  -6 -10 952.542 759.601   1
   7  -6  -9 37490.1 1273.97   1
  10  -3  -8 3205.32 297.588  -2
  -7   6   8 3205.32 297.588   1
  -7   6   7 340.640 397.244   1
  -9   4   6 1959.22 555.701  -2
   7  -6  -6 1959.22 555.701   1
  -7   6   5 50443.2 905.656   1
  -8   5   4 8916.27 604.122  -2
   7  -6  -4 8916.27 604.122   1
   7  -6  -3 103613. 931.919   1
   7  -6  -2 8549.89 443.145  -2
  -7   6   2 8549.89 443.145   1
   7  -6  -1 27152.4 673.585   1
   6  -7   0 59524.1 1053.15  -2
  -7   6   0 59524.1 1053.15   1
   7  -6   1 3945.11 412.188   1
  -5   8  -2 57777.9 1519.02  -2
   7  -6   2 57777.9 1519.02   1
   7  -6   3 20099.0 590.049   1
  -4   9  -4 13286.3 471.848  -2
   7  -6   4 13286.3 471.848   1
  -7   6  -5 962.396 240.164   1
  -3  10  -6 68760.6 1436.29  -2
   7  -6   6 68760.6 1436.29   1
   7  -6   7 505.920 464.787   1
   2 -11   8 79350.8 1549.69  -2
  -7   6  -8 79350.8 1549.69   1
   7  -6   9 4135.98 503.795   1
   1 -12  10 15013.3 810.193  -2
  -7   6 -10 15013.3 810.193   1
   7  -6  11 9868.16 1408.46   1
   7  -5 -11 3520.71 696.435   1
 -10   2  10 14494.6 1151.66  -2
   7  -5 -10 14494.6 1151.66   1
  -7   5   9 49395.4 1376.48   1
  -9   3   8 1735.75 531.865  -2
   7  -5  -8 1735.75 531.865   1
   7  -5  -7 42925.5 846.179   1
  -8   4   6 1694.04 272.092  -2
   7  -5  -6 1694.04 272.092   1
  -7   5   5 176.920 298.639   1
   7  -5  -4 532.157 229.043  -2
  -7   5   4 532.157 229.043   1
   7  -5  -3 72115.2 801.982   1
   6  -6  -2 1251.52 325.523  -2
  -7   5   2 1251.52 325.523   1
  -7   5   1 82657.1 831.876   1
   5  -7   0 17980.7 533.009  -2
  -7   5   0 17980.7 533.009   1
   7  -5   1 4274.44 333.970   1
  -4   8  -2 122834. 1669.57  -2
   7  -5   2 122834. 1669.57   1
  -7   5  -3 5885.52 325.423   1
   3  -9   4 29089.2 669.297  -2
  -7   5  -4 29089.2 669.297   1
   7  -5   5 9204.87 487.937   1
  -2  10  -6 13848.6 906.153  -2
   7  -5   6 13848.6 906.153   1
   7  -5   7 769.439 455.895   1
  -1  11  -8 74134.3 1484.93  -2
   7  -5   8 74134.3 1484.93   1
  -7   5  -9 150.462 385.021   1
   0 -12  10 41963.7 1516.18  -2
  -7   5 -10 41963.7 1516.18   1
   7  -5  11 5939.15 1309.06   1
   7  -4 -11 2953.19 646.161   1
  -9   2  10 34760.7 1564.67  -2
   7  -4 -10 34760.7 1564.67   1
   7  -4  -9 20449.3 637.777   1
  -8   3   8 6800.37 188.476  -2
   7  -4  -8 6800.37 188.476   1
   7  -4  -7 88543.4 1120.73   1
   7  -4  -6 293.587 143.404  -2
  -7   4   6 293.587 143.404   1
  -7   4   5 57677.1 878.707   1
  -6   5   4 2242.81 243.746  -2
   7  -4  -4 2242.81 243.746   1
  -7   4   3 2012.39 198.735   1
  -5   6   2 3356.42 324.656  -2
   7  -4  -2 3356.42 324.656   1
  -7   4   1 89578.3 877.435   1
   4  -7   0 625.473 274.848  -2
  -7   4   0 625.473 274.848   1
   7  -4   1 47823.7 667.705   1
   3  -8   2 64796.6 924.791  -2
  -7   4  -2 64796.6 924.791   1
  -7   4  -3 1250.18 253.213   1
   2  -9   4 79583.9 1253.86  -2
  -7   4  -4 79583.9 1253.86   1
  -7   4  -5 2635.93 420.467   1
  -1  10  -6 13577.3 867.158  -2
   7  -4   6 13577.3 867.158   1
   7  -4   7 3004.15 439.334   1
   0  11  -8 20866.0 884.059  -2
   7  -4   8 20866.0 884.059   1
   7  -4   9 210.106 408.465   1
   1  12 -10 51552.3 2000.97  -2
   7  -4  10 51552.3 2000.97   1
   9  -1 -12 4039.93 1226.06  -2
  -7   3  12 4039.93 1226.06   1
  -7   3  11 19554.5 796.202   1
  -8   2  10 34276.9 308.955  -2
   7  -3 -10 34276.9 308.955   1
  -7   3   9 813.739 330.085   1
   7  -3  -8 31449.0 309.291  -2
  -7   3   8 31449.0 309.291   1
   7  -3  -7 56013.4 875.114   1
  -6   4   6 15555.9 658.953  -2
   7  -3  -6 15555.9 658.953   1
   7  -3  -5 134103. 880.428   1
   5  -5  -4 316.801 85.9220  -2
  -7   3   4 316.801 85.9220   1
  -7   3   3 11678.1 364.844   1
  -4   6   2 10967.5 429.028  -2
   7  -3  -2 10967.5 429.028   1
   7  -3  -1 35463.4 520.781   1
  -3   7   0 12384.4 467.783  -2
   7  -3   0 12384.4 467.783   1
   7  -3   1 102814. 1088.38   1
   2  -8   2 8909.00 438.163  -2
  -7   3  -2 8909.00 438.163   1
   7  -3   3 27885.1 785.126   1
  -1   9  -4 72085.2 1395.56  -2
   7  -3   4 72085.2 1395.56   1
   7  -3   5 472.468 367.110   1
   0  10  -6 57853.1 1315.85  -2
   7  -3   6 57853.1 1315.85   1
  -7   3  -7 684.708 386.363   1
   1  11  -8 1702.45 522.119  -2
   7  -3   8 1702.45 522.119   1
   7  -3   9 422.978 385.472   1
   2  12 -10 25978.5 995.100  -2
   7  -3  10 25978.5 995.100   1
  -7   2  13 1797.37 832.085   1
  -8   1  12 32777.7 1501.27  -2
   7  -2 -12 32777.7 1501.27   1
  -7   2  11 30870.9 816.047   1
   7  -2 -10 11068.9 232.160  -2
  -7   2  10 11068.9 232.160   1
  -7   2   9 28866.1 663.462   1
  -6   3   8 48773.5 426.938  -2
   7  -2  -8 48773.5 426.938   1
   7  -2  -7 4307.01 334.049   1
   5  -4  -6 58347.0 317.250  -2
  -7   2   6 58347.0 317.250   1
  -7   2   5 109840. 862.041   1
  -4   5   4 16092.7 479.151  -2
   7  -2  -4 16092.7 479.151   1
   7  -2  -3 114553. 1044.76   1
  -3   6   2 9848.54 393.623  -2
   7  -2  -2 9848.54 393.623   1
  -7   2   1 7954.86 300.923   1
  -2   7   0 33784.5 801.732  -2
   7  -2   0 33784.5 801.732   1
   7  -2   1 32250.0 597.504   1
  -1   8  -2 18131.8 669.878  -2
   7  -2   2 18131.8 669.878   1
  -7   2  -3 65669.7 1137.71   1
   0   9  -4 9537.11 654.711  -2
   7  -2   4 9537.11 654.711   1
   7  -2   5 10585.5 729.968   1
   1  10  -6 66695.9 1445.74  -2
   7  -2   6 66695.9 1445.74   1
   7  -2   7 534.144 401.274   1
   2  11  -8 33864.2 1034.19  -2
   7  -2   8 33864.2 1034.19   1
  -7   2  -9 172.105 456.306   1
   3  12 -10-253.952 378.215  -2
   7  -2  10-253.952 378.215   1
  -7   1  12 98642.6 726.153  -2
   7  -1 -12 98642.6 726.153   1
   7  -1 -11 22623.7 668.529   1
   6  -2 -10 17657.3 670.513  -2
  -7   1  10 17657.3 670.513   1
  -7   1   9 16784.1 276.683   1
  -5   3   8 15859.3 341.295  -2
   7  -1  -8 15859.3 341.295   1
   7  -1  -7 12731.5 341.526   1
  -4   4   6 66463.5 465.962  -2
   7  -1  -6 66463.5 465.962   1
  -7   1   5 25925.5 490.756   1
  -3   5   4 35667.6 768.860  -2
   7  -1  -4 35667.6 768.860   1
   7  -1  -3 141033. 1125.06   1
  -2   6   2 2952.70 306.708  -2
   7  -1  -2 2952.70 306.708   1
   7  -1  -1 62186.2 904.229   1
  -1   7   0 11259.6 567.286  -2
   7  -1   0 11259.6 567.286   1
   7  -1   1 5117.98 394.842   1
   0  -8   2 54991.5 1264.74  -2
  -7   1  -2 54991.5 1264.74   1
   7  -1   3 34658.2 891.409   1
   1   9  -4 8181.41 468.809  -2
   7  -1   4 8181.41 468.809   1
   7  -1   5 16674.2 519.213   1
   2  10  -6 31373.8 824.093  -2
   7  -1   6 31373.8 824.093   1
   7  -1   7 45.2509 400.725   1
   3  11  -8 55232.7 1271.98  -2
   7  -1   8 55232.7 1271.98   1
   7  -1   9 1093.88 514.930   1
   7   0 -14 5747.64 1320.07  -2
  -7   0  14 5747.64 1320.07   1
  -7   0  13 808.461 527.667   1
   6  -1 -12 92652.0 1714.81  -2
  -7   0  12 92652.0 1714.81   1
  -7   0  11 939.117 203.479   1
   5  -2 -10 95495.3 749.953  -2
  -7   0  10 95495.3 749.953   1
  -7   0   9 44363.1 544.357   1
   4  -3  -8 15540.0 276.598  -2
  -7   0   8 15540.0 276.598   1
  -7   0   7 79970.6 824.558   1
   3  -4  -6 28449.7 645.756  -2
  -7   0   6 28449.7 645.756   1
  -7   0   5 8379.52 321.588   1
  -2   5   4 43184.4 868.851  -2
   7   0  -4 43184.4 868.851   1
   7   0  -3 45399.9 683.810   1
  -1   6   2 51451.9 990.621  -2
   7   0  -2 51451.9 990.621   1
   7   0  -1 147357. 1729.26   1
   0  -7   0 14871.9 580.815  -2
  -7   0   0 14871.9 580.815   1
  -7   0  -1 46040.2 823.030   1
  -1  -8   2 58310.6 1107.75  -2
  -7   0  -2 58310.6 1107.75   1
  -7   0  -3 8731.75 416.643   1
   2   9  -4 48577.6 981.188  -2
   7   0   4 48577.6 981.188   1
   7   0   5 30008.3 657.789   1
   3  10  -6 3141.39 443.946  -2
   7   0   6 3141.39 443.946   1
   7   0   7 7553.49 616.573   1
   4  11  -8 38368.9 1353.89  -2
   7   0   8 38368.9 1353.89   1
  -6   0  14 17688.9 1157.87  -2
   7   1 -14 17688.9 1157.87   1
  -7  -1  13 982.029 432.341   1
  -5   1  12 26579.7 845.706  -2
   7   1 -12 26579.7 845.706   1
  -7  -1  11 1647.78 243.005   1
   4  -2 -10 77553.3 1010.48  -2
  -7  -1  10 77553.3 1010.48   1
  -7  -1   9 3535.70 266.908   1
   3  -3  -8 65399.4 926.139  -2
  -7  -1   8 65399.4 926.139   1
  -7  -1   7 60429.0 691.270   1
   2  -4  -6 5301.39 357.662  -2
  -7  -1   6 5301.39 357.662   1
  -7  -1   5 64844.8 729.823   1
   1  -5  -4 21228.2 593.567  -2
  -7  -1   4 21228.2 593.567   1
  -7  -1   3 834.835 303.520   1
   0  -6  -2 57064.3 1356.25  -2
  -7  -1   2 57064.3 1356.25   1
   7   1  -1 70316.9 1214.83   1
  -1  -7   0 15131.9 678.340  -2
  -7  -1   0 15131.9 678.340   1
  -7  -1  -1 104339. 1124.47   1
   2   8  -2 9761.12 530.323  -2
   7   1   2 9761.12 530.323   1
   7   1   3 6147.38 395.381   1
   3   9  -4 44793.7 1002.52  -2
   7   1   4 44793.7 1002.52   1
   7   1   5 6103.85 410.498   1
   4  10  -6 25587.4 821.687  -2
   7   1   6 25587.4 821.687   1
   7   1   7 10350.8 577.511   1
  -5 -11   8 2107.83 635.408  -2
  -7  -1  -8 2107.83 635.408   1
  -5   0  14 69070.5 2045.93  -2
   7   2 -14 69070.5 2045.93   1
   7   2 -13 720.580 433.318   1
   4  -1 -12 9070.07 536.618  -2
  -7  -2  12 9070.07 536.618   1
  -7  -2  11 2178.23 329.140   1
   3  -2 -10 27619.4 901.758  -2
  -7  -2  10 27619.4 901.758   1
  -7  -2   9 3142.17 367.788   1
   2  -3  -8 82291.7 808.550  -2
  -7  -2   8 82291.7 808.550   1
  -7  -2   7 23601.2 645.938   1
   1  -4  -6 65951.0 1283.48  -2
  -7  -2   6 65951.0 1283.48   1
  -7  -2   5 92959.3 727.755   1
   0  -5  -4 1881.19 318.697  -2
  -7  -2   4 1881.19 318.697   1
  -7  -2   3 56334.2 737.285   1
  -1  -6  -2 28079.7 842.530  -2
  -7  -2   2 28079.7 842.530   1
  -7  -2   1 7324.99 392.028   1
  -2  -7   0 41411.2 930.532  -2
  -7  -2   0 41411.2 930.532   1
   7   2   1 90330.2 1010.69   1
   3   8  -2 7540.25 567.474  -2
   7   2   2 7540.25 567.474   1
   7   2   3 42313.8 803.397   1
   4   9  -4 17329.1 669.952  -2
   7   2   4 17329.1 669.952   1
   7   2   5 952.914 304.862   1
   5  10  -6 45014.2 1036.61  -2
   7   2   6 45014.2 1036.61   1
   7   2   7 3020.17 541.456   1
  -4   0  14 63264.6 2044.70  -2
   7   3 -14 63264.6 2044.70   1
  -7  -3  13 607.797 363.022   1
  -3   1  12 54217.2 1301.88  -2
   7   3 -12 54217.2 1301.88   1
  -7  -3  11 1613.46 354.660   1
   2  -2 -10 3191.63 495.682  -2
  -7  -3  10 3191.63 495.682   1
  -7  -3   9 14317.1 573.027   1
   1  -3  -8 80375.3 1484.55  -2
  -7  -3   8 80375.3 1484.55   1
  -7  -3   7 363.733 386.625   1
   0  -4  -6 77863.8 1682.09  -2
  -7  -3   6 77863.8 1682.09   1
  -7  -3   5 41176.2 474.973   1
  -1  -5  -4 16909.0 591.557  -2
  -7  -3   4 16909.0 591.557   1
  -7  -3   3 90893.2 1125.62   1
  -2  -6  -2 5151.59 521.158  -2
  -7  -3   2 5151.59 521.158   1
  -7  -3   1 17825.5 543.522   1
   3   7   0 27350.1 778.666  -2
   7   3   0 27350.1 778.666   1
   7   3   1 24794.7 593.342   1
   4   8  -2 27239.2 814.299  -2
   7   3   2 27239.2 814.299   1
   7   3   3 29779.4 652.302   1
   5   9  -4 689.301 439.423  -2
   7   3   4 689.301 439.423   1
   7   3   5 13844.7 561.499   1
   6  10  -6 26048.8 1175.80  -2
   7   3   6 26048.8 1175.80   1
  -3   0  14 26010.3 1213.20  -2
   7   4 -14 26010.3 1213.20   1
  -7  -4  13 786.743 501.417   1
   2  -1 -12 70289.8 1833.50  -2
  -7  -4  12 70289.8 1833.50   1
  -7  -4  11 460.383 405.480   1
  -1   2  10 46371.1 1318.17  -2
   7   4 -10 46371.1 1318.17   1
  -7  -4   9 14640.3 652.098   1
   0  -3  -8 10717.8 761.703  -2
  -7  -4   8 10717.8 761.703   1
  -7  -4   7 11092.7 576.202   1
  -1  -4  -6 69102.4 1452.00  -2
  -7  -4   6 69102.4 1452.00   1
  -7  -4   5 1308.70 228.463   1
  -2  -5  -4 36891.2 801.124  -2
  -7  -4   4 36891.2 801.124   1
  -7  -4   3 45890.5 856.988   1
   3   6   2 3042.97 433.916  -2
   7   4  -2 3042.97 433.916   1
   7   4  -1 66798.2 908.942   1
   4   7   0 6144.33 537.696  -2
   7   4   0 6144.33 537.696   1
  -7  -4  -1 3612.58 405.226   1
   5   8  -2 20809.1 956.271  -2
   7   4   2 20809.1 956.271   1
   7   4   3 8227.93 545.339   1
   6   9  -4 8390.56 737.919  -2
   7   4   4 8390.56 737.919   1
   7   4   5 21777.3 895.105   1
  -2   0  14 1796.01 902.056  -2
   7   5 -14 1796.01 902.056   1
   7   5 -13 2819.29 676.927   1
  -1   1  12 52291.9 2151.18  -2
   7   5 -12 52291.9 2151.18   1
  -7  -5  11 483.577 488.705   1
   0   2  10 94389.2 2159.70  -2
   7   5 -10 94389.2 2159.70   1
  -7  -5   9 7144.00 647.463   1
   1   3   8 22750.8 1206.06  -2
   7   5  -8 22750.8 1206.06   1
  -7  -5   7 23376.3 1087.55   1
  -2  -4  -6 11311.7 1090.64  -2
  -7  -5   6 11311.7 1090.64   1
  -7  -5   5 13350.0 473.704   1
   3   5   4 33690.1 1211.30  -2
   7   5  -4 33690.1 1211.30   1
   7   5  -3 10789.5 684.605   1
   4   6   2 15658.6 914.128  -2
   7   5  -2 15658.6 914.128   1
   7   5  -1 53648.2 1040.16   1
   5   7   0 313.222 321.622  -2
   7   5   0 313.222 321.622   1
   7   5   1 31097.5 858.979   1
   6   8  -2 9608.76 778.905  -2
   7   5   2 9608.76 778.905   1
   7   5   3 1007.53 423.579   1
   7   9  -4 14577.7 879.711  -2
   7   5   4 14577.7 879.711   1
   1   0 -14 16473.9 1995.26  -2
  -7  -6  14 16473.9 1995.26   1
  -7  -6  13 3100.31 760.452   1
   0   1  12 6392.49 1104.05  -2
   7   6 -12 6392.49 1104.05   1
  -7  -6  11 816.897 642.036   1
   1   2  10 55905.6 2247.86  -2
   7   6 -10 55905.6 2247.86   1
  -7  -6   9 1145.28 653.699   1
  -2  -3  -8 49072.2 2129.49  -2
  -7  -6   8 49072.2 2129.49   1
  -7  -6   7 7851.87 1081.46   1
  -3  -4  -6 2389.30 399.853  -2
  -7  -6   6 2389.30 399.853   1
  -7  -6   5 24502.3 708.745   1
   4   5   4 12174.3 871.748  -2
   7   6  -4 12174.3 871.748   1
   7   6  -3 4486.88 494.483   1
  -5  -6  -2 15945.8 971.171  -2
  -7  -6   2 15945.8 971.171   1
   7   6  -1 13826.1 713.056   1
   6   7   0 4344.48 737.973  -2
   7   6   0 4344.48 737.973   1
   7   6   1 37759.3 932.800   1
   7   8  -2 2000.06 627.349  -2
   7   6   2 2000.06 627.349   1
  -7  -7  13 2465.97 1110.78   1
  -1  -1 -12 11457.7 1363.83  -2
  -7  -7  12 11457.7 1363.83   1
   7   7 -11 283.897 651.235   1
  -2  -2 -10 14550.8 1379.83  -2
  -7  -7  10 14550.8 1379.83   1
   7   7  -9 931.856 615.993   1
  -3  -3  -8 58083.5 3037.94  -2
  -7  -7   8 58083.5 3037.94   1
  -7  -7   7-219.116 738.573   1
   4   4   6 17794.2 848.195  -2
   7   7  -6 17794.2 848.195   1
   7   7  -5 19795.3 811.981   1
   5   5   4 1708.27 598.200  -2
   7   7  -4 1708.27 598.200   1
   7   7  -3 23467.3 831.477   1
   6   6   2 9753.38 851.121  -2
   7   7  -2 9753.38 851.121   1
   7   7  -1 436.667 465.353   1
  -7  -7   0 6211.60 820.182  -2
  -7  -7   0 6211.60 820.182   1
  -7  -7  -1 14565.2 945.144   1
  -2  -1 -12 40955.4 2868.28  -2
  -7  -8  12 40955.4 2868.28   1
  -7  -8  11 755.583 971.860   1
   3   2  10 2711.66 1004.24  -2
   7   8 -10 2711.66 1004.24   1
   7   8  -9 1583.45 666.990   1
  -4  -3  -8 25249.1 2177.54  -2
  -7  -8   8 25249.1 2177.54   1
  -7  -8   7 1898.07 687.223   1
  -5  -4  -6 36120.4 1190.58  -2
  -7  -8   6 36120.4 1190.58   1
   7   8  -5 3723.92 540.118   1
   6   5   4 8608.14 775.830  -2
   7   8  -4 8608.14 775.830   1
   7   8  -3 22488.5 863.373   1
   7   6   2 3138.32 810.897  -2
   7   8  -2 3138.32 810.897   1
  -7  -8   1 12736.4 895.322   1
  -4  -2 -10 23908.8 2316.93  -2
  -7  -9  10 23908.8 2316.93   1
  -7  -9   9 1172.59 976.718   1
  -5  -3  -8 183.698 1218.91  -2
  -7  -9   8 183.698 1218.91   1
  -7  -9   7 2008.10 998.753   1
   6   4   6 21754.7 1360.43  -2
   7   9  -6 21754.7 1360.43   1
   7   9  -5-88.3694 468.751   1
   7   5   4 22382.6 1233.46  -2
   7   9  -4 22382.6 1233.46   1
  12  -8   0 47455.1 1398.16  -2
  -8  12   0 47455.1 1398.16   1
   8 -12   1 358.975 567.939   1
 -11   9  -2 18530.9 1520.17  -2
   8 -12   2 18530.9 1520.17   1
   8 -12   3 2793.18 674.458   1
 -10  10  -4 20866.7 1299.28  -2
   8 -12   4 20866.7 1299.28   1
   8 -12   5 2955.74 726.382   1
  -9  11  -6 36876.1 1640.99  -2
   8 -12   6 36876.1 1640.99   1
   8 -11  -3 19392.7 1169.31   1
  12  -7  -2 19391.6 882.460  -2
  -8  11   2 19391.6 882.460   1
  -8  11   1 1304.48 436.254   1
  11  -8   0 42555.1 1285.68  -2
  -8  11   0 42555.1 1285.68   1
   8 -11   1-203.044 640.887   1
 -10   9  -2 58133.1 1749.17  -2
   8 -11   2 58133.1 1749.17   1
   8 -11   3 1106.79 625.558   1
  -9  10  -4 23521.0 1343.33  -2
   8 -11   4 23521.0 1343.33   1
   8 -11   5 19009.4 1051.24   1
  -8  11  -6 29483.8 1498.80  -2
   8 -11   6 29483.8 1498.80   1
   8 -11   7 3256.67 766.820   1
  -7  12  -8 22165.0 1377.68  -2
   8 -11   8 22165.0 1377.68   1
   8 -10  -5 1941.69 708.007   1
  12  -6  -4 25355.6 1591.76  -2
  -8  10   4 25355.6 1591.76   1
   8 -10  -3 11369.3 497.261   1
  11  -7  -2 22017.7 885.552  -2
  -8  10   2 22017.7 885.552   1
  -8  10   1 4804.58 496.612   1
 -10   8   0 28634.0 1219.87  -2
   8 -10   0 28634.0 1219.87   1
   8 -10   1 1121.89 655.254   1
  -9   9  -2 65468.0 1787.71  -2
   8 -10   2 65468.0 1787.71   1
   8 -10   3 192.374 578.069   1
  -8  10  -4 62729.6 1869.69  -2
   8 -10   4 62729.6 1869.69   1
   8 -10   5 7876.48 794.344   1
  -7  11  -6 25792.4 1397.52  -2
   8 -10   6 25792.4 1397.52   1
   8 -10   7 10570.5 909.720   1
  -6  12  -8 19324.3 1268.64  -2
   8 -10   8 19324.3 1268.64   1
   8 -10   9 813.460 693.452   1
 -12   5   6 19452.3 1445.08  -2
   8  -9  -6 19452.3 1445.08   1
   8  -9  -5 26307.3 1210.54   1
 -11   6   4 18708.8 1334.88  -2
   8  -9  -4 18708.8 1334.88   1
   8  -9  -3 576.630 315.098   1
  10  -7  -2 45913.4 1113.44  -2
  -8   9   2 45913.4 1113.44   1
  -8   9   1 750.820 390.026   1
  -9   8   0 44644.9 1731.80  -2
   8  -9   0 44644.9 1731.80   1
   8  -9   1 7932.84 690.541   1
  -8   9  -2 44423.1 1496.08  -2
   8  -9   2 44423.1 1496.08   1
   8  -9   3 310.253 538.391   1
  -7  10  -4 99886.2 2214.14  -2
   8  -9   4 99886.2 2214.14   1
   8  -9   5 4190.54 695.276   1
  -6  11  -6 50108.9 1761.50  -2
   8  -9   6 50108.9 1761.50   1
   8  -9   7 16937.5 547.033   1
  -5  12  -8 20072.5 1263.89  -2
   8  -9   8 20072.5 1263.89   1
   8  -9   9 16372.8 1072.48   1
   8  -8  -7 15393.0 1005.76   1
 -11   5   6 18014.9 1334.09  -2
   8  -8  -6 18014.9 1334.09   1
   8  -8  -5 49700.9 1460.30   1
 -10   6   4 14247.3 1165.45  -2
   8  -8  -4 14247.3 1165.45   1
   8  -8  -3 17386.7 574.681   1
   9  -7  -2 54402.6 1144.76  -2
  -8   8   2 54402.6 1144.76   1
   8  -8  -1 289.384 487.567   1
  -8   8   0 80046.6 2183.04  -2
   8  -8   0 80046.6 2183.04   1
   8  -8   1 11995.1 772.614   1
  -7   9  -2 29555.7 1270.69  -2
   8  -8   2 29555.7 1270.69   1
   8  -8   3 600.581 520.129   1
  -6  10  -4 57310.0 1702.21  -2
   8  -8   4 57310.0 1702.21   1
   8  -8   5 729.458 563.792   1
  -5  11  -6 70386.5 1209.59  -2
   8  -8   6 70386.5 1209.59   1
   8  -8   7 4990.54 718.716   1
  -4  12  -8 29789.5 1398.90  -2
   8  -8   8 29789.5 1398.90   1
   8  -8   9 19417.9 1383.15   1
  -3  13 -10 13299.8 1418.70  -2
   8  -8  10 13299.8 1418.70   1
   8  -7  -9 32647.4 1305.43   1
 -11   4   8 547.089 793.353  -2
   8  -7  -8 547.089 793.353   1
   8  -7  -7 822.959 611.328   1
 -10   5   6 9935.82 1040.89  -2
   8  -7  -6 9935.82 1040.89   1
   8  -7  -5 36841.3 1237.09   1
  -9   6   4 14893.6 1129.15  -2
   8  -7  -4 14893.6 1129.15   1
   8  -7  -3 43125.4 825.042   1
   8  -7  -2 22998.9 749.427  -2
  -8   7   2 22998.9 749.427   1
   8  -7  -1 22863.2 800.846   1
  -7   8   0 84272.2 1504.41  -2
   8  -7   0 84272.2 1504.41   1
   8  -7   1 1727.28 409.377   1
  -6   9  -2 66686.3 1725.87  -2
   8  -7   2 66686.3 1725.87   1
   8  -7   3 972.072 516.005   1
  -5  10  -4 24714.9 1222.04  -2
   8  -7   4 24714.9 1222.04   1
   8  -7   5 216.894 323.825   1
  -4  11  -6 51593.9 1638.75  -2
   8  -7   6 51593.9 1638.75   1
   8  -7   7 986.007 602.619   1
  -3  12  -8 69891.8 2662.63  -2
   8  -7   8 69891.8 2662.63   1
   8  -7   9 12066.6 1137.42   1
  -2  13 -10 18148.7 1888.39  -2
   8  -7  10 18148.7 1888.39   1
 -11   3  10 3367.71 910.554  -2
   8  -6 -10 3367.71 910.554   1
  -8   6   9 62925.2 1643.87   1
 -10   4   8 5076.96 364.298  -2
   8  -6  -8 5076.96 364.298   1
   8  -6  -7 30865.5 906.731   1
  -9   5   6 3018.10 616.227  -2
   8  -6  -6 3018.10 616.227   1
   8  -6  -5 907.203 358.349   1
   8  -6  -4 18581.5 561.431  -2
  -8   6   4 18581.5 561.431   1
  -8   6   3 44516.8 705.798   1
   7  -7  -2 17998.0 738.656  -2
  -8   6   2 17998.0 738.656   1
   8  -6  -1 63760.1 1065.02   1
   6  -8   0 39530.8 939.218  -2
  -8   6   0 39530.8 939.218   1
   8  -6   1 604.909 307.740   1
  -5   9  -2 78205.5 1275.10  -2
   8  -6   2 78205.5 1275.10   1
  -8   6  -3 1580.97 288.501   1
  -4  10  -4 43456.2 858.858  -2
   8  -6   4 43456.2 858.858   1
  -8   6  -5 283.675 288.404   1
  -3  11  -6 16667.6 860.276  -2
   8  -6   6 16667.6 860.276   1
   8  -6   7 7638.63 696.862   1
  -2  12  -8 52413.3 2237.95  -2
   8  -6   8 52413.3 2237.95   1
   8  -6   9 1528.69 580.825   1
  -1  13 -10 28285.4 2166.40  -2
   8  -6  10 28285.4 2166.40   1
 -10   3  10 8636.81 404.854  -2
   8  -5 -10 8636.81 404.854   1
  -8   5   9 24238.4 1040.50   1
  -9   4   8 667.557 281.839  -2
   8  -5  -8 667.557 281.839   1
   8  -5  -7 76351.1 1109.84   1
   8  -5  -6 3112.42 503.447  -2
  -8   5   6 3112.42 503.447   1
  -8   5   5 33660.0 757.039   1
   7  -6  -4 16763.5 609.222  -2
  -8   5   4 16763.5 609.222   1
   8  -5  -3 4921.31 372.012   1
  -6   7   2 28292.8 700.287  -2
   8  -5  -2 28292.8 700.287   1
  -8   5   1 82163.3 902.138   1
   5  -8   0 4489.80 406.543  -2
  -8   5   0 4489.80 406.543   1
   8  -5   1 7321.54 421.776   1
  -4   9  -2 91415.0 1086.78  -2
   8  -5   2 91415.0 1086.78   1
   8  -5   3 669.429 242.846   1
   3 -10   4 96500.7 1212.82  -2
  -8   5  -4 96500.7 1212.82   1
   8  -5   5 580.146 418.965   1
  -2  11  -6 22597.9 1128.22  -2
   8  -5   6 22597.9 1128.22   1
   8  -5   7 6473.04 650.943   1
  -1  12  -8 21949.1 957.990  -2
   8  -5   8 21949.1 957.990   1
  -8   5  -9 2512.24 508.571   1
   0  13 -10 20760.9 780.623  -2
   8  -5  10 20760.9 780.623   1
   8  -4 -11 18994.7 982.303   1
  -9   3  10 8651.16 406.920  -2
   8  -4 -10 8651.16 406.920   1
  -8   4   9 285.049 358.499   1
  -8   4   8 300.798 233.463  -2
   8  -4  -8 300.798 233.463   1
  -8   4   7 54213.2 920.357   1
  -7   5   6 910.524 234.352  -2
   8  -4  -6 910.524 234.352   1
  -8   4   5 100522. 1181.38   1
  -6   6   4 8364.38 404.177  -2
   8  -4  -4 8364.38 404.177   1
   8  -4  -3 21691.7 505.526   1
  -5   7   2 29480.6 735.674  -2
   8  -4  -2 29480.6 735.674   1
   8  -4  -1 35372.2 676.203   1
  -4   8   0 23970.5 640.003  -2
   8  -4   0 23970.5 640.003   1
  -8   4  -1 29265.5 584.210   1
   3  -9   2 17071.1 586.354  -2
  -8   4  -2 17071.1 586.354   1
  -8   4  -3 6608.73 381.199   1
  -2  10  -4 95436.7 1454.99  -2
   8  -4   4 95436.7 1454.99   1
  -8   4  -5 591.692 482.786   1
   1 -11   6 67909.3 1787.13  -2
  -8   4  -6 67909.3 1787.13   1
  -8   4  -7 2591.56 488.396   1
   0  12  -8 1021.06 547.583  -2
   8  -4   8 1021.06 547.583   1
   8  -4   9 5590.83 745.853   1
   9  -2 -12 8621.38 342.018  -2
  -8   3  12 8621.38 342.018   1
  -8   3  11 32248.2 1038.13   1
   8  -3 -10 5203.07 168.393  -2
  -8   3  10 5203.07 168.393   1
  -8   3   9 19648.8 622.547   1
  -7   4   8 7106.91 374.263  -2
   8  -3  -8 7106.91 374.263   1
   8  -3  -7 8695.57 444.187   1
   6  -5  -6 7591.50 333.478  -2
  -8   3   6 7591.50 333.478   1
  -8   3   5 115598. 1026.07   1
  -5   6   4 3134.46 333.220  -2
   8  -3  -4 3134.46 333.220   1
   8  -3  -3 59299.0 810.122   1
  -4   7   2 25736.2 599.245  -2
   8  -3  -2 25736.2 599.245   1
   8  -3  -1 207.771 212.810   1
  -3   8   0 72224.4 1047.63  -2
   8  -3   0 72224.4 1047.63   1
   8  -3   1 18378.8 509.772   1
  -2   9  -2 10850.6 512.384  -2
   8  -3   2 10850.6 512.384   1
   8  -3   3 24132.5 810.514   1
  -1  10  -4 21962.3 1641.79  -2
   8  -3   4 21962.3 1641.79   1
  -8   3  -5 302.195 516.282   1
   0  11  -6 65561.4 1492.02  -2
   8  -3   6 65561.4 1492.02   1
   8  -3   7 1787.96 462.886   1
   1  12  -8 21125.6 935.926  -2
   8  -3   8 21125.6 935.926   1
   8  -3   9 3642.05 581.255   1
  -8   2  12 36095.2 1500.41  -2
   8  -2 -12 36095.2 1500.41   1
  -8   2  11 27238.7 793.945   1
   7  -3 -10 19801.0 447.570  -2
  -8   2  10 19801.0 447.570   1
   8  -2  -9 73641.1 1180.93   1
   6  -4  -8 3500.27 463.498  -2
  -8   2   8 3500.27 463.498   1
   8  -2  -7 11340.3 319.293   1
   5  -5  -6 13128.4 478.006  -2
  -8   2   6 13128.4 478.006   1
  -8   2   5 38663.8 668.060   1
  -4   6   4 24260.3 685.642  -2
   8  -2  -4 24260.3 685.642   1
   8  -2  -3 115406. 1031.01   1
  -3   7   2 5391.27 371.877  -2
   8  -2  -2 5391.27 371.877   1
   8  -2  -1 34476.3 623.408   1
  -2   8   0 57406.0 1100.76  -2
   8  -2   0 57406.0 1100.76   1
   8  -2   1 665.861 323.165   1
  -1   9  -2 42195.3 1015.43  -2
   8  -2   2 42195.3 1015.43   1
  -8   2  -3 12856.7 645.029   1
   0 -10   4 4096.21 723.874  -2
  -8   2  -4 4096.21 723.874   1
   8  -2   5 1708.11 602.537   1
   1  11  -6 46279.3 1264.78  -2
   8  -2   6 46279.3 1264.78   1
   8  -2   7 698.366 467.844   1
   2  12  -8 47415.5 1286.28  -2
   8  -2   8 47415.5 1286.28   1
  -8   1  13 3442.42 983.704   1
   7  -2 -12 46462.4 1397.05  -2
  -8   1  12 46462.4 1397.05   1
  -8   1  11 4957.46 397.910   1
   6  -3 -10 45623.1 422.025  -2
  -8   1  10 45623.1 422.025   1
  -8   1   9 35306.7 481.378   1
   5  -4  -8 19304.8 485.076  -2
  -8   1   8 19304.8 485.076   1
   8  -1  -7 93525.3 948.210   1
   4  -5  -6 4582.90 367.337  -2
  -8   1   6 4582.90 367.337   1
  -8   1   5 4436.89 335.726   1
  -3   6   4 20939.1 675.990  -2
   8  -1  -4 20939.1 675.990   1
   8  -1  -3 52729.9 692.853   1
  -2   7   2 16513.6 546.917  -2
   8  -1  -2 16513.6 546.917   1
   8  -1  -1 54208.5 931.834   1
  -1   8   0 11477.7 648.969  -2
   8  -1   0 11477.7 648.969   1
   8  -1   1 21223.5 674.339   1
   0  -9   2 71548.3 1522.23  -2
  -8   1  -2 71548.3 1522.23   1
  -8   1  -3 9745.45 703.214   1
   1  10  -4 45485.4 1243.71  -2
   8  -1   4 45485.4 1243.71   1
   8  -1   5 2493.22 430.534   1
   2  11  -6 6059.03 750.189  -2
   8  -1   6 6059.03 750.189   1
   8  -1   7 855.443 427.582   1
   3  12  -8 29463.8 1163.11  -2
   8  -1   8 29463.8 1163.11   1
  -8   0  13 10012.6 1161.71   1
   6  -2 -12 18646.7 380.387  -2
  -8   0  12 18646.7 380.387   1
  -8   0  11 13086.4 413.735   1
   5  -3 -10 68515.6 1010.62  -2
  -8   0  10 68515.6 1010.62   1
  -8   0   9 8827.26 358.898   1
   4  -4  -8 48314.7 885.225  -2
  -8   0   8 48314.7 885.225   1
  -8   0   7 88089.4 925.014   1
   3  -5  -6 9328.07 460.311  -2
  -8   0   6 9328.07 460.311   1
  -8   0   5 60847.2 842.054   1
   2  -6  -4 7805.76 442.507  -2
  -8   0   4 7805.76 442.507   1
  -8   0   3 135.478 233.311   1
   1  -7  -2 49637.2 1327.56  -2
  -8   0   2 49637.2 1327.56   1
   8   0  -1 55626.6 1422.15   1
   0  -8   0 38389.8 1039.55  -2
  -8   0   0 38389.8 1039.55   1
  -8   0  -1 62017.7 1070.34   1
  -1  -9   2 20185.1 874.109  -2
  -8   0  -2 20185.1 874.109   1
  -8   0  -3 3128.98 378.993   1
   2  10  -4 57450.7 1119.21  -2
   8   0   4 57450.7 1119.21   1
   8   0   5 521.285 406.317   1
   3  11  -6 24980.3 931.842  -2
   8   0   6 24980.3 931.842   1
   8   0   7 847.847 507.313   1
  -8  -1  13 7207.76 603.906   1
   5  -2 -12 13086.5 1153.71  -2
  -8  -1  12 13086.5 1153.71   1
  -8  -1  11 27073.3 843.340   1
   4  -3 -10 19676.5 361.795  -2
  -8  -1  10 19676.5 361.795   1
  -8  -1   9 1410.65 234.759   1
   3  -4  -8 62290.5 636.568  -2
  -8  -1   8 62290.5 636.568   1
  -8  -1   7 36068.9 778.047   1
   2  -5  -6 42063.7 806.395  -2
  -8  -1   6 42063.7 806.395   1
  -8  -1   5 78482.7 958.732   1
   1  -6  -4 1167.49 337.445  -2
  -8  -1   4 1167.49 337.445   1
  -8  -1   3 31971.5 807.614   1
   0   7   2 26782.8 1392.29  -2
   8   1  -2 26782.8 1392.29   1
  -8  -1   1 3490.44 369.471   1
   1   8   0 54762.4 990.712  -2
   8   1   0 54762.4 990.712   1
  -8  -1  -1 48558.2 915.590   1
  -2  -9   2 5194.77 581.837  -2
  -8  -1  -2 5194.77 581.837   1
   8   1   3 17310.4 581.115   1
   3  10  -4 32267.9 922.647  -2
   8   1   4 32267.9 922.647   1
   8   1   5 1990.06 444.575   1
   4  11  -6 47409.7 1110.51  -2
   8   1   6 47409.7 1110.51   1
  -5   1  14 61810.5 2109.71  -2
   8   2 -14 61810.5 2109.71   1
  -8  -2  13 1283.40 497.912   1
   4  -2 -12 66862.9 1801.86  -2
  -8  -2  12 66862.9 1801.86   1
  -8  -2  11 18415.9 751.954   1
   3  -3 -10 5216.71 557.261  -2
  -8  -2  10 5216.71 557.261   1
  -8  -2   9 24854.0 701.406   1
   2  -4  -8 46817.2 1139.74  -2
  -8  -2   8 46817.2 1139.74   1
  -8  -2   7 1737.50 367.085   1
   1  -5  -6 87313.1 811.838  -2
  -8  -2   6 87313.1 811.838   1
  -8  -2   5 52210.0 642.905   1
   0  -6  -4 16607.8 652.682  -2
  -8  -2   4 16607.8 652.682   1
   8   2  -3 102208. 1227.92   1
  -1  -7  -2 2002.10 479.382  -2
  -8  -2   2 2002.10 479.382   1
   8   2  -1 17734.7 519.954   1
  -2  -8   0 48216.8 1133.35  -2
  -8  -2   0 48216.8 1133.35   1
  -8  -2  -1 11065.7 548.207   1
   3   9  -2 28780.9 904.764  -2
   8   2   2 28780.9 904.764   1
   8   2   3 27980.0 787.791   1
   4  10  -4 4157.17 586.202  -2
   8   2   4 4157.17 586.202   1
   8   2   5 7283.88 552.373   1
   5  11  -6 32850.7 1339.94  -2
   8   2   6 32850.7 1339.94   1
   4  -1 -14 27043.5 1543.64  -2
  -8  -3  14 27043.5 1543.64   1
  -8  -3  13 394.504 485.568   1
   3  -2 -12 89412.1 2133.75  -2
  -8  -3  12 89412.1 2133.75   1
  -8  -3  11 9118.74 561.593   1
   2  -3 -10 28781.9 568.732  -2
  -8  -3  10 28781.9 568.732   1
  -8  -3   9 37761.5 992.572   1
   1  -4  -8 10218.0 982.570  -2
  -8  -3   8 10218.0 982.570   1
  -8  -3   7 20709.6 968.035   1
   0  -5  -6 34974.7 1532.04  -2
  -8  -3   6 34974.7 1532.04   1
  -8  -3   5 1639.72 238.029   1
  -1  -6  -4 30423.0 854.639  -2
  -8  -3   4 30423.0 854.639   1
   8   3  -3 72684.1 1080.16   1
   2   7   2 11978.7 729.134  -2
   8   3  -2 11978.7 729.134   1
  -8  -3   1 60880.0 1168.65   1
  -3  -8   0 15128.0 1107.28  -2
  -8  -3   0 15128.0 1107.28   1
   8   3   1 1232.85 405.862   1
   4   9  -2 36453.9 1260.69  -2
   8   3   2 36453.9 1260.69   1
   8   3   3 8085.82 567.373   1
   5  10  -4 13056.7 879.276  -2
   8   3   4 13056.7 879.276   1
   8   3   5 16148.2 847.325   1
   8   4 -13 305.877 642.858   1
  -2   2  12 47015.3 2148.60  -2
   8   4 -12 47015.3 2148.60   1
  -8  -4  11 679.035 508.042   1
   1  -3 -10 62352.3 1810.44  -2
  -8  -4  10 62352.3 1810.44   1
  -8  -4   9 17658.2 830.925   1
   0  -4  -8 8593.57 866.316  -2
  -8  -4   8 8593.57 866.316   1
  -8  -4   7 45804.7 1391.22   1
  -1  -5  -6 6211.80 917.448  -2
  -8  -4   6 6211.80 917.448   1
  -8  -4   5 21472.8 610.382   1
   2   6   4 21948.7 996.448  -2
   8   4  -4 21948.7 996.448   1
   8   4  -3 8356.69 636.428   1
  -3  -7  -2 16327.0 931.771  -2
  -8  -4   2 16327.0 931.771   1
  -8  -4   1 69300.7 1324.51   1
   4   8   0 1126.65 726.360  -2
   8   4   0 1126.65 726.360   1
   8   4   1 25318.7 809.694   1
   5   9  -2 21973.2 1050.09  -2
   8   4   2 21973.2 1050.09   1
   8   4   3 392.215 432.124   1
   6  10  -4 14834.9 335.320  -2
   8   4   4 14834.9 335.320   1
  -8  -5  13 536.019 714.556   1
  -1   2  12 12060.2 1339.90  -2
   8   5 -12 12060.2 1339.90   1
   8   5 -11 3111.86 759.788   1
   0   3  10 52503.3 2223.48  -2
   8   5 -10 52503.3 2223.48   1
  -8  -5   9 0.46350 620.718   1
  -1  -4  -8 31094.0 1827.48  -2
  -8  -5   8 31094.0 1827.48   1
  -8  -5   7 24146.6 1563.98   1
  -2  -5  -6 1173.32 855.951  -2
  -8  -5   6 1173.32 855.951   1
  -8  -5   5 51295.4 938.581   1
   3   6   4 7014.60 751.584  -2
   8   5  -4 7014.60 751.584   1
  -8  -5   3 1580.26 422.930   1
   4   7   2 15578.7 936.102  -2
   8   5  -2 15578.7 936.102   1
   8   5  -1 23030.2 769.896   1
   5   8   0 2630.87 656.410  -2
   8   5   0 2630.87 656.410   1
   8   5   1 49531.4 1071.04   1
   6   9  -2 3485.03 684.473  -2
   8   5   2 3485.03 684.473   1
   8   6 -13 613.224 710.717   1
   0   2  12 6576.81 1190.24  -2
   8   6 -12 6576.81 1190.24   1
   8   6 -11 2694.75 759.074   1
  -1  -3 -10 9484.80 1282.80  -2
  -8  -6  10 9484.80 1282.80   1
   8   6  -9 4724.17 818.924   1
  -2  -4  -8 33925.4 2438.58  -2
  -8  -6   8 33925.4 2438.58   1
  -8  -6   7 5774.73 1072.47   1
   3   5   6 11550.5 589.806  -2
   8   6  -6 11550.5 589.806   1
   8   6  -5 35114.9 931.883   1
   4   6   4 1143.84 633.487  -2
   8   6  -4 1143.84 633.487   1
  -8  -6   3 20972.4 787.436   1
  -5  -7  -2 6366.14 793.427  -2
  -8  -6   2 6366.14 793.427   1
   8   6  -1 289.267 461.586   1
   6   8   0 4397.97 778.191  -2
   8   6   0 4397.97 778.191   1
   8   6   1 19628.7 851.227   1
   1   2  12 35217.8 2019.43  -2
   8   7 -12 35217.8 2019.43   1
   8   7 -11 2344.89 750.969   1
   2   3  10 2089.21 1015.64  -2
   8   7 -10 2089.21 1015.64   1
  -8  -7   9 3452.80 758.015   1
  -3  -4  -8 26196.4 2206.77  -2
  -8  -7   8 26196.4 2206.77   1
  -8  -7   7 460.169 660.232   1
   4   5   6 20616.1 843.685  -2
   8   7  -6 20616.1 843.685   1
   8   7  -5 16862.4 766.522   1
   5   6   4 2006.09 596.694  -2
   8   7  -4 2006.09 596.694   1
   8   7  -3 37141.9 1024.29   1
  -6  -7  -2 2145.49 686.098  -2
  -8  -7   2 2145.49 686.098   1
   8   7  -1 11545.8 706.523   1
  -3  -3 -10 23975.4 1745.42  -2
  -8  -8  10 23975.4 1745.42   1
   8   8  -9 8428.26 900.278   1
  -4  -4  -8 797.198 1230.04  -2
  -8  -8   8 797.198 1230.04   1
   8   8  -7 11996.8 990.802   1
   5   5   6 16439.0 2310.29  -2
   8   8  -6 16439.0 2310.29   1
  -8  -8   5 399.630 403.044   1
  -6  -6  -4 11164.6 840.325  -2
  -8  -8   4 11164.6 840.325   1
 -11  10  -2 33075.6 1801.27  -2
   9 -12   2 33075.6 1801.27   1
   9 -12   3 7660.52 836.438   1
 -10  11  -4 7364.38 1340.88  -2
   9 -12   4 7364.38 1340.88   1
  12  -8  -2 20915.1 1515.60  -2
  -9  11   2 20915.1 1515.60   1
   9 -11  -1 1790.26 517.500   1
 -11   9   0 23189.5 1173.92  -2
   9 -11   0 23189.5 1173.92   1
   9 -11   1 1390.11 722.379   1
 -10  10  -2 51518.3 1667.66  -2
   9 -11   2 51518.3 1667.66   1
   9 -11   3 854.337 600.068   1
  -9  11  -4 34048.2 1533.40  -2
   9 -11   4 34048.2 1533.40   1
   9 -11   5 22186.5 1176.64   1
  -8  12  -6 16624.7 1284.24  -2
   9 -11   6 16624.7 1284.24   1
  12  -7  -4 29180.4 1658.47  -2
  -9  10   4 29180.4 1658.47   1
  -9  10   3 127.821 685.919   1
  11  -8  -2 41108.7 1122.72  -2
  -9  10   2 41108.7 1122.72   1
   9 -10  -1 2712.90 528.841   1
 -10   9   0 32443.2 1616.23  -2
   9 -10   0 32443.2 1616.23   1
   9 -10   1 2503.84 582.935   1
  -9  10  -2 40747.5 1519.61  -2
   9 -10   2 40747.5 1519.61   1
   9 -10   3 1563.71 627.530   1
  -8  11  -4 58042.3 1836.84  -2
   9 -10   4 58042.3 1836.84   1
   9 -10   5 5870.02 823.142   1
  -7  12  -6 37325.0 1651.94  -2
   9 -10   6 37325.0 1651.94   1
   9 -10   7 28445.3 1296.66   1
 -12   6   6 23940.8 1564.17  -2
   9  -9  -6 23940.8 1564.17   1
   9  -9  -5 21348.2 1134.49   1
  11  -7  -4 20808.0 1432.79  -2
  -9   9   4 20808.0 1432.79   1
  -9   9   3 6465.80 478.123   1
 -10   8   2 63156.3 1488.15  -2
   9  -9  -2 63156.3 1488.15   1
   9  -9  -1 446.960 455.777   1
  -9   9   0 97797.0 2479.08  -2
   9  -9   0 97797.0 2479.08   1
   9  -9   1 129.988 524.519   1
  -8  10  -2 27950.1 1291.13  -2
   9  -9   2 27950.1 1291.13   1
   9  -9   3 4252.90 686.102   1
  -7  11  -4 52565.7 1727.01  -2
   9  -9   4 52565.7 1727.01   1
   9  -9   5 1182.29 682.445   1
  -6  12  -6 47619.3 1117.32  -2
   9  -9   6 47619.3 1117.32   1
   9  -9   7 17400.5 1083.94   1
  -5  13  -8 26564.4 1425.13  -2
   9  -9   8 26564.4 1425.13   1
   9  -8  -7 426.973 676.380   1
 -11   6   6 24511.9 1483.25  -2
   9  -8  -6 24511.9 1483.25   1
   9  -8  -5 18841.5 1050.11   1
  10  -7  -4 18918.4 1307.14  -2
  -9   8   4 18918.4 1307.14   1
  -9   8   3 21757.4 1212.16   1
  -9   8   2 48094.6 1362.01  -2
   9  -8  -2 48094.6 1362.01   1
   9  -8  -1 1036.58 594.939   1
  -8   9   0 87756.9 1889.49  -2
   9  -8   0 87756.9 1889.49   1
   9  -8   1 504.116 519.196   1
  -7  10  -2 52540.1 1643.47  -2
   9  -8   2 52540.1 1643.47   1
   9  -8   3 3001.85 650.505   1
  -6  11  -4 32804.0 1406.86  -2
   9  -8   4 32804.0 1406.86   1
   9  -8   5 7747.14 527.079   1
  -5  12  -6 40163.0 992.626  -2
   9  -8   6 40163.0 992.626   1
   9  -8   7 96.9722 621.093   1
  -4  13  -8 19105.9 1253.62  -2
   9  -8   8 19105.9 1253.62   1
 -11   5   8 6926.32 1049.58  -2
   9  -7  -8 6926.32 1049.58   1
   9  -7  -7 23242.9 1108.36   1
 -10   6   6 28576.0 1519.47  -2
   9  -7  -6 28576.0 1519.47   1
  -9   7   5 612.032 586.465   1
   9  -7  -4 29525.3 716.233  -2
  -9   7   4 29525.3 716.233   1
   9  -7  -3 28695.9 919.068   1
  -8   8   2 23691.5 1061.09  -2
   9  -7  -2 23691.5 1061.09   1
   9  -7  -1 2103.21 621.197   1
  -7   9   0 66807.6 1704.99  -2
   9  -7   0 66807.6 1704.99   1
   9  -7   1 779.264 502.875   1
  -6  10  -2 90954.6 2004.52  -2
   9  -7   2 90954.6 2004.52   1
   9  -7   3 1402.18 344.788   1
  -5  11  -4 41744.3 1120.84  -2
   9  -7   4 41744.3 1120.84   1
   9  -7   5 11168.9 567.754   1
  -4  12  -6 17882.0 1162.95  -2
   9  -7   6 17882.0 1162.95   1
   9  -7   7 9714.26 896.736   1
  -3  13  -8 33170.7 1508.89  -2
   9  -7   8 33170.7 1508.89   1
   9  -6  -9 35555.5 1283.19   1
 -10   5   8 3855.24 896.176  -2
   9  -6  -8 3855.24 896.176   1
   9  -6  -7 38849.1 1288.61   1
  -9   6   6 7425.13 966.800  -2
   9  -6  -6 7425.13 966.800   1
   9  -6  -5 14517.9 860.945   1
  -8   7   4 26723.0 951.614  -2
   9  -6  -4 26723.0 951.614   1
   9  -6  -3 8464.32 527.399   1
  -7   8   2 54031.0 1485.43  -2
   9  -6  -2 54031.0 1485.43   1
   9  -6  -1 7087.85 513.907   1
  -6   9   0 13573.0 637.691  -2
   9  -6   0 13573.0 637.691   1
   9  -6   1 3092.08 448.865   1
  -5  10  -2 57804.6 1111.37  -2
   9  -6   2 57804.6 1111.37   1
   9  -6   3 138.811 318.633   1
  -4  11  -4 82961.7 1491.15  -2
   9  -6   4 82961.7 1491.15   1
   9  -6   5 5737.45 737.186   1
  -3  12  -6 15921.1 1111.49  -2
   9  -6   6 15921.1 1111.49   1
   9  -6   7 20541.3 1091.88   1
  -2  13  -8 15962.1 1489.51  -2
   9  -6   8 15962.1 1489.51   1
 -10   4  10 1186.50 356.507  -2
   9  -5 -10 1186.50 356.507   1
   9  -5  -9 1351.83 618.521   1
  -9   5   8 1999.33 762.799  -2
   9  -5  -8 1999.33 762.799   1
   9  -5  -7 36008.1 957.419   1
   8  -6  -6 2394.90 610.001  -2
  -9   5   6 2394.90 610.001   1
  -9   5   5 43223.7 994.071   1
  -7   7   4 12110.5 768.810  -2
   9  -5  -4 12110.5 768.810   1
   9  -5  -3 619.925 288.800   1
  -6   8   2 68556.3 1262.82  -2
   9  -5  -2 68556.3 1262.82   1
   9  -5  -1 784.227 301.661   1
  -5   9   0 19779.2 638.049  -2
   9  -5   0 19779.2 638.049   1
   9  -5   1 7219.72 396.404   1
  -4  10  -2 22312.4 758.902  -2
   9  -5   2 22312.4 758.902   1
   9  -5   3 408.274 343.679   1
  -3  11  -4 76270.9 1975.70  -2
   9  -5   4 76270.9 1975.70   1
   9  -5   5 1085.91 636.229   1
  -2  12  -6 40414.9 1577.55  -2
   9  -5   6 40414.9 1577.55   1
   9  -5   7 11809.5 1216.72   1
  -1  13  -8 6457.55 1225.45  -2
   9  -5   8 6457.55 1225.45   1
   9  -4 -11 37852.4 1276.28   1
  -9   4  10 1851.54 766.505  -2
   9  -4 -10 1851.54 766.505   1
   9  -4  -9 15750.1 740.037   1
  -8   5   8 1085.32 178.460  -2
   9  -4  -8 1085.32 178.460   1
   9  -4  -7 8115.59 549.239   1
   7  -6  -6 3256.56 591.201  -2
  -9   4   6 3256.56 591.201   1
  -9   4   5 79303.5 875.659   1
  -6   7   4 2025.59 348.745  -2
   9  -4  -4 2025.59 348.745   1
   9  -4  -3 36266.8 765.975   1
  -5   8   2 53877.4 957.053  -2
   9  -4  -2 53877.4 957.053   1
   9  -4  -1 5510.74 354.195   1
  -4   9   0 62879.5 1031.01  -2
   9  -4   0 62879.5 1031.01   1
   9  -4   1 8083.45 415.480   1
  -3  10  -2 7966.78 507.209  -2
   9  -4   2 7966.78 507.209   1
   9  -4   3 895.442 564.972   1
  -2  11  -4 35508.0 1440.45  -2
   9  -4   4 35508.0 1440.45   1
   9  -4   5 709.826 586.091   1
  -1  12  -6 57154.3 2554.80  -2
   9  -4   6 57154.3 2554.80   1
   9  -4   7 1594.44 787.399   1
   0  13  -8 14708.2 1165.91  -2
   9  -4   8 14708.2 1165.91   1
  -9   3  11 26700.4 978.652   1
  -8   4  10 5287.54 239.737  -2
   9  -3 -10 5287.54 239.737   1
   9  -3  -9 58810.3 1170.08   1
   7  -5  -8 599.009 532.862  -2
  -9   3   8 599.009 532.862   1
   9  -3  -7 15340.1 853.383   1
   6  -6  -6 7800.33 429.985  -2
  -9   3   6 7800.33 429.985   1
   9  -3  -5 30988.5 626.919   1
  -5   7   4 10008.8 482.748  -2
   9  -3  -4 10008.8 482.748   1
   9  -3  -3 56090.5 775.869   1
  -4   8   2 16886.5 555.826  -2
   9  -3  -2 16886.5 555.826   1
   9  -3  -1 46449.4 692.344   1
  -3   9   0 48343.8 948.745  -2
   9  -3   0 48343.8 948.745   1
   9  -3   1 2787.59 347.153   1
  -2  10  -2 47145.4 1094.77  -2
   9  -3   2 47145.4 1094.77   1
   9  -3   3 1934.66 631.207   1
  -1  11  -4 858.947 729.439  -2
   9  -3   4 858.947 729.439   1
   9  -3   5 1046.56 816.104   1
   0  12  -6 23890.8 1894.84  -2
   9  -3   6 23890.8 1894.84   1
   9  -3   7 489.904 574.060   1
  -1 -13   8 34755.8 1790.82  -2
  -9   3  -8 34755.8 1790.82   1
   8  -3 -12 12866.2 656.752  -2
  -9   2  12 12866.2 656.752   1
  -9   2  11 4457.55 437.163   1
   7  -4 -10 19072.3 866.186  -2
  -9   2  10 19072.3 866.186   1
  -9   2   9 74247.6 1173.52   1
  -6   5   8 10587.4 708.216  -2
   9  -2  -8 10587.4 708.216   1
   9  -2  -7 70894.1 812.843   1
   5  -6  -6 5602.12 420.651  -2
  -9   2   6 5602.12 420.651   1
   9  -2  -5 2471.41 301.072   1
  -4   7   4 26949.9 703.047  -2
   9  -2  -4 26949.9 703.047   1
   9  -2  -3 18843.2 476.081   1
  -3   8   2 9899.80 479.217  -2
   9  -2  -2 9899.80 479.217   1
   9  -2  -1 71694.2 942.731   1
  -2   9   0 16957.8 656.591  -2
   9  -2   0 16957.8 656.591   1
   9  -2   1 904.567 377.586   1
  -1  10  -2 73708.4 1644.55  -2
   9  -2   2 73708.4 1644.55   1
   9  -2   3 556.754 449.446   1
   0  11  -4 31570.5 2189.91  -2
   9  -2   4 31570.5 2189.91   1
  -9   2  -5 708.805 717.081   1
   1  12  -6 3658.92 794.085  -2
   9  -2   6 3658.92 794.085   1
   9  -2   7 1866.87 565.673   1
   7  -3 -12 6528.03 995.915  -2
  -9   1  12 6528.03 995.915   1
  -9   1  11 6919.26 559.757   1
   6  -4 -10 17522.8 719.903  -2
  -9   1  10 17522.8 719.903   1
  -9   1   9 7986.75 546.086   1
   5  -5  -8 29760.7 691.019  -2
  -9   1   8 29760.7 691.019   1
  -9   1   7 105919. 1059.97   1
   4  -6  -6 4957.46 458.268  -2
  -9   1   6 4957.46 458.268   1
  -9   1   5 43082.0 865.330   1
  -3   7   4 13907.4 562.286  -2
   9  -1  -4 13907.4 562.286   1
   9  -1  -3 707.933 260.982   1
  -2   8   2 36438.6 798.396  -2
   9  -1  -2 36438.6 798.396   1
   9  -1  -1 44549.4 1086.95   1
  -1   9   0 10060.9 674.105  -2
   9  -1   0 10060.9 674.105   1
  -9   1  -1 17211.9 657.398   1
   0 -10   2 38724.5 1581.63  -2
  -9   1  -2 38724.5 1581.63   1
  -9   1  -3 1133.52 714.924   1
  -1 -11   4 67275.2 2533.01  -2
  -9   1  -4 67275.2 2533.01   1
   9  -1   5-63.7228 479.351   1
   2  12  -6 14786.3 995.207  -2
   9  -1   6 14786.3 995.207   1
  -9   1  -7 1928.98 656.641   1
  -9   0  13 12072.4 1296.57   1
   6  -3 -12 12913.9 1152.17  -2
  -9   0  12 12913.9 1152.17   1
  -9   0  11 49130.2 985.903   1
   5  -4 -10 11782.6 735.835  -2
  -9   0  10 11782.6 735.835   1
  -9   0   9 1509.00 303.648   1
   4  -5  -8 35566.6 858.612  -2
  -9   0   8 35566.6 858.612   1
  -9   0   7 45817.0 814.255   1
   3  -6  -6 27339.0 849.202  -2
  -9   0   6 27339.0 849.202   1
  -9   0   5 79695.6 1036.59   1
   2  -7  -4 7563.19 447.016  -2
  -9   0   4 7563.19 447.016   1
  -9   0   3 21166.5 525.545   1
  -1   8   2 48158.3 1723.33  -2
   9   0  -2 48158.3 1723.33   1
  -9   0   1 24549.7 858.949   1
   0  -9   0 45888.4 1788.81  -2
  -9   0   0 45888.4 1788.81   1
  -9   0  -1 17450.7 949.421   1
  -1 -10   2 5898.50 866.002  -2
  -9   0  -2 5898.50 866.002   1
  -9   0  -3 7141.93 748.216   1
   2  11  -4 40759.2 1435.84  -2
   9   0   4 40759.2 1435.84   1
   9   0   5 244.937 482.647   1
   3  12  -6 44285.2 1494.79  -2
   9   0   6 44285.2 1494.79   1
  -9  -1  13 3077.84 564.272   1
   5  -3 -12 42163.9 1781.34  -2
  -9  -1  12 42163.9 1781.34   1
  -9  -1  11 47909.5 1415.56   1
   4  -4 -10 9849.85 1058.15  -2
  -9  -1  10 9849.85 1058.15   1
  -9  -1   9 23899.1 469.275   1
   3  -5  -8 13764.0 509.918  -2
  -9  -1   8 13764.0 509.918   1
  -9  -1   7 2277.02 309.181   1
   2  -6  -6 34024.9 835.261  -2
  -9  -1   6 34024.9 835.261   1
  -9  -1   5 61152.4 1017.26   1
   1  -7  -4 19578.9 747.637  -2
  -9  -1   4 19578.9 747.637   1
  -9  -1   3 86744.6 1506.08   1
   0   8   2 8984.26 1021.41  -2
   9   1  -2 8984.26 1021.41   1
  -9  -1   1 3931.11 503.214   1
   1   9   0 52834.4 1306.13  -2
   9   1   0 52834.4 1306.13   1
  -9  -1  -1 2274.56 456.102   1
  -2 -10   2 21747.3 1050.80  -2
  -9  -1  -2 21747.3 1050.80   1
   9   1   3 9596.75 561.794   1
   3  11  -4 7244.41 884.788  -2
   9   1   4 7244.41 884.788   1
   9   1   5 1189.14 539.791   1
  -9  -2  13 849.441 513.685   1
  -4   3  12 75148.8 2012.42  -2
   9   2 -12 75148.8 2012.42   1
  -9  -2  11 17977.4 981.409   1
   3  -4 -10 26344.9 1462.74  -2
  -9  -2  10 26344.9 1462.74   1
  -9  -2   9 55417.5 1169.69   1
   2  -5  -8 1890.57 581.355  -2
  -9  -2   8 1890.57 581.355   1
  -9  -2   7 18835.4 767.032   1
   1  -6  -6 22608.6 548.894  -2
  -9  -2   6 22608.6 548.894   1
  -9  -2   5 5662.91 342.614   1
   0  -7  -4 30135.2 765.437  -2
  -9  -2   4 30135.2 765.437   1
   9   2  -3 76658.7 1518.02   1
   1   8   2 7320.85 757.989  -2
   9   2  -2 7320.85 757.989   1
   9   2  -1 25336.2 877.590   1
  -2  -9   0 31281.9 1460.20  -2
  -9  -2   0 31281.9 1460.20   1
  -9  -2  -1 624.008 555.552   1
   3  10  -2 43452.9 1551.48  -2
   9   2   2 43452.9 1551.48   1
   9   2   3 10442.4 737.871   1
   4  11  -4 13259.2 911.370  -2
   9   2   4 13259.2 911.370   1
   9   3 -13 6892.53 693.469   1
   3  -3 -12 53036.1 1752.75  -2
  -9  -3  12 53036.1 1752.75   1
  -9  -3  11 572.919 523.773   1
   2  -4 -10 39568.5 1652.38  -2
  -9  -3  10 39568.5 1652.38   1
  -9  -3   9 30615.7 1171.04   1
   1  -5  -8 5848.87 900.605  -2
  -9  -3   8 5848.87 900.605   1
  -9  -3   7 59761.3 1557.40   1
   0  -6  -6 1335.73 270.155  -2
  -9  -3   6 1335.73 270.155   1
  -9  -3   5 12322.3 454.326   1
  -1  -7  -4 26350.9 1115.62  -2
  -9  -3   4 26350.9 1115.62   1
   9   3  -3 14142.0 771.875   1
   2   8   2 19794.2 1032.07  -2
   9   3  -2 19794.2 1032.07   1
   9   3  -1 29597.8 957.405   1
  -3  -9   0 8725.53 1011.92  -2
  -9  -3   0 8725.53 1011.92   1
   9   3   1 12563.7 656.951   1
   4  10  -2 29431.3 1225.68  -2
   9   3   2 29431.3 1225.68   1
   9   3   3 281.780 430.299   1
  -2   3  12 4937.22 1187.40  -2
   9   4 -12 4937.22 1187.40   1
  -9  -4  11 6832.97 867.259   1
   1  -4 -10 33693.8 1937.27  -2
  -9  -4  10 33693.8 1937.27   1
  -9  -4   9 3019.53 721.226   1
   0  -5  -8 17739.8 1454.86  -2
  -9  -4   8 17739.8 1454.86   1
  -9  -4   7 38484.0 1898.45   1
  -1  -6  -6 3667.10 248.124  -2
  -9  -4   6 3667.10 248.124   1
  -9  -4   5 36691.4 821.914   1
   2   7   4 3602.97 704.207  -2
   9   4  -4 3602.97 704.207   1
  -9  -4   3 1897.25 442.841   1
   3   8   2 17808.7 940.324  -2
   9   4  -2 17808.7 940.324   1
  -9  -4   1 15131.5 764.565   1
  -4  -9   0 8965.86 899.000  -2
  -9  -4   0 8965.86 899.000   1
   9   4   1 28054.5 875.100   1
   5  10  -2 5056.58 785.156  -2
   9   4   2 5056.58 785.156   1
  -1   3  12 2721.08 1089.43  -2
   9   5 -12 2721.08 1089.43   1
  -9  -5  11 12697.4 1033.91   1
   0   4  10 14290.2 1481.44  -2
   9   5 -10 14290.2 1481.44   1
  -9  -5   9 5469.76 813.969   1
   1   5   8 25793.1 1743.53  -2
   9   5  -8 25793.1 1743.53   1
  -9  -5   7 8149.34 1193.79   1
  -2  -6  -6 12793.6 350.033  -2
  -9  -5   6 12793.6 350.033   1
   9   5  -5 45607.8 1030.36   1
   3   7   4 814.414 620.221  -2
   9   5  -4 814.414 620.221   1
  -9  -5   3 16648.9 740.391   1
   4   8   2 7068.11 826.532  -2
   9   5  -2 7068.11 826.532   1
   9   5  -1 198.386 462.118   1
   5   9   0 14521.4 930.509  -2
   9   5   0 14521.4 930.509   1
  -9  -6  11 8767.15 967.496   1
  -1  -4 -10 2425.39 1051.84  -2
  -9  -6  10 2425.39 1051.84   1
  -9  -6   9 23322.3 1250.07   1
  -2  -5  -8 9084.56 1646.76  -2
  -9  -6   8 9084.56 1646.76   1
   9   6  -7 371.188 675.558   1
   3   6   6 10467.9 552.139  -2
   9   6  -6 10467.9 552.139   1
   9   6  -5 16755.6 723.416   1
   4   7   4 3111.20 637.035  -2
   9   6  -4 3111.20 637.035   1
  -9  -6   3 44760.1 1094.44   1
   5   8   2 1530.62 686.861  -2
   9   6  -2 1530.62 686.861   1
   2   4  10 14803.1 417.712  -2
   9   7 -10 14803.1 417.712   1
  -9  -7   9 11214.3 1028.25   1
  -3  -5  -8 1320.59 1266.05  -2
  -9  -7   8 1320.59 1266.05   1
   9   7  -7 19631.4 1194.65   1
   4   6   6 9563.58 2168.89  -2
   9   7  -6 9563.58 2168.89   1
   9   7  -5 826.177 1083.46   1
   5   7   4 2029.84 627.457  -2
   9   7  -4 2029.84 627.457   1
 -11  10   0 16357.4 1321.96  -2
  10 -11   0 16357.4 1321.96   1
  10 -11   1 8070.32 954.973   1
 -10  11  -2 30632.4 1411.04  -2
  10 -11   2 30632.4 1411.04   1
  10 -11   3 1380.35 678.106   1
  -9  12  -4 22994.2 1754.23  -2
  10 -11   4 22994.2 1754.23   1
  10 -10  -3 888.970 1034.56   1
 -11   9   2 40067.6 1305.66  -2
  10 -10  -2 40067.6 1305.66   1
  10 -10  -1 431.045 496.942   1
 -10  10   0 33045.0 1637.14  -2
  10 -10   0 33045.0 1637.14   1
  10 -10   1 8423.78 797.978   1
  -9  11  -2 21607.9 1255.85  -2
  10 -10   2 21607.9 1255.85   1
  10 -10   3 12929.5 949.729   1
  -8  12  -4 24323.8 1364.88  -2
  10 -10   4 24323.8 1364.88   1
  10 -10   5 674.093 438.563   1
 -10   9   5 7145.11 882.433   1
  11  -8  -4 25151.7 1567.72  -2
 -10   9   4 25151.7 1567.72   1
  10  -9  -3 4343.31 583.997   1
 -10   9   2 33390.1 1261.00  -2
  10  -9  -2 33390.1 1261.00   1
  10  -9  -1 1980.86 658.015   1
  -9  10   0 70834.5 2205.40  -2
  10  -9   0 70834.5 2205.40   1
  10  -9   1 1544.81 605.186   1
  -8  11  -2 36182.1 1494.65  -2
  10  -9   2 36182.1 1494.65   1
  10  -9   3 16433.4 1012.13   1
  -7  12  -4 23842.1 959.707  -2
  10  -9   4 23842.1 959.707   1
 -10   9  -5 16245.8 707.177   1
  -6  13  -6 16031.8 771.332  -2
  10  -9   6 16031.8 771.332   1
  11  -7  -6 31919.6 1697.12  -2
 -10   8   6 31919.6 1697.12   1
 -10   8   5 647.531 647.003   1
 -10   8   4 32071.0 2365.09  -2
  10  -8  -4 32071.0 2365.09   1
  10  -8  -3 9057.17 689.384   1
  -9   9   2 27812.0 1208.54  -2
  10  -8  -2 27812.0 1208.54   1
  10  -8  -1 1288.13 623.386   1
  -8  10   0 43930.2 1502.60  -2
  10  -8   0 43930.2 1502.60   1
  10  -8   1 131.543 581.313   1
  -7  11  -2 59227.2 1780.36  -2
  10  -8   2 59227.2 1780.36   1
  10  -8   3 6396.44 555.093   1
  -6  12  -4 39901.8 1152.73  -2
  10  -8   4 39901.8 1152.73   1
 -10   8  -5 26496.0 813.999   1
  -5  13  -6 21560.4 1343.08  -2
  10  -8   6 21560.4 1343.08   1
  10  -8   7 7971.78 910.788   1
  10  -7  -7 38015.1 1346.79   1
  10  -7  -6 19834.6 1396.92  -2
 -10   7   6 19834.6 1396.92   1
  10  -7  -5 3283.63 1052.84   1
  -9   8   4 27379.9 1041.05  -2
  10  -7  -4 27379.9 1041.05   1
  10  -7  -3 2600.56 573.899   1
  -8   9   2 42697.5 1794.81  -2
  10  -7  -2 42697.5 1794.81   1
  10  -7  -1 449.917 507.441   1
  -7  10   0 27007.7 1235.04  -2
  10  -7   0 27007.7 1235.04   1
  10  -7   1 275.857 570.191   1
  -6  11  -2 60385.6 1395.03  -2
  10  -7   2 60385.6 1395.03   1
  10  -7   3 503.597 417.203   1
  -5  12  -4 58649.1 1322.93  -2
  10  -7   4 58649.1 1322.93   1
  10  -7   5 17212.5 1069.09   1
  -4  13  -6 22410.8 1321.54  -2
  10  -7   6 22410.8 1321.54   1
  10  -7   7 21541.4 1169.95   1
 -10   6   8 7161.62 1060.86  -2
  10  -6  -8 7161.62 1060.86   1
  10  -6  -7 30784.0 1191.62   1
   9  -7  -6 12193.9 1136.06  -2
 -10   6   6 12193.9 1136.06   1
  10  -6  -5 19481.3 1518.92   1
  -8   8   4 23674.7 1232.18  -2
  10  -6  -4 23674.7 1232.18   1
  10  -6  -3-109.797 492.751   1
  -7   9   2 88512.6 2662.85  -2
  10  -6  -2 88512.6 2662.85   1
  10  -6  -1 1268.94 400.483   1
  -6  10   0 35922.7 943.374  -2
  10  -6   0 35922.7 943.374   1
  10  -6   1 311.416 345.940   1
  -5  11  -2 19347.0 876.605  -2
  10  -6   2 19347.0 876.605   1
  10  -6   3 3256.01 473.888   1
  -4  12  -4 65314.9 1937.31  -2
  10  -6   4 65314.9 1937.31   1
  10  -6   5 3646.69 753.789   1
  -3  13  -6 29179.9 1453.46  -2
  10  -6   6 29179.9 1453.46   1
  10  -6   7 26889.3 1232.62   1
  10  -5  -9 12483.1 836.658   1
   9  -6  -8 7179.35 1001.28  -2
 -10   5   8 7179.35 1001.28   1
 -10   5   7 10418.9 790.495   1
  -8   7   6 15859.8 1803.01  -2
  10  -5  -6 15859.8 1803.01   1
  10  -5  -5 32081.5 1176.94   1
  -7   8   4 4575.04 667.558  -2
  10  -5  -4 4575.04 667.558   1
  10  -5  -3 10475.4 511.420   1
  -6   9   2 76942.2 1181.31  -2
  10  -5  -2 76942.2 1181.31   1
  10  -5  -1 360.567 296.208   1
  -5  10   0 83551.5 1353.23  -2
  10  -5   0 83551.5 1353.23   1
  10  -5   1 380.317 353.278   1
  -4  11  -2 7649.29 682.220  -2
  10  -5   2 7649.29 682.220   1
  10  -5   3 2693.85 679.223   1
  -3  12  -4 30076.9 1440.01  -2
  10  -5   4 30076.9 1440.01   1
  10  -5   5 1724.27 669.594   1
  -2  13  -6 36983.9 1600.34  -2
  10  -5   6 36983.9 1600.34   1
  10  -5   7 4928.25 795.943   1
  -9   5  10 1024.94 783.037  -2
  10  -4 -10 1024.94 783.037   1
  10  -4  -9 55163.8 1406.17   1
   8  -6  -8 6592.13 773.214  -2
 -10   4   8 6592.13 773.214   1
  10  -4  -7 2700.31 629.605   1
  -7   7   6 31155.1 1480.54  -2
  10  -4  -6 31155.1 1480.54   1
  10  -4  -5 11887.1 453.823   1
  -6   8   4 8654.98 511.287  -2
  10  -4  -4 8654.98 511.287   1
  10  -4  -3 31371.4 692.233   1
  -5   9   2 18126.8 660.714  -2
  10  -4  -2 18126.8 660.714   1
  10  -4  -1 5457.22 388.231   1
  -4  10   0 87268.5 1275.32  -2
  10  -4   0 87268.5 1275.32   1
  10  -4   1 322.775 360.752   1
  -3  11  -2 39634.1 1564.71  -2
  10  -4   2 39634.1 1564.71   1
  10  -4   3 3478.15 721.777   1
  -2  12  -4 2580.63 841.161  -2
  10  -4   4 2580.63 841.161   1
  10  -4   5 4718.77 750.448   1
  -1  13  -6 23200.2 1412.51  -2
  10  -4   6 23200.2 1412.51   1
  10  -4   7 595.394 851.556   1
 -10   3  11 5863.37 832.943   1
   8  -5 -10 3101.48 183.474  -2
 -10   3  10 3101.48 183.474   1
  10  -3  -9 66707.2 1441.80   1
  -7   6   8 2230.11 667.807  -2
  10  -3  -8 2230.11 667.807   1
  10  -3  -7 37438.7 1266.84   1
  -6   7   6 22725.6 744.645  -2
  10  -3  -6 22725.6 744.645   1
  10  -3  -5 251.312 284.847   1
  -5   8   4 43188.4 981.047  -2
  10  -3  -4 43188.4 981.047   1
  10  -3  -3 11979.6 467.269   1
  -4   9   2 1877.32 413.155  -2
  10  -3  -2 1877.32 413.155   1
  10  -3  -1 11335.5 479.675   1
  -3  10   0 32157.3 863.516  -2
  10  -3   0 32157.3 863.516   1
  10  -3   1 434.190 597.990   1
  -2  11  -2 65353.2 2060.23  -2
  10  -3   2 65353.2 2060.23   1
  10  -3   3 1743.30 685.917   1
  -1  12  -4 16745.1 1286.39  -2
  10  -3   4 16745.1 1286.39   1
  10  -3   5 10199.2 933.493   1
   0 -13   6 6770.39 1186.70  -2
 -10   3  -6 6770.39 1186.70   1
 -10   2  11 3096.31 715.717   1
   7  -5 -10 6813.00 817.911  -2
 -10   2  10 6813.00 817.911   1
 -10   2   9 35295.8 1026.26   1
  -6   6   8 7016.04 826.037  -2
  10  -2  -8 7016.04 826.037   1
  10  -2  -7 57422.5 1221.32   1
  -5   7   6 6347.50 547.472  -2
  10  -2  -6 6347.50 547.472   1
  10  -2  -5 23024.4 591.079   1
  -4   8   4 29008.0 844.554  -2
  10  -2  -4 29008.0 844.554   1
  10  -2  -3 1038.58 321.416   1
  -3   9   2 25555.6 782.890  -2
  10  -2  -2 25555.6 782.890   1
  10  -2  -1 13922.5 530.391   1
  -2  10   0 2193.66 865.927  -2
  10  -2   0 2193.66 865.927   1
  10  -2   1 724.470 620.712   1
  -1  11  -2 39570.2 1801.86  -2
  10  -2   2 39570.2 1801.86   1
 -10   2  -3 146.876 571.097   1
   0  12  -4 56797.7 1880.78  -2
  10  -2   4 56797.7 1880.78   1
 -10   2  -5 891.748 794.369   1
  -1 -13   6 6446.29 971.925  -2
 -10   2  -6 6446.29 971.925   1
 -10   1  11 27454.0 1193.56   1
   6  -5 -10 419.255 551.509  -2
 -10   1  10 419.255 551.509   1
 -10   1   9 1808.03 438.247   1
   5  -6  -8 9806.04 786.286  -2
 -10   1   8 9806.04 786.286   1
 -10   1   7 25528.2 661.717   1
   4  -7  -6 16934.8 757.949  -2
 -10   1   6 16934.8 757.949   1
 -10   1   5 58537.9 872.702   1
  -3   8   4 16186.7 661.361  -2
  10  -1  -4 16186.7 661.361   1
  10  -1  -3 8660.43 450.215   1
  -2   9   2 51066.1 1215.38  -2
  10  -1  -2 51066.1 1215.38   1
 -10   1   1 1489.03 586.282   1
   1 -10   0 33017.5 1559.83  -2
 -10   1   0 33017.5 1559.83   1
 -10   1  -1 4655.01 688.401   1
   0  11  -2 6044.95 950.621  -2
  10  -1   2 6044.95 950.621   1
  10  -1   3 779.932 600.167   1
  -1 -12   4 37590.1 1641.65  -2
 -10   1  -4 37590.1 1641.65   1
 -10   1  -5 439.027 597.838   1
   6  -4 -12 17371.9 519.853  -2
 -10   0  12 17371.9 519.853   1
 -10   0  11 56806.3 1596.03   1
   5  -5 -10 4172.90 569.759  -2
 -10   0  10 4172.90 569.759   1
 -10   0   9 22380.6 699.729   1
   4  -6  -8 2729.52 512.679  -2
 -10   0   8 2729.52 512.679   1
 -10   0   7 1176.74 357.889   1
   3  -7  -6 30493.0 961.658  -2
 -10   0   6 30493.0 961.658   1
 -10   0   5 52228.2 898.758   1
   2  -8  -4 16965.9 676.570  -2
 -10   0   4 16965.9 676.570   1
 -10   0   3 47125.5 936.656   1
  -1   9   2 28073.1 2844.88  -2
  10   0  -2 28073.1 2844.88   1
 -10   0   1 1076.02 592.114   1
   0  10   0 43978.0 1863.19  -2
  10   0   0 43978.0 1863.19   1
 -10   0  -1 1373.38 494.711   1
   1  11  -2 18579.7 1079.50  -2
  10   0   2 18579.7 1079.50   1
 -10   0  -3 1500.01 626.566   1
  -2 -12   4 11752.8 1166.68  -2
 -10   0  -4 11752.8 1166.68   1
   5  -4 -12 18405.3 1370.21  -2
 -10  -1  12 18405.3 1370.21   1
 -10  -1  11 26579.6 1175.65   1
   4  -5 -10 30160.4 1597.01  -2
 -10  -1  10 30160.4 1597.01   1
 -10  -1   9 55711.2 1536.65   1
   3  -6  -8 3555.31 374.725  -2
 -10  -1   8 3555.31 374.725   1
 -10  -1   7 28062.7 670.095   1
   2  -7  -6 19358.2 772.327  -2
 -10  -1   6 19358.2 772.327   1
 -10  -1   5 5514.01 473.180   1
   1  -8  -4 30677.9 943.672  -2
 -10  -1   4 30677.9 943.672   1
  10   1  -3 42622.8 1250.88   1
   0   9   2 7486.74 757.109  -2
  10   1  -2 7486.74 757.109   1
 -10  -1   1 20608.8 829.372   1
   1  10   0 22475.6 1154.72  -2
  10   1   0 22475.6 1154.72   1
  10   1   1 1122.85 511.634   1
  -2 -11   2 50490.9 1857.26  -2
 -10  -1  -2 50490.9 1857.26   1
 -10  -1  -3 1073.44 646.165   1
   4  -4 -12 12789.1 1229.65  -2
 -10  -2  12 12789.1 1229.65   1
 -10  -2  11 313.661 621.445   1
   3  -5 -10 31222.6 1636.97  -2
 -10  -2  10 31222.6 1636.97   1
 -10  -2   9 35427.0 1311.89   1
   2  -6  -8 18282.7 1213.31  -2
 -10  -2   8 18282.7 1213.31   1
 -10  -2   7 37836.5 473.619   1
   1  -7  -6 2457.48 391.349  -2
 -10  -2   6 2457.48 391.349   1
 -10  -2   5 4272.03 392.165   1
   0   8   4 28189.0 888.525  -2
  10   2  -4 28189.0 888.525   1
  10   2  -3 15512.9 835.838   1
   1   9   2 21008.9 1073.09  -2
  10   2  -2 21008.9 1073.09   1
  10   2  -1 22403.8 884.396   1
   2  10   0 3428.18 791.314  -2
  10   2   0 3428.18 791.314   1
 -10  -2  -1 6731.85 793.564   1
  -3 -11   2 36904.1 1700.73  -2
 -10  -2  -2 36904.1 1700.73   1
   3  -4 -12 5957.55 1215.54  -2
 -10  -3  12 5957.55 1215.54   1
 -10  -3  11 12111.1 1023.08   1
   2  -5 -10 16402.8 1916.00  -2
 -10  -3  10 16402.8 1916.00   1
 -10  -3   9 4879.46 1051.60   1
   1  -6  -8 21512.4 2048.61  -2
 -10  -3   8 21512.4 2048.61   1
 -10  -3   7 53090.4 2213.93   1
   0   7   6 6404.95 403.523  -2
  10   3  -6 6404.95 403.523   1
 -10  -3   5 28045.7 687.445   1
   1   8   4 5713.92 925.760  -2
  10   3  -4 5713.92 925.760   1
  10   3  -3 218.453 423.671   1
   2   9   2 27684.7 1221.84  -2
  10   3  -2 27684.7 1221.84   1
  10   3  -1 13779.3 754.706   1
  -3 -10   0 13997.9 1193.02  -2
 -10  -3   0 13997.9 1193.02   1
  10   3   1 10792.1 750.038   1
 -10  -4  11 28147.7 1370.14   1
   1  -5 -10 8409.66 1304.19  -2
 -10  -4  10 8409.66 1304.19   1
 -10  -4   9 6261.46 858.699   1
   0  -6  -8 16914.2 1514.73  -2
 -10  -4   8 16914.2 1514.73   1
 -10  -4   7 15273.2 1415.46   1
  -1  -7  -6 11346.3 408.103  -2
 -10  -4   6 11346.3 408.103   1
 -10  -4   5 44112.9 789.671   1
   2   8   4 3349.31 760.196  -2
  10   4  -4 3349.31 760.196   1
 -10  -4   3 26966.7 889.416   1
   3   9   2 14140.2 914.489  -2
  10   4  -2 14140.2 914.489   1
  10   4  -1 432.121 446.296   1
   4  10   0 31326.8 1377.00  -2
  10   4   0 31326.8 1377.00   1
   0   5  10 2056.41 1070.52  -2
  10   5 -10 2056.41 1070.52   1
 -10  -5   9 27036.2 1359.27   1
  -1  -6  -8 6483.53 1490.49  -2
 -10  -5   8 6483.53 1490.49   1
 -10  -5   7 592.637 948.693   1
  -2  -7  -6 8188.67 1287.21  -2
 -10  -5   6 8188.67 1287.21   1
  10   5  -5 21084.0 1817.16   1
   2   8   5 19978.6 950.627  -2
  10   5  -5 19978.6 950.627   1
  -3  -8  -4 4319.99 678.557  -2
 -10  -5   4 4319.99 678.557   1
 -10  -5   3 29789.0 953.328   1
   4   9   2 4203.81 792.437  -2
  10   5  -2 4203.81 792.437   1
  -2  -6  -8 1454.39 1283.10  -2
 -10  -6   8 1454.39 1283.10   1
 -10  -6   7 18067.6 1198.39   1
   3   7   6 2229.47 1086.01  -2
  10   6  -6 2229.47 1086.01   1
 -10  11   0 34724.1 1773.62  -2
  11 -10   0 34724.1 1773.62   1
  11 -10   1 6100.29 800.153   1
  -9  12  -2 19858.8 1645.84  -2
  11 -10   2 19858.8 1645.84   1
  11  -9  -3 988.681 1115.83   1
 -10  10   2 17375.0 1098.09  -2
  11  -9  -2 17375.0 1098.09   1
  11  -9  -1 625.347 633.651   1
  -9  11   0 39283.4 1510.54  -2
  11  -9   0 39283.4 1510.54   1
  11  -9   1-255.723 582.859   1
  -8  12  -2 33178.6 1507.03  -2
  11  -9   2 33178.6 1507.03   1
  11  -9   3 17402.4 784.539   1
  -7  13  -4 19709.7 949.418  -2
  11  -9   4 19709.7 949.418   1
  11  -8  -5 1333.25 1129.38   1
 -10   9   4 59876.8 3158.09  -2
  11  -8  -4 59876.8 3158.09   1
  11  -8  -3 77.2060 561.824   1
  -9  10   2 27337.5 1308.66  -2
  11  -8  -2 27337.5 1308.66   1
  11  -8  -1 5546.95 852.504   1
  -8  11   0 24046.9 1237.28  -2
  11  -8   0 24046.9 1237.28   1
  11  -8   1 6650.74 598.187   1
  -7  12  -2 41538.2 1253.48  -2
  11  -8   2 41538.2 1253.48   1
  11  -8   3 466.035 462.911   1
  -6  13  -4 27427.1 1036.57  -2
  11  -8   4 27427.1 1036.57   1
  11  -8   5 28824.5 1347.51   1
 -10   8   6 14910.5 1858.06  -2
  11  -7  -6 14910.5 1858.06   1
  11  -7  -5 4974.75 1175.45   1
  -9   9   4 32174.3 1277.78  -2
  11  -7  -4 32174.3 1277.78   1
  11  -7  -3 389.437 557.379   1
  -8  10   2 43159.3 2008.44  -2
  11  -7  -2 43159.3 2008.44   1
  11  -7  -1 2147.70 624.490   1
  -7  11   0 27240.6 1082.58  -2
  11  -7   0 27240.6 1082.58   1
  11  -7   1 5791.26 585.732   1
  -6  12  -2 28764.2 1084.51  -2
  11  -7   2 28764.2 1084.51   1
  11  -7   3 7798.57 609.978   1
  -5  13  -4 27210.6 1028.05  -2
  11  -7   4 27210.6 1028.05   1
  11  -7   5 6057.01 866.920   1
  11  -6  -7 3250.00 1102.75   1
  -9   8   6 24541.9 2186.30  -2
  11  -6  -6 24541.9 2186.30   1
  11  -6  -5 10633.4 1339.67   1
  -8   9   4 13607.3 1109.58  -2
  11  -6  -4 13607.3 1109.58   1
  11  -6  -3 2314.99 762.347   1
  -7  10   2 59283.9 1810.31  -2
  11  -6  -2 59283.9 1810.31   1
  11  -6  -1 511.810 363.649   1
  -6  11   0 49855.2 1130.20  -2
  11  -6   0 49855.2 1130.20   1
  11  -6   1 6043.69 585.216   1
  -5  12  -2 19257.5 933.232  -2
  11  -6   2 19257.5 933.232   1
  11  -6   3 21874.2 852.386   1
  -4  13  -4 16621.0 1226.44  -2
  11  -6   4 16621.0 1226.44   1
  11  -6   5 2230.57 750.062   1
  -9   7   8 13848.4 1980.87  -2
  11  -5  -8 13848.4 1980.87   1
  11  -5  -7 1281.94 974.759   1
  -8   8   6 38082.8 2621.94  -2
  11  -5  -6 38082.8 2621.94   1
  11  -5  -5 4418.72 1128.37   1
  -7   9   4 11784.1 914.329  -2
  11  -5  -4 11784.1 914.329   1
  11  -5  -3 5136.73 627.835   1
  -6  10   2 21057.0 818.333  -2
  11  -5  -2 21057.0 818.333   1
  11  -5  -1 376.637 359.750   1
  -5  11   0 67678.4 1607.69  -2
  11  -5   0 67678.4 1607.69   1
  11  -5   1 1173.75 489.417   1
  -4  12  -2 31186.4 1126.25  -2
  11  -5   2 31186.4 1126.25   1
  11  -5   3 16759.8 1082.41   1
  -3  13  -4 9949.98 1087.63  -2
  11  -5   4 9949.98 1087.63   1
  11  -5   5 11545.7 1011.83   1
 -11   4   9 48370.0 1625.96   1
  -8   7   8 3119.90 1461.89  -2
  11  -4  -8 3119.90 1461.89   1
  11  -4  -7 19950.2 1061.85   1
  -7   8   6 34977.3 1343.44  -2
  11  -4  -6 34977.3 1343.44   1
  11  -4  -5 698.788 397.275   1
  -6   9   4 30967.1 1195.76  -2
  11  -4  -4 30967.1 1195.76   1
  11  -4  -3 7730.63 472.538   1
  -5  10   2 7435.75 623.523  -2
  11  -4  -2 7435.75 623.523   1
  11  -4  -1 540.095 387.919   1
  -4  11   0 26583.4 1126.84  -2
  11  -4   0 26583.4 1126.84   1
  11  -4   1-84.4486 468.845   1
  -3  12  -2 50325.4 1884.88  -2
  11  -4   2 50325.4 1884.88   1
  11  -4   3 6541.00 866.985   1
  -2  13  -4 12318.4 1204.65  -2
  11  -4   4 12318.4 1204.65   1
  11  -4   5 13652.3 1053.94   1
   8  -6 -10 3016.24 1425.55  -2
 -11   3  10 3016.24 1425.55   1
  11  -3  -9 21036.9 971.210   1
  -7   7   8 3024.90 778.609  -2
  11  -3  -8 3024.90 778.609   1
  11  -3  -7 33608.7 1281.63   1
  -6   8   6 7583.70 803.268  -2
  11  -3  -6 7583.70 803.268   1
  11  -3  -5 7134.07 534.215   1
  -5   9   4 52522.9 1125.66  -2
  11  -3  -4 52522.9 1125.66   1
  11  -3  -3 522.450 327.514   1
  -4  10   2 34993.4 915.536  -2
  11  -3  -2 34993.4 915.536   1
  11  -3  -1 436.023 472.887   1
  -3  11   0 629.493 362.118  -2
  11  -3   0 629.493 362.118   1
  11  -3   1 365.913 627.274   1
  -2  12  -2 39396.1 1826.02  -2
  11  -3   2 39396.1 1826.02   1
  11  -3   3 628.599 706.680   1
  -1  13  -4 35569.2 1792.61  -2
  11  -3   4 35569.2 1792.61   1
   7  -6 -10 1947.49 911.660  -2
 -11   2  10 1947.49 911.660   1
 -11   2   9 665.377 515.114   1
   6  -7  -8 11240.1 925.004  -2
 -11   2   8 11240.1 925.004   1
  11  -2  -7 22329.7 1080.22   1
  -5   8   6 5348.26 728.412  -2
  11  -2  -6 5348.26 728.412   1
  11  -2  -5 28936.7 741.033   1
  -4   9   4 18213.0 754.364  -2
  11  -2  -4 18213.0 754.364   1
  11  -2  -3 2402.89 374.739   1
  -3  10   2 62711.4 1425.28  -2
  11  -2  -2 62711.4 1425.28   1
  11  -2  -1 824.367 483.411   1
  -2  11   0 19476.6 1453.13  -2
  11  -2   0 19476.6 1453.13   1
 -11   2  -1-375.260 492.457   1
   1 -12   2 6216.65 1001.00  -2
 -11   2  -2 6216.65 1001.00   1
  11  -2   3 28.5977 654.475   1
   0  13  -4 28220.5 1513.27  -2
  11  -2   4 28220.5 1513.27   1
   6  -6 -10 5528.59 1019.12  -2
 -11   1  10 5528.59 1019.12   1
 -11   1   9 28543.5 1241.35   1
   5  -7  -8 11358.2 852.048  -2
 -11   1   8 11358.2 852.048   1
 -11   1   7 804.948 558.318   1
   4  -8  -6 23322.4 787.887  -2
 -11   1   6 23322.4 787.887   1
 -11   1   5 28033.2 682.708   1
   3  -9  -4 8906.14 586.687  -2
 -11   1   4 8906.14 586.687   1
 -11   1   3 11807.1 662.720   1
  -2  10   2 42518.4 1703.01  -2
  11  -1  -2 42518.4 1703.01   1
  11  -1  -1 2919.35 517.000   1
   1 -11   0 64828.8 2245.24  -2
 -11   1   0 64828.8 2245.24   1
 -11   1  -1 390.184 605.712   1
   0  12  -2 9143.36 1123.02  -2
  11  -1   2 9143.36 1123.02   1
 -11   1  -3 1332.34 572.854   1
   5  -6 -10 12108.7 1257.49  -2
 -11   0  10 12108.7 1257.49   1
 -11   0   9 51124.7 1553.20   1
   4  -7  -8 7278.01 658.253  -2
 -11   0   8 7278.01 658.253   1
 -11   0   7 12609.9 822.748   1
   3  -8  -6 26005.0 827.363  -2
 -11   0   6 26005.0 827.363   1
 -11   0   5 6815.67 482.403   1
   2  -9  -4 28209.1 1102.30  -2
 -11   0   4 28209.1 1102.30   1
  11   0  -3 17476.5 912.148   1
  -1  10   2 11765.5 906.695  -2
  11   0  -2 11765.5 906.695   1
 -11   0   1 3011.94 706.427   1
   0  11   0 31302.4 1323.70  -2
  11   0   0 31302.4 1323.70   1
  11   0   1 508.748 516.412   1
   1  12  -2 33526.8 1414.64  -2
  11   0   2 33526.8 1414.64   1
   4  -6 -10 22871.7 1517.65  -2
 -11  -1  10 22871.7 1517.65   1
 -11  -1   9 33997.9 1329.29   1
   3  -7  -8 12962.4 545.129  -2
 -11  -1   8 12962.4 545.129   1
 -11  -1   7 39415.7 932.528   1
   2  -8  -6 9670.40 775.169  -2
 -11  -1   6 9670.40 775.169   1
 -11  -1   5 1239.12 478.052   1
   1  -9  -4 30194.7 906.220  -2
 -11  -1   4 30194.7 906.220   1
  11   1  -3 7243.74 554.666   1
   0  10   2 19761.6 1059.14  -2
  11   1  -2 19761.6 1059.14   1
  11   1  -1 8417.96 662.008   1
   1  11   0 10951.3 996.966  -2
  11   1   0 10951.3 996.966   1
  11   1   1 13.7742 518.215   1
   3  -6 -10 8002.06 1616.20  -2
 -11  -2  10 8002.06 1616.20   1
 -11  -2   9 6350.19 1223.77   1
   2  -7  -8 20630.0 2059.59  -2
 -11  -2   8 20630.0 2059.59   1
 -11  -2   7 31805.1 646.299   1
   1  -8  -6 6769.62 498.190  -2
 -11  -2   6 6769.62 498.190   1
 -11  -2   5 16769.8 631.393   1
   0   9   4 17594.2 899.105  -2
  11   2  -4 17594.2 899.105   1
  11   2  -3 139.308 453.295   1
   1  10   2 37548.1 1380.34  -2
  11   2  -2 37548.1 1380.34   1
  11   2  -1 6462.05 645.669   1
   2  11   0 11849.6 1038.36  -2
  11   2   0 11849.6 1038.36   1
   2  -6 -10 1755.46 1293.08  -2
 -11  -3  10 1755.46 1293.08   1
 -11  -3   9 4620.32 1110.73   1
   1  -7  -8 13969.5 1768.83  -2
 -11  -3   8 13969.5 1768.83   1
 -11  -3   7 16062.7 1522.86   1
   0  -8  -6 15702.5 716.525  -2
 -11  -3   6 15702.5 716.525   1
 -11  -3   5 31250.7 933.489   1
   1   9   4 3921.03 935.701  -2
  11   3  -4 3921.03 935.701   1
 -11  -3   3 11737.2 799.224   1
   2  10   2 29418.7 1297.25  -2
  11   3  -2 29418.7 1297.25   1
   0  -7  -8 3549.77 1161.40  -2
 -11  -4   8 3549.77 1161.40   1
 -11  -4   7 477.702 939.663   1
  -1  -8  -6 18038.6 1560.81  -2
 -11  -4   6 18038.6 1560.81   1
  11   4  -5 17443.4 1742.84   1
  -2  -9  -4 7207.48 782.767  -2
 -11  -4   4 7207.48 782.767   1
  -9  11   2 34537.2 1982.66  -2
  12  -8  -2 34537.2 1982.66   1
  12  -8  -1 7777.97 664.721   1
  -8  12   0 24127.5 1075.87  -2
  12  -8   0 24127.5 1075.87   1
  12  -8   1 19204.5 838.504   1
   7 -13   2 21974.7 461.577  -2
 -12   8  -2 21974.7 461.577   1
  -9  10   4 22643.7 2199.06  -2
  12  -7  -4 22643.7 2199.06   1
  12  -7  -3 697.273 627.406   1
  -8  11   2 39588.5 1613.03  -2
  12  -7  -2 39588.5 1613.03   1
  12  -7  -1 474.421 479.803   1
  -7  12   0 30182.6 1188.38  -2
  12  -7   0 30182.6 1188.38   1
  12  -7   1 13398.7 764.819   1
  -6  13  -2 24155.7 1050.18  -2
  12  -7   2 24155.7 1050.18   1
  -9   9   6 48513.8 3022.84  -2
  12  -6  -6 48513.8 3022.84   1
  12  -6  -5 854.105 697.153   1
  -8  10   4 13773.4 1000.24  -2
  12  -6  -4 13773.4 1000.24   1
  12  -6  -3 583.995 590.785   1
  -7  11   2 19596.0 1062.96  -2
  12  -6  -2 19596.0 1062.96   1
  12  -6  -1 2749.96 548.499   1
  -6  12   0 36522.7 1266.63  -2
  12  -6   0 36522.7 1266.63   1
  12  -6   1 2936.78 563.388   1
  -5  13  -2 37513.6 1257.40  -2
  12  -6   2 37513.6 1257.40   1
  12  -6   3 25846.8 1317.51   1
  12  -5  -7 5391.29 849.945   1
  -8   9   6 45662.6 2077.36  -2
  12  -5  -6 45662.6 2077.36   1
  12  -5  -5 961.465 685.272   1
  -7  10   4 39182.8 1441.20  -2
  12  -5  -4 39182.8 1441.20   1
  12  -5  -3 825.418 606.421   1
  -6  11   2 7784.82 830.801  -2
  12  -5  -2 7784.82 830.801   1
  12  -5  -1 4747.34 592.656   1
  -5  12   0 26165.7 1157.42  -2
  12  -5   0 26165.7 1157.42   1
  12  -5   1 397.851 515.340   1
  -4  13  -2 38559.3 1766.14  -2
  12  -5   2 38559.3 1766.14   1
  12  -5   3 7507.30 949.202   1
 -12   4   7 14020.8 1069.21   1
  -7   9   6 17845.0 1437.87  -2
  12  -4  -6 17845.0 1437.87   1
  12  -4  -5 2872.13 608.248   1
  -6  10   4 42723.6 1824.22  -2
  12  -4  -4 42723.6 1824.22   1
  12  -4  -3 695.940 510.291   1
  -5  11   2 32131.1 1300.62  -2
  12  -4  -2 32131.1 1300.62   1
  12  -4  -1 3859.54 586.842   1
  -4  12   0 4058.20 778.738  -2
  12  -4   0 4058.20 778.738   1
  12  -4   1 4005.42 813.031   1
  -3  13  -2 32898.2 1737.03  -2
  12  -4   2 32898.2 1737.03   1
  -7   8   8 16934.8 2254.82  -2
  12  -3  -8 16934.8 2254.82   1
  12  -3  -7 11872.1 764.737   1
  -6   9   6 1154.66 677.925  -2
  12  -3  -6 1154.66 677.925   1
  12  -3  -5 9290.09 604.772   1
  -5  10   4 23835.5 1121.80  -2
  12  -3  -4 23835.5 1121.80   1
  12  -3  -3 103.670 504.956   1
  -4  11   2 59181.7 1722.73  -2
  12  -3  -2 59181.7 1722.73   1
  12  -3  -1 1119.29 700.572   1
  -3  12   0 14637.1 1409.39  -2
  12  -3   0 14637.1 1409.39   1
  12  -3   1 6013.39 881.936   1
  -2  13  -2 4710.54 1146.88  -2
  12  -3   2 4710.54 1146.88   1
   6  -8  -8 20891.1 2021.16  -2
 -12   2   8 20891.1 2021.16   1
 -12   2   7 51.7184 646.933   1
   5  -9  -6 13752.5 913.241  -2
 -12   2   6 13752.5 913.241   1
 -12   2   5 9208.99 579.912   1
  -4  10   4 1426.46 642.252  -2
  12  -2  -4 1426.46 642.252   1
 -12   2   3 1635.33 413.024   1
  -3  11   2 29555.9 2739.07  -2
  12  -2  -2 29555.9 2739.07   1
 -12   2   1 341.998 650.459   1
   2 -12   0 38907.3 1816.88  -2
 -12   2   0 38907.3 1816.88   1
 -12   2  -1 2846.13 721.425   1
  -1  13  -2 1631.23 354.395  -2
  12  -2   2 1631.23 354.395   1
 -12   1   9 45449.7 2330.05   1
   5  -8  -8 11554.6 1653.02  -2
 -12   1   8 11554.6 1653.02   1
 -12   1   7 5391.57 820.084   1
   4  -9  -6 36604.0 1209.40  -2
 -12   1   6 36604.0 1209.40   1
 -12   1   5 4633.02 548.522   1
   3 -10  -4 22676.7 1074.43  -2
 -12   1   4 22676.7 1074.43   1
  12  -1  -3 1931.82 605.145   1
  -2  11   2 8144.04 1971.42  -2
  12  -1  -2 8144.04 1971.42   1
 -12   1   1 2286.38 730.738   1
   1 -12   0 46388.7 2036.80  -2
 -12   1   0 46388.7 2036.80   1
  12  -1   1 183.038 636.743   1
 -12   0   9 35303.5 2079.68   1
   4  -8  -8 7554.35 1591.51  -2
 -12   0   8 7554.35 1591.51   1
 -12   0   7 24312.5 1185.13   1
   3  -9  -6 15243.4 1764.10  -2
 -12   0   6 15243.4 1764.10   1
 -12   0   5 979.843 524.816   1
   2 -10  -4 39939.5 1316.93  -2
 -12   0   4 39939.5 1316.93   1
  12   0  -3 634.587 583.604   1
   1 -11  -2 11134.7 1265.80  -2
 -12   0   2 11134.7 1265.80   1
  12   0  -1-59.0413 497.366   1
   0  12   0 13747.0 1075.47  -2
  12   0   0 13747.0 1075.47   1
   3  -8  -8 13909.7 1804.23  -2
 -12  -1   8 13909.7 1804.23   1
 -12  -1   7 24871.1 1778.12   1
   2  -9  -6 7856.08 756.338  -2
 -12  -1   6 7856.08 756.338   1
 -12  -1   5 8679.89 668.224   1
  -1  10   4 27772.7 1367.43  -2
  12   1  -4 27772.7 1367.43   1
 -12  -1   3 972.060 495.214   1
   0  11   2 34444.9 1357.88  -2
  12   1  -2 34444.9 1357.88   1
 -12  -2   7 9510.82 1308.59   1
   1  -9  -6 14736.3 1836.33  -2
 -12  -2   6 14736.3 1836.33   1
 -12  -2   5 16839.0 812.389   1
   0  10   4 12727.9 1209.55  -2
  12   2  -4 12727.9 1209.55   1
  -6  12   2 13205.2 667.514  -2
  13  -5  -2 13205.2 667.514   1
  -6  11   4 31862.0 1688.21  -2
  13  -4  -4 31862.0 1688.21   1
  13  -4  -3 459.728 546.285   1
  -5  12   2 36783.8 1436.44  -2
  13  -4  -2 36783.8 1436.44   1
  13  -3  -5 235.597 678.243   1
  -5  11   4 7216.54 1139.21  -2
  13  -3  -4 7216.54 1139.21   1
  13  -3  -3 798.127 579.128   1
  -4  12   2 28883.9 1838.07  -2
  13  -3  -2 28883.9 1838.07   1
  -4  11   4 9188.82 1221.30  -2
  13  -2  -4 9188.82 1221.30   1
  13  -2  -3 859.853 987.460   1
   0   0   1 587.970 44.2072   2
   0   0  -3 9784.47 333.327   2
   0   0   5 15974.7 362.652   2
   0   0   7 82.8233 340.286   2
   0   0   9 38692.0 1000.78   2
   0   0 -11 24215.3 915.414   2
   0   0 -13 2717.64 1107.33   2
   0   1 -13 2898.94 1064.78   2
   0   1 -11 8876.22 1100.26   2
   0  -1   9 36811.5 379.542   2
   0  -1   7 21224.4 450.989   2
   0  -1   5 4095.95 197.872   2
   0   1  -3 12016.3 247.893   2
   0  -1   1 7155.65 149.742   2
   0  -1  -1 65.0587 65.4990   2
   0  -1  -3 5280.53 246.358   2
   0   1   5 26782.1 639.010   2
   0  -1  -7 9725.61 722.926   2
   0   1   9 408.999 380.627   2
   0   1  11 20553.5 1187.50   2
   0   1  13 12682.6 1116.07   2
   0   2 -13 19330.4 1013.15   2
   0  -2  11 383.323 183.464   2
   0  -2   9 23803.7 868.200   2
   0  -2   7 54614.9 1034.29   2
   0  -2   5 10579.2 267.991   2
   0   2  -3 4599.39 191.029   2
   0   2  -1 10323.4 161.224   2
   0  -2  -1 5124.01 163.786   2
   0  -2  -3 553.780 160.079   2
   0  -2  -5 10867.8 426.505   2
   0  -2  -7 30948.8 782.741   2
   0   2   9 4057.42 489.749   2
   0  -2 -11 5563.68 899.845   2
   0  -3  13 30315.6 912.793   2
   0  -3  11 25385.2 933.827   2
   0  -3   9 89.3930 275.409   2
   0  -3   7 52007.5 654.856   2
   0   3  -5 46828.2 560.804   2
   0   3  -3 3444.67 133.080   2
   0   3  -1 13736.8 246.781   2
   0  -3  -1 1334.85 171.971   2
   0  -3  -3 11242.2 321.559   2
   0  -3  -5 1682.07 283.974   2
   0  -3  -7 18687.9 675.467   2
   0  -3  -9 16259.0 868.084   2
   0  -3 -11 473.404 783.570   2
   0   4 -15 899.419 1051.50   2
   0  -4  13 9471.28 487.285   2
   0   4 -11 34651.9 704.699   2
   0   4  -9 15970.1 456.077   2
   0   4  -7 8040.39 285.464   2
   0  -4   5 56470.1 602.936   2
   0  -4   3 24840.4 271.280   2
   0   4  -1 3045.83 183.501   2
   0  -4  -1 229.908 181.921   2
   0  -4  -3 139.403 209.920   2
   0  -4  -5 347.250 130.622   2
   0  -4  -7 4098.49 499.420   2
   0  -4  -9 9562.16 1017.44   2
   0   4  11 8812.71 1113.78   2
   0   5 -15 8914.86 1174.21   2
   0  -5  13-182.638 310.253   2
   0   5 -11 30871.8 644.382   2
   0  -5   9 46553.6 666.618   2
   0   5  -7 10861.5 361.066   2
   0   5  -5 11930.2 290.088   2
   0  -5   3 50949.6 465.915   2
   0   5  -1 4985.19 256.473   2
   0   5   1 3339.08 359.152   2
   0  -5  -3 166.006 230.996   2
   0  -5  -5 1189.79 197.855   2
   0  -5  -7 167.643 500.950   2
   0  -5  -9 3758.61 892.751   2
   0   6 -15 13842.4 1273.30   2
   0  -6  13 7207.62 432.403   2
   0  -6  11 3624.86 319.416   2
   0   6  -9 50045.1 662.589   2
   0  -6   7 46624.6 650.091   2
   0  -6   5 2375.42 203.935   2
   0   6  -3 22151.4 442.417   2
   0  -6   1 17438.8 446.412   2
   0   6   1 2244.01 347.141   2
   0  -6  -3 174.769 266.430   2
   0  -6  -5 904.987 244.549   2
   0  -6  -7 3409.18 938.724   2
   0  -6  -9 121.177 825.135   2
   0   7 -15 6313.09 1000.18   2
   0  -7  13 12370.0 482.386   2
   0   7 -11 5630.14 341.065   2
   0   7  -9 17157.0 492.524   2
   0  -7   7 49005.1 711.117   2
   0  -7   5 33832.8 556.211   2
   0  -7   3 1091.23 229.936   2
   0   7  -1 21854.0 542.031   2
   0   7   1 7886.33 515.657   2
   0   7   3 319.926 307.952   2
   0  -7  -5 378.884 299.220   2
   0  -7  -7 3706.89 1016.24   2
   0   8 -15 695.078 618.531   2
   0   8 -13 12327.2 612.100   2
   0   8 -11 23763.7 503.792   2
   0  -8   9 5019.09 337.140   2
   0   8  -7 25436.1 585.923   2
   0  -8   5 54156.5 763.029   2
   0  -8   3 10110.5 472.025   2
   0   8  -1 3593.15 367.976   2
   0  -8  -1 7184.59 457.916   2
   0   8   3 1050.60 571.150   2
   0  -8  -5 44.6758 340.136   2
   0  -9  13 2643.60 479.452   2
   0   9 -11 26257.2 633.353   2
   0  -9   9 18161.5 547.191   2
   0   9  -7 821.040 272.852   2
   0  -9   5 33056.5 678.394   2
   0  -9   3 24832.0 720.740   2
   0  -9   1 3909.41 382.296   2
   0  -9  -1 3737.49 716.472   2
   0   9   3 1351.55 664.685   2
   0  -9  -5 323.451 527.808   2
   0  10 -13 1147.89 776.135   2
   0  10 -11 9224.75 480.879   2
   0 -10   9 26925.5 684.907   2
   0  10  -7 11633.5 546.995   2
   0  10  -5 3388.60 568.407   2
   0 -10   3 27562.1 1042.96   2
   0 -10   1 16641.6 980.931   2
   0 -10  -1 453.074 515.146   2
   0  10   3 688.547 461.182   2
   0  11 -13 5784.58 995.797   2
   0  11 -11 315.792 477.498   2
   0 -11   9 14745.3 601.903   2
   0  11  -7 37826.4 911.428   2
   0  11  -5 4080.40 952.626   2
   0  11  -3 5186.33 681.294   2
   0 -11   1 12791.9 977.999   2
   0  11   1 1820.55 632.124   2
   0  12 -11 3123.00 905.583   2
   0 -12   9 438.416 398.873   2
   0  12  -7 21329.7 784.070   2
   0  12  -5 19323.6 1549.93   2
   0  12  -3 359.289 618.744   2
   0  12  -1 4070.04 676.299   2
   0  13  -9 4073.99 1012.34   2
   0  13  -7 2275.59 1021.57   2
   0  13  -5 16348.6 1012.08   2
   0 -13   3 10995.6 1167.18   2
   1 -13   3 2228.11 708.934   2
  -1  13  -5 16489.3 1079.68   2
  -1  13  -7 10325.9 1173.37   2
  -1  13  -9 704.317 569.107   2
   1 -12   1 15254.8 1055.47   2
  -1  12  -3 2968.97 824.263   2
  -1  12  -5 6920.45 773.609   2
   1 -12   7 21574.9 929.368   2
   1 -12   9 8646.40 557.709   2
   1 -12  11 286.189 536.605   2
   1 -11  -3 2264.86 628.967   2
   1 -11  -1 1225.54 698.672   2
   1 -11   1 16052.2 991.961   2
  -1  11  -3 26831.3 1175.38   2
   1 -11   5 1972.26 528.529   2
  -1  11  -7 15256.1 639.852   2
   1 -11   9 18265.6 659.708   2
  -1  11 -11 3872.68 433.070   2
  -1  11 -13 1294.79 815.828   2
  -1  10   3 6932.83 894.128   2
   1 -10  -1 2942.28 695.656   2
  -1  10  -1 5191.60 792.721   2
  -1  10  -3 38099.3 937.627   2
   1 -10   5 22058.9 856.828   2
  -1  10  -7 468.277 340.002   2
   1 -10   9 16211.8 579.616   2
  -1  10 -11 9846.42 503.974   2
  -1  10 -13 667.844 797.161   2
   1  -9  -5-178.632 370.868   2
  -1   9   3 4875.81 749.660   2
   1  -9  -1 16795.0 708.855   2
  -1   9  -1 607.659 309.277   2
  -1   9  -3 17226.4 605.647   2
  -1   9  -5 48723.6 906.530   2
   1  -9   7 15120.5 475.081   2
   1  -9   9 3772.66 365.125   2
  -1   9 -11 16441.7 592.362   2
   1  -9  13 5073.50 622.557   2
   1  -8  -7 677.796 914.489   2
   1  -8  -5 192.426 323.853   2
  -1   8   3 627.465 333.260   2
  -1   8   1 5700.03 491.007   2
  -1   8  -1 24902.5 613.229   2
  -1   8  -3 45.0549 272.864   2
   1  -8   5 27506.0 563.159   2
   1  -8   7 44406.9 683.435   2
  -1   8  -9 3272.54 346.222   2
  -1   8 -11 2897.21 338.050   2
  -1   8 -13 6201.01 495.246   2
   1  -7  -7 352.783 832.133   2
   1  -7  -5 614.300 262.519   2
  -1   7   3 97.3568 257.274   2
  -1   7   1 6491.65 399.004   2
  -1   7  -1 46890.5 630.629   2
  -1   7  -3 20176.5 671.387   2
   1  -7   5 2765.58 244.904   2
   1  -7   7 33844.4 643.004   2
  -1   7  -9 42828.0 825.900   2
  -1   7 -11 1667.09 318.601   2
   1  -7  13 3654.99 455.997   2
   1  -6  -9 1053.87 828.526   2
   1  -6  -7 1001.50 509.959   2
   1  -6  -5 415.390 252.553   2
   1  -6  -3 3743.08 286.783   2
  -1   6   1 510.202 243.956   2
  -1   6  -1 20753.9 507.064   2
   1  -6   3 48988.4 554.322   2
   1  -6   5 22591.9 437.526   2
  -1   6  -7 7011.58 354.880   2
  -1   6  -9 44770.1 721.117   2
   1  -6  11 19511.6 568.395   2
   1  -6  13 72.2616 338.342   2
  -1   6 -15 4486.15 1179.06   2
   1  -5  -9 4649.35 888.414   2
   1  -5  -7 549.212 480.597   2
   1  -5  -5 322.019 208.146   2
   1  -5  -3 4505.88 266.664   2
  -1   5   1 17358.9 398.085   2
  -1   5  -1 315.012 189.883   2
   1  -5   3 57857.1 475.283   2
  -1   5  -5 79732.2 744.908   2
  -1   5  -7 5456.98 337.584   2
  -1   5  -9 22211.8 546.800   2
   1  -5  11 37803.0 773.393   2
   1  -5  13 2896.47 413.324   2
   1  -4 -11 1675.63 845.912   2
   1  -4  -9 5836.62 651.410   2
   1  -4  -7 3810.79 394.538   2
   1  -4  -5 220.155 170.903   2
  -1   4   3 223.192 166.972   2
  -1   4   1 13888.5 361.565   2
   1  -4   1 13748.5 318.470   2
  -1   4  -3 3399.34 123.624   2
   1  -4   5 87094.5 547.011   2
  -1   4  -7 50366.5 689.572   2
  -1   4  -9 116.617 272.962   2
   1  -4  11 18921.0 554.067   2
  -1   4 -13 13448.9 745.514   2
  -1   3  11 2892.25 832.684   2
   1  -3  -9 2734.02 556.759   2
   1  -3  -7 9355.63 465.991   2
   1  -3  -5 412.130 153.767   2
   1  -3  -3 8557.93 232.872   2
   1  -3  -1 12993.5 328.595   2
  -1   3  -1 24830.9 433.015   2
  -1   3  -3 7079.49 293.456   2
  -1   3  -5 29310.4 397.920   2
   1  -3   7 84873.0 857.523   2
   1  -3   9 20748.4 831.091   2
   1  -3  11 504.195 293.085   2
  -1   3 -13 13043.6 1299.45   2
   1  -2 -11 17182.6 897.593   2
   1  -2  -9 1604.61 404.937   2
   1  -2  -7 7753.61 411.804   2
   1  -2  -5 2936.16 265.626   2
   1  -2  -3 331.717 102.581   2
   1  -2  -1 23556.1 342.262   2
   1  -2   1 71337.1 437.965   2
  -1   2  -3 44720.5 855.380   2
   1  -2   5 174.346 166.431   2
   1  -2   7 39010.5 527.682   2
   1  -2   9 39676.9 671.098   2
   1  -2  11 5347.13 226.288   2
  -1   2 -13 2674.73 1075.56   2
   1  -1 -13 3461.32 836.806   2
  -1   1  11 20908.9 743.971   2
   1  -1  -9 5714.51 396.988   2
   1  -1  -7 129.884 271.865   2
   1  -1  -5 2148.13 133.885   2
   1  -1  -3 337.397 73.3607   2
   1  -1  -1 2141.56 99.4943   2
   1  -1   1 18686.5 211.916   2
  -1   1  -3 51005.2 540.485   2
   1  -1   5 42164.7 437.942   2
   1  -1   7 1177.82 165.990   2
   1  -1   9 34491.4 884.492   2
   1  -1  11 29281.1 1225.19   2
  -1   1 -13 2457.58 1199.20   2
  -1   0  13 1184.27 713.718   2
  -1   0  11 5818.94 563.211   2
   1   0  -9 43760.4 823.358   2
   1   0  -7 12559.7 296.492   2
   1   0  -5 61.9155 132.541   2
   1   0  -3 2226.67 128.203   2
  -1   0   1 1042.08 92.5509   2
   1   0   1 875.303 84.2534   2
  -1   0  -3 14574.9 287.120   2
  -1   0  -5 44893.1 935.424   2
   1   0   7 8733.91 443.210   2
   1   0   9 12500.3 592.471   2
   1   0  11 18362.8 1175.71   2
  -1   0 -13 9033.43 1396.10   2
   1   1 -13 18013.6 957.869   2
  -1  -1  11 77.2218 120.168   2
  -1  -1   9 27687.2 496.153   2
  -1  -1   7 37338.1 495.949   2
  -1  -1   5 4072.24 173.688   2
   1   1  -3 1102.84 99.7909   2
   1   1  -1 115.284 54.8924   2
  -1  -1  -1 8614.97 190.574   2
   1   1   3 294.961 96.9171   2
  -1  -1  -5 31705.5 1345.81   2
   1   1   7 30619.4 758.139   2
   1   1   9 9580.26 619.879   2
   1   1  11 6633.29 915.462   2
   1   2 -13 32513.9 1120.25   2
   1   2 -11 15952.5 540.812   2
  -1  -2   9 2314.90 260.025   2
  -1  -2   7 36164.4 456.002   2
  -1  -2   5 24241.7 328.309   2
   1   2  -3 455.026 177.711   2
   1   2  -1 4941.00 202.545   2
   1   2   1 447.545 131.971   2
   1   2   3 2478.93 179.710   2
  -1  -2  -5 2698.29 476.149   2
  -1  -2  -7 24134.1 663.256   2
   1   2   9 23487.7 976.940   2
   1   2  11-79.2188 775.111   2
   1   3 -15 499.864 883.459   2
   1   3 -13 19846.9 568.124   2
  -1  -3  11 40821.4 711.361   2
  -1  -3   9 12168.8 335.287   2
   1   3  -7 5655.07 204.258   2
  -1  -3   5 20089.9 290.721   2
  -1  -3   3 2801.13 131.713   2
   1   3  -1 5200.62 302.551   2
  -1  -3  -1 603.862 152.204   2
  -1  -3  -3 27596.5 492.205   2
  -1  -3  -5 2164.96 341.303   2
  -1  -3  -7 6278.79 537.771   2
  -1  -3  -9 23063.0 1302.40   2
   1   3  11 8310.51 1061.96   2
   1   4 -15 11171.2 1197.12   2
   1   4 -13 306.607 306.999   2
  -1  -4  11 23110.6 536.258   2
  -1  -4   9 38867.0 493.996   2
  -1  -4   7 3555.92 160.210   2
  -1  -4   5 23041.1 329.523   2
  -1  -4   3 12951.4 277.389   2
   1   4  -1 4531.95 248.804   2
  -1  -4  -1-37.8675 213.558   2
  -1  -4  -3 8354.76 316.774   2
  -1  -4  -5 10958.5 321.913   2
  -1  -4  -7 1263.77 579.990   2
   1   4   9 8059.67 1025.50   2
   1   5 -15 19446.5 1343.28   2
  -1  -5  13 8389.14 408.235   2
  -1  -5  11 4183.56 296.470   2
   1   5  -9 42096.2 512.798   2
   1   5  -7 40720.1 358.810   2
  -1  -5   5 304.031 154.838   2
  -1  -5   3 25730.5 393.335   2
   1   5  -1 3587.02 232.189   2
  -1  -5  -1 3645.81 332.503   2
  -1  -5  -3-53.8810 215.709   2
  -1  -5  -5 5112.71 313.910   2
  -1  -5  -7 10468.1 1194.15   2
  -1  -5  -9 35.6980 784.857   2
   1   6 -15 13905.2 1166.33   2
  -1  -6  13 22420.5 517.767   2
   1   6 -11 5014.38 293.757   2
   1   6  -9 16684.0 342.575   2
  -1  -6   7 58895.3 609.394   2
  -1  -6   5 17137.7 332.113   2
  -1  -6   3 132.412 166.910   2
  -1  -6   1 7040.06 333.017   2
   1   6   1 637.505 308.166   2
  -1  -6  -3 175.490 314.274   2
   1   6   5 2688.14 315.776   2
  -1  -6  -7 14071.0 1340.42   2
   1   7 -15 1427.84 610.708   2
  -1  -7  13 18402.5 577.064   2
   1   7 -11 32605.8 475.665   2
   1   7  -9 324.290 206.240   2
   1   7  -7 27808.8 537.078   2
   1   7  -5 31467.1 518.799   2
   1   7  -3 2641.76 243.885   2
  -1  -7   1 4471.88 325.189   2
  -1  -7  -1 92.0414 252.506   2
   1   7   3 228.576 397.923   2
   1   7   5 725.649 316.598   2
  -1  -7  -7 4745.11 1115.80   2
   1   8 -15 1816.32 627.552   2
  -1  -8  13 4026.59 366.288   2
   1   8 -11 34810.6 494.135   2
   1   8  -9 32646.4 563.948   2
   1   8  -7 105.067 248.225   2
  -1  -8   5 19449.2 422.846   2
   1   8  -3 16793.4 445.068   2
  -1  -8   1 290.563 288.136   2
   1   8   1 2015.80 320.212   2
   1   8   3 477.902 603.346   2
  -1  -8  -5 864.011 373.099   2
   1   9 -13 577.632 311.620   2
   1   9 -11 17632.9 463.930   2
  -1  -9   9 30227.1 649.856   2
   1   9  -7 7049.96 430.388   2
   1   9  -5 3892.54 350.829   2
  -1  -9   3 19032.1 548.980   2
  -1  -9   1 5631.30 458.649   2
   1   9   1 53.5847 504.555   2
   1   9   3 159.758 517.810   2
   1  10 -13 10453.9 885.873   2
   1  10 -11 566.066 392.490   2
  -1 -10   9 22122.4 644.736   2
  -1 -10   7 33737.8 824.821   2
   1  10  -5 5805.63 453.907   2
  -1 -10   3 5734.21 590.762   2
  -1 -10   1 9560.19 735.654   2
   1  10   1 1339.35 585.669   2
   1  10   3 355.274 571.088   2
   1  11 -13 14969.6 1021.91   2
   1  11 -11 6244.99 567.047   2
   1  11  -9 1773.55 400.748   2
  -1 -11   7 31012.1 1036.03   2
   1  11  -5 18137.4 705.382   2
  -1 -11   3 446.987 571.856   2
   1  11  -1 2301.80 612.099   2
   1  11   1 4168.07 736.852   2
   1  12 -11 12283.3 1013.39   2
  -1 -12   9 4675.71 473.426   2
   1  12  -7 6043.95 536.047   2
  -1 -12   5 20112.8 1056.64   2
   1  12  -3 4560.42 711.688   2
   1  12  -1 75.1725 612.387   2
  -1 -13   9 14724.1 1011.14   2
   1  13  -7 891.337 541.430   2
  -1 -13   5 7120.63 857.191   2
  -2  13  -3 959.285 748.819   2
  -2  13  -5 4564.25 755.906   2
  -2  13  -7 6598.29 744.978   2
  -2  13  -9 4566.16 877.676   2
   2 -12  -1 1580.16 765.743   2
  -2  12  -1 14031.7 1160.36   2
  -2  12  -3 21297.2 1141.00   2
  -2  12  -5 726.565 547.907   2
  -2  12  -7 5457.27 919.614   2
   2 -12   9 7413.13 554.059   2
  -2  12 -11 952.359 414.491   2
  -2  11   3 10493.5 1017.31   2
   2 -11  -1 4215.12 784.393   2
  -2  11  -1 3715.65 760.651   2
  -2  11  -3 35928.0 1217.23   2
  -2  11  -5 17666.1 698.826   2
  -2  11  -7 1031.94 467.439   2
   2 -11   9 9135.96 542.214   2
  -2  11 -11 2836.53 434.782   2
  -2  11 -13 433.507 849.765   2
   2 -10  -5 594.026 542.467   2
  -2  10   3 10468.0 910.772   2
  -2  10   1 21729.8 924.692   2
  -2  10  -1 1320.53 435.345   2
  -2  10  -3 16417.8 656.174   2
  -2  10  -5 29306.6 780.984   2
   2 -10   7 7120.03 562.467   2
   2 -10   9 3294.17 399.274   2
  -2  10 -11 4445.63 467.357   2
   2 -10  13 983.435 594.235   2
   2  -9  -5 920.704 497.399   2
   2  -9  -3 2450.51 385.061   2
  -2   9   1 31271.1 686.460   2
  -2   9  -1 18584.3 501.517   2
  -2   9  -3 931.794 286.271   2
   2  -9   5 33369.8 770.269   2
   2  -9   7 43046.5 741.625   2
   2  -9   9 5340.48 423.067   2
   2  -9  11 2062.11 563.185   2
   2  -9  13 2542.89 482.190   2
   2  -8  -7 726.022 410.756   2
   2  -8  -5 2938.47 385.735   2
   2  -8  -3 841.197 288.751   2
  -2   8   1 6300.02 409.539   2
  -2   8  -1 51475.2 695.725   2
   2  -8   3 16393.6 393.535   2
  -2   8  -5 4128.80 347.524   2
   2  -8   7 34140.3 730.202   2
  -2   8  -9 10426.3 514.216   2
  -2   8 -11 462.461 346.323   2
  -2   8 -13 1625.36 453.229   2
   2  -7  -9 623.450 938.080   2
   2  -7  -7 237.221 227.485   2
   2  -7  -5 3114.67 365.096   2
  -2   7   3 14162.3 419.419   2
  -2   7   1 202.935 257.782   2
  -2   7  -1 50506.0 695.530   2
   2  -7   3 83435.8 806.765   2
  -2   7  -5 16385.3 308.233   2
   2  -7   7 8744.34 447.611   2
   2  -7   9 39116.6 855.069   2
  -2   7 -11 5743.42 437.501   2
   2  -7  13 128.164 434.219   2
   2  -6  -9 627.299 870.193   2
   2  -6  -7 219.220 187.521   2
   2  -6  -5 539.268 249.032   2
  -2   6   3 17110.1 449.358   2
  -2   6   1 17421.3 373.487   2
  -2   6  -1 2387.57 214.270   2
   2  -6   3 45215.1 547.467   2
   2  -6   5 55177.4 814.659   2
   2  -6   7 1361.73 292.117   2
  -2   6  -9 23240.1 609.795   2
  -2   6 -11 18063.9 531.482   2
   2  -6  13 1564.77 495.553   2
   2  -5  -9 938.619 513.205   2
   2  -5  -7 100.607 182.359   2
   2  -5  -5 245.035 196.937   2
  -2   5   3 14456.3 384.502   2
  -2   5   1 36426.9 459.301   2
  -2   5  -1 15996.8 388.200   2
  -2   5  -3 26737.0 513.232   2
   2  -5   5 66636.2 854.318   2
  -2   5  -7 25570.2 447.626   2
  -2   5  -9 668.361 305.714   2
  -2   5 -11 14840.4 492.704   2
  -2   5 -13 4819.91 614.998   2
   2  -4 -11 1079.62 854.021   2
   2  -4  -9 744.522 437.977   2
   2  -4  -7 946.823 173.968   2
   2  -4  -5 1946.27 204.575   2
  -2   4   3 3384.22 226.609   2
  -2   4   1 21189.5 338.975   2
   2  -4   1 30156.8 469.903   2
  -2   4  -3 3395.92 292.147   2
  -2   4  -5 50949.1 730.248   2
  -2   4  -7 69052.1 792.852   2
  -2   4  -9 15515.9 428.090   2
  -2   4 -11 261.118 326.626   2
  -2   4 -13 6657.28 1174.75   2
   2  -3 -11 6388.10 684.863   2
   2  -3  -9 572.575 337.675   2
   2  -3  -7 1378.63 180.799   2
   2  -3  -5 603.804 166.277   2
   2  -3  -3 7697.43 230.009   2
   2  -3  -1 8483.39 205.860   2
  -2   3  -1 33168.9 400.507   2
  -2   3  -3 59577.4 689.102   2
  -2   3  -5 1776.21 241.552   2
   2  -3   7 40195.7 566.541   2
   2  -3   9 31218.1 550.456   2
   2  -3  11 4687.73 378.060   2
  -2   3 -13 2639.31 1057.98   2
   2  -2 -13 3648.40 888.141   2
   2  -2 -11 11067.1 633.048   2
   2  -2  -9 4595.52 395.072   2
   2  -2  -7 239.501 161.860   2
   2  -2  -5 1047.95 132.658   2
   2  -2  -3 4307.85 163.974   2
   2  -2  -1 3887.76 126.796   2
   2  -2   1 30239.9 373.425   2
  -2   2  -3 112797. 1080.60   2
  -2   2  -5 54494.1 663.252   2
   2  -2   7 2172.04 220.332   2
   2  -2   9 28080.2 539.690   2
   2  -2  11 11452.1 381.376   2
  -2   2 -13 645.120 1069.28   2
  -2   1  13 1256.66 757.615   2
  -2   1  11 8099.44 461.703   2
   2  -1  -9 6176.00 423.675   2
   2  -1  -7 2977.18 203.255   2
   2  -1  -5 143.162 130.529   2
   2  -1  -3 218.121 93.6694   2
  -2   1   1 45293.3 441.077   2
  -2   1  -1 15628.9 300.434   2
  -2   1  -3 27579.7 394.373   2
   2  -1   5 83832.6 784.694   2
   2  -1   7 10240.5 328.512   2
   2  -1   9 7770.92 566.776   2
  -2   1 -11 27402.6 1757.72   2
  -2   1 -13 4747.87 1290.83   2
  -2   0  13 14932.5 982.347   2
   2   0 -11 1115.72 348.358   2
   2   0  -9 21436.8 418.797   2
   2   0  -7 12103.8 339.692   2
   2   0  -5 479.529 137.608   2
   2   0  -3 52.6075 62.3139   2
   2   0  -1 10469.1 198.966   2
  -2   0  -1 15271.5 301.584   2
   2   0   3 8065.30 208.145   2
  -2   0  -5 50489.1 645.613   2
   2   0   7 33318.6 789.465   2
   2   0   9 876.897 418.685   2
  -2   0 -11 4479.66 1166.57   2
   2   1 -13 25102.4 973.802   2
  -2  -1  11 10440.6 364.811   2
   2   1  -9 3974.54 259.488   2
   2   1  -7 13104.4 303.529   2
  -2  -1   5 195.039 96.8889   2
   2   1  -3 67.1516 80.8054   2
   2   1  -1 25446.4 316.710   2
   2   1   1 77711.9 651.944   2
   2   1   3 7976.62 233.301   2
  -2  -1  -5 10398.1 242.772   2
   2   1   7 32809.5 740.141   2
   2   1   9 33190.2 1371.01   2
  -2  -1 -11-85.4079 1003.51   2
   2   2 -15 242.229 880.666   2
   2   2 -13 19738.3 891.990   2
   2   2 -11 32566.0 543.726   2
   2   2  -9 6387.44 265.396   2
   2   2  -7 5039.11 208.416   2
   2   2  -5 4773.17 226.839   2
  -2  -2   3 126.198 135.029   2
   2   2  -1 80.5121 146.776   2
  -2  -2  -1 20112.7 351.169   2
   2   2   3 27949.1 458.447   2
  -2  -2  -5 5558.03 248.896   2
   2   2   7 12188.9 597.437   2
   2   2   9 32214.2 1439.53   2
   2   2  11 6763.12 1021.21   2
   2   3 -15 9190.27 1055.37   2
   2   3 -13 1429.19 381.886   2
   2   3 -11 25238.6 472.382   2
   2   3  -9 24299.7 383.531   2
   2   3  -7 803.773 112.485   2
   2   3  -5 1120.33 198.347   2
  -2  -3   3 662.671 117.481   2
  -2  -3   1 1108.03 185.483   2
  -2  -3  -1 400.774 236.714   2
   2   3   3 31833.1 525.478   2
   2   3   5 26646.5 467.307   2
  -2  -3  -7 494.437 569.972   2
   2   3   9 14441.2 1156.45   2
   2   4 -15 23225.0 1326.28   2
   2   4 -13 7471.44 456.221   2
   2   4 -11 6583.40 270.110   2
   2   4  -9 36149.2 479.584   2
   2   4  -7 15377.0 458.466   2
  -2  -4   5 160.602 95.8890   2
  -2  -4   3 571.681 158.163   2
   2   4  -1 185.966 173.282   2
  -2  -4  -1 215.698 251.117   2
  -2  -4  -3 3759.31 289.742   2
  -2  -4  -5 20528.8 443.144   2
  -2  -4  -7 11188.1 1207.06   2
  -2  -4  -9 1353.97 822.293   2
   2   5 -15 16518.6 1170.63   2
   2   5 -13 34923.8 705.598   2
   2   5 -11 1141.63 169.790   2
  -2  -5   9 15705.1 213.311   2
   2   5  -7 35715.7 346.845   2
  -2  -5   5 8851.52 311.652   2
   2   5  -3 4389.80 272.825   2
   2   5  -1 131.400 192.155   2
  -2  -5  -1 392.214 267.544   2
  -2  -5  -3-8.47862 338.917   2
  -2  -5  -5 6483.02 387.469   2
  -2  -5  -7 16289.9 1421.47   2
  -2  -5  -9 4516.11 970.952   2
   2   6 -15 2421.26 596.300   2
   2   6 -13 31875.6 1072.15   2
   2   6 -11 16747.9 303.040   2
   2   6  -9 175.785 98.6167   2
   2   6  -7 17178.4 322.949   2
  -2  -6   5 21327.8 412.043   2
   2   6  -3 1266.05 223.269   2
   2   6  -1 690.839 217.729   2
  -2  -6  -1 2095.94 293.638   2
  -2  -6  -3 5649.17 507.964   2
  -2  -6  -5 101.426 358.548   2
   2   6   7 10624.8 1093.10   2
   2   7 -15 2279.83 613.808   2
   2   7 -13 10859.9 764.126   2
   2   7 -11 31177.4 1033.91   2
   2   7  -9 8681.26 256.828   2
   2   7  -7 252.071 220.649   2
  -2  -7   5 21900.2 428.161   2
   2   7  -3 5050.74 281.214   2
   2   7  -1 197.044 239.925   2
  -2  -7  -1 241.565 278.169   2
   2   7   3 3578.33 800.885   2
  -2  -7  -5 2254.58 453.335   2
   2   8 -15 14136.4 914.819   2
   2   8 -13 179.660 558.317   2
   2   8 -11 13184.9 788.349   2
   2   8  -9 44854.7 719.346   2
  -2  -8   7 8516.85 284.683   2
   2   8  -5 3798.95 299.168   2
   2   8  -3 6533.19 332.488   2
  -2  -8   1 318.985 287.980   2
   2   8   1 59.8931 473.275   2
  -2  -8  -3 1474.46 566.772   2
   2   8   5 5620.88 1895.47   2
   2   9 -13 9360.21 816.777   2
  -2  -9  11 445.616 183.596   2
  -2  -9   9 29151.6 581.952   2
  -2  -9   7 24199.8 481.350   2
   2   9  -5 174.490 260.657   2
   2   9  -3 2159.25 359.548   2
  -2  -9   1 4106.48 574.254   2
   2   9   1 268.872 529.726   2
  -2  -9  -3-90.2432 573.732   2
   2  10 -13 18036.7 1030.70   2
  -2 -10  11 9260.58 368.215   2
  -2 -10   9 4174.40 367.039   2
   2  10  -7 28901.8 744.884   2
   2  10  -5 10164.7 460.645   2
   2  10  -3 196.492 349.905   2
  -2 -10   1 2391.06 694.153   2
   2  10   1 596.570 586.913   2
   2  11 -13 11997.0 971.462   2
  -2 -11  11 24974.8 645.716   2
   2  11  -9 2468.49 380.001   2
   2  11  -7 9142.87 549.917   2
   2  11  -5 10063.8 556.878   2
  -2 -11   3 3258.10 603.292   2
   2  11  -1 136.245 589.024   2
   2  12 -11 19560.5 1194.48   2
   2  12  -9 13629.7 691.952   2
   2  12  -7 360.261 384.461   2
   2  12  -5 4623.14 677.662   2
  -2 -12   3 7859.52 935.961   2
  -3  13  -1 17729.1 1284.01   2
  -3  13  -3 8814.64 944.661   2
  -3  13  -5 281.128 620.558   2
  -3  13  -7 4027.82 705.363   2
  -3  13  -9 1340.81 741.541   2
  -3  12   1 1273.86 1394.07   2
  -3  12  -1 5822.88 886.378   2
  -3  12  -3 22862.3 1078.47   2
  -3  12  -5 6255.88 713.660   2
  -3  12  -7 690.469 546.752   2
  -3  12  -9 2196.54 772.006   2
  -3  12 -11 297.565 520.785   2
  -3  11   3 14806.4 1932.88   2
  -3  11   1 18746.9 1239.49   2
  -3  11  -1 300.058 592.855   2
  -3  11  -3 14143.3 854.493   2
  -3  11  -5 20658.3 744.715   2
   3 -11   7 949.328 503.852   2
   3 -11   9 1024.42 476.288   2
  -3  11 -11 877.812 417.361   2
   3 -10  -5 1642.78 910.192   2
   3 -10  -3 5099.77 504.753   2
  -3  10   1 29251.7 685.223   2
  -3  10  -1 12929.9 471.416   2
   3 -10   3 1944.31 288.541   2
  -3  10  -5 20024.7 593.443   2
   3 -10   7 12316.7 690.732   2
   3 -10   9 462.296 369.934   2
  -3  10 -11 374.404 411.488   2
  -3  10 -13 1325.38 917.058   2
   3  -9  -5 7437.17 461.575   2
  -3   9   3 645.768 322.076   2
  -3   9   1 17778.7 525.171   2
  -3   9  -1 31969.7 609.567   2
   3  -9   3 15083.6 419.561   2
  -3   9  -5 4222.86 259.023   2
  -3   9  -7 22952.3 828.252   2
  -3   9  -9 6846.36 631.042   2
  -3   9 -11 390.161 417.902   2
  -3   9 -13 1017.97 570.969   2
   3  -8  -7 919.568 864.224   2
   3  -8  -5 10034.6 464.008   2
  -3   8   3 12610.0 461.263   2
  -3   8   1 195.148 216.849   2
  -3   8  -1 38395.2 602.419   2
   3  -8   3 51140.2 636.738   2
  -3   8  -5 7289.01 293.851   2
   3  -8   7 10576.7 624.445   2
  -3   8  -9 6939.52 514.380   2
  -3   8 -11 1257.16 339.786   2
  -3   8 -13 62.0442 551.966   2
   3  -7  -9 296.141 933.170   2
   3  -7  -7 460.733 342.971   2
   3  -7  -5 3734.68 365.996   2
  -3   7   3 32956.1 557.007   2
  -3   7   1 20413.7 419.421   2
  -3   7  -1 7297.83 294.136   2
  -3   7  -3 53456.2 720.217   2
   3  -7   5 35013.0 1232.77   2
   3  -7   7 527.202 309.572   2
  -3   7  -9 10189.8 477.266   2
  -3   7 -11 3741.98 382.688   2
  -3   7 -13 855.453 598.069   2
   3  -6  -9 13.8418 605.792   2
   3  -6  -7 4346.91 353.053   2
   3  -6  -5 119.215 251.963   2
  -3   6   3 22247.7 507.742   2
  -3   6   1 55142.7 583.128   2
  -3   6  -1 10923.9 379.444   2
  -3   6  -3 18563.7 442.118   2
  -3   6  -5 62665.5 1135.57   2
  -3   6  -7 21658.4 556.971   2
  -3   6  -9 100.906 211.473   2
  -3   6 -11 5324.93 400.385   2
  -3   6 -13 2549.08 723.087   2
   3  -5 -11 754.873 971.160   2
   3  -5  -9-130.932 372.919   2
   3  -5  -7 3469.73 344.121   2
   3  -5  -5 4936.68 272.855   2
   3  -5  -3 5225.28 269.395   2
   3  -5  -1 46343.3 523.289   2
   3  -5   1 64747.0 650.767   2
  -3   5  -3 497.648 310.221   2
   3  -5   5 38530.1 633.871   2
  -3   5  -7 38135.3 680.525   2
  -3   5  -9 10491.9 391.083   2
  -3   5 -11 1949.60 311.781   2
  -3   5 -13 2570.65 739.106   2
   3  -4 -11 1887.62 698.839   2
   3  -4  -9 314.683 370.645   2
   3  -4  -7 675.851 212.123   2
   3  -4  -5 9346.87 302.011   2
  -3   4   3 2598.82 195.216   2
   3  -4  -1 13228.3 262.584   2
   3  -4   1 67530.1 627.578   2
  -3   4  -3 78944.1 1132.11   2
  -3   4  -5 459.517 239.277   2
  -3   4  -7 29255.8 623.381   2
  -3   4  -9 30183.6 581.451   2
  -3   4 -11 1597.34 323.388   2
  -3   4 -13 1240.96 964.247   2
   3  -3 -11 5326.14 650.549   2
   3  -3  -9 241.444 300.619   2
   3  -3  -7 78.4072 187.477   2
   3  -3  -5 4866.86 217.899   2
  -3   3   3 43043.2 410.287   2
  -3   3   1 3045.42 127.482   2
  -3   3  -1 30447.4 451.578   2
  -3   3  -3 122396. 1304.88   2
  -3   3  -5 34107.5 656.990   2
   3  -3   7 4083.24 281.354   2
   3  -3   9 31351.2 586.768   2
  -3   3 -11 9383.71 742.506   2
  -3   3 -13 801.177 1008.23   2
  -3   2  13 136.095 566.451   2
   3  -2 -11 6671.72 441.051   2
   3  -2  -9 2958.45 337.827   2
   3  -2  -7 261.747 153.251   2
   3  -2  -5 2694.04 177.112   2
   3  -2  -3 30347.3 289.238   2
  -3   2   1 39813.0 384.521   2
   3  -2   1 551.679 139.196   2
  -3   2  -3 64561.7 670.658   2
  -3   2  -5 55738.9 822.515   2
   3  -2   7 6879.81 317.911   2
   3  -2   9 10847.7 421.448   2
  -3   2 -11 11704.9 1353.73   2
  -3   2 -13 2888.40 1192.15   2
   3  -1 -13 6248.96 659.737   2
   3  -1 -11 722.566 315.669   2
   3  -1  -9 289.900 194.598   2
   3  -1  -7 243.173 170.304   2
  -3   1   5 974.351 168.959   2
  -3   1   3 4334.43 249.301   2
   3  -1  -1 57572.2 611.395   2
  -3   1  -1 17875.9 398.335   2
  -3   1  -3 16085.6 337.581   2
  -3   1  -5 69183.7 912.819   2
   3  -1   7 42237.7 679.047   2
   3  -1   9 382.869 222.066   2
  -3   1 -11 4591.37 1221.54   2
  -3   0  13 14957.8 607.885   2
  -3   0  11 6097.43 308.994   2
   3   0  -9 1654.68 244.639   2
   3   0  -7 708.942 145.741   2
  -3   0   5 195.172 103.264   2
   3   0  -3 210.130 64.6322   2
  -3   0   1 21384.6 406.623   2
  -3   0  -1 94878.6 840.215   2
   3   0   3 10757.9 297.325   2
  -3   0  -5 10416.7 347.607   2
   3   0   7 46855.5 683.362   2
  -3   0  -9 5653.81 1124.40   2
  -3   0 -11-437.885 1012.14   2
  -3  -1  13 12512.7 533.758   2
  -3  -1  11 13121.6 355.133   2
   3   1  -9 624.670 176.850   2
  -3  -1   7 994.281 145.912   2
  -3  -1   5 647.234 97.6753   2
   3   1  -3 642.654 81.5493   2
   3   1  -1 636.632 153.742   2
  -3  -1  -1 47538.0 565.978   2
  -3  -1  -3 42317.7 523.062   2
  -3  -1  -5 6919.35 269.521   2
   3   1   7 12610.0 618.861   2
   3   1   9 22009.8 1248.33   2
  -3  -1 -11 5270.53 1287.57   2
   3   2 -13 1339.39 337.707   2
   3   2 -11 14812.4 377.952   2
  -3  -2   9 12692.4 289.693   2
   3   2  -7 46.3820 96.2699   2
   3   2  -5 116.508 154.108   2
   3   2  -3 8253.38 191.553   2
   3   2  -1 20506.3 395.078   2
  -3  -2  -1 6592.53 288.451   2
   3   2   3 32782.7 488.610   2
   3   2   5 34875.6 599.361   2
  -3  -2  -7 474.427 570.616   2
  -3  -2  -9 12235.5 1077.03   2
   3   3 -15 20261.5 1179.92   2
   3   3 -13 3763.27 335.326   2
   3   3 -11 6423.63 257.060   2
   3   3  -9 24251.0 308.256   2
   3   3  -7 5125.83 299.043   2
   3   3  -5 63.0023 183.992   2
   3   3  -3 1382.90 144.296   2
   3   3  -1 24071.8 478.327   2
   3   3   1 3533.27 300.391   2
   3   3   3 20696.7 486.600   2
  -3  -3  -5 38393.3 620.396   2
  -3  -3  -7 6633.17 1124.86   2
   3   3   9 738.188 781.338   2
   3   4 -15 17818.3 1096.97   2
   3   4 -13 26278.7 521.113   2
   3   4 -11 1845.54 142.308   2
   3   4  -9 9578.24 545.216   2
   3   4  -7 9348.89 393.366   2
   3   4  -5 106.511 95.2877   2
   3   4  -3 515.198 194.738   2
  -3  -4   1 6622.74 299.585   2
  -3  -4  -1 6352.52 377.389   2
   3   4   3 291.598 285.791   2
  -3  -4  -5 16779.7 511.324   2
  -3  -4  -7 19162.5 1505.12   2
  -3  -4  -9 6025.50 1005.65   2
   3   5 -15 5010.14 797.475   2
   3   5 -13 37812.7 825.778   2
   3   5 -11 15066.7 521.804   2
   3   5  -9 27.6969 365.649   2
   3   5  -7 7365.69 397.017   2
   3   5  -5 2819.99 182.609   2
   3   5  -3 497.359 236.416   2
   3   5  -1 8292.07 369.178   2
  -3  -5  -1 9029.45 376.473   2
  -3  -5  -3 12402.5 564.128   2
  -3  -5  -5 109.761 314.692   2
  -3  -5  -7 14342.2 1149.42   2
   3   6 -15 1075.81 539.059   2
   3   6 -13 14964.8 569.351   2
   3   6 -11 27832.7 636.736   2
   3   6  -9 8287.77 471.398   2
   3   6  -7 1709.67 151.835   2
   3   6  -5 5379.07 255.222   2
   3   6  -3 159.460 251.530   2
   3   6  -1 176.813 232.458   2
  -3  -6  -1 2811.75 310.677   2
   3   6   3 15562.3 889.401   2
   3   6   5 4070.52 505.896   2
   3   6   7 1425.21 833.427   2
   3   7 -15 13589.0 872.256   2
   3   7 -13 381.023 509.846   2
   3   7 -11 18224.5 495.477   2
   3   7  -9 18894.2 658.046   2
  -3  -7   7 5950.81 261.717   2
   3   7  -5 1260.84 240.317   2
   3   7  -3 279.341 264.073   2
   3   7  -1 638.848 274.070   2
  -3  -7  -1 322.402 356.427   2
  -3  -7  -3 8473.93 649.279   2
   3   7   5 6109.42 613.732   2
   3   8 -15 21807.8 1034.14   2
   3   8 -13 11576.4 795.597   2
   3   8 -11 835.268 519.515   2
  -3  -8   9 31324.1 435.056   2
  -3  -8   7 14459.0 409.280   2
   3   8  -5 207.152 262.755   2
   3   8  -3 443.537 263.257   2
   3   8  -1 419.149 356.914   2
  -3  -8  -1 610.007 514.123   2
  -3  -8  -3 1096.73 532.788   2
   3   9 -13 23239.7 1099.79   2
   3   9 -11 5301.74 703.797   2
  -3  -9   9 4253.76 255.955   2
   3   9  -7 14583.9 499.045   2
   3   9  -5 4064.57 354.000   2
   3   9  -3 215.150 320.121   2
  -3  -9   1 211.649 563.324   2
   3   9   1 1600.22 573.561   2
  -3  -9  -3 753.549 591.671   2
   3  10 -13 16618.0 1040.53   2
   3  10 -11 23061.1 1147.42   2
   3  10  -9 1708.93 315.201   2
   3  10  -7 4148.19 528.485   2
   3  10  -5 7748.64 457.148   2
   3  10  -3 1272.31 484.955   2
  -3 -10   1 781.009 668.556   2
   3  10   1 991.362 575.786   2
   3  11 -11 21480.9 1186.47   2
   3  11  -9 10865.8 508.662   2
   3  11  -7 415.413 443.509   2
   3  11  -5 4033.39 619.019   2
   3  11  -3 2558.53 660.951   2
   3  11  -1 215.677 693.905   2
   3  12  -9 17460.9 801.964   2
   3  12  -7 5630.11 649.471   2
   3  12  -5 463.359 587.692   2
  -4  13  -1 4981.46 929.290   2
  -4  13  -3 7755.97 846.025   2
  -4  13  -5 1964.58 658.188   2
  -4  13  -7 399.994 602.934   2
  -4  13  -9 481.290 611.109   2
  -4  12   1 11461.3 813.952   2
  -4  12  -1 402.171 475.856   2
  -4  12  -3 9211.89 577.489   2
  -4  12  -5 4876.99 682.454   2
  -4  12  -7 1514.41 578.339   2
  -4  12  -9 695.303 745.174   2
  -4  12 -11 919.810 766.652   2
  -4  11   3 7040.54 748.931   2
  -4  11   1 23710.3 929.436   2
  -4  11  -1 11807.6 641.651   2
  -4  11  -3 1267.32 376.275   2
  -4  11  -5 10805.2 499.876   2
  -4  11  -7 3440.55 607.067   2
  -4  11  -9 27.1976 649.476   2
  -4  11 -11 500.239 553.782   2
   4 -10  -5 10979.5 676.997   2
  -4  10   3 177.817 319.956   2
  -4  10   1 18712.5 561.091   2
  -4  10  -1 29666.0 617.936   2
   4 -10   3 7154.62 367.404   2
  -4  10  -5 2289.28 271.772   2
   4 -10   7 8814.36 555.921   2
   4 -10   9 1951.23 544.686   2
  -4  10 -11-169.037 522.374   2
   4  -9  -7 1667.15 652.908   2
   4  -9  -5 15366.3 649.919   2
  -4   9   3 11381.0 464.944   2
  -4   9   1 4807.95 354.550   2
  -4   9  -1 24192.0 531.969   2
  -4   9  -3 33271.4 575.698   2
  -4   9  -5 1009.07 309.637   2
  -4   9  -7 8725.69 531.137   2
  -4   9  -9 2858.95 476.006   2
  -4   9 -11 443.033 576.103   2
  -4   9 -13 448.436 595.239   2
   4  -8  -7 197.460 508.649   2
  -4   8   5 9815.63 464.720   2
  -4   8   3 33701.2 648.670   2
  -4   8   1 25905.2 493.759   2
  -4   8  -1 5309.16 344.709   2
  -4   8  -3 40160.7 692.280   2
   4  -8   5 20485.3 573.399   2
   4  -8   7 121.308 351.664   2
  -4   8  -9 1710.73 233.106   2
  -4   8 -11 294.181 557.290   2
  -4   8 -13 532.868 650.033   2
   4  -7  -9 1704.95 640.706   2
   4  -7  -7 5900.59 439.429   2
  -4   7   5 451.823 286.530   2
  -4   7   3 24749.0 512.108   2
  -4   7   1 40438.7 656.184   2
  -4   7  -1 3692.92 310.271   2
  -4   7  -3 23117.8 540.785   2
   4  -7   5 33295.3 783.829   2
   4  -7   7 8247.21 507.643   2
  -4   7  -9 1082.23 256.453   2
  -4   7 -11 807.009 312.330   2
  -4   7 -13 307.016 674.956   2
   4  -6  -9 709.322 338.078   2
   4  -6  -7 18983.6 530.170   2
   4  -6  -5 8993.40 370.986   2
  -4   6   3 3158.65 261.929   2
  -4   6   1 47981.3 640.042   2
  -4   6  -1 50276.0 648.129   2
  -4   6  -3 727.348 279.356   2
   4  -6   5 28244.9 691.206   2
  -4   6  -7 24604.9 618.790   2
  -4   6  -9 667.154 243.875   2
  -4   6 -11 289.752 307.088   2
  -4   6 -13 220.954 713.147   2
   4  -5 -11 435.876 680.737   2
   4  -5  -9 157.815 323.557   2
   4  -5  -7 6119.87 320.674   2
   4  -5  -5 17723.0 397.883   2
  -4   5   3 7182.86 278.350   2
  -4   5   1 20137.4 354.803   2
  -4   5  -1 113551. 952.252   2
  -4   5  -3 32929.1 685.081   2
   4  -5   5 798.063 286.679   2
  -4   5  -7 19847.5 635.153   2
  -4   5  -9 6759.63 369.729   2
  -4   5 -11 381.310 343.210   2
  -4   5 -13 475.127 1051.35   2
   4  -4 -11 190.210 604.133   2
   4  -4  -9 686.517 234.765   2
   4  -4  -7 416.988 207.221   2
   4  -4  -5 13782.9 309.177   2
  -4   4   3 33915.6 413.335   2
   4  -4  -1 3350.55 180.249   2
  -4   4  -1 55010.0 597.439   2
  -4   4  -3 75996.1 1177.95   2
  -4   4  -5 9656.80 438.343   2
  -4   4  -7 3064.30 336.275   2
  -4   4  -9 7649.93 393.681   2
  -4   4 -11 3372.52 603.365   2
  -4   4 -13-41.2934 1007.63   2
   4  -3 -11 597.525 575.866   2
   4  -3  -9 817.991 241.907   2
   4  -3  -7 2357.12 195.924   2
   4  -3  -5 4791.38 187.243   2
  -4   3   3 112234. 586.831   2
  -4   3   1 57721.7 625.677   2
   4  -3   1 53.7824 178.683   2
  -4   3  -3 54428.7 696.620   2
  -4   3  -5 48251.0 986.804   2
  -4   3  -7 2051.07 310.166   2
  -4   3  -9 2505.55 316.933   2
  -4   3 -11 6623.21 751.092   2
   4  -2 -13 1839.88 586.203   2
   4  -2 -11 805.861 328.887   2
   4  -2  -9 132.244 187.810   2
   4  -2  -7 6403.30 269.777   2
  -4   2   5 1687.33 200.052   2
   4  -2  -3 33941.3 481.463   2
   4  -2  -1 60966.2 734.537   2
   4  -2   1 15402.3 424.696   2
  -4   2  -3 6073.21 292.777   2
   4  -2   5 50376.0 728.895   2
   4  -2   7 26133.4 629.197   2
  -4   2  -9 1270.54 347.053   2
  -4   2 -11 2921.64 1200.71   2
  -4   1  13 5954.75 634.452   2
   4  -1 -11 475.581 229.037   2
   4  -1  -9 5125.88 249.463   2
   4  -1  -7 4871.82 209.631   2
  -4   1   5 11571.7 390.808   2
  -4   1   3 1578.52 186.732   2
   4  -1  -1 60407.5 737.219   2
  -4   1  -1 50814.3 736.242   2
  -4   1  -3 13373.4 355.273   2
  -4   1  -5 19318.6 494.022   2
   4  -1   7 38179.1 732.185   2
  -4   1  -9 11363.4 484.283   2
  -4   1 -11 1372.40 1131.99   2
   4   0 -13 7442.57 463.099   2
   4   0 -11 7251.84 295.650   2
   4   0  -9 398.261 174.065   2
   4   0  -7 379.830 133.530   2
  -4   0   5 11441.3 212.092   2
  -4   0   3 6888.40 178.003   2
  -4   0   1 1343.28 192.636   2
  -4   0  -1 78615.0 900.998   2
   4   0   3 79693.4 806.317   2
   4   0   5 3152.02 269.353   2
  -4   0  -7 13588.8 538.564   2
  -4   0  -9 11701.9 1398.22   2
  -4   0 -11 703.723 1143.18   2
  -4  -1  13 2064.39 347.806   2
   4   1 -11 8531.79 294.835   2
   4   1  -9 2199.98 189.286   2
   4   1  -7 187.719 121.394   2
   4   1  -5 6238.01 153.747   2
   4   1  -3 14701.8 259.213   2
  -4  -1   1 12640.9 308.463   2
   4   1   1 16287.1 493.129   2
  -4  -1  -3 68029.6 766.980   2
  -4  -1  -5 24546.2 479.161   2
  -4  -1  -7 670.150 897.446   2
  -4  -1  -9 21466.3 1746.15   2
   4   2 -15 13803.1 1182.63   2
   4   2 -13 1589.51 319.321   2
   4   2 -11 2258.62 216.221   2
  -4  -2   9 4033.12 215.700   2
  -4  -2   7-48.3496 191.606   2
   4   2  -5 573.452 108.236   2
   4   2  -3 9476.13 232.611   2
   4   2  -1 51274.7 729.178   2
  -4  -2  -1 4768.69 320.543   2
  -4  -2  -3 18646.4 457.209   2
   4   2   5 45758.7 772.813   2
  -4  -2  -7 7518.32 1140.55   2
  -4  -2  -9 1977.45 1047.81   2
   4   3 -15 18749.2 1210.25   2
   4   3 -13 10841.1 515.032   2
   4   3 -11 28.1128 171.775   2
   4   3  -9 3329.86 389.357   2
   4   3  -7 534.318 212.322   2
   4   3  -5 203.394 133.500   2
   4   3  -3 2996.54 215.593   2
   4   3  -1 34246.8 542.652   2
  -4  -3  -1 27819.1 515.134   2
  -4  -3  -3 2532.59 348.551   2
   4   3   5 24044.9 701.022   2
  -4  -3  -7 22974.5 1643.56   2
   4   3   9 866.393 850.469   2
   4   4 -15 5177.35 718.420   2
   4   4 -13 20081.8 640.324   2
   4   4 -11 9696.91 597.107   2
   4   4  -9 273.901 349.234   2
   4   4  -7 2146.59 292.017   2
   4   4  -5 1551.57 162.296   2
   4   4  -3 550.548 200.527   2
   4   4  -1 6484.01 374.928   2
  -4  -4  -1 24072.8 557.631   2
   4   4   3 9249.35 471.636   2
   4   4   5 1546.51 359.927   2
  -4  -4  -7 17504.8 1224.78   2
   4   5 -15 614.337 492.461   2
   4   5 -13 12142.0 542.600   2
   4   5 -11 17730.9 782.157   2
   4   5  -9 4693.03 389.083   2
   4   5  -7 1451.55 313.526   2
   4   5  -5 83.4559 153.408   2
   4   5  -3 9582.71 367.252   2
   4   5  -1 121.756 289.737   2
  -4  -5  -1 12276.1 465.436   2
   4   5   3 25150.5 1013.12   2
   4   5   5 5658.43 524.233   2
   4   5   7 2832.13 888.220   2
   4   6 -15 10471.3 741.812   2
   4   6 -13 415.026 332.198   2
   4   6 -11 15087.8 783.315   2
   4   6  -9 15712.0 607.418   2
   4   6  -7 24.6706 133.103   2
   4   6  -5 54.5954 192.422   2
   4   6  -3 2310.58 301.761   2
  -4  -6   1 3053.82 329.184   2
   4   6   1 287.027 327.123   2
   4   6   3 14765.5 736.116   2
   4   6   5 9899.34 649.452   2
   4   7 -15 21301.0 987.809   2
   4   7 -13 10442.0 787.650   2
   4   7 -11 2065.70 427.426   2
   4   7  -9 7313.86 514.901   2
   4   7  -7 1666.66 240.221   2
   4   7  -5 266.868 222.921   2
   4   7  -3 1652.46 307.307   2
   4   7  -1 6271.34 429.355   2
   4   7   1 2875.36 519.636   2
  -4  -7  -3 2104.25 540.512   2
   4   7   5 16095.7 2188.84   2
   4   8 -13 24544.8 1084.59   2
   4   8 -11 3639.41 664.207   2
   4   8  -9 7477.57 738.043   2
   4   8  -7 4873.17 270.334   2
   4   8  -5 1341.74 297.350   2
   4   8  -3 389.313 297.936   2
   4   8  -1 2735.47 520.327   2
  -4  -8  -1 2944.74 593.468   2
  -4  -8  -3 917.390 561.126   2
   4   9 -13 18481.2 1042.13   2
   4   9 -11 13669.6 933.659   2
   4   9  -9 495.624 229.192   2
   4   9  -7 1006.83 254.266   2
   4   9  -5 1706.97 311.592   2
   4   9  -3 267.490 338.360   2
   4   9  -1 233.865 503.837   2
   4   9   1 4993.74 698.939   2
   4  10 -13 4517.55 790.441   2
   4  10 -11 19326.7 1112.56   2
   4  10  -9 7748.62 400.631   2
   4  10  -7 446.191 301.356   2
   4  10  -5 2716.38 362.342   2
   4  10  -3 627.475 527.457   2
   4  10  -1 596.952 580.973   2
   4  11 -11 6399.20 922.842   2
   4  11  -9 12787.6 615.959   2
   4  11  -7 3673.92 425.758   2
   4  11  -5 769.859 497.873   2
   4  11  -3 366.571 562.491   2
  -5  13  -1 162.193 514.879   2
  -5  13  -3 1316.21 476.938   2
  -5  13  -5 1502.95 615.874   2
  -5  13  -7 281.210 595.520   2
  -5  12   1 15307.5 852.070   2
  -5  12  -1 4459.81 560.814   2
  -5  12  -3 996.512 417.425   2
  -5  12  -5 2478.27 412.471   2
  -5  12  -7 444.543 565.929   2
  -5  12  -9 759.673 600.516   2
  -5  11   3 4.50036 561.858   2
  -5  11   1 15206.7 616.138   2
  -5  11  -1 18831.4 609.311   2
  -5  11  -3 1195.41 378.295   2
  -5  11  -5 4778.60 425.639   2
  -5  11  -7 452.295 266.974   2
  -5  11  -9 596.234 586.968   2
  -5  10   5 20021.3 875.751   2
  -5  10   3 10212.1 479.853   2
  -5  10   1 3040.66 390.467   2
  -5  10  -1 20642.1 587.904   2
  -5  10  -3 13313.7 483.660   2
  -5  10  -5 590.212 470.006   2
  -5  10  -7 318.802 518.750   2
  -5  10 -11 935.199 645.201   2
   5  -9  -7 446.606 625.197   2
  -5   9   5 15859.9 697.349   2
  -5   9   3 32867.2 722.850   2
  -5   9   1 2218.22 303.096   2
  -5   9  -1 4046.55 354.596   2
  -5   9  -3 18546.9 650.408   2
   5  -9   5 4088.70 401.032   2
   5  -9   7 92.7700 441.979   2
  -5   9  -9 25.4387 272.048   2
   5  -9  10 4432.97 414.454   2
  -5   9 -11 1203.47 636.808   2
   5  -8  -7 8275.63 723.929   2
  -5   8   5 1156.09 297.912   2
  -5   8   3 26623.3 614.172   2
  -5   8   1 46135.7 682.570   2
  -5   8  -1 3144.59 312.229   2
  -5   8  -3 6602.00 387.510   2
   5  -8   5 9999.21 540.459   2
  -5   8  -7 2102.30 418.466   2
  -5   8  -9 607.471 786.018   2
   5  -8  11 855.110 365.519   2
   5  -7  -9 6064.83 770.261   2
   5  -7  -7 18955.4 877.677   2
  -5   7   5 8006.53 398.687   2
  -5   7   3 9408.98 384.548   2
   5  -7  -1 41407.4 596.234   2
  -5   7  -1 24299.9 613.889   2
  -5   7  -3-13.6279 336.602   2
   5  -7   5 15423.2 537.136   2
  -5   7  -7 10377.4 564.789   2
  -5   7  -9 600.269 354.241   2
  -5   7 -11 376.124 333.427   2
   5  -6  -9 651.034 402.979   2
  -5   6   7 16360.1 487.194   2
   5  -6  -5 30409.0 555.014   2
  -5   6   3 3359.98 294.338   2
   5  -6  -1 19638.4 393.240   2
  -5   6  -1 66638.0 919.246   2
  -5   6  -3 28146.9 702.902   2
  -5   6  -5 1268.01 296.226   2
  -5   6  -7 12542.5 582.863   2
  -5   6  -9 1945.57 345.866   2
  -5   6 -11 468.055 440.385   2
   5  -5 -11 2147.90 720.326   2
   5  -5  -9 770.421 379.823   2
   5  -5  -7 2498.06 244.631   2
   5  -5  -5 32290.1 507.197   2
  -5   5   3 31222.7 446.612   2
   5  -5  -1 944.725 216.550   2
   5  -5   1 57303.5 680.688   2
  -5   5  -3 52392.0 879.780   2
  -5   5  -5 6422.97 421.262   2
  -5   5  -7 1226.40 362.146   2
  -5   5  -9 3004.86 414.654   2
  -5   5 -11 962.300 568.076   2
   5  -4 -11 1671.28 673.183   2
   5  -4  -9 2508.43 244.061   2
   5  -4  -7 3747.66 218.067   2
   5  -4  -5 13256.6 275.724   2
  -5   4   3 45130.7 532.191   2
   5  -4  -1 48224.0 654.545   2
  -5   4  -1 431.439 186.231   2
   5  -4   3 56104.9 888.455   2
  -5   4  -5 21266.4 757.321   2
  -5   4  -7 1185.66 316.582   2
  -5   4  -9 2073.11 398.630   2
  -5   4 -11 238.247 971.120   2
   5  -3 -11 606.506 402.521   2
   5  -3  -9 1565.93 201.006   2
  -5   3   7 17321.6 297.671   2
  -5   3   5 1368.26 283.762   2
   5  -3  -3 38080.4 378.928   2
   5  -3  -1 82929.4 743.098   2
   5  -3   1 30462.7 634.944   2
  -5   3  -3 9326.71 382.188   2
   5  -3   5 32980.0 673.958   2
  -5   3  -7 8792.20 462.139   2
  -5   3  -9 244.583 351.017   2
  -5   3 -11 462.593 1065.45   2
   5  -2 -13 641.856 563.277   2
   5  -2 -11-50.4318 275.419   2
   5  -2  -9 85.9965 164.113   2
  -5   2   7 23539.0 603.077   2
   5  -2  -5 16100.2 403.155   2
  -5   2   3 499.674 201.893   2
   5  -2  -1 64350.6 851.235   2
  -5   2  -1 60621.9 1040.03   2
  -5   2  -3 846.913 236.990   2
  -5   2  -5 14783.6 491.697   2
   5  -2   7 22619.1 648.625   2
  -5   2  -9 1556.57 456.602   2
  -5   2 -11 132.930 1065.22   2
   5  -1 -13 942.935 511.987   2
   5  -1 -11 352.749 214.371   2
   5  -1  -9 269.350 165.046   2
  -5   1   7 7019.56 396.351   2
  -5   1   5 23506.6 453.119   2
  -5   1   3 36893.2 462.575   2
  -5   1   1 23538.9 411.728   2
  -5   1  -1 105464. 1134.93   2
  -5   1  -3 51533.4 701.044   2
   5  -1   5 389.650 246.950   2
  -5   1  -7 13663.1 660.179   2
  -5   1  -9 5031.50 1215.16   2
  -5   1 -11-510.923 1073.21   2
  -5   0  13 604.472 454.481   2
   5   0 -11 5108.43 274.275   2
   5   0  -9 5703.79 231.966   2
  -5   0   7 729.234 128.475   2
   5   0  -5 16027.1 232.935   2
  -5   0   3 80577.8 656.256   2
  -5   0   1 11704.4 368.223   2
  -5   0  -1 17991.4 467.610   2
   5   0   3 39714.1 646.211   2
  -5   0  -5 17536.8 465.657   2
  -5   0  -7 817.348 413.902   2
  -5   0  -9 1703.39 1139.48   2
   5   1 -13 394.242 283.383   2
   5   1 -11 1988.10 211.747   2
   5   1  -9 7433.25 245.796   2
  -5  -1   7 2169.93 155.611   2
   5   1  -5 2385.86 174.859   2
  -5  -1   3 76970.5 641.646   2
  -5  -1   1 36590.2 571.359   2
   5   1   1 197.348 235.552   2
   5   1   3 18381.9 568.677   2
  -5  -1  -5 37357.3 675.653   2
  -5  -1  -7 6246.23 505.818   2
  -5  -1  -9 225.435 1053.74   2
   5   2 -15 8657.32 1035.34   2
   5   2 -13 4999.43 407.805   2
   5   2 -11 233.459 148.148   2
  -5  -2   9 1611.96 102.434   2
  -5  -2   7 3431.16 151.941   2
   5   2  -5 7219.57 201.833   2
   5   2  -3 15174.8 320.217   2
  -5  -2   1 41194.3 554.543   2
   5   2   1 23749.8 582.430   2
  -5  -2  -3 366.419 268.283   2
  -5  -2  -5 30510.6 712.729   2
  -5  -2  -7 15399.4 1523.54   2
  -5  -2  -9 589.510 1123.33   2
   5   3 -15 4107.82 864.492   2
   5   3 -13 5870.58 431.170   2
   5   3 -11 1629.49 393.895   2
   5   3  -9 2750.71 374.430   2
   5   3  -7 488.063 218.910   2
   5   3  -5 10164.3 267.069   2
   5   3  -3 570.008 210.370   2
  -5  -3   1 12966.8 396.608   2
   5   3   1 46930.5 757.709   2
  -5  -3  -3 12757.9 454.496   2
   5   3   5 2809.11 428.327   2
  -5  -3  -7 12578.4 1446.42   2
   5   4 -13 5738.70 454.783   2
   5   4 -11 5112.25 503.124   2
   5   4  -9 3367.86 349.483   2
   5   4  -7 81.6157 272.090   2
   5   4  -5 9734.50 347.572   2
   5   4  -3 1988.48 254.425   2
  -5  -4   1 181.842 222.636   2
   5   4   1 24286.8 703.690   2
   5   4   3 34088.3 921.452   2
   5   4   5 1484.12 459.409   2
   5   4   7 4717.04 917.830   2
   5   5 -15 8466.20 1242.17   2
   5   5 -13 891.817 372.797   2
   5   5 -11 5516.72 562.484   2
   5   5  -9 7641.34 467.074   2
   5   5  -7 527.595 312.100   2
   5   5  -5 3042.87 264.837   2
   5   5  -3 13699.4 418.136   2
   5   5  -1 13868.2 531.637   2
   5   5   1 604.972 383.963   2
   5   5   3 23464.1 848.849   2
   5   5   5 10829.4 693.656   2
   5   6 -15 17211.6 876.117   2
   5   6 -13 5304.67 631.407   2
   5   6 -11 349.172 374.567   2
   5   6  -9 8148.77 522.720   2
   5   6  -7 309.279 164.213   2
   5   6  -5 480.358 232.711   2
   5   6  -3 3349.66 306.852   2
   5   6  -1 16442.3 599.082   2
   5   6   1 2498.48 534.868   2
   5   6   3 5995.07 623.943   2
   5   6   5 11287.2 720.526   2
   5   7 -13 17450.0 920.576   2
   5   7 -11 1079.55 435.420   2
   5   7  -9 407.089 392.833   2
   5   7  -7 115.596 202.580   2
   5   7  -5 347.008 248.631   2
   5   7  -3 258.980 327.041   2
   5   7  -1 13343.0 578.651   2
   5   7   1 9416.20 715.612   2
   5   7   3 470.825 536.866   2
   5   8 -13 16543.5 986.988   2
   5   8 -11 12008.6 893.196   2
   5   8  -9 619.439 655.217   2
   5   8  -7 565.760 244.975   2
   5   8  -5 455.083 292.194   2
   5   8  -3 1289.69 353.716   2
   5   8  -1 2961.12 541.469   2
  -5  -8  -1 9142.26 731.985   2
   5   9 -13 5998.22 793.360   2
   5   9 -11 12275.5 962.577   2
   5   9  -9 1558.73 329.979   2
   5   9  -7 303.552 278.842   2
   5   9  -5 276.220 296.135   2
   5   9  -3 1941.07 523.246   2
   5   9  -1 210.271 518.110   2
   5  10 -11 5667.72 877.713   2
   5  10  -9 4008.10 431.017   2
   5  10  -7 531.494 326.703   2
   5  10  -5 167.051 346.506   2
   5  10  -3 2051.72 584.088   2
   5  11  -9 3392.64 1283.28   2
   5  11  -7 1783.17 523.964   2
  -6  13  -1 1171.34 512.760   2
  -6  13  -3 468.696 444.123   2
  -6  13  -5 522.446 415.649   2
  -6  13  -7 1065.18 624.335   2
  -6  12   1 5521.57 657.692   2
  -6  12  -1 8206.54 605.903   2
  -6  12  -3 380.505 415.627   2
  -6  12  -5 174.535 369.310   2
  -6  12  -7 836.870 327.772   2
  -6  12  -9 2430.01 693.293   2
  -6  11   3 3901.57 652.464   2
  -6  11   1 1830.20 399.808   2
  -6  11  -1 11977.3 527.163   2
  -6  11  -3 3107.46 440.698   2
  -6  11  -5 372.041 538.382   2
  -6  11  -7 1392.42 586.304   2
  -6  11  -9 4420.44 692.868   2
  -6  10   5 14524.7 893.029   2
  -6  10   3 17686.2 1007.53   2
  -6  10   1 2241.00 371.120   2
  -6  10  -1 4548.88 447.466   2
  -6  10  -3 4270.87 552.594   2
  -6  10  -5 865.633 508.434   2
  -6  10  -7 427.929 527.214   2
  -6  10  -9 3204.63 684.946   2
  -6  10 -11 3714.03 962.397   2
   6  -9  -7 5714.13 763.780   2
  -6   9   5 1154.68 454.467   2
  -6   9   3 21386.4 607.186   2
  -6   9   1 16360.7 536.571   2
  -6   9  -1 1895.24 393.715   2
  -6   9  -3 5525.65 466.261   2
  -6   9  -5 2443.04 543.922   2
  -6   9  -7 771.568 556.036   2
  -6   9  -9 150.406 623.667   2
  -6   9 -11 2158.06 1002.04   2
  -6   8   7 18991.0 1057.61   2
  -6   8   5 6591.95 520.944   2
  -6   8   3 4091.58 400.176   2
  -6   8   1 45286.4 670.358   2
  -6   8  -1 12048.1 525.849   2
  -6   8  -3 169.518 345.876   2
   6  -8   5 4113.20 405.283   2
  -6   8  -7 193.771 508.173   2
  -6   8  -9 324.422 819.671   2
  -6   8 -11 1307.18 698.755   2
   6  -7  -9-64.4586 589.919   2
  -6   7   7 19020.2 997.341   2
  -6   7   5 34178.7 699.281   2
  -6   7   3 2053.08 277.236   2
  -6   7   1 22902.1 612.933   2
  -6   7  -1 28804.2 687.133   2
  -6   7  -3 5384.09 443.935   2
   6  -7   5 334.225 323.408   2
  -6   7  -7 761.174 357.450   2
  -6   7  -9 914.792 502.193   2
  -6   7 -11 16.6127 459.835   2
   6  -6  -9 6109.84 549.788   2
  -6   6   7 6792.62 329.037   2
  -6   6   5 45081.1 695.348   2
  -6   6   3 33064.2 643.559   2
   6  -6  -1 166.180 221.935   2
   6  -6   1 26119.2 644.705   2
  -6   6  -3 22211.4 666.393   2
  -6   6  -5 1839.78 385.723   2
  -6   6  -7 343.282 377.674   2
  -6   6  -9 63.8816 486.172   2
  -6   6 -11 849.077 597.491   2
   6  -5 -11 3643.36 748.958   2
   6  -5  -9 14645.8 667.481   2
   6  -5  -7 1589.52 187.428   2
   6  -5  -5 24478.6 603.035   2
  -6   5   3 54833.2 645.901   2
   6  -5  -1 21403.2 512.171   2
  -6   5  -1 2346.81 258.703   2
   6  -5   3 14830.3 564.147   2
  -6   5  -5 7911.35 598.334   2
  -6   5  -7 628.972 338.218   2
  -6   5  -9 270.709 464.363   2
  -6   5 -11 2879.46 1114.67   2
   6  -4 -11 1020.90 436.496   2
   6  -4  -9 11506.7 249.959   2
  -6   4   7 23402.4 710.924   2
   6  -4  -5 341.514 254.495   2
  -6   4   3 27968.9 398.233   2
   6  -4  -1 63136.7 812.080   2
   6  -4   1 13113.9 445.796   2
  -6   4  -3 5960.47 370.339   2
  -6   4  -5 15478.5 731.303   2
  -6   4  -7 4363.64 415.561   2
  -6   4  -9 219.191 450.165   2
  -6   4 -11 481.257 1108.21   2
   6  -3 -11 607.588 328.086   2
   6  -3  -9 7827.66 389.125   2
   6  -3  -7 30228.8 637.014   2
   6  -3  -5 23351.9 525.869   2
  -6   3   3 2752.79 147.186   2
   6  -3  -1 53721.4 870.219   2
  -6   3  -1 66467.3 1193.46   2
  -6   3  -3 2068.48 304.290   2
  -6   3  -5 12833.6 516.576   2
  -6   3  -7 8935.64 655.673   2
  -6   3  -9-243.389 929.168   2
  -6   3 -11-687.768 1045.52   2
   6  -2 -13 1020.47 914.440   2
   6  -2 -11 5372.65 348.452   2
   6  -2  -9 177.874 307.337   2
   6  -2  -7 18496.0 496.957   2
  -6   2   5 38617.8 626.040   2
  -6   2   3 12589.9 347.286   2
   6  -2  -1 15928.3 450.793   2
  -6   2  -1 79241.9 1296.77   2
  -6   2  -3 31699.7 605.229   2
  -6   2  -5 180.119 271.334   2
  -6   2  -7 5457.50 595.927   2
  -6   2  -9 1197.64 1139.76   2
  -6   1  13 254.927 587.919   2
   6  -1 -11 3808.57 235.754   2
   6  -1  -9 226.449 246.778   2
  -6   1   7 407.060 220.587   2
  -6   1   5 39459.6 604.960   2
  -6   1   3 83311.7 743.894   2
  -6   1   1 2694.16 238.585   2
  -6   1  -1 16915.1 551.938   2
   6  -1   3 42735.5 762.117   2
  -6   1  -5 5674.12 381.304   2
  -6   1  -7 935.499 460.550   2
  -6   1  -9 668.863 1096.03   2
   6   0 -13 290.012 516.902   2
  -6   0  11 244.170 178.355   2
   6   0  -9 4340.56 184.610   2
   6   0  -7 5725.76 201.601   2
   6   0  -5 3515.60 184.503   2
  -6   0   3 69047.0 704.189   2
  -6   0   1 50107.0 741.217   2
  -6   0  -1 39.8149 225.213   2
  -6   0  -3 23604.6 593.925   2
   6   0   5 19197.6 558.188   2
  -6   0  -7 952.272 383.985   2
  -6   0  -9 369.583 1065.72   2
  -6  -1  13 149.180 386.426   2
   6   1 -11 704.425 176.232   2
   6   1  -9 3504.27 182.422   2
   6   1  -7 18738.9 295.874   2
  -6  -1   5 5483.28 220.306   2
  -6  -1   3 11431.2 321.486   2
  -6  -1   1 42957.8 662.942   2
  -6  -1  -1 18969.4 465.778   2
   6   1   3 1401.54 332.781   2
  -6  -1  -5 20108.7 684.534   2
  -6  -1  -7 11807.1 805.394   2
  -6  -1  -9 1043.03 1141.48   2
   6   2 -13 1460.98 537.455   2
   6   2 -11 652.839 326.835   2
   6   2  -9 381.786 261.166   2
   6   2  -7 17357.6 252.333   2
   6   2  -5 23436.6 360.287   2
  -6  -2   3 260.656 193.672   2
  -6  -2   1 32218.0 575.884   2
  -6  -2  -1 51425.7 789.832   2
   6   2   3 10504.3 529.451   2
  -6  -2  -5 4498.40 475.147   2
  -6  -2  -7 8564.27 723.181   2
   6   3 -13 1098.83 409.291   2
   6   3 -11 738.721 366.442   2
   6   3  -9 4166.32 308.840   2
   6   3  -7 1980.67 134.100   2
   6   3  -5 26747.5 455.951   2
   6   3  -3 16071.8 451.940   2
  -6  -3   1 889.159 288.454   2
  -6  -3  -1 38396.1 719.107   2
  -6  -3  -3 19803.3 661.947   2
   6   3   5 1134.66 521.120   2
  -6  -3  -7 1985.70 1123.59   2
   6   4 -15 3859.73 1121.78   2
   6   4 -13-69.8055 449.487   2
   6   4 -11 2858.23 476.883   2
   6   4  -9 2972.31 368.732   2
   6   4  -7 58.1309 140.110   2
   6   4  -5 12458.4 368.489   2
   6   4  -3 26859.0 550.822   2
  -6  -4   1 15605.2 482.835   2
   6   4   1 2549.82 444.171   2
   6   4   3 18004.9 758.089   2
   6   4   5 7835.78 740.901   2
   6   5 -13 623.927 506.107   2
   6   5 -11 1215.98 471.692   2
   6   5  -9 1638.41 380.015   2
   6   5  -7 1040.05 178.729   2
   6   5  -5 244.398 254.011   2
   6   5  -3 19676.8 582.230   2
  -6  -5   1 23733.8 598.871   2
   6   5   1 2905.39 536.686   2
   6   5   3 5519.59 579.130   2
  -6  -5  -5 12929.0 701.783   2
   6   6 -13 4853.72 635.639   2
   6   6 -11 263.964 400.133   2
   6   6  -9 1109.27 412.251   2
   6   6  -7 2020.01 229.941   2
   6   6  -5 2983.50 338.795   2
   6   6  -3 602.924 292.143   2
   6   6  -1 15479.5 599.781   2
   6   6   1 13927.4 773.705   2
   6   6   3 453.768 500.120   2
   6   7 -13 9920.28 806.658   2
   6   7 -11 1086.70 609.080   2
   6   7  -9 3418.37 533.012   2
   6   7  -7 176.553 224.610   2
   6   7  -5 2780.85 336.441   2
   6   7  -3 1089.28 360.407   2
   6   7  -1 5596.51 570.385   2
   6   7   1 17485.4 855.363   2
   6   8 -13 3747.48 746.330   2
   6   8 -11 4444.34 753.903   2
   6   8  -9 459.406 681.969   2
   6   8  -7 119.803 284.462   2
   6   8  -5 3716.20 379.675   2
   6   8  -3 5868.78 471.612   2
   6   8  -1 395.389 509.750   2
   6   8   1 3593.51 660.844   2
   6   9 -11 1228.42 796.876   2
  -6  -9   9 2409.04 249.902   2
   6   9  -7 243.474 306.961   2
   6   9  -5 885.069 355.905   2
   6   9  -3 4703.95 581.899   2
   6   9  -1 3952.81 620.374   2
   6  10  -9 1474.30 1275.51   2
   6  10  -7 351.210 471.075   2
   6  10  -5 371.079 478.516   2
  -7  13  -3 295.896 456.353   2
  -7  13  -5 1376.11 446.423   2
  -7  12   1 474.833 543.224   2
  -7  12  -1 1875.21 475.681   2
  -7  12  -3 230.986 424.016   2
  -7  12  -5 687.670 614.320   2
  -7  12  -7 3443.68 719.508   2
  -7  11   3 10187.3 916.245   2
  -7  11   1 1423.26 504.810   2
  -7  11  -1 1445.09 563.781   2
  -7  11  -3 625.948 526.745   2
  -7  11  -5 489.674 541.722   2
  -7  11  -7 975.383 596.271   2
  -7  11  -9 6188.18 1153.48   2
  -7  10   5 3681.68 835.314   2
  -7  10   3 14279.8 938.220   2
  -7  10   1 9688.11 748.612   2
  -7  10  -1 245.129 470.673   2
  -7  10  -3 1223.61 499.982   2
  -7  10  -5 202.610 543.894   2
  -7  10  -7 310.166 761.210   2
  -7  10  -9 1264.33 654.545   2
  -7   9   7 20887.9 1275.00   2
  -7   9   5 3438.75 586.279   2
  -7   9   3 3706.78 947.691   2
  -7   9   1 9721.13 647.800   2
  -7   9  -1 4923.54 547.298   2
  -7   9  -3 563.110 466.727   2
  -7   9  -5 183.517 700.771   2
  -7   9  -7 4310.64 708.753   2
  -7   9  -9 1093.33 651.907   2
  -7   8   7 20794.8 1105.51   2
  -7   8   5 20596.4 1011.23   2
  -7   8   3 872.188 419.588   2
  -7   8   1 22845.4 805.583   2
  -7   8  -1 14527.5 567.717   2
  -7   8  -3 1721.23 630.553   2
  -7   8  -5 79.3405 505.770   2
  -7   8  -7 1810.66 600.103   2
  -7   8  -9 2596.25 722.979   2
  -7   8 -11 500.698 1051.67   2
   7  -7  -9 3809.41 709.687   2
  -7   7   7 5601.70 724.649   2
  -7   7   5 30397.5 1097.02   2
  -7   7   3 17456.0 548.871   2
  -7   7   1 726.489 291.224   2
  -7   7  -1 10570.4 444.458   2
  -7   7  -3 3514.66 376.928   2
  -7   7  -5 261.806 397.652   2
  -7   7  -7 333.718 583.454   2
  -7   7  -9 4084.13 1152.65   2
  -7   7 -11 2223.66 1189.99   2
   7  -6  -9 15414.0 755.719   2
  -7   6   7 384.735 518.136   2
   7  -6  -5 20806.9 626.832   2
  -7   6   3 43328.5 642.227   2
   7  -6  -1 11654.8 454.372   2
  -7   6  -1 1374.87 279.255   2
   7  -6   3 8469.01 435.794   2
  -7   6  -5 253.666 464.421   2
  -7   6  -7 186.331 477.921   2
  -7   6  -9 1735.45 553.853   2
  -7   6 -11 3523.46 1187.51   2
   7  -5 -11 2069.47 712.120   2
  -7   5   9 20350.1 698.467   2
   7  -5  -7 18812.7 601.773   2
   7  -5  -5 116.380 297.455   2
  -7   5   3 31322.8 484.809   2
   7  -5  -1 35204.7 689.597   2
   7  -5   1 1687.30 292.426   2
   7  -5   3 2308.23 352.336   2
  -7   5  -5 3432.23 551.256   2
  -7   5  -7 268.185 452.575   2
  -7   5  -9 51.9644 477.642   2
  -7   5 -11 3066.06 1257.24   2
   7  -4 -11 1283.91 474.635   2
  -7   4   9 7868.67 485.024   2
   7  -4  -7 37973.3 758.845   2
  -7   4   5 24432.2 600.122   2
  -7   4   3 910.671 158.090   2
  -7   4   1 38259.8 586.645   2
   7  -4   1 20073.7 770.355   2
  -7   4  -3 423.092 304.291   2
   7  -4   5 1008.66 341.351   2
  -7   4  -7 1190.89 522.224   2
  -7   4  -9 85.1606 1072.26   2
   7  -3 -11 9391.72 510.843   2
   7  -3  -9 468.551 311.276   2
   7  -3  -7 23544.4 587.276   2
  -7   3   5 59944.7 837.747   2
  -7   3   3 4334.41 220.555   2
   7  -3  -1 15324.2 484.165   2
  -7   3  -1 41951.6 1038.08   2
  -7   3  -3 10911.2 488.226   2
   7  -3   5 362.831 303.688   2
  -7   3  -7 318.735 489.870   2
  -7   3  -9 179.144 1069.45   2
   7  -2 -13 1384.35 975.496   2
   7  -2 -11 14097.4 615.812   2
   7  -2  -9 12943.3 479.377   2
  -7   2   7 1580.68 286.851   2
  -7   2   5 47925.0 734.385   2
  -7   2   3 49900.2 689.442   2
  -7   2   1 3492.62 275.092   2
  -7   2  -1 13907.7 577.595   2
  -7   2  -3 27555.4 765.081   2
  -7   2  -5 3861.42 472.164   2
  -7   2  -7 224.335 499.002   2
  -7   2  -9-186.021 1104.52   2
   7  -1 -13 651.473 881.853   2
  -7   1  11 9886.45 681.721   2
  -7   1   9 8377.01 396.197   2
  -7   1   7 5144.41 322.562   2
   7  -1  -5 9827.60 219.502   2
  -7   1   3 61329.0 721.793   2
  -7   1   1 25691.6 585.824   2
  -7   1  -1 2046.95 270.398   2
  -7   1  -3 13749.4 527.676   2
  -7   1  -5 6737.78 531.294   2
   7  -1   7 137.942 598.724   2
  -7   1  -9-142.781 1112.04   2
  -7   0  13 73.9648 403.970   2
  -7   0  11 258.844 484.522   2
  -7   0   9 18651.1 475.136   2
   7   0  -7 36667.7 607.219   2
  -7   0   5 3510.64 225.270   2
  -7   0   3 19866.3 459.983   2
  -7   0   1 59775.3 792.093   2
  -7   0  -1 17650.3 470.998   2
  -7   0  -3 3630.93 375.381   2
  -7   0  -5 12073.2 626.800   2
   7   0   7 4051.20 713.900   2
   7   1 -13 861.674 463.723   2
   7   1 -11 692.353 221.342   2
   7   1  -9 1485.86 192.116   2
   7   1  -7 28016.1 382.708   2
   7   1  -5 28256.1 503.734   2
  -7  -1   3 480.229 219.366   2
  -7  -1   1 28334.0 547.065   2
  -7  -1  -1 41859.6 683.621   2
  -7  -1  -3 2690.25 409.632   2
  -7  -1  -5 2600.24 495.662   2
   7   1   7 4802.42 741.584   2
   7   2 -13 637.912 788.929   2
   7   2 -11 1090.68 344.295   2
   7   2  -9 1342.12 138.760   2
  -7  -2   7 10921.1 257.115   2
   7   2  -5 41269.5 518.687   2
  -7  -2   3 25393.8 548.365   2
  -7  -2   1 3115.65 307.194   2
  -7  -2  -1 36298.9 719.407   2
  -7  -2  -3 15279.3 646.801   2
   7   2   5 362.776 545.628   2
  -7  -2  -7 1453.05 663.396   2
   7   3 -13 528.886 932.950   2
   7   3 -11 1007.47 407.041   2
   7   3  -9 5712.11 377.042   2
   7   3  -7 230.576 241.894   2
   7   3  -5 18711.1 447.896   2
  -7  -3   3 40375.3 715.043   2
  -7  -3   1 7242.98 420.009   2
   7   3   1 10658.0 537.985   2
  -7  -3  -3 12840.8 619.689   2
   7   3   5 4962.30 741.655   2
   7   4 -13 1022.60 1056.95   2
   7   4 -11 31.6798 452.606   2
   7   4  -9 5501.87 459.044   2
   7   4  -7 4477.51 310.416   2
   7   4  -5 785.543 276.889   2
   7   4  -3 19591.9 523.362   2
  -7  -4   1 28666.4 668.811   2
  -7  -4  -1 1193.46 448.290   2
   7   4   3 3216.84 594.878   2
   7   4   5 8326.13 713.432   2
   7   5 -13 908.487 521.209   2
   7   5 -11 321.749 387.882   2
   7   5  -9 2581.38 458.875   2
   7   5  -7 9379.22 336.540   2
  -7  -5   5 6207.93 420.829   2
   7   5  -3 5245.87 428.639   2
   7   5  -1 21858.9 838.010   2
   7   5   1 11354.4 842.049   2
   7   5   3 688.623 560.004   2
   7   6 -13 1623.23 601.137   2
   7   6 -11 196.717 427.419   2
   7   6  -9 474.019 457.141   2
   7   6  -7 3954.40 293.422   2
   7   6  -5 13275.1 551.298   2
   7   6  -3 2220.53 435.951   2
   7   6  -1 5117.49 722.512   2
   7   6   1 15090.7 962.376   2
   7   7 -13 1276.85 683.125   2
   7   7 -11 427.159 671.964   2
   7   7  -9 607.461 715.414   2
  -7  -7   7 19.5934 289.141   2
   7   7  -5 11059.9 550.706   2
   7   7  -3 10560.2 612.243   2
   7   7  -1 588.244 532.701   2
   7   7   1 7647.64 729.514   2
   7   8 -11 299.911 731.297   2
   7   8  -9 41.7488 741.152   2
   7   8  -7 199.264 315.221   2
   7   8  -5 2816.63 431.137   2
   7   8  -3 9496.93 657.701   2
   7   8  -1 5986.42 703.908   2
   7   9  -9 568.966 853.635   2
   7   9  -7 1218.22 490.151   2
   7   9  -5 584.442 538.207   2
  -8  12  -1 203.271 462.262   2
  -8  12  -3 1492.02 578.117   2
  -8  12  -5 1601.64 668.532   2
  -8  12  -7 1147.75 894.926   2
  -8  11   3 8369.99 884.241   2
  -8  11   1 677.543 576.917   2
  -8  11  -1 139.589 514.380   2
  -8  11  -3 1151.02 546.785   2
  -8  11  -5 8268.88 771.627   2
  -8  11  -7 1229.32 629.232   2
  -8  10   5 1143.41 745.840   2
  -8  10   3 6138.10 782.397   2
  -8  10   1 2239.93 651.531   2
  -8  10  -1 346.953 455.867   2
  -8  10  -3 179.831 494.604   2
  -8  10  -5 4080.89 672.592   2
  -8  10  -7 4298.41 751.980   2
  -8  10  -9 289.627 702.042   2
  -8   9   5 10823.3 1397.67   2
  -8   9   3-319.486 529.032   2
  -8   9   1 120.694 497.216   2
  -8   9  -1 3181.74 497.416   2
  -8   9  -3 578.135 500.918   2
  -8   9  -5 1577.77 595.721   2
  -8   9  -7 7050.01 814.114   2
  -8   9  -9 6396.74 873.690   2
  -8   8   7 5587.92 1259.47   2
  -8   8   5 20373.2 1564.42   2
  -8   8   3 6714.61 614.758   2
  -8   8   1 127.150 429.853   2
  -8   8  -1 4576.67 517.176   2
  -8   8  -3 456.585 507.159   2
  -8   8  -5 191.676 519.362   2
  -8   8  -7 1679.47 654.109   2
  -8   8  -9 8046.83 915.949   2
  -8   7   9 14353.2 1679.48   2
  -8   7   7 253.457 886.711   2
  -8   7   5 15484.2 882.981   2
  -8   7   3 17118.9 540.610   2
   8  -7  -1 9677.08 434.958   2
  -8   7  -1 682.188 496.186   2
  -8   7  -3 369.510 464.641   2
  -8   7  -5 208.100 507.407   2
  -8   7  -7 3.50865 595.821   2
  -8   7  -9 4441.68 847.886   2
  -8   6   9 28912.4 1100.65   2
  -8   6   7 13726.2 694.517   2
   8  -6  -5 571.466 356.354   2
  -8   6   3 19552.9 447.064   2
   8  -6  -1 27601.3 597.211   2
   8  -6   1 252.022 295.285   2
  -8   6  -3 544.684 339.652   2
  -8   6  -5 143.883 839.755   2
  -8   6  -7 3056.88 1091.67   2
  -8   6  -9 996.380 1127.72   2
  -8   5   9 11212.1 708.342   2
   8  -5  -7 32585.0 759.918   2
  -8   5   5 14677.4 549.294   2
  -8   5   3 2382.03 216.574   2
  -8   5   1 35843.2 670.640   2
   8  -5   1 2887.27 498.373   2
  -8   5  -3 516.167 345.078   2
  -8   5  -5 232.439 502.823   2
  -8   5  -7 1733.69 579.938   2
  -8   5  -9 1033.40 1139.98   2
   8  -4 -11 7779.39 637.599   2
   8  -4  -9 139.291 351.658   2
  -8   4   7 22951.4 635.747   2
  -8   4   5 40842.2 774.323   2
  -8   4   3 9332.90 274.758   2
   8  -4  -1 15046.3 531.295   2
  -8   4  -1 12456.1 707.418   2
  -8   4  -3 2434.37 384.371   2
   8  -4   5 355.145 407.073   2
  -8   4  -7 1380.18 566.827   2
  -8   4  -9 894.555 1116.09   2
   8  -3 -11 14962.0 678.652   2
  -8   3   9 8697.42 476.288   2
  -8   3   7 3889.65 362.014   2
  -8   3   5 50289.9 814.831   2
  -8   3   3 24007.0 440.666   2
  -8   3   1 243.485 302.667   2
  -8   3  -1 7379.26 522.948   2
  -8   3  -3 10694.0 595.454   2
  -8   3  -5 464.671 437.778   2
  -8   3  -7 570.142 574.483   2
  -8   3  -9 1665.54 1215.42   2
   8  -2 -11 12546.4 627.530   2
  -8   2   9 32227.3 701.364   2
  -8   2   7 4824.99 360.633   2
   8  -2  -5 16161.6 496.710   2
   8  -2  -3 47668.0 684.038   2
  -8   2   1 14191.5 497.986   2
  -8   2  -1 241.158 318.738   2
  -8   2  -3 4752.35 488.821   2
  -8   2  -5 589.557 440.398   2
  -8   2  -7-228.262 1076.85   2
   8  -1 -11 2204.20 466.566   2
  -8   1   9 16218.7 508.659   2
   8  -1  -7 39540.5 701.346   2
   8  -1  -5 1554.95 214.271   2
  -8   1   3 22261.6 507.445   2
  -8   1   1 22052.9 606.637   2
  -8   1  -1 8277.21 393.067   2
  -8   1  -3 3705.19 468.656   2
  -8   1  -5 1126.45 460.471   2
   8  -1   7 287.077 670.341   2
  -8   0  13 4078.50 579.584   2
   8   0 -11 5951.86 590.834   2
   8   0  -9 3958.99 313.906   2
  -8   0   7 38554.6 667.042   2
  -8   0   5 25320.0 511.896   2
  -8   0   3 123.571 250.474   2
  -8   0   1 23197.1 522.579   2
  -8   0  -1 24468.9 575.451   2
  -8   0  -3 1145.27 414.042   2
  -8   0  -5 228.315 472.465   2
  -8   0  -7 700.660 730.768   2
   8   1 -13 4220.44 976.683   2
   8   1 -11 13325.3 1250.35   2
  -8  -1   9 788.458 231.739   2
  -8  -1   7 15922.6 364.944   2
  -8  -1   5 33712.6 526.735   2
  -8  -1   3 14206.9 460.543   2
  -8  -1   1 1369.01 283.556   2
  -8  -1  -1 18429.5 529.538   2
  -8  -1  -3 6393.04 547.866   2
   8   1   5 225.139 622.752   2
   8   2 -13 803.761 889.224   2
   8   2 -11 9068.26 1171.77   2
   8   2  -9 9866.48 227.339   2
   8   2  -7 1144.02 226.032   2
  -8  -2   5 23923.2 491.633   2
  -8  -2   3 42942.6 731.283   2
  -8  -2   1 6996.41 385.134   2
  -8  -2  -1 4538.42 511.397   2
  -8  -2  -3 10466.0 614.677   2
   8   2   5 2932.82 733.884   2
   8   3 -13 161.855 1026.49   2
   8   3 -11 3767.67 588.705   2
   8   3  -9 16389.0 602.135   2
  -8  -3   7 9053.49 341.557   2
   8   3  -5 1093.25 288.238   2
  -8  -3   3 32512.0 700.152   2
  -8  -3   1 25450.9 646.472   2
  -8  -3  -1 492.103 450.822   2
   8   3   3 2257.82 616.680   2
   8   3   5 5317.70 678.452   2
   8   4 -13 796.933 1066.05   2
   8   4 -11-243.113 536.275   2
   8   4  -9 7153.61 540.409   2
   8   4  -7 18897.5 477.806   2
   8   4  -5 9282.03 470.383   2
   8   4  -3 3903.19 443.580   2
   8   4  -1 28326.8 943.824   2
   8   4   1 10260.9 830.930   2
   8   4   3 768.568 570.996   2
   8   5 -13 706.103 1125.57   2
   8   5 -11 1068.75 455.549   2
   8   5  -9 331.675 436.431   2
   8   5  -7 10202.5 392.115   2
  -8  -5   5 24041.2 633.384   2
   8   5  -3 442.835 459.594   2
   8   5  -1 9748.56 846.778   2
   8   5   1 20785.5 1052.32   2
   8   6 -13 345.494 1127.44   2
   8   6 -11 1197.93 501.551   2
   8   6  -9 1755.11 518.166   2
   8   6  -7 2253.70 358.027   2
   8   6  -5 17553.3 651.381   2
   8   6  -3 8620.10 596.158   2
   8   6  -1-296.867 587.195   2
   8   6   1 8237.91 829.416   2
   8   7 -11 475.251 749.831   2
   8   7  -9 1364.19 820.143   2
   8   7  -7 78.8065 327.578   2
   8   7  -5 8091.76 537.283   2
   8   7  -3 17659.6 908.007   2
   8   7  -1 5997.56 832.252   2
   8   8  -9 4342.38 979.063   2
  -8  -8   7 4408.65 568.372   2
   8   8  -5-52.1048 396.812   2
  -9  12  -3 3358.02 656.876   2
  -9  11   1 266.691 685.826   2
  -9  11  -1 880.225 534.920   2
  -9  11  -3 534.192 550.876   2
  -9  11  -5 9845.40 834.932   2
  -9  10   3 293.108 636.866   2
  -9  10   1 942.439 571.291   2
  -9  10  -1 1679.82 515.914   2
  -9  10  -3 530.729 534.095   2
  -9  10  -5 2281.83 822.273   2
  -9  10  -7 9290.33 907.866   2
  -9   9   5 9101.64 1334.51   2
  -9   9   3 1821.43 595.093   2
  -9   9   1 193.768 471.082   2
  -9   9  -1 290.912 437.360   2
  -9   9  -3 2672.30 588.886   2
  -9   9  -5 334.515 571.029   2
  -9   9  -7 7603.10 875.550   2
  -9   8   7 562.018 1067.85   2
  -9   8   5 8866.88 1241.62   2
  -9   8   3 13626.7 1303.65   2
  -9   8   1 372.083 375.330   2
  -9   8  -1 90.3840 539.188   2
  -9   8  -3 1179.10 536.481   2
  -9   8  -5 3352.42 693.879   2
  -9   8  -7-225.272 675.132   2
  -9   7   7 10746.9 1309.20   2
   9  -7  -5 919.177 602.024   2
  -9   7   3 12425.0 512.306   2
  -9   7   1 1421.50 356.299   2
  -9   7  -1 37.7418 444.955   2
  -9   7  -3 251.486 533.029   2
  -9   7  -5 3949.77 695.914   2
  -9   7  -7 3782.09 805.997   2
   9  -6  -9 14656.3 1003.51   2
  -9   6   7 15585.1 940.592   2
  -9   6   5 6278.30 706.737   2
  -9   6   3 3386.81 316.884   2
  -9   6   1 2603.35 370.001   2
  -9   6  -1 1431.99 496.041   2
   9  -6   3 309.185 430.138   2
  -9   6  -5 1826.60 1017.64   2
  -9   6  -7 7582.97 1357.65   2
  -9   5   9 658.459 627.307   2
  -9   5   7 15615.1 899.169   2
  -9   5   5 18452.5 702.264   2
  -9   5   3 246.157 207.661   2
   9  -5  -1 390.771 288.533   2
   9  -5   3 234.467 810.071   2
   9  -5   5 449.675 652.199   2
  -9   5  -7 5631.05 1304.29   2
   9  -4 -11 13772.3 1154.23   2
  -9   4   9 7006.27 554.331   2
  -9   4   7 3825.85 450.952   2
   9  -4  -5 33928.6 748.772   2
  -9   4   3 14759.3 385.914   2
   9  -4  -1 2278.13 370.975   2
  -9   4  -1 3322.79 493.184   2
   9  -4   3 33.1953 774.922   2
   9  -4   5 650.020 648.953   2
  -9   4  -7 836.534 1155.34   2
   9  -3 -11 11762.6 772.722   2
  -9   3   9 25227.6 758.314   2
   9  -3  -7 6894.03 486.734   2
   9  -3  -5 12694.4 508.414   2
   9  -3  -3 22914.4 570.194   2
  -9   3   1 19420.1 594.647   2
  -9   3  -1 1110.22 381.930   2
  -9   3  -3 472.613 525.443   2
  -9   3  -5 244.579 653.813   2
  -9   3  -7-242.806 1094.80   2
   9  -2 -11 2590.93 837.717   2
   9  -2  -9 32652.5 790.299   2
   9  -2  -7 29523.1 753.081   2
   9  -2  -5 845.675 153.134   2
  -9   2   3 7823.53 384.436   2
  -9   2   1 29498.4 720.469   2
  -9   2  -1 327.485 299.644   2
  -9   2  -3 389.562 501.484   2
  -9   2  -5 250.765 524.935   2
  -9   2  -7 797.381 1236.62   2
   9  -1 -11 3196.67 943.800   2
   9  -1  -9 3729.72 381.872   2
   9  -1  -7 43088.2 840.029   2
  -9   1   5 17842.9 457.156   2
  -9   1   3 374.123 274.148   2
  -9   1   1 18018.7 505.253   2
  -9   1  -1 6925.59 403.080   2
  -9   1  -3 468.141 424.587   2
  -9   1  -5 328.422 513.142   2
   9  -1   7 1011.62 1038.48   2
   9   0 -13 6020.92 1086.54   2
   9   0 -11 20189.7 1398.29   2
   9   0  -9 745.180 296.499   2
  -9   0   7 16884.9 375.621   2
  -9   0   5 32964.5 646.414   2
  -9   0   3 8292.27 400.522   2
  -9   0   1 9813.93 428.393   2
  -9   0  -1 5448.54 481.135   2
  -9   0  -3 2645.93 504.850   2
   9   0   5 203.023 709.026   2
   9   1 -13 1474.09 973.480   2
   9   1 -11 19880.3 1504.04   2
  -9  -1   9 10714.7 579.561   2
  -9  -1   7 1357.56 224.966   2
  -9  -1   5 27489.1 572.439   2
  -9  -1   3 36903.7 766.431   2
  -9  -1   1 1366.41 343.300   2
  -9  -1  -1 1453.18 584.277   2
  -9  -1  -3 2624.12 632.893   2
  -9  -1  -5 1039.89 620.537   2
   9   2 -13 643.318 950.784   2
   9   2 -11 9514.62 1263.61   2
  -9  -2   9 22530.5 440.584   2
  -9  -2   7 8193.21 334.363   2
   9   2  -5 2960.56 326.390   2
  -9  -2   3 32487.6 690.811   2
  -9  -2   1 9399.14 528.901   2
  -9  -2  -1 394.655 590.377   2
  -9  -2  -3 3057.05 654.352   2
   9   3 -13 5244.99 1180.30   2
   9   3 -11 437.695 1030.44   2
   9   3  -9 9200.06 299.416   2
  -9  -3   7 25816.9 554.950   2
   9   3  -5 6154.92 472.580   2
  -9  -3   3 6031.04 473.076   2
   9   3  -1 11748.7 900.277   2
  -9  -3  -1 4434.61 705.526   2
   9   3   3 123.685 564.770   2
   9   4 -11 2608.56 533.696   2
   9   4  -9 803.339 441.513   2
   9   4  -7 16864.7 615.868   2
   9   4  -5 16351.3 672.380   2
  -9  -4   3 732.352 471.416   2
  -9  -4   1 5694.27 766.943   2
   9   4   1 11180.1 900.038   2
   9   5 -11 4869.15 673.883   2
   9   5  -9 2369.19 523.690   2
   9   5  -7 4045.93 360.111   2
  -9  -5   5 18968.3 863.908   2
  -9  -5   3 6408.80 792.233   2
   9   5  -1-269.039 635.901   2
   9   6 -11 4491.34 1327.26   2
   9   6  -9 9289.87 1026.15   2
   9   6  -7 97.5630 328.333   2
  -9  -6   5 8156.13 553.306   2
   9   6  -3 19215.6 1061.99   2
   9   7  -9 6036.39 1001.28   2
   9   7  -7 6084.28 612.252   2
   9   7  -5 152.184 533.098   2
 -10  11  -1 4090.44 618.986   2
 -10  11  -3 597.749 550.038   2
 -10  10   3 315.425 1005.53   2
 -10  10   1 79.5336 480.495   2
 -10  10  -1 3653.02 690.872   2
 -10  10  -3 5265.84 689.121   2
 -10  10  -5 206.957 791.639   2
 -10   9   5 3481.50 1148.55   2
 -10   9   3 1896.84 549.395   2
 -10   9   1 1105.52 444.820   2
 -10   9  -1 706.679 573.851   2
 -10   9  -3 6166.05 888.234   2
 -10   9  -5 5961.29 818.402   2
 -10   8   5 535.324 935.526   2
 -10   8   3 3744.62 479.343   2
 -10   8   1 492.341 395.601   2
 -10   8  -1-19.1303 534.794   2
 -10   8  -3 2464.21 629.408   2
 -10   8  -5 9604.13 892.302   2
 -10   8  -7 3074.36 825.328   2
 -10   7   7 16488.8 1041.50   2
 -10   7   5 2305.51 673.168   2
 -10   7   3 1566.28 330.444   2
 -10   7   1 133.231 346.167   2
  10  -7   1 126.330 483.891   2
 -10   7  -3 140.117 573.667   2
 -10   7  -5 6739.67 862.398   2
 -10   7  -7 8502.49 977.212   2
 -10   6   7 13910.5 964.725   2
 -10   6   5 7538.77 773.211   2
 -10   6   3 211.127 256.216   2
 -10   6   1 185.612 418.934   2
 -10   6  -1 303.254 493.836   2
  10  -6   3 997.114 927.205   2
 -10   6  -5 1269.96 1128.45   2
 -10   6  -7 10011.1 1565.99   2
 -10   5   9 5011.42 749.965   2
 -10   5   7 3755.58 665.181   2
 -10   5   5 14298.0 891.282   2
 -10   5   3 4253.75 318.893   2
 -10   5   1-25.6480 353.655   2
 -10   5  -1 36.8460 891.020   2
  10  -5   3 1151.57 1001.21   2
  10  -5   5 615.508 723.671   2
 -10   5  -7 1669.55 1214.36   2
 -10   4   9 24193.0 1091.11   2
  10  -4  -7 1392.07 417.129   2
  10  -4  -5 6340.73 524.371   2
  10  -4  -3 12380.9 433.849   2
 -10   4   1 2987.33 471.712   2
 -10   4  -1 162.978 623.036   2
  10  -4   3 669.790 920.873   2
  10  -4   5 2018.99 811.562   2
 -10   3  11 2045.16 662.428   2
 -10   3   9 27801.8 1111.44   2
  10  -3  -7 14321.6 630.425   2
  10  -3  -5 103.122 370.398   2
 -10   3   3 4423.28 378.011   2
 -10   3   1 5220.96 506.607   2
 -10   3  -1 462.977 465.710   2
 -10   3  -3 877.817 651.009   2
  10  -3   5 4339.93 1125.07   2
 -10   2  11 1240.77 621.163   2
 -10   2   9 14762.5 846.488   2
  10  -2  -7 22687.3 705.033   2
  10  -2  -5 9086.41 381.695   2
 -10   2   3 349.117 317.753   2
 -10   2   1 5610.75 517.364   2
 -10   2  -1 15.1306 461.840   2
 -10   2  -3 152.512 583.152   2
  10  -2   5 450.214 836.683   2
 -10   1  11 11892.2 779.098   2
 -10   1   9 704.918 483.061   2
 -10   1   7 11053.3 539.609   2
 -10   1   5 24455.0 592.791   2
 -10   1   3 3304.18 376.510   2
 -10   1   1 635.363 324.782   2
 -10   1  -1 2011.89 634.958   2
 -10   1  -3 674.578 604.301   2
  10  -1   5 98.4265 800.522   2
  10   0 -11 24485.9 1610.67   2
 -10   0   9 9422.09 657.490   2
 -10   0   7 437.901 338.343   2
 -10   0   5 23217.0 568.045   2
 -10   0   3 20283.7 620.653   2
 -10   0   1 157.356 430.906   2
 -10   0  -1 948.064 626.308   2
 -10   0  -3 599.022 591.780   2
  10   1 -11 12038.3 1368.72   2
 -10  -1   9 24452.8 654.459   2
 -10  -1   7 12868.8 441.059   2
 -10  -1   5 2698.64 343.201   2
 -10  -1   3 17609.0 562.230   2
 -10  -1   1 6158.41 787.779   2
 -10  -1  -1 326.564 619.339   2
 -10  -1  -3 463.880 630.727   2
  10   2 -11 577.895 955.694   2
 -10  -2   9 14527.4 421.252   2
 -10  -2   7 24821.3 623.069   2
  10   2  -5 1760.45 372.913   2
 -10  -2   3 6789.60 441.543   2
 -10  -2   1 9265.20 867.858   2
 -10  -2  -1 2342.23 688.662   2
  10   3 -11 5200.73 1262.55   2
 -10  -3   9 1814.88 312.556   2
 -10  -3   7 24140.1 782.713   2
  10   3  -5 13790.5 646.512   2
 -10  -3   3 393.395 459.548   2
 -10  -3   1 5149.61 776.505   2
 -10  -3  -1 4259.18 759.596   2
  10   4 -11 12337.6 1542.06   2
 -10  -4   9 1290.31 277.650   2
  10   4  -7 6286.64 559.380   2
 -10  -4   5 17313.0 1013.80   2
 -10  -4   3 9075.17 863.017   2
 -10  -4   1 820.758 705.391   2
  10   5  -9 10639.4 1017.43   2
 -10  -5   7 243.827 589.635   2
 -10  -5   5 7833.61 818.883   2
 -10  -5   3 12184.9 949.712   2
  10   6  -7 6172.72 620.390   2
 -10  -6   5 374.582 739.614   2
 -11  10  -1 3466.45 713.604   2
 -11   9   3 505.584 947.672   2
 -11   9   1 649.541 437.860   2
 -11   9  -1-79.4408 578.424   2
 -11   9  -3 7138.47 997.783   2
  11  -8  -5 710.985 735.779   2
  11  -8  -3 622.192 364.183   2
  11  -8  -1 2801.43 429.474   2
 -11   8  -1 2708.45 698.154   2
 -11   8  -3-108.485 726.284   2
 -11   8  -5 11002.8 979.888   2
 -11   7   5 1531.63 704.158   2
 -11   7   3 275.671 259.626   2
 -11   7   1 924.218 393.195   2
 -11   7  -1 2946.64 596.455   2
  11  -7   3 2970.30 719.670   2
 -11   7  -5 1894.60 771.104   2
 -11   6   7 905.798 680.074   2
 -11   6   5 4440.81 752.543   2
 -11   6   3 801.415 284.173   2
 -11   6   1 322.235 454.682   2
 -11   6  -1 2583.07 637.635   2
  11  -6   3 9132.92 1400.16   2
 -11   6  -5 525.914 1135.27   2
 -11   5   7 784.989 633.780   2
 -11   5   5 1859.36 652.075   2
 -11   5   3 1846.11 313.322   2
 -11   5   1 324.608 365.280   2
 -11   5  -1 959.923 709.918   2
  11  -5   3 7522.44 1284.65   2
  11  -5   5 4642.71 1299.01   2
 -11   4   9 19699.1 1070.60   2
 -11   4   7 8695.91 811.689   2
 -11   4   5 425.238 588.738   2
 -11   4   3 2435.31 343.896   2
 -11   4   1 381.367 535.506   2
 -11   4  -1-50.8181 489.827   2
 -11   4  -3 2172.33 766.485   2
  11  -4   5 4702.79 1223.85   2
 -11   3   9 9613.74 834.191   2
  11  -3  -7 14383.5 657.489   2
  11  -3  -5 2863.21 469.061   2
 -11   3   3 303.840 380.513   2
 -11   3   1 445.752 544.156   2
 -11   3  -1 606.045 650.010   2
 -11   3  -3 706.843 691.276   2
 -11   2   9 595.724 572.138   2
 -11   2   7 8673.13 747.563   2
  11  -2  -5 12104.2 493.645   2
 -11   2   3 1201.79 408.233   2
 -11   2   1 253.009 446.405   2
 -11   2  -1 500.352 632.904   2
 -11   2  -3 97.5959 640.037   2
 -11   1   9 11581.3 778.836   2
 -11   1   7 550.956 529.529   2
 -11   1   5 11794.3 508.844   2
 -11   1   3 4769.95 581.922   2
 -11   1   1 1197.24 486.225   2
 -11   1  -1 368.231 644.589   2
 -11   1  -3 473.986 708.054   2
 -11   0   9 21057.8 922.148   2
 -11   0   7 5893.67 525.403   2
 -11   0   5 2826.87 363.194   2
 -11   0   3 6998.55 668.553   2
 -11   0   1 1421.14 665.468   2
 -11   0  -1 230.991 630.557   2
 -11  -1   9 14523.9 782.119   2
 -11  -1   7 19087.3 660.695   2
 -11  -1   5 837.661 341.082   2
 -11  -1   3 2960.19 489.190   2
 -11  -1   1 2921.41 762.081   2
 -11  -1  -1 722.377 690.232   2
 -11  -2   9 2826.24 506.955   2
 -11  -2   7 16357.0 590.152   2
 -11  -2   5 8224.42 610.981   2
 -11  -2   3 171.948 642.085   2
 -11  -2   1 2682.89 755.609   2
  11   3  -9 1828.39 1060.19   2
 -11  -3   7 6243.19 566.062   2
 -11  -3   5 10822.8 910.556   2
 -11  -3   3 4235.42 806.744   2
 -11  -3   1-92.1728 689.732   2
 -11  -4   7 92.6475 664.792   2
 -11  -4   5 5608.13 788.699   2
  12  -8  -1 4082.82 482.755   2
 -12   8  -1 6646.14 873.975   2
 -12   7   3 488.808 683.876   2
 -12   7   1 232.331 411.624   2
 -12   7  -1 5722.14 739.843   2
 -12   7  -3 9935.02 1188.18   2
 -12   6   5 189.280 660.183   2
 -12   6   3 630.006 324.109   2
 -12   6   1 1440.91 461.721   2
 -12   6  -1 1656.84 559.545   2
  12  -6   3 10356.0 1083.81   2
 -12   5   7 2644.64 753.062   2
 -12   5   5 1324.82 686.508   2
 -12   5   3 358.969 343.639   2
 -12   5   1 1657.54 469.980   2
 -12   5  -1 284.982 692.936   2
  12  -5   3 3468.49 864.553   2
 -12   4   7 5909.14 792.263   2
 -12   4   5 1281.56 639.438   2
 -12   4   3 226.769 325.968   2
 -12   4   1 1577.87 615.620   2
 -12   4  -1 1838.81 748.580   2
 -12   4  -3 591.645 733.037   2
 -12   3   7 4820.90 733.919   2
 -12   3   5 3682.03 312.746   2
 -12   3   3 294.589 406.641   2
 -12   3   1 411.652 492.229   2
 -12   3  -1 2647.94 776.114   2
 -12   2   7 632.970 585.359   2
  12  -2  -5 3459.48 1075.93   2
 -12   2   3 651.559 489.775   2
  12  -2  -1 452.016 663.954   2
 -12   2  -1 905.478 716.003   2
 -12   1   9 18504.0 970.906   2
 -12   1   7 1969.73 636.605   2
 -12   1   5 2030.87 448.945   2
 -12   1   3 676.102 490.336   2
 -12   1   1 1057.54 714.110   2
 -12   1  -1 79.5426 683.068   2
 -12   0   9 13594.9 860.885   2
 -12   0   7 9197.58 643.409   2
 -12   0   5 313.569 413.182   2
 -12   0   3 380.947 436.435   2
 -12   0   1 416.959 722.144   2
  12   1  -7 10793.2 1432.51   2
 -12  -1   5 3100.83 588.674   2
 -12  -1   3 267.234 691.326   2
 -12  -2   7 3460.43 740.738   2
  12   2  -5 6458.37 837.931   2
 -13   5   3 2367.70 1058.30   2
 -13   4   3 573.697 730.615   2
 -13   4   1 2691.27 1175.66   2
 -13   3   5 151.071 1002.58   2
 -13   3   3 376.637 1044.75   2
 -13   2   3 369.268 1042.08   2
;
_shelx_hkl_checksum              87953
_olex2_submission_special_instructions 'No special instructions were received'
_oxdiff_exptl_absorpt_empirical_details
;
Empirical correction (ABSPACK) includes:
- Absorption correction using spherical harmonics
- Frame scaling
;
_oxdiff_exptl_absorpt_empirical_full_max 1.844
_oxdiff_exptl_absorpt_empirical_full_min 0.594
_oxdiff_twin_integration_method  simultaneous
_oxdiff_twin_items               2
loop_
_space_group_symop_operation_xyz
'x, y, z'
'-x, -y, -z'
loop_
_atom_site_label
_atom_site_type_symbol
_atom_site_fract_x
_atom_site_fract_y
_atom_site_fract_z
_atom_site_U_iso_or_equiv
_atom_site_adp_type
_atom_site_occupancy
_atom_site_site_symmetry_order
_atom_site_calc_flag
_atom_site_refinement_flags_posn
_atom_site_refinement_flags_adp
_atom_site_refinement_flags_occupancy
_atom_site_disorder_assembly
_atom_site_disorder_group
Pb2 Pb 0.55462(3) 0.12113(3) -0.09333(2) 0.01506(10) Uani 1 1 d . . . . .
Pb1 Pb 0.63886(3) 1.09759(3) 0.44794(2) 0.01439(10) Uani 1 1 d . . . . .
O9 O 0.7784(8) 0.3345(9) -0.0159(8) 0.052(2) Uani 1 1 d D U . . .
O3 O 0.4788(9) 0.1604(7) 0.1251(6) 0.0300(17) Uani 1 1 d . . . . .
O1 O 0.5300(7) 0.8670(6) 0.4091(6) 0.0201(14) Uani 1 1 d . . . . .
O6 O -0.3689(6) -0.0092(6) -0.2939(5) 0.0194(13) Uani 1 1 d . . . . .
O7 O -0.2324(7) 0.0866(7) -0.3809(5) 0.0241(14) Uani 1 1 d . . . . .
O2 O 0.5023(7) 0.7620(6) 0.2108(5) 0.0240(14) Uani 1 1 d . . . . .
O4 O 0.3179(7) -0.0232(7) -0.2128(5) 0.0200(14) Uani 1 1 d . . . . .
O5 O 0.2057(7) 0.0092(7) -0.3654(5) 0.0236(14) Uani 1 1 d . . . . .
O8 O 0.4625(7) 0.2798(6) 0.0188(5) 0.0264(15) Uani 1 1 d . . . . .
O10 O 0.8517(9) 1.3195(7) 0.5020(7) 0.045(2) Uani 1 1 d D U . . .
N2 N 1.0378(13) 1.3153(12) 0.4438(10) 0.069(3) Uani 1 1 d D U . . .
N1 N 0.8361(12) 0.5023(10) -0.0742(10) 0.058(3) Uani 1 1 d D U . . .
C15 C 0.8645(13) 0.6459(11) -0.0558(12) 0.049(3) Uani 1 1 d D U . . .
H15A H 0.784876 0.671518 -0.046279 0.074 Uiso 1 1 calc GR . . . .
H15B H 0.883659 0.653881 -0.125307 0.074 Uiso 1 1 calc GR . . . .
H15C H 0.943435 0.706183 0.016110 0.074 Uiso 1 1 calc GR . . . .
C18 C 0.4837(9) 0.3866(9) 0.3371(7) 0.0162(17) Uani 1 1 d . . . . .
H18 H 0.478257 0.304261 0.342286 0.019 Uiso 1 1 calc R . . . .
C16 C 0.8586(14) 0.4093(13) -0.1791(11) 0.058(4) Uani 1 1 d D U . . .
H16A H 0.854639 0.324932 -0.173167 0.087 Uiso 1 1 calc GR . . . .
H16B H 0.948240 0.451729 -0.182128 0.087 Uiso 1 1 calc GR . . . .
H16C H 0.787842 0.389358 -0.251974 0.087 Uiso 1 1 calc GR . . . .
C19 C 0.4976(9) 0.5025(9) 0.4413(7) 0.0156(17) Uani 1 1 d . . . . .
C10 C -0.2558(9) 0.0342(9) -0.3111(7) 0.0156(17) Uani 1 1 d . . . . .
C1 C 0.5107(9) 0.7619(8) 0.3102(7) 0.0151(17) Uani 1 1 d . . . . .
C5 C 0.4702(9) 0.2639(9) 0.1148(7) 0.0169(17) Uani 1 1 d . . . . .
C3 C 0.4867(9) 0.5133(9) 0.2185(7) 0.0159(17) Uani 1 1 d . . . . .
H3 H 0.483186 0.517815 0.145171 0.019 Uiso 1 1 calc R . . . .
C2 C 0.5008(9) 0.6286(8) 0.3194(7) 0.0149(17) Uani 1 1 d . . . . .
C9 C -0.1283(9) 0.0243(9) -0.2359(7) 0.0164(17) Uani 1 1 d . . . . .
C22 C 1.1282(14) 1.3341(13) 0.3731(13) 0.059(4) Uani 1 1 d D U . . .
H22A H 1.171925 1.431154 0.398348 0.089 Uiso 1 1 calc GR . . . .
H22B H 1.074419 1.289287 0.288020 0.089 Uiso 1 1 calc GR . . . .
H22C H 1.198234 1.294398 0.386340 0.089 Uiso 1 1 calc GR . . . .
C6 C 0.2191(9) 0.0034(9) -0.2656(8) 0.0171(17) Uani 1 1 d . . . . .
C4 C 0.4778(9) 0.3899(9) 0.2256(7) 0.0171(18) Uani 1 1 d . . . . .
C23 C 1.0897(15) 1.2858(14) 0.5531(11) 0.063(4) Uani 1 1 d D U . . .
H23A H 1.101324 1.197432 0.524110 0.095 Uiso 1 1 calc GR . . . .
H23B H 1.022972 1.285172 0.595449 0.095 Uiso 1 1 calc GR . . . .
H23C H 1.177189 1.356598 0.607737 0.095 Uiso 1 1 calc GR . . . .
C14 C 0.7936(12) 0.4601(13) -0.0017(10) 0.053(3) Uani 1 1 d D U . . .
C8 C -0.0118(9) 0.0304(8) -0.2769(7) 0.0177(18) Uani 1 1 d . . . . .
H8 H -0.011950 0.044165 -0.345932 0.021 Uiso 1 1 calc R . . . .
C7 C 0.1025(9) 0.0155(9) -0.2121(7) 0.0174(17) Uani 1 1 d . . . . .
C13 C 0.1094(9) 0.0051(9) -0.1036(8) 0.0189(18) Uani 1 1 d . . . . .
H13 H 0.189088 -0.001096 -0.060347 0.023 Uiso 1 1 calc R . . . .
C17 C 0.7630(12) 0.5612(14) 0.1029(9) 0.051(3) Uani 1 1 d D U . . .
H17A H 0.726324 0.514736 0.147072 0.077 Uiso 1 1 calc GR . . . .
H17B H 0.696050 0.595097 0.070668 0.077 Uiso 1 1 calc GR . . . .
H17C H 0.847174 0.637333 0.156854 0.077 Uiso 1 1 calc GR . . . .
C11 C -0.1237(9) 0.0075(9) -0.1307(7) 0.0166(17) Uani 1 1 d . . . . .
H11 H -0.202544 -0.001544 -0.106915 0.020 Uiso 1 1 calc R . . . .
C12 C -0.0040(8) 0.0038(8) -0.0589(7) 0.0142(16) Uani 1 1 d . . . . .
C21 C 0.9194(14) 1.3281(14) 0.4300(11) 0.062(3) Uani 1 1 d D U . . .
C20 C 0.5089(9) 0.6229(8) 0.4282(7) 0.0159(17) Uani 1 1 d . . . . .
H20 H 0.522520 0.703297 0.496339 0.019 Uiso 1 1 calc R . . . .
C24 C 0.8780(14) 1.3542(13) 0.3167(11) 0.062(4) Uani 1 1 d D U . . .
H24A H 0.846271 1.268427 0.244065 0.092 Uiso 1 1 calc GR . . . .
H24B H 0.957124 1.418335 0.315858 0.092 Uiso 1 1 calc GR . . . .
H24C H 0.804816 1.391949 0.319920 0.092 Uiso 1 1 calc GR . . . .
loop_
_atom_site_aniso_label
_atom_site_aniso_U_11
_atom_site_aniso_U_22
_atom_site_aniso_U_33
_atom_site_aniso_U_23
_atom_site_aniso_U_13
_atom_site_aniso_U_12
Pb2 0.01927(19) 0.01702(17) 0.01389(17) 0.00885(13) 0.00730(13) 0.00982(13)
Pb1 0.01548(17) 0.01962(18) 0.01396(17) 0.00988(13) 0.00783(13) 0.00942(13)
O9 0.027(4) 0.051(5) 0.073(6) 0.035(4) 0.002(4) 0.003(4)
O3 0.061(5) 0.016(3) 0.021(3) 0.008(3) 0.021(3) 0.021(3)
O1 0.032(4) 0.015(3) 0.027(3) 0.013(3) 0.018(3) 0.017(3)
O6 0.010(3) 0.032(4) 0.012(3) 0.008(3) -0.001(2) 0.007(3)
O7 0.023(3) 0.039(4) 0.024(3) 0.022(3) 0.011(3) 0.017(3)
O2 0.037(4) 0.021(3) 0.025(3) 0.016(3) 0.013(3) 0.016(3)
O4 0.022(4) 0.027(3) 0.023(3) 0.016(3) 0.014(3) 0.015(3)
O5 0.025(4) 0.037(4) 0.027(3) 0.021(3) 0.019(3) 0.020(3)
O8 0.049(4) 0.027(3) 0.017(3) 0.012(3) 0.020(3) 0.023(3)
O10 0.047(5) 0.027(4) 0.051(5) 0.009(4) 0.026(4) 0.004(4)
N2 0.056(7) 0.053(7) 0.077(8) 0.009(6) 0.028(6) 0.011(6)
N1 0.058(7) 0.048(6) 0.066(7) 0.025(5) 0.021(6) 0.017(5)
C15 0.036(7) 0.034(6) 0.074(9) 0.027(6) 0.011(6) 0.007(5)
C18 0.024(5) 0.018(4) 0.016(4) 0.013(3) 0.009(4) 0.012(4)
C16 0.029(6) 0.049(7) 0.065(8) -0.003(6) 0.013(6) 0.009(6)
C19 0.017(4) 0.023(4) 0.014(4) 0.011(3) 0.007(3) 0.014(4)
C10 0.019(4) 0.022(4) 0.011(4) 0.008(3) 0.008(3) 0.011(4)
C1 0.020(4) 0.014(4) 0.019(4) 0.009(3) 0.011(4) 0.012(3)
C5 0.026(5) 0.017(4) 0.016(4) 0.009(4) 0.013(4) 0.014(4)
C3 0.019(4) 0.021(4) 0.007(3) 0.006(3) 0.002(3) 0.008(4)
C2 0.023(5) 0.007(4) 0.015(4) 0.004(3) 0.006(3) 0.008(3)
C9 0.021(5) 0.018(4) 0.015(4) 0.008(3) 0.010(4) 0.012(4)
C22 0.043(8) 0.044(7) 0.080(9) 0.018(7) 0.030(7) 0.005(6)
C6 0.018(4) 0.017(4) 0.021(4) 0.009(4) 0.011(4) 0.008(3)
C4 0.028(5) 0.019(4) 0.011(4) 0.008(4) 0.011(4) 0.011(4)
C23 0.058(9) 0.045(8) 0.045(7) -0.003(6) -0.012(6) 0.009(7)
C14 0.027(6) 0.067(7) 0.050(6) 0.031(6) -0.003(5) -0.002(5)
C8 0.024(5) 0.023(4) 0.019(4) 0.013(4) 0.018(4) 0.014(4)
C7 0.017(4) 0.021(4) 0.020(4) 0.010(4) 0.009(4) 0.012(4)
C13 0.020(5) 0.028(5) 0.025(4) 0.019(4) 0.013(4) 0.020(4)
C17 0.029(6) 0.087(9) 0.032(6) 0.031(6) 0.002(5) 0.010(6)
C11 0.020(4) 0.026(5) 0.016(4) 0.014(4) 0.012(4) 0.016(4)
C12 0.012(4) 0.021(4) 0.020(4) 0.013(3) 0.009(3) 0.012(3)
C21 0.054(7) 0.048(8) 0.060(7) 0.004(6) 0.022(6) 0.007(6)
C20 0.025(5) 0.011(4) 0.011(4) 0.003(3) 0.005(3) 0.008(3)
C24 0.052(9) 0.033(7) 0.053(7) 0.005(5) -0.006(6) -0.020(6)
loop_
_atom_type_symbol
_atom_type_description
_atom_type_scat_dispersion_real
_atom_type_scat_dispersion_imag
_atom_type_scat_source
C C 0.0033 0.0016 'International Tables Vol C Tables 4.2.6.8 and 6.1.1.4'
H H 0.0000 0.0000 'International Tables Vol C Tables 4.2.6.8 and 6.1.1.4'
N N 0.0061 0.0033 'International Tables Vol C Tables 4.2.6.8 and 6.1.1.4'
O O 0.0106 0.0060 'International Tables Vol C Tables 4.2.6.8 and 6.1.1.4'
Pb Pb -3.3944 10.1111 'International Tables Vol C Tables 4.2.6.8 and 6.1.1.4'
loop_
_exptl_crystal_face_index_h
_exptl_crystal_face_index_k
_exptl_crystal_face_index_l
_exptl_crystal_face_perp_dist
-15 3 2 0.0586
15 -3 -2 0.0586
1 5 -17 0.1157
-1 -5 17 0.1157
0 -14 0 0.0255
0 14 0 0.0255
3 -6 -12 0.0875
loop_
_geom_angle_atom_site_label_1
_geom_angle_atom_site_label_2
_geom_angle_atom_site_label_3
_geom_angle
_geom_angle_site_symmetry_1
_geom_angle_site_symmetry_3
_geom_angle_publ_flag
O2 Pb2 O9 75.8(2) 2_665 . ?
O2 Pb2 O4 79.4(2) 2_665 . ?
O4 Pb2 O9 155.1(2) . . ?
O8 Pb2 O9 85.6(3) . . ?
O8 Pb2 O2 74.04(19) . 2_665 ?
O8 Pb2 O4 86.0(2) . . ?
O1 Pb1 O1 79.51(19) . 2_676 ?
O1 Pb1 O5 79.0(2) . 2_665 ?
O1 Pb1 O10 155.4(3) . . ?
O7 Pb1 O1 78.8(2) 1_666 2_676 ?
O7 Pb1 O1 77.6(2) 1_666 . ?
O7 Pb1 O5 79.4(2) 1_666 2_665 ?
O7 Pb1 O10 87.0(3) 1_666 . ?
O5 Pb1 O1 152.14(19) 2_665 2_676 ?
O5 Pb1 O10 79.4(2) 2_665 . ?
O10 Pb1 O1 116.4(2) . 2_676 ?
C14 O9 Pb2 130.5(7) . . ?
Pb1 O1 Pb1 100.49(19) . 2_676 ?
C1 O1 Pb1 128.6(5) . 2_676 ?
C1 O1 Pb1 123.8(5) . . ?
C10 O7 Pb1 137.4(6) . 1_444 ?
C1 O2 Pb2 143.0(5) . 2_665 ?
C6 O4 Pb2 130.5(6) . . ?
C6 O5 Pb1 104.8(5) . 2_665 ?
C5 O8 Pb2 104.2(5) . . ?
C21 O10 Pb1 123.4(7) . . ?
C22 N2 C23 119.1(12) . . ?
C21 N2 C22 126.5(13) . . ?
C21 N2 C23 114.2(11) . . ?
C16 N1 C15 117.0(11) . . ?
C14 N1 C15 122.4(11) . . ?
C14 N1 C16 120.6(11) . . ?
N1 C15 H15A 109.5 . . ?
N1 C15 H15B 109.5 . . ?
N1 C15 H15C 109.5 . . ?
H15A C15 H15B 109.5 . . ?
H15A C15 H15C 109.5 . . ?
H15B C15 H15C 109.5 . . ?
C19 C18 H18 118.8 . . ?
C4 C18 H18 118.8 . . ?
C4 C18 C19 122.4(8) . . ?
N1 C16 H16A 109.5 . . ?
N1 C16 H16B 109.5 . . ?
N1 C16 H16C 109.5 . . ?
H16A C16 H16B 109.5 . . ?
H16A C16 H16C 109.5 . . ?
H16B C16 H16C 109.5 . . ?
C18 C19 C19 122.0(9) . 2_666 ?
C20 C19 C18 115.9(7) . . ?
C20 C19 C19 122.1(9) . 2_666 ?
O6 C10 C9 116.6(7) . . ?
O7 C10 O6 129.0(8) . . ?
O7 C10 C9 114.4(7) . . ?
O1 C1 C2 116.3(7) . . ?
O2 C1 O1 125.5(8) . . ?
O2 C1 C2 118.3(7) . . ?
O3 C5 O8 125.0(7) . . ?
O3 C5 C4 119.9(7) . . ?
O8 C5 C4 115.0(7) . . ?
C2 C3 H3 119.9 . . ?
C2 C3 C4 120.2(7) . . ?
C4 C3 H3 119.9 . . ?
C3 C2 C1 119.5(7) . . ?
C20 C2 C1 120.5(7) . . ?
C20 C2 C3 120.0(8) . . ?
C8 C9 C10 118.2(7) . . ?
C11 C9 C10 122.4(7) . . ?
C11 C9 C8 119.4(8) . . ?
N2 C22 H22A 109.5 . . ?
N2 C22 H22B 109.5 . . ?
N2 C22 H22C 109.5 . . ?
H22A C22 H22B 109.5 . . ?
H22A C22 H22C 109.5 . . ?
H22B C22 H22C 109.5 . . ?
O4 C6 C7 118.6(7) . . ?
O5 C6 O4 123.7(8) . . ?
O5 C6 C7 117.4(8) . . ?
C18 C4 C5 121.4(8) . . ?
C3 C4 C18 118.6(7) . . ?
C3 C4 C5 120.0(7) . . ?
N2 C23 H23A 109.5 . . ?
N2 C23 H23B 109.5 . . ?
N2 C23 H23C 109.5 . . ?
H23A C23 H23B 109.5 . . ?
H23A C23 H23C 109.5 . . ?
H23B C23 H23C 109.5 . . ?
O9 C14 C17 121.1(11) . . ?
N1 C14 O9 120.9(11) . . ?
N1 C14 C17 118.0(11) . . ?
C9 C8 H8 120.7 . . ?
C7 C8 C9 118.6(8) . . ?
C7 C8 H8 120.7 . . ?
C8 C7 C6 118.3(7) . . ?
C8 C7 C13 121.8(7) . . ?
C13 C7 C6 119.9(8) . . ?
C7 C13 H13 119.9 . . ?
C7 C13 C12 120.3(8) . . ?
C12 C13 H13 119.9 . . ?
C14 C17 H17A 109.5 . . ?
C14 C17 H17B 109.5 . . ?
C14 C17 H17C 109.5 . . ?
H17A C17 H17B 109.5 . . ?
H17A C17 H17C 109.5 . . ?
H17B C17 H17C 109.5 . . ?
C9 C11 H11 118.9 . . ?
C9 C11 C12 122.3(8) . . ?
C12 C11 H11 118.9 . . ?
C13 C12 C12 120.6(9) . 2 ?
C11 C12 C13 117.3(7) . . ?
C11 C12 C12 122.1(8) . 2 ?
O10 C21 C24 128.6(13) . . ?
N2 C21 O10 122.1(13) . . ?
N2 C21 C24 109.2(11) . . ?
C19 C20 H20 118.5 . . ?
C2 C20 C19 122.9(7) . . ?
C2 C20 H20 118.5 . . ?
C21 C24 H24A 109.5 . . ?
C21 C24 H24B 109.5 . . ?
C21 C24 H24C 109.5 . . ?
H24A C24 H24B 109.5 . . ?
H24A C24 H24C 109.5 . . ?
H24B C24 H24C 109.5 . . ?
loop_
_geom_bond_atom_site_label_1
_geom_bond_atom_site_label_2
_geom_bond_distance
_geom_bond_site_symmetry_2
_geom_bond_publ_flag
Pb2 O9 2.597(8) . ?
Pb2 O2 2.373(6) 2_665 ?
Pb2 O4 2.397(6) . ?
Pb2 O8 2.353(6) . ?
Pb1 O1 2.354(6) . ?
Pb1 O1 2.754(6) 2_676 ?
Pb1 O7 2.346(6) 1_666 ?
Pb1 O5 2.416(6) 2_665 ?
Pb1 O10 2.648(7) . ?
O9 C14 1.305(13) . ?
O3 C5 1.225(10) . ?
O1 C1 1.281(10) . ?
O6 C10 1.260(10) . ?
O7 C10 1.248(10) . ?
O2 C1 1.228(9) . ?
O4 C6 1.269(11) . ?
O5 C6 1.253(10) . ?
O8 C5 1.265(10) . ?
O10 C21 1.271(13) . ?
N2 C22 1.451(12) . ?
N2 C23 1.544(14) . ?
N2 C21 1.268(16) . ?
N1 C15 1.469(12) . ?
N1 C16 1.440(12) . ?
N1 C14 1.273(13) . ?
C15 H15A 0.9600 . ?
C15 H15B 0.9600 . ?
C15 H15C 0.9600 . ?
C18 H18 0.9300 . ?
C18 C19 1.399(11) . ?
C18 C4 1.396(10) . ?
C16 H16A 0.9600 . ?
C16 H16B 0.9600 . ?
C16 H16C 0.9600 . ?
C19 C19 1.480(15) 2_666 ?
C19 C20 1.387(11) . ?
C10 C9 1.522(12) . ?
C1 C2 1.509(11) . ?
C5 C4 1.530(11) . ?
C3 H3 0.9300 . ?
C3 C2 1.371(10) . ?
C3 C4 1.389(12) . ?
C2 C20 1.370(11) . ?
C9 C8 1.415(11) . ?
C9 C11 1.387(11) . ?
C22 H22A 0.9600 . ?
C22 H22B 0.9600 . ?
C22 H22C 0.9600 . ?
C6 C7 1.518(11) . ?
C23 H23A 0.9600 . ?
C23 H23B 0.9600 . ?
C23 H23C 0.9600 . ?
C14 C17 1.525(14) . ?
C8 H8 0.9300 . ?
C8 C7 1.384(13) . ?
C7 C13 1.392(11) . ?
C13 H13 0.9300 . ?
C13 C12 1.413(10) . ?
C17 H17A 0.9600 . ?
C17 H17B 0.9600 . ?
C17 H17C 0.9600 . ?
C11 H11 0.9300 . ?
C11 C12 1.405(12) . ?
C12 C12 1.491(15) 2 ?
C21 C24 1.545(15) . ?
C20 H20 0.9300 . ?
C24 H24A 0.9600 . ?
C24 H24B 0.9600 . ?
C24 H24C 0.9600 . ?
loop_
_twin_individual_id
_twin_individual_mass_fraction_refined
_oxdiff_twin_reflns_isolated
_oxdiff_twin_reflns_overlapped
_twin_individual_twin_lattice_type
_twin_individual_twin_matrix_11
_twin_individual_twin_matrix_12
_twin_individual_twin_matrix_13
_twin_individual_twin_matrix_21
_twin_individual_twin_matrix_22
_twin_individual_twin_matrix_23
_twin_individual_twin_matrix_31
_twin_individual_twin_matrix_32
_twin_individual_twin_matrix_33
1 0.6407 8102 8137 ref 1.0000 0.0000 0.0000 0.0000 1.0000 0.0000 0.0000 0.0000
1.0000
2 0.3593 8120 8137 nmt -0.0008 0.9967 0.4998 1.0029 0.0016 0.5020 -0.0019
-0.0030 -1.0013
loop_
_exptl_oxdiff_crystal_face_indexfrac_h
_exptl_oxdiff_crystal_face_indexfrac_k
_exptl_oxdiff_crystal_face_indexfrac_l
_exptl_oxdiff_crystal_face_x
_exptl_oxdiff_crystal_face_y
_exptl_oxdiff_crystal_face_z
-14.9641 2.9869 2.0349 -0.9393 -0.3648 -0.1752
14.9641 -2.9869 -2.0349 0.9393 0.3648 0.1752
0.5237 4.5102 -16.9950 -0.2128 -0.1098 0.9600
-0.5237 -4.5102 16.9950 0.2128 0.1098 -0.9600
0.0091 -14.0450 0.0273 -0.4913 0.8930 0.1460
-0.0091 14.0450 -0.0273 0.4913 -0.8930 -0.1460
3.0154 -6.0182 -11.9861 -0.2794 0.5348 0.7779
