#------------------------------------------------------------------------------
#$Date: 2021-01-07 07:01:57 +0200 (Thu, 07 Jan 2021) $
#$Revision: 260726 $
#$URL: file:///home/coder/svn-repositories/cod/cif/7/12/72/7127265.cif $
#------------------------------------------------------------------------------
#
# This file is available in the Crystallography Open Database (COD),
# http://www.crystallography.net/
#
# All data on this site have been placed in the public domain by the
# contributors.
#
data_7127265
loop_
_publ_author_name
'Li, Chuan-Ping'
'Long, Wei-Wei'
'Lei, Zhen'
'Guo, Ling'
'Xie, Ming-Jun'
'L\"u, Jian'
'Zhu, Xian-Dong'
_publ_section_title
;
 Anionic metal-organic framework as a unique turn-on fluorescent chemical
 sensor for ultra-sensitive detection of antibiotics.
;
_journal_issue                   82
_journal_name_full
'Chemical communications (Cambridge, England)'
_journal_page_first              12403
_journal_page_last               12406
_journal_paper_doi               10.1039/d0cc05175f
_journal_volume                  56
_journal_year                    2020
_chemical_formula_moiety         'C104 H80 N4 O64 Zn12, 2(H13 O6.5 Zn)'
_chemical_formula_sum            'C104 H106 N4 O77 Zn14'
_chemical_formula_weight         3559.10
_space_group_crystal_system      monoclinic
_space_group_IT_number           14
_space_group_name_Hall           '-P 2yn'
_space_group_name_H-M_alt        'P 1 21/n 1'
_atom_sites_solution_hydrogens   mixed
_atom_sites_solution_primary     dual
_audit_creation_date             2020-04-07
_audit_creation_method
;
Olex2 1.3
(compiled Nov 21 2019 18:26:39 for OlexSys, GUI svn.r6003)
;
_audit_update_record
;
2020-04-17 deposited with the CCDC.	2020-09-16 downloaded from the CCDC.
;
_cell_angle_alpha                90
_cell_angle_beta                 93.080(2)
_cell_angle_gamma                90
_cell_formula_units_Z            2
_cell_length_a                   22.1643(14)
_cell_length_b                   16.4288(10)
_cell_length_c                   23.8287(15)
_cell_measurement_reflns_used    17042
_cell_measurement_temperature    99.98
_cell_measurement_theta_max      72.577
_cell_measurement_theta_min      2.652
_cell_volume                     8664.3(9)
_computing_molecular_graphics    'Olex2 1.3 (Dolomanov et al., 2009)'
_computing_publication_material  'Olex2 1.3 (Dolomanov et al., 2009)'
_computing_structure_refinement  'SHELXL 2018/3 (Sheldrick, 2015)'
_computing_structure_solution    'SHELXT 2014/5 (Sheldrick, 2014)'
_diffrn_ambient_temperature      99.98
_diffrn_measured_fraction_theta_full 0.992
_diffrn_measured_fraction_theta_max 0.991
_diffrn_measurement_device_type  'Bruker APEX-III CCD'
_diffrn_radiation_type           CuK\a
_diffrn_radiation_wavelength     1.54178
_diffrn_reflns_av_R_equivalents  0.0391
_diffrn_reflns_av_unetI/netI     0.0132
_diffrn_reflns_Laue_measured_fraction_full 0.992
_diffrn_reflns_Laue_measured_fraction_max 0.991
_diffrn_reflns_limit_h_max       27
_diffrn_reflns_limit_h_min       -27
_diffrn_reflns_limit_k_max       20
_diffrn_reflns_limit_k_min       -20
_diffrn_reflns_limit_l_max       29
_diffrn_reflns_limit_l_min       -29
_diffrn_reflns_number            336036
_diffrn_reflns_point_group_measured_fraction_full 0.992
_diffrn_reflns_point_group_measured_fraction_max 0.991
_diffrn_reflns_theta_full        67.679
_diffrn_reflns_theta_max         72.577
_diffrn_reflns_theta_min         2.652
_exptl_absorpt_coefficient_mu    2.806
_exptl_absorpt_correction_T_max  0.755
_exptl_absorpt_correction_T_min  0.750
_exptl_absorpt_correction_type   multi-scan
_exptl_crystal_colour            'clear light colourless'
_exptl_crystal_colour_lustre     clear
_exptl_crystal_colour_modifier   light
_exptl_crystal_colour_primary    colourless
_exptl_crystal_density_diffrn    1.364
_exptl_crystal_description       block
_exptl_crystal_F_000             3588
_exptl_crystal_size_max          0.2
_exptl_crystal_size_mid          0.1
_exptl_crystal_size_min          0.1
_refine_diff_density_max         3.254
_refine_diff_density_min         -2.986
_refine_diff_density_rms         0.175
_refine_ls_extinction_method     none
_refine_ls_goodness_of_fit_ref   1.070
_refine_ls_hydrogen_treatment    constr
_refine_ls_matrix_type           full
_refine_ls_number_parameters     914
_refine_ls_number_reflns         17042
_refine_ls_number_restraints     24
_refine_ls_restrained_S_all      1.070
_refine_ls_R_factor_all          0.0763
_refine_ls_R_factor_gt           0.0754
_refine_ls_shift/su_max          0.002
_refine_ls_shift/su_mean         0.000
_refine_ls_structure_factor_coef Fsqd
_refine_ls_weighting_details
'w=1/[\s^2^(Fo^2^)+(0.0776P)^2^+107.9775P] where P=(Fo^2^+2Fc^2^)/3'
_refine_ls_weighting_scheme      calc
_refine_ls_wR_factor_gt          0.1993
_refine_ls_wR_factor_ref         0.1998
_reflns_Friedel_coverage         0.000
_reflns_number_gt                16641
_reflns_number_total             17042
_reflns_threshold_expression     'I > 2\s(I)'
_cod_data_source_file            d0cc05175f2.cif
_cod_data_source_block           FCS-3
_cod_depositor_comments          'Adding full bibliography for 7127265.cif.'
_cod_database_code               7127265
_shelx_shelxl_version_number     2018/3
_shelx_space_group_comment
;
The symmetry employed for this shelxl refinement is uniquely defined
by the following loop, which should always be used as a source of
symmetry information in preference to the above space-group names.
They are only intended as comments.
;
_shelx_estimated_absorpt_t_max   0.767
_shelx_estimated_absorpt_t_min   0.604
_olex2_refinement_description
;
1. Fixed Uiso
 At 1.2 times of:
  All C(H) groups, All C(H,H) groups
 At 1.5 times of:
  All O(H) groups, All O(H,H) groups
2. Uiso/Uaniso restraints and constraints
Uanis(O9) \\sim Ueq: with sigma of 0.01 and sigma for terminal atoms of 0.02
Uanis(O7) \\sim Ueq: with sigma of 0.01 and sigma for terminal atoms of 0.02
Uanis(O14) \\sim Ueq: with sigma of 0.01 and sigma for terminal atoms of 0.02
Uanis(O28) \\sim Ueq: with sigma of 0.01 and sigma for terminal atoms of 0.02
3. Others
 Fixed Sof: O28(0.5) H28A(0.5) H28B(0.5)
4.a Rotating group:
 O7W(H7WA,H7WB), O8W(H8WA,H8WB), O9W(H9WA,H9WB), O10W(H10A,H10B), O11W(H11A,
 H11B), O12W(H12A,H12B), O1W(H1WA,H1WB), O2W(H2WA,H2WB), O3W(H3WA,H3WB),
 O4W(H4WA,H4WB), O5W(H5WA,H5WB), O6W(H6WA,H6WB), O28(H28A,H28B)
4.b Ternary CH refined with riding coordinates:
 O26(H26), O25(H25)
4.c Secondary CH2 refined with riding coordinates:
 C8(H8A,H8B), C25(H25A,H25B), C44(H44A,H44B), C55(H55A,H55B)
4.d Aromatic/amide H refined with riding coordinates:
 C10(H10), C12(H12), C14(H14), C16(H16), C19(H19), C21(H21), C27(H27),
 C28(H28), C29(H29), C31(H31), C34(H34), C40(H40), C41(H41), C45(H45), C48(H48),
  C50(H50), C52(H52), C56(H56)
;
_shelx_res_file
;
TITL cu_Zn_0131_0m_a.res in P2(1)/n
    fcs-3.res
    created by SHELXL-2018/3 at 10:46:06 on 07-Apr-2020
CELL 1.54178 22.1643 16.4288 23.8287 90 93.08 90
ZERR 2 0.0014 0.001 0.0015 0 0.002 0
LATT 1
SYMM 0.5-X,0.5+Y,0.5-Z
SFAC C H N O Zn
UNIT 208 212 8 154 28
ISOR 0.01 0.02 O9
ISOR 0.01 0.02 O7
ISOR 0.01 0.02 O14
ISOR 0.01 0.02 O28

L.S. 20 0 279
PLAN  34 0 0
SIZE 0.1 0.1 0.2
TEMP -173.17
CONF
FREE O17 H28a
MORE -1
BOND $H
fmap 2
acta
ABIN
REM <olex2.extras>
REM <HklSrc "%.\\FCS-3.hkl">
REM </olex2.extras>

WGHT    0.077600  107.977509
FVAR       0.18279
ZN1   5    0.668927    0.338700    1.161387    11.00000    0.01337    0.01135 =
         0.00661   -0.00105    0.00084    0.00134
ZN2   5    0.747056    0.166954    1.144845    11.00000    0.01785    0.00868 =
         0.00667   -0.00176    0.00330   -0.00188
ZN3   5    0.822629    0.340656    1.149947    11.00000    0.01351    0.00895 =
         0.00630   -0.00061    0.00235   -0.00202
ZN5   5    0.771587    0.845470    0.647435    11.00000    0.01935    0.01019 =
         0.00748    0.00204    0.00441    0.00302
ZN6   5    0.849334    0.669841    0.653501    11.00000    0.02134    0.00839 =
         0.00723    0.00010    0.00316    0.00227
ZN4   5    0.694780    0.669810    0.664581    11.00000    0.01786    0.01249 =
         0.00737   -0.00208    0.00327   -0.00210
O1    4    0.673197    0.453592    1.181091    11.00000    0.02543    0.01135 =
         0.01623    0.00280   -0.00057    0.00077
O2    4    0.663905    0.465541    1.089391    11.00000    0.06218    0.01655 =
         0.01417   -0.00332    0.01049   -0.00333
O3    4    0.671332    0.690536    1.303588    11.00000    0.02230    0.01699 =
         0.00915    0.00049    0.00064   -0.00364
O4    4    0.669747    0.815213    1.268586    11.00000    0.02695    0.01331 =
         0.00756   -0.00081   -0.00043    0.00007
O5    4    0.473394    0.844691    1.128023    11.00000    0.02156    0.07750 =
         0.02244   -0.02469    0.00800   -0.00658
O6    4    0.391936    0.780947    1.093175    11.00000    0.01762    0.01827 =
         0.02178    0.00102    0.01012    0.00021
O7    4    0.467001    0.624280    0.872269    11.00000    0.01884    0.05983 =
         0.02705   -0.02737   -0.00565    0.00360
O7W   4    0.691260    0.864504    0.599688    11.00000    0.02633    0.02190 =
         0.03404    0.01169   -0.00731    0.00074
AFIX   7
H7WA  2    0.692418    0.840306    0.566432    11.00000   -1.50000
H7WB  2    0.687505    0.916820    0.590915    11.00000   -1.50000
AFIX   0
O26   4    0.741345    0.292081    1.129338    11.00000    0.01356    0.01025 =
         0.00424    0.00009    0.00128   -0.00130
AFIX  13
H26   2    0.735198    0.298094    1.087662    11.00000   -1.50000
AFIX   0
O8    4    0.393391    0.711358    0.887991    11.00000    0.02194    0.02365 =
         0.01683   -0.00243   -0.00285   -0.00274
O8W   4    0.822333    0.852245    0.575506    11.00000    0.02072    0.01466 =
         0.01493    0.00562    0.00534    0.00231
AFIX   7
H8WA  2    0.855816    0.824884    0.581239    11.00000   -1.50000
H8WB  2    0.834126    0.902297    0.570632    11.00000   -1.50000
AFIX   0
O9    4    0.652569    1.032614    0.933416    11.00000    0.12088    0.01465 =
         0.03004   -0.00589    0.04200   -0.00022
O9W   4    0.782133    0.969018    0.658234    11.00000    0.04136    0.01543 =
         0.05096   -0.00512    0.00696    0.00068
AFIX   7
H9WA  2    0.811126    1.004173    0.641739    11.00000   -1.50000
H9WB  2    0.759979    1.005843    0.680980    11.00000   -1.50000
AFIX   0
O10   4    0.660318    1.052514    0.841909    11.00000    0.03047    0.01175 =
         0.01942   -0.00025    0.00766    0.00125
O10W  4    0.669918    0.150055    1.093231    11.00000    0.02727    0.03153 =
         0.04368   -0.02715   -0.00885   -0.00013
AFIX   7
H10A  2    0.636660    0.167738    1.109714    11.00000   -1.50000
H10B  2    0.662173    0.096705    1.088004    11.00000   -1.50000
AFIX   0
O11   4    0.687243    0.553579    0.676999    11.00000    0.02145    0.01557 =
         0.01868   -0.00226   -0.00564   -0.00229
O11W  4    0.755305    0.042892    1.159083    11.00000    0.04673    0.01461 =
         0.03178   -0.00210    0.00829   -0.00137
AFIX   7
H11A  2    0.757060    0.014827    1.126861    11.00000   -1.50000
H11B  2    0.721819    0.022970    1.173544    11.00000   -1.50000
AFIX   0
O12   4    0.681724    0.538615    0.584988    11.00000    0.09476    0.01912 =
         0.01735    0.00268    0.01767   -0.01224
O12W  4    0.803154    0.154472    1.076400    11.00000    0.02112    0.01500 =
         0.01002   -0.00313    0.00216   -0.00028
AFIX   7
H12A  2    0.826669    0.196866    1.075038    11.00000   -1.50000
H12B  2    0.781192    0.156242    1.044971    11.00000   -1.50000
AFIX   0
O13   4    0.696110    0.707946    0.742494    11.00000    0.05913    0.01738 =
         0.01053   -0.00684    0.01415   -0.00808
O14   4    0.723440    0.834019    0.719976    11.00000    0.03623    0.01808 =
         0.01100    0.00253    0.01280    0.00557
O15   4    0.646924    0.325057    0.801836    11.00000    0.02399    0.02344 =
         0.00681   -0.00191   -0.00239   -0.00099
O16   4    0.640517    0.199663    0.766369    11.00000    0.03284    0.02185 =
         0.00906    0.00103   -0.00084   -0.00768
O17   4    0.441850    0.357652    0.364778    11.00000    0.02015    0.05663 =
         0.03050    0.02667    0.00562    0.00081
O18   4    0.365429    0.278973    0.387292    11.00000    0.01402    0.02206 =
         0.02490    0.00212   -0.00378   -0.00210
O19   4    0.373205    0.211305    0.596161    11.00000    0.01636    0.01663 =
         0.02071    0.00178    0.00944   -0.00056
O20   4    0.449501    0.126424    0.615922    11.00000    0.02029    0.03619 =
         0.02341    0.01180    0.00674    0.00560
O21   4    0.678125   -0.022882    0.441230    11.00000    0.04430    0.01357 =
         0.01276    0.00472    0.00433    0.00681
O22   4    0.679074   -0.042622    0.348918    11.00000    0.02834    0.01079 =
         0.01389    0.00011    0.00884    0.00400
O23   4    0.660644    0.296796    0.238453    11.00000    0.03360    0.01512 =
         0.01027    0.00369    0.00740    0.00821
O24   4    0.701594    0.176578    0.219235    11.00000    0.03217    0.01256 =
         0.00954   -0.00028    0.01086   -0.00045
O25   4    0.767106    0.718142    0.632422    11.00000    0.01762    0.01140 =
         0.00597   -0.00019    0.00369    0.00011
AFIX  13
H25   2    0.761107    0.711678    0.590767    11.00000   -1.50000
AFIX   0
N1    3    0.612995    0.261484    0.502080    11.00000    0.01356    0.01960 =
         0.00336   -0.00059    0.00141   -0.00222
N2    3    0.637632    0.743937    1.003063    11.00000    0.01269    0.02213 =
         0.00400    0.00147    0.00055   -0.00223
C5    1    0.668004    0.496844    1.136673    11.00000    0.02097    0.01053 =
         0.01123   -0.00196    0.00615   -0.00085
PART -1
C6    1    0.670643    0.918225    0.875210    11.00000    0.01504    0.01055 =
         0.01404   -0.00223    0.00714   -0.00237
PART 0
C7    1    0.705796    0.782340    0.753711    11.00000    0.02124    0.01858 =
         0.00807    0.00187    0.00353    0.00254
C8    1    0.670307    0.777012    1.052668    11.00000    0.01171    0.01672 =
         0.00872    0.00368    0.00045   -0.00374
AFIX  23
H8A   2    0.652452    0.830247    1.061973    11.00000   -1.20000
H8B   2    0.712859    0.786573    1.043811    11.00000   -1.20000
AFIX   0
C9    1    0.668089    0.587405    1.144048    11.00000    0.01256    0.01150 =
         0.01093    0.00113    0.00132    0.00192
C10   1    0.542006    0.713628    0.952334    11.00000    0.01903    0.02080 =
         0.00659    0.00183   -0.00079   -0.00125
AFIX  43
H10   2    0.562606    0.692738    0.921490    11.00000   -1.20000
AFIX   0
C11   1    0.660200    1.007227    0.885078    11.00000    0.03627    0.01213 =
         0.02031   -0.00217    0.01372   -0.00306
C12   1    0.668569    0.621046    1.197348    11.00000    0.00968    0.01465 =
         0.00921    0.00198    0.00032    0.00142
AFIX  43
H12   2    0.669454    0.586460    1.229332    11.00000   -1.20000
AFIX   0
C13   1    0.667769    0.704881    1.204424    11.00000    0.01179    0.01519 =
         0.00578    0.00016   -0.00002   -0.00034
C14   1    0.668557    0.755258    1.157285    11.00000    0.01716    0.01133 =
         0.00945    0.00140   -0.00040   -0.00088
AFIX  43
H14   2    0.668734    0.812701    1.161868    11.00000   -1.20000
AFIX   0
C15   1    0.646879    0.308898    0.702506    11.00000    0.01441    0.01825 =
         0.00750   -0.00115   -0.00001   -0.00291
C16   1    0.668225    0.637870    1.097031    11.00000    0.01116    0.01769 =
         0.00531   -0.00087    0.00122   -0.00218
AFIX  43
H16   2    0.667729    0.614792    1.060453    11.00000   -1.20000
AFIX   0
C17   1    0.669452    0.738415    1.262365    11.00000    0.01110    0.01565 =
         0.00919   -0.00096   -0.00192   -0.00038
C18   1    0.575325    0.744107    0.999847    11.00000    0.01509    0.01627 =
         0.00765    0.00484    0.00326   -0.00012
C19   1    0.542660    0.772156    1.045062    11.00000    0.01478    0.02377 =
         0.00531    0.00220    0.00041   -0.00127
AFIX  43
H19   2    0.563838    0.791872    1.078022    11.00000   -1.20000
AFIX   0
C20   1    0.479994    0.771425    1.042186    11.00000    0.01684    0.02306 =
         0.00815    0.00061    0.00574    0.00061
C21   1    0.447802    0.742924    0.994674    11.00000    0.01174    0.02562 =
         0.01266    0.00095    0.00081   -0.00377
AFIX  43
H21   2    0.404879    0.743340    0.992689    11.00000   -1.20000
AFIX   0
C22   1    0.479133    0.713949    0.950328    11.00000    0.01561    0.02296 =
         0.01063    0.00037   -0.00170   -0.00332
C23   1    0.445481    0.679533    0.899378    11.00000    0.00854    0.02816 =
         0.01172   -0.00113   -0.00056   -0.00488
C24   1    0.447435    0.802334    1.091332    11.00000    0.01277    0.02938 =
         0.01032    0.00089    0.00308    0.00052
C25   1    0.671275    0.716811    0.955950    11.00000    0.01109    0.01310 =
         0.01050    0.00236    0.00123    0.00154
AFIX  23
H25A  2    0.652039    0.666880    0.940095    11.00000   -1.20000
H25B  2    0.712786    0.702381    0.969882    11.00000   -1.20000
AFIX   0
C26   1    0.675030    0.779727    0.909093    11.00000    0.01188    0.01506 =
         0.00740    0.00057   -0.00042   -0.00079
C27   1    0.688564    0.753582    0.855266    11.00000    0.01741    0.01032 =
         0.01108   -0.00095    0.00132    0.00143
AFIX  43
H27   2    0.694090    0.697214    0.848277    11.00000   -1.20000
AFIX   0
C28   1    0.665497    0.861532    0.918439    11.00000    0.01010    0.01526 =
         0.00687   -0.00117    0.00450   -0.00326
AFIX  43
H28   2    0.655330    0.879493    0.954632    11.00000   -1.20000
AFIX   0
C29   1    0.685284    0.891982    0.822392    11.00000    0.00943    0.01314 =
         0.01111    0.00165    0.00309   -0.00171
AFIX  43
H29   2    0.689446    0.930348    0.793023    11.00000   -1.20000
AFIX   0
C30   1    0.669084    0.721897    1.103620    11.00000    0.01213    0.01422 =
         0.00651    0.00366   -0.00059   -0.00057
C31   1    0.658318    0.391121    0.695163    11.00000    0.01446    0.01922 =
         0.00688   -0.00107   -0.00194   -0.00401
AFIX  43
H31   2    0.661944    0.426294    0.726810    11.00000   -1.20000
AFIX   0
C32   1    0.664494    0.422132    0.641241    11.00000    0.01505    0.01551 =
         0.01118   -0.00223    0.00191   -0.00337
C33   1    0.693950    0.809000    0.812258    11.00000    0.01130    0.01558 =
         0.00929   -0.00375    0.00042   -0.00037
C34   1    0.659912    0.369826    0.594900    11.00000    0.01669    0.01547 =
         0.00648    0.00204    0.00169   -0.00143
AFIX  43
H34   2    0.664609    0.390830    0.558247    11.00000   -1.20000
AFIX   0
C35   1    0.678907    0.510024    0.633064    11.00000    0.02494    0.01662 =
         0.01380    0.00038    0.00512   -0.00198
C36   1    0.644281    0.275671    0.760761    11.00000    0.01906    0.01858 =
         0.00882    0.00037   -0.00012   -0.00521
C37   1    0.418873    0.306370    0.395340    11.00000    0.01954    0.02330 =
         0.01243   -0.00259    0.00770    0.00210
C38   1    0.679148    0.226101    0.251871    11.00000    0.01788    0.01397 =
         0.00629   -0.00275    0.00331   -0.00191
C39   1    0.673142    0.200325    0.312113    11.00000    0.01890    0.01132 =
         0.00667    0.00100    0.00346    0.00117
C40   1    0.679423    0.118082    0.325256    11.00000    0.00841    0.01270 =
         0.01104   -0.00053    0.00452   -0.00154
AFIX  43
H40   2    0.688862    0.080149    0.296942    11.00000   -1.20000
AFIX   0
C41   1    0.659950    0.147779    0.421359    11.00000    0.00443    0.01617 =
         0.00852    0.00007    0.00252   -0.00041
AFIX  43
H41   2    0.655089    0.129410    0.458649    11.00000   -1.20000
AFIX   0
C42   1    0.671908    0.091578    0.379610    11.00000    0.00942    0.01012 =
         0.00990    0.00047    0.00190   -0.00010
C43   1    0.655002    0.230794    0.409166    11.00000    0.01109    0.01297 =
         0.00770   -0.00283    0.00197   -0.00040
C44   1    0.645354    0.292758    0.455244    11.00000    0.01829    0.01192 =
         0.00536   -0.00292    0.00455   -0.00250
AFIX  23
H44A  2    0.685253    0.313100    0.469734    11.00000   -1.20000
H44B  2    0.622642    0.339585    0.438658    11.00000   -1.20000
AFIX   0
C45   1    0.661251    0.257024    0.353817    11.00000    0.01409    0.01288 =
         0.00878   -0.00050    0.00354   -0.00285
AFIX  43
H45   2    0.657419    0.313139    0.344682    11.00000   -1.20000
AFIX   0
C46   1    0.677267    0.001947    0.392290    11.00000    0.01665    0.01270 =
         0.01325    0.00093    0.00518    0.00107
C47   1    0.550813    0.253957    0.498041    11.00000    0.00984    0.01296 =
         0.00872   -0.00291    0.00389   -0.00057
C48   1    0.519523    0.221574    0.542166    11.00000    0.01592    0.01893 =
         0.01008   -0.00058    0.00328    0.00168
AFIX  43
H48   2    0.541380    0.202432    0.574931    11.00000   -1.20000
AFIX   0
C49   1    0.456475    0.216926    0.538803    11.00000    0.01756    0.01623 =
         0.01158    0.00079    0.00428    0.00099
C50   1    0.422903    0.244055    0.491413    11.00000    0.01348    0.01724 =
         0.01360   -0.00178    0.00350   -0.00187
AFIX  43
H50   2    0.380024    0.241439    0.489517    11.00000   -1.20000
AFIX   0
C51   1    0.454086    0.275305    0.446617    11.00000    0.01530    0.01836 =
         0.00972   -0.00429   -0.00014    0.00051
C52   1    0.516812    0.280200    0.449780    11.00000    0.01324    0.01531 =
         0.00764   -0.00111    0.00529   -0.00036
AFIX  43
H52   2    0.537057    0.301596    0.418882    11.00000   -1.20000
AFIX   0
C53   1    0.648508    0.287100    0.602046    11.00000    0.01348    0.01639 =
         0.00809   -0.00182   -0.00137   -0.00230
C54   1    0.425383    0.181656    0.587506    11.00000    0.01843    0.01869 =
         0.01261   -0.00044    0.00625   -0.00138
C55   1    0.647164    0.230509    0.551625    11.00000    0.01677    0.01406 =
         0.00807   -0.00062    0.00065    0.00328
AFIX  23
H55A  2    0.689219    0.219970    0.541578    11.00000   -1.20000
H55B  2    0.629441    0.177859    0.562464    11.00000   -1.20000
AFIX   0
C56   1    0.641751    0.257096    0.655907    11.00000    0.02074    0.01359 =
         0.00983    0.00091   -0.00051   -0.00536
AFIX  43
H56   2    0.633579    0.200914    0.661106    11.00000   -1.20000
AFIX   0
ZN7   5    0.545833    0.482524    0.289014    11.00000    0.02864    0.03624 =
         0.03160   -0.00002    0.00500   -0.00045
O1W   4    0.543738    0.504565    0.203765    11.00000    0.03098    0.04932 =
         0.03230   -0.00370    0.00429   -0.00883
AFIX   7
H1WA  2    0.537650    0.458650    0.184824    11.00000   -1.50000
H1WB  2    0.579755    0.520733    0.193827    11.00000   -1.50000
AFIX   0
O2W   4    0.449519    0.481448    0.284106    11.00000    0.02097    0.04389 =
         0.04546    0.01099    0.00274    0.00074
AFIX   7
H2WA  2    0.435389    0.441851    0.305319    11.00000   -1.50000
H2WB  2    0.435399    0.468322    0.249587    11.00000   -1.50000
AFIX   0
O3W   4    0.554676    0.607225    0.308639    11.00000    0.04590    0.03610 =
         0.05191   -0.00499    0.00783   -0.00641
AFIX   7
H3WA  2    0.593230    0.622724    0.307849    11.00000   -1.50000
H3WB  2    0.545824    0.616851    0.344210    11.00000   -1.50000
AFIX   0
PART 1
O4W   4    0.546449    0.355810    0.273239    11.00000    0.03137    0.03960 =
         0.04318   -0.00717    0.00431   -0.00355
AFIX   7
H4WA  2    0.581627    0.332147    0.248380    11.00000   -1.50000
H4WB  2    0.550910    0.371268    0.308483    11.00000   -1.50000
AFIX   0
PART 0
O5W   4    0.640596    0.468131    0.292565    11.00000    0.03036    0.03855 =
         0.04851   -0.00699   -0.00126   -0.00277
AFIX   7
H5WA  2    0.654686    0.480069    0.259589    11.00000   -1.50000
H5WB  2    0.657961    0.504433    0.315520    11.00000   -1.50000
AFIX   0
O6W   4    0.541487    0.455009    0.373120    11.00000    0.06226    0.05566 =
         0.02857    0.00419    0.00255   -0.01627
AFIX   7
H6WA  2    0.517828    0.413088    0.376861    11.00000   -1.50000
H6WB  2    0.523476    0.494526    0.390112    11.00000   -1.50000
AFIX   0
PART -1
O28   4    0.491856    0.374580    0.291656    10.50000    0.00930    0.03242 =
         0.01007   -0.00156    0.00447   -0.00346
AFIX   7
H28A  2    0.467347    0.361833    0.321151    10.50000   -1.50000
H28B  2    0.513153    0.327507    0.284551    10.50000   -1.50000
AFIX   0
HKLF 4




REM  cu_Zn_0131_0m_a.res in P2(1)/n
REM wR2 = 0.1998, GooF = S = 1.070, Restrained GooF = 1.070 for all data
REM R1 = 0.0754 for 16641 Fo > 4sig(Fo) and 0.0763 for all 17042 data
REM 914 parameters refined using 24 restraints

END

WGHT      0.0774    107.9983

REM Highest difference peak  3.254,  deepest hole -2.986,  1-sigma level  0.175
Q1    1   0.7216  0.3696  1.0269  11.00000  0.05    3.25
Q2    1   0.7383 -0.0494  1.2317  11.00000  0.05    2.45
Q3    1   0.8202  0.6615  0.6524  11.00000  0.05    2.07
Q4    1   0.6973  0.3390  1.1620  11.00000  0.05    1.66
Q5    1   0.7421  0.8328  0.6428  11.00000  0.05    1.65
Q6    1   0.4452  0.4765  0.2077  11.00000  0.05    1.60
Q7    1   0.6663  0.6601  0.6586  11.00000  0.05    1.53
Q8    1   0.4567  0.5944  0.1956  11.00000  0.05    1.46
Q9    1   0.5392  0.2736  0.2799  11.00000  0.05    1.36
Q10   1   0.8440  0.3365  1.1521  11.00000  0.05    1.16
Q11   1   0.5573  0.4078  0.3529  11.00000  0.05    1.12
Q12   1   0.5467  0.4468  0.2360  11.00000  0.05    1.08
Q13   1   0.6159  0.5359  0.3108  11.00000  0.05    1.06
Q14   1   0.4823  0.6042  0.3741  11.00000  0.05    1.02
Q15   1   0.5179  0.4979  0.4352  11.00000  0.05    0.94
Q16   1   0.5202  0.6907  0.2663  11.00000  0.05    0.92
Q17   1   0.7729  0.1621  1.1427  11.00000  0.05    0.91
Q18   1   0.3815  0.3402  0.3439  11.00000  0.05    0.86
Q19   1   0.5257  0.6608  0.2871  11.00000  0.05    0.85
Q20   1   0.6748  0.8250  0.5942  11.00000  0.05    0.83
Q21   1   0.4253  0.3189  0.3395  11.00000  0.05    0.80
Q22   1   0.7776  0.3424  1.1480  11.00000  0.05    0.77
Q23   1   0.6674  0.3417  1.1465  11.00000  0.05    0.77
Q24   1   0.4013  0.1626  0.6604  11.00000  0.05    0.75
Q25   1   0.7186  0.0563  1.1417  11.00000  0.05    0.74
Q26   1   0.6805  0.1986  0.7650  11.00000  0.05    0.72
Q27   1   0.6564  0.8542  0.6466  11.00000  0.05    0.69
Q28   1   0.4471  0.6554  0.8493  11.00000  0.05    0.68
Q29   1   0.6177  0.3347  1.1497  11.00000  0.05    0.68
Q30   1   0.6203  0.4787  1.0745  11.00000  0.05    0.66
Q31   1   0.4600  0.7031  0.9267  11.00000  0.05    0.64
Q32   1   0.4397  0.1440  0.6537  11.00000  0.05    0.64
Q33   1   0.6218  0.4596  0.3318  11.00000  0.05    0.63
Q34   1   0.5801  0.2456  0.4977  11.00000  0.05    0.62
;
_shelx_res_checksum              52062
_shelx_fab_file
;
    4    0    0    162.04      0.00
   12    0    0     64.38      0.00
   14    0    0     25.40      0.00
   16    0    0      9.93      0.00
   18    0    0    -10.46      0.00
   20    0    0      1.02      0.00
   22    0    0     -5.06      0.00
   24    0    0    -14.68      0.00
   26    0    0     -6.54      0.00
    1    1    0   -214.11      0.00
    2    1    0     43.48      0.00
    3    1    0    -17.13      0.00
    4    1    0     56.32      0.00
    5    1    0    -50.64      0.00
    6    1    0    -10.82      0.00
    7    1    0     13.49      0.00
    8    1    0     -4.29      0.00
    9    1    0    -55.97      0.00
   10    1    0    -26.94      0.00
   11    1    0     -8.78      0.00
   12    1    0     -0.31      0.00
   13    1    0    -57.47      0.00
   14    1    0      4.00      0.00
   15    1    0    -17.63      0.00
   16    1    0      3.80      0.00
   17    1    0    -13.60      0.00
   18    1    0      4.41      0.00
   19    1    0     19.82      0.00
   20    1    0      0.50      0.00
   21    1    0      1.76      0.00
   22    1    0      2.96      0.00
   23    1    0     -2.95      0.00
   24    1    0      4.21      0.00
   25    1    0      2.88      0.00
   26    1    0      3.04      0.00
   27    1    0      4.42      0.00
    1    2    0     39.40      0.00
    2    2    0     61.86      0.00
    3    2    0    -19.06      0.00
    4    2    0    -93.35      0.00
    5    2    0     11.13      0.00
    6    2    0     -7.26      0.00
    7    2    0    -18.82      0.00
    8    2    0     51.04      0.00
    9    2    0     10.24      0.00
   10    2    0    -19.14      0.00
   11    2    0     18.51      0.00
   12    2    0     10.10      0.00
   13    2    0     -6.40      0.00
   14    2    0     15.43      0.00
   15    2    0     -7.03      0.00
   16    2    0     -4.18      0.00
   17    2    0     -0.48      0.00
   18    2    0     -5.92      0.00
   19    2    0      7.68      0.00
   20    2    0     -3.35      0.00
   21    2    0     10.14      0.00
   22    2    0     -2.36      0.00
   23    2    0      4.71      0.00
   24    2    0    -13.87      0.00
   25    2    0     -1.31      0.00
   27    2    0     -2.94      0.00
    1    3    0    -18.06      0.00
    2    3    0     -1.16      0.00
    3    3    0     35.88      0.00
    4    3    0      9.08      0.00
    5    3    0     38.67      0.00
    6    3    0    -79.16      0.00
    7    3    0    -35.83      0.00
    8    3    0      1.60      0.00
    9    3    0     14.02      0.00
   10    3    0    -48.43      0.00
   11    3    0     -0.55      0.00
   12    3    0     19.37      0.00
   13    3    0     11.57      0.00
   14    3    0    -10.49      0.00
   15    3    0    -27.52      0.00
   16    3    0     14.81      0.00
   17    3    0     -8.62      0.00
   18    3    0    -11.38      0.00
   19    3    0      2.12      0.00
   20    3    0      6.43      0.00
   21    3    0      5.54      0.00
   22    3    0     -7.40      0.00
   23    3    0     -3.23      0.00
   24    3    0      5.60      0.00
   26    3    0     -0.07      0.00
   27    3    0     -1.97      0.00
    1    4    0     35.48      0.00
    2    4    0     11.60      0.00
    3    4    0     -7.66      0.00
    4    4    0   -128.20      0.00
    5    4    0     -1.40      0.00
    6    4    0     43.10      0.00
    7    4    0    -43.32      0.00
    8    4    0     11.67      0.00
    9    4    0     -7.30      0.00
   10    4    0    -33.18      0.00
   11    4    0     20.04      0.00
   12    4    0    -16.78      0.00
   13    4    0      2.27      0.00
   14    4    0     28.52      0.00
   15    4    0     -2.82      0.00
   16    4    0      9.48      0.00
   17    4    0     -9.33      0.00
   18    4    0     15.42      0.00
   19    4    0     -3.75      0.00
   20    4    0      8.92      0.00
   21    4    0     -6.45      0.00
   22    4    0      5.49      0.00
   23    4    0      8.28      0.00
   24    4    0     -7.52      0.00
   25    4    0     -1.04      0.00
   26    4    0     -0.22      0.00
    1    5    0     19.50      0.00
    2    5    0     10.60      0.00
    3    5    0     46.81      0.00
    4    5    0     39.29      0.00
    5    5    0     36.39      0.00
    6    5    0     13.34      0.00
    7    5    0    -19.66      0.00
    8    5    0     85.78      0.00
    9    5    0    -12.22      0.00
   10    5    0      8.76      0.00
   11    5    0     20.27      0.00
   12    5    0     35.44      0.00
   13    5    0     15.36      0.00
   14    5    0    -11.63      0.00
   15    5    0     -3.91      0.00
   16    5    0     16.06      0.00
   17    5    0      1.76      0.00
   18    5    0    -11.03      0.00
   19    5    0     10.03      0.00
   20    5    0     13.02      0.00
   21    5    0      2.19      0.00
   22    5    0     -6.78      0.00
   23    5    0     -1.68      0.00
   24    5    0     -0.33      0.00
   25    5    0      3.03      0.00
   26    5    0     -4.59      0.00
    1    6    0      2.96      0.00
    2    6    0    -31.22      0.00
    3    6    0     41.49      0.00
    4    6    0    -72.41      0.00
    5    6    0      5.88      0.00
    6    6    0      6.46      0.00
    7    6    0      0.79      0.00
    8    6    0     26.49      0.00
    9    6    0    -16.23      0.00
   10    6    0    -34.80      0.00
   11    6    0     21.76      0.00
   12    6    0      8.05      0.00
   13    6    0    -15.61      0.00
   14    6    0     16.02      0.00
   15    6    0     -5.00      0.00
   16    6    0      3.09      0.00
   17    6    0    -10.60      0.00
   18    6    0    -11.65      0.00
   19    6    0     -1.86      0.00
   20    6    0     -0.13      0.00
   21    6    0     -5.26      0.00
   22    6    0     -3.55      0.00
   23    6    0      7.76      0.00
   24    6    0     -3.90      0.00
   25    6    0      4.83      0.00
   26    6    0     -1.02      0.00
    1    7    0    -44.14      0.00
    2    7    0      9.34      0.00
    3    7    0    -24.62      0.00
    4    7    0      8.63      0.00
    5    7    0     -0.17      0.00
    6    7    0     12.66      0.00
    7    7    0    -48.15      0.00
    8    7    0     29.17      0.00
    9    7    0    -32.03      0.00
   10    7    0     -3.53      0.00
   11    7    0     -4.92      0.00
   12    7    0     -3.00      0.00
   13    7    0     -1.16      0.00
   14    7    0      1.26      0.00
   15    7    0    -21.58      0.00
   16    7    0      0.05      0.00
   17    7    0     -1.62      0.00
   18    7    0     -1.46      0.00
   19    7    0     10.04      0.00
   20    7    0     -1.78      0.00
   21    7    0      5.67      0.00
   22    7    0     -3.13      0.00
   23    7    0      1.52      0.00
   24    7    0     -8.16      0.00
   25    7    0      2.90      0.00
    0    8    0     70.20      0.00
    1    8    0    -15.39      0.00
    2    8    0     83.13      0.00
    3    8    0      1.15      0.00
    4    8    0    -26.63      0.00
    5    8    0     -3.91      0.00
    6    8    0     73.14      0.00
    7    8    0     -2.69      0.00
    8    8    0     20.63      0.00
    9    8    0      0.67      0.00
   10    8    0     -9.76      0.00
   11    8    0     11.86      0.00
   12    8    0     -3.52      0.00
   13    8    0     -3.78      0.00
   14    8    0      8.36      0.00
   15    8    0     -9.42      0.00
   16    8    0     -4.41      0.00
   17    8    0      3.96      0.00
   18    8    0    -19.70      0.00
   19    8    0     -1.61      0.00
   20    8    0     -4.41      0.00
   21    8    0      2.95      0.00
   22    8    0     -7.60      0.00
   23    8    0      2.50      0.00
   24    8    0     -0.12      0.00
   25    8    0      2.59      0.00
    1    9    0     15.11      0.00
    2    9    0      1.02      0.00
    3    9    0     -6.01      0.00
    4    9    0     -7.98      0.00
    5    9    0      7.32      0.00
    6    9    0      6.84      0.00
    7    9    0    -56.01      0.00
    8    9    0     -3.36      0.00
    9    9    0    -22.85      0.00
   10    9    0    -18.23      0.00
   11    9    0    -12.13      0.00
   12    9    0    -13.08      0.00
   13    9    0      5.04      0.00
   14    9    0     -0.17      0.00
   15    9    0    -22.83      0.00
   16    9    0      4.23      0.00
   17    9    0      8.65      0.00
   18    9    0     -4.64      0.00
   19    9    0      8.30      0.00
   21    9    0     11.79      0.00
   22    9    0     -2.85      0.00
   23    9    0      3.05      0.00
   24    9    0     -0.39      0.00
    0   10    0      7.80      0.00
    1   10    0     -3.80      0.00
    2   10    0     52.21      0.00
    3   10    0     10.98      0.00
    4   10    0    -39.05      0.00
    5   10    0     18.90      0.00
    6   10    0     70.45      0.00
    7   10    0     -0.44      0.00
    8   10    0     11.43      0.00
    9   10    0      9.71      0.00
   10   10    0     13.72      0.00
   11   10    0      1.77      0.00
   12   10    0    -15.93      0.00
   13   10    0      6.15      0.00
   14   10    0     18.08      0.00
   15   10    0     -5.59      0.00
   16   10    0     -3.78      0.00
   17   10    0     12.11      0.00
   18   10    0     -1.60      0.00
   19   10    0      0.86      0.00
   20   10    0     -1.61      0.00
   21   10    0      6.39      0.00
   22   10    0     -0.18      0.00
   23   10    0      6.97      0.00
    1   11    0     -8.46      0.00
    2   11    0    -13.58      0.00
    3   11    0    -15.77      0.00
    4   11    0    -22.79      0.00
    5   11    0    -19.45      0.00
    6   11    0      5.66      0.00
    7   11    0    -26.49      0.00
    8   11    0     -8.97      0.00
    9   11    0    -25.35      0.00
   10   11    0     -9.27      0.00
   11   11    0      7.51      0.00
   12   11    0    -21.19      0.00
   13   11    0     -5.64      0.00
   14   11    0     -8.77      0.00
   15   11    0     -7.96      0.00
   16   11    0     -9.57      0.00
   17   11    0      2.45      0.00
   18   11    0     -0.15      0.00
   19   11    0      6.09      0.00
   20   11    0      1.44      0.00
   21   11    0     -5.53      0.00
   22   11    0      2.61      0.00
   23   11    0     -2.16      0.00
    0   12    0     20.20      0.00
    1   12    0    -18.64      0.00
    2   12    0      7.58      0.00
    3   12    0     19.70      0.00
    4   12    0    -19.09      0.00
    5   12    0    -13.63      0.00
    6   12    0     17.57      0.00
    7   12    0     -6.96      0.00
    8   12    0     10.97      0.00
    9   12    0    -18.12      0.00
   10   12    0     -1.09      0.00
   12   12    0     -4.22      0.00
   13   12    0     -2.45      0.00
   14   12    0      7.23      0.00
   15   12    0      6.45      0.00
   16   12    0      0.09      0.00
   17   12    0      7.58      0.00
   18   12    0     -7.33      0.00
   19   12    0      0.32      0.00
   20   12    0     -1.19      0.00
   21   12    0     -0.13      0.00
   22   12    0      3.37      0.00
    1   13    0     15.81      0.00
    2   13    0     -7.61      0.00
    3   13    0      8.32      0.00
    4   13    0    -12.24      0.00
    5   13    0     10.31      0.00
    6   13    0     18.26      0.00
    7   13    0      2.34      0.00
    8   13    0     -5.01      0.00
    9   13    0     -5.08      0.00
   10   13    0      9.89      0.00
   11   13    0      6.20      0.00
   12   13    0    -15.88      0.00
   13   13    0     -7.08      0.00
   15   13    0     -5.76      0.00
   16   13    0    -11.62      0.00
   17   13    0      6.42      0.00
   18   13    0      9.34      0.00
   19   13    0     14.42      0.00
   20   13    0     -4.88      0.00
   21   13    0     -1.89      0.00
    0   14    0     22.38      0.00
    1   14    0     -6.49      0.00
    2   14    0      7.27      0.00
    3   14    0     12.21      0.00
    4   14    0     -3.35      0.00
    5   14    0      5.01      0.00
    6   14    0      4.41      0.00
    7   14    0      3.13      0.00
    8   14    0     11.90      0.00
    9   14    0      1.80      0.00
   10   14    0     -1.80      0.00
   11   14    0      7.59      0.00
   12   14    0      6.56      0.00
   13   14    0      0.14      0.00
   14   14    0      4.69      0.00
   15   14    0     -0.45      0.00
   16   14    0      6.61      0.00
   17   14    0      2.38      0.00
   18   14    0     -7.41      0.00
   19   14    0      1.62      0.00
    1   15    0      2.56      0.00
    2   15    0     -1.70      0.00
    3   15    0     -3.17      0.00
    4   15    0      5.29      0.00
    5   15    0      1.10      0.00
    6   15    0     16.35      0.00
    7   15    0      3.12      0.00
    8   15    0      1.46      0.00
    9   15    0     -3.15      0.00
   10   15    0      5.38      0.00
   11   15    0      1.02      0.00
   12   15    0     -0.66      0.00
   13   15    0     -7.81      0.00
   14   15    0      0.94      0.00
   15   15    0    -11.66      0.00
   16   15    0      3.45      0.00
   17   15    0      1.49      0.00
   18   15    0      2.55      0.00
    0   16    0     23.86      0.00
    1   16    0      6.84      0.00
    2   16    0      2.47      0.00
    3   16    0    -14.35      0.00
    4   16    0      5.57      0.00
    5   16    0      6.49      0.00
    6   16    0      0.39      0.00
    7   16    0    -12.90      0.00
    8   16    0      5.34      0.00
    9   16    0      5.17      0.00
   10   16    0     -2.11      0.00
   11   16    0     -6.60      0.00
   12   16    0     -3.90      0.00
   13   16    0      0.71      0.00
   14   16    0      2.37      0.00
   15   16    0     -7.90      0.00
   16   16    0      1.88      0.00
    1   17    0      0.19      0.00
    2   17    0     -5.09      0.00
    3   17    0     -2.55      0.00
    4   17    0      3.97      0.00
    5   17    0     -8.68      0.00
    6   17    0      1.45      0.00
    7   17    0      4.72      0.00
    8   17    0     -6.28      0.00
    9   17    0     -7.30      0.00
   10   17    0     -2.54      0.00
   11   17    0      4.47      0.00
   12   17    0     -0.93      0.00
   13   17    0     -8.79      0.00
   14   17    0     -3.27      0.00
   15   17    0     -8.08      0.00
    0   18    0     19.93      0.00
    1   18    0      0.95      0.00
    2   18    0      4.20      0.00
    3   18    0     -3.30      0.00
    4   18    0      9.11      0.00
    5   18    0      0.31      0.00
    6   18    0      2.24      0.00
    7   18    0      1.85      0.00
    8   18    0      4.16      0.00
    9   18    0      3.05      0.00
   10   18    0     -2.18      0.00
   11   18    0      5.71      0.00
   12   18    0     -1.65      0.00
    1   19    0      0.98      0.00
    2   19    0     -6.34      0.00
    3   19    0     -5.09      0.00
    4   19    0      0.58      0.00
    5   19    0     -5.42      0.00
    6   19    0     -2.05      0.00
    7   19    0     -3.76      0.00
    8   19    0     -8.08      0.00
    9   19    0     -1.88      0.00
    0   20    0      3.89      0.00
    1   20    0      1.68      0.00
    2   20    0     -1.51      0.00
    3   20    0      0.03      0.00
    4   20    0     -2.41      0.00
  -27    0    1     -5.86      0.00
  -25    0    1      3.38      0.00
  -23    0    1      1.89      0.00
  -21    0    1     -4.50      0.00
  -19    0    1    -27.09      0.00
  -17    0    1      2.57      0.00
  -15    0    1    -19.04      0.00
  -13    0    1     21.15      0.00
  -11    0    1     33.38      0.00
   -9    0    1     54.47      0.00
   -7    0    1    -37.54      0.00
   -5    0    1     63.83      0.00
   -3    0    1     18.57      0.00
   -1    0    1     17.28      0.00
    1    0    1   -101.88      0.00
    3    0    1    -60.84      0.00
    5    0    1      7.59      0.00
    7    0    1     66.36      0.00
    9    0    1     91.11      0.00
   11    0    1    -39.89      0.00
   13    0    1     19.07      0.00
   15    0    1     12.14      0.00
   17    0    1     38.44      0.00
   19    0    1     -9.18      0.00
   21    0    1     11.22      0.00
   23    0    1     -1.77      0.00
   25    0    1      3.36      0.00
   27    0    1     -4.57      0.00
  -27    1    1     -0.18      0.00
  -26    1    1     -4.28      0.00
  -25    1    1     -1.90      0.00
  -24    1    1      4.33      0.00
  -23    1    1      6.03      0.00
  -22    1    1      1.45      0.00
  -21    1    1      3.98      0.00
  -20    1    1     15.57      0.00
  -19    1    1      8.81      0.00
  -18    1    1    -13.19      0.00
  -17    1    1     -3.22      0.00
  -16    1    1      4.46      0.00
  -15    1    1      6.19      0.00
  -14    1    1     -4.50      0.00
  -13    1    1    -11.75      0.00
  -12    1    1      4.65      0.00
  -11    1    1     10.60      0.00
  -10    1    1    -51.37      0.00
   -9    1    1    -39.64      0.00
   -8    1    1     44.69      0.00
   -7    1    1    -18.40      0.00
   -6    1    1     -3.83      0.00
   -5    1    1    -84.89      0.00
   -4    1    1     55.32      0.00
   -3    1    1     46.87      0.00
   -2    1    1      6.67      0.00
    0    1    1    -39.02      0.00
    2    1    1    -85.54      0.00
    3    1    1    -31.39      0.00
    4    1    1    -87.38      0.00
    6    1    1    -37.74      0.00
    7    1    1    -72.40      0.00
    8    1    1    -53.71      0.00
    9    1    1    -19.09      0.00
   10    1    1     14.06      0.00
   11    1    1    -17.41      0.00
   12    1    1     17.90      0.00
   13    1    1     -8.33      0.00
   14    1    1     14.32      0.00
   15    1    1     -7.64      0.00
   16    1    1     -3.63      0.00
   17    1    1     -9.80      0.00
   18    1    1     -2.59      0.00
   19    1    1    -12.07      0.00
   20    1    1     -9.01      0.00
   21    1    1     -3.02      0.00
   22    1    1     -9.04      0.00
   23    1    1     -2.12      0.00
   24    1    1      1.36      0.00
   25    1    1     -0.08      0.00
   26    1    1      3.86      0.00
   27    1    1     -1.92      0.00
  -27    2    1     -3.56      0.00
  -26    2    1     -0.51      0.00
  -25    2    1      0.24      0.00
  -24    2    1     -3.35      0.00
  -23    2    1      6.01      0.00
  -22    2    1     -0.20      0.00
  -21    2    1     -6.82      0.00
  -20    2    1      2.68      0.00
  -19    2    1     -3.82      0.00
  -18    2    1     18.12      0.00
  -17    2    1     12.38      0.00
  -16    2    1     -1.05      0.00
  -15    2    1     12.31      0.00
  -14    2    1     -5.67      0.00
  -13    2    1     23.88      0.00
  -12    2    1    -21.04      0.00
  -11    2    1     55.34      0.00
  -10    2    1     -8.67      0.00
   -9    2    1     63.58      0.00
   -8    2    1    -36.74      0.00
   -7    2    1    -18.79      0.00
   -6    2    1    -39.26      0.00
   -5    2    1     13.38      0.00
   -4    2    1    -51.63      0.00
   -3    2    1    -12.92      0.00
   -2    2    1   -126.55      0.00
   -1    2    1      4.34      0.00
    0    2    1    -15.98      0.00
    1    2    1    -16.17      0.00
    2    2    1   -113.50      0.00
    3    2    1     21.23      0.00
    4    2    1    -10.53      0.00
    5    2    1     42.94      0.00
    6    2    1     -3.44      0.00
    7    2    1     52.01      0.00
    8    2    1     69.21      0.00
    9    2    1     39.84      0.00
   10    2    1      4.78      0.00
   11    2    1    -59.22      0.00
   12    2    1     20.56      0.00
   13    2    1    -25.02      0.00
   14    2    1      1.51      0.00
   15    2    1      1.08      0.00
   16    2    1     28.28      0.00
   17    2    1     10.29      0.00
   18    2    1     28.16      0.00
   19    2    1    -10.56      0.00
   20    2    1     24.32      0.00
   21    2    1     -0.41      0.00
   22    2    1      4.45      0.00
   23    2    1      2.44      0.00
   24    2    1     -2.51      0.00
   25    2    1      4.69      0.00
   27    2    1     -2.63      0.00
  -27    3    1     -0.84      0.00
  -26    3    1      1.85      0.00
  -25    3    1     -4.30      0.00
  -24    3    1      0.57      0.00
  -23    3    1      1.61      0.00
  -22    3    1      2.65      0.00
  -21    3    1     -1.68      0.00
  -20    3    1      0.29      0.00
  -19    3    1      0.87      0.00
  -18    3    1    -13.66      0.00
  -17    3    1     -1.83      0.00
  -16    3    1      0.01      0.00
  -15    3    1     15.70      0.00
  -14    3    1      3.36      0.00
  -13    3    1     17.28      0.00
  -12    3    1    -11.49      0.00
  -11    3    1     31.22      0.00
  -10    3    1    -54.33      0.00
   -9    3    1     28.00      0.00
   -8    3    1    -12.45      0.00
   -7    3    1      0.97      0.00
   -6    3    1    -29.16      0.00
   -5    3    1      4.04      0.00
   -4    3    1    -13.76      0.00
   -3    3    1      7.03      0.00
   -2    3    1     -1.50      0.00
   -1    3    1     64.69      0.00
    0    3    1     -9.27      0.00
    1    3    1    -60.61      0.00
    2    3    1    -26.98      0.00
    3    3    1     57.83      0.00
    4    3    1    -28.33      0.00
    5    3    1    -73.54      0.00
    6    3    1    -12.24      0.00
    7    3    1     35.95      0.00
    8    3    1     -5.73      0.00
    9    3    1     22.51      0.00
   10    3    1     33.66      0.00
   11    3    1     32.76      0.00
   12    3    1     22.57      0.00
   13    3    1     -8.69      0.00
   14    3    1      4.77      0.00
   15    3    1      4.74      0.00
   16    3    1    -14.33      0.00
   17    3    1    -15.77      0.00
   18    3    1      2.55      0.00
   19    3    1    -19.79      0.00
   20    3    1     -6.05      0.00
   21    3    1    -10.30      0.00
   22    3    1     -1.12      0.00
   23    3    1     -4.89      0.00
   24    3    1     -5.45      0.00
   25    3    1     -2.17      0.00
   26    3    1      0.17      0.00
  -26    4    1      2.22      0.00
  -25    4    1      4.97      0.00
  -24    4    1      1.26      0.00
  -23    4    1     11.33      0.00
  -22    4    1     -3.64      0.00
  -21    4    1      0.56      0.00
  -20    4    1     -1.71      0.00
  -19    4    1     -0.26      0.00
  -18    4    1     -5.82      0.00
  -17    4    1      8.72      0.00
  -16    4    1     -8.43      0.00
  -15    4    1     -1.53      0.00
  -14    4    1    -27.15      0.00
  -13    4    1     -8.59      0.00
  -12    4    1     33.88      0.00
  -11    4    1     22.35      0.00
  -10    4    1     -1.12      0.00
   -9    4    1     41.58      0.00
   -8    4    1     29.62      0.00
   -7    4    1      7.96      0.00
   -6    4    1    -48.07      0.00
   -5    4    1     -8.11      0.00
   -4    4    1      6.80      0.00
   -3    4    1     11.38      0.00
   -2    4    1    -70.16      0.00
   -1    4    1     -9.69      0.00
    0    4    1     95.05      0.00
    1    4    1     19.19      0.00
    2    4    1      6.79      0.00
    3    4    1      0.76      0.00
    4    4    1    -10.76      0.00
    5    4    1     -4.03      0.00
    6    4    1     55.35      0.00
    7    4    1      8.59      0.00
    8    4    1     34.22      0.00
    9    4    1     22.73      0.00
   10    4    1     50.47      0.00
   11    4    1    -21.34      0.00
   12    4    1      1.58      0.00
   13    4    1     -7.29      0.00
   14    4    1     20.36      0.00
   15    4    1     18.61      0.00
   16    4    1     -3.50      0.00
   17    4    1     11.80      0.00
   18    4    1     23.82      0.00
   19    4    1    -12.64      0.00
   20    4    1     14.52      0.00
   21    4    1     -9.49      0.00
   22    4    1     11.63      0.00
   23    4    1     -1.10      0.00
   24    4    1     -2.52      0.00
   25    4    1      2.68      0.00
   26    4    1      1.56      0.00
  -26    5    1     -1.16      0.00
  -25    5    1     -5.25      0.00
  -24    5    1     -3.89      0.00
  -23    5    1      2.74      0.00
  -22    5    1      3.62      0.00
  -21    5    1      6.99      0.00
  -20    5    1     -0.93      0.00
  -19    5    1      7.31      0.00
  -18    5    1     -6.30      0.00
  -17    5    1     12.16      0.00
  -16    5    1    -19.44      0.00
  -15    5    1     -1.19      0.00
  -14    5    1     -5.81      0.00
  -13    5    1      0.05      0.00
  -12    5    1    -42.63      0.00
  -11    5    1    -43.14      0.00
  -10    5    1    -20.55      0.00
   -9    5    1     15.06      0.00
   -8    5    1    -13.27      0.00
   -7    5    1    -42.38      0.00
   -6    5    1      8.17      0.00
   -5    5    1     81.13      0.00
   -4    5    1    -49.82      0.00
   -3    5    1    -41.17      0.00
   -2    5    1    -35.94      0.00
   -1    5    1     62.66      0.00
    0    5    1    -24.02      0.00
    1    5    1   -163.74      0.00
    2    5    1    -15.81      0.00
    3    5    1     72.44      0.00
    4    5    1     -7.29      0.00
    5    5    1   -114.91      0.00
    6    5    1    -22.97      0.00
    7    5    1     34.15      0.00
    8    5    1     -1.13      0.00
    9    5    1    -41.47      0.00
   10    5    1     26.64      0.00
   11    5    1     -1.49      0.00
   12    5    1     23.52      0.00
   13    5    1    -48.52      0.00
   14    5    1     11.02      0.00
   15    5    1     11.95      0.00
   16    5    1     -3.45      0.00
   17    5    1     -2.88      0.00
   18    5    1      1.73      0.00
   19    5    1      2.46      0.00
   20    5    1     -0.18      0.00
   21    5    1      1.69      0.00
   22    5    1     -2.95      0.00
   23    5    1      2.41      0.00
   24    5    1      0.00      0.00
   25    5    1     -0.94      0.00
   26    5    1     -0.25      0.00
  -26    6    1      5.12      0.00
  -25    6    1      7.20      0.00
  -24    6    1     -2.51      0.00
  -23    6    1     10.05      0.00
  -22    6    1     -9.39      0.00
  -21    6    1      1.55      0.00
  -20    6    1    -13.46      0.00
  -19    6    1     -3.76      0.00
  -18    6    1     -6.74      0.00
  -17    6    1     23.85      0.00
  -16    6    1    -21.11      0.00
  -15    6    1     22.22      0.00
  -14    6    1    -25.17      0.00
  -13    6    1     14.81      0.00
  -12    6    1      5.76      0.00
  -11    6    1     16.35      0.00
  -10    6    1     -7.27      0.00
   -9    6    1      9.12      0.00
   -8    6    1    -14.76      0.00
   -7    6    1     -8.17      0.00
   -6    6    1    -29.94      0.00
   -5    6    1    -32.12      0.00
   -4    6    1    -10.00      0.00
   -3    6    1     34.48      0.00
   -2    6    1    -31.60      0.00
   -1    6    1     -0.21      0.00
    0    6    1     87.09      0.00
    1    6    1     14.44      0.00
    2    6    1      5.37      0.00
    3    6    1    -32.32      0.00
    4    6    1    -28.29      0.00
    5    6    1    -46.32      0.00
    6    6    1    -19.02      0.00
    7    6    1     -0.96      0.00
    8    6    1     -6.79      0.00
    9    6    1     24.09      0.00
   10    6    1    -23.62      0.00
   11    6    1      1.34      0.00
   12    6    1    -15.43      0.00
   13    6    1    -19.81      0.00
   14    6    1     -4.29      0.00
   15    6    1     -0.31      0.00
   16    6    1     -8.05      0.00
   17    6    1     -0.08      0.00
   18    6    1      2.56      0.00
   19    6    1     -9.22      0.00
   20    6    1      2.04      0.00
   21    6    1     -3.56      0.00
   22    6    1     -1.72      0.00
   23    6    1      5.25      0.00
   24    6    1     -5.54      0.00
   25    6    1     -1.32      0.00
   26    6    1      1.30      0.00
  -25    7    1     -4.48      0.00
  -24    7    1     -5.93      0.00
  -23    7    1      2.84      0.00
  -22    7    1      4.23      0.00
  -21    7    1      5.55      0.00
  -20    7    1      4.40      0.00
  -19    7    1      7.82      0.00
  -18    7    1      4.57      0.00
  -17    7    1      0.80      0.00
  -16    7    1      2.23      0.00
  -15    7    1      7.49      0.00
  -14    7    1      8.90      0.00
  -13    7    1      2.12      0.00
  -12    7    1     -4.55      0.00
  -11    7    1     -0.22      0.00
  -10    7    1     12.27      0.00
   -9    7    1      8.89      0.00
   -8    7    1     24.03      0.00
   -7    7    1     14.79      0.00
   -6    7    1      0.54      0.00
   -5    7    1     48.34      0.00
   -4    7    1    -58.45      0.00
   -3    7    1     47.83      0.00
   -2    7    1    -98.68      0.00
   -1    7    1      9.05      0.00
    0    7    1    -34.61      0.00
    1    7    1    -13.12      0.00
    2    7    1    -40.07      0.00
    3    7    1     43.20      0.00
    4    7    1     10.40      0.00
    5    7    1     -6.77      0.00
    6    7    1    -61.51      0.00
    7    7    1      5.22      0.00
    8    7    1    -13.98      0.00
    9    7    1     13.62      0.00
   10    7    1    -36.33      0.00
   11    7    1      7.32      0.00
   12    7    1     -0.85      0.00
   13    7    1     -8.52      0.00
   14    7    1    -15.69      0.00
   15    7    1      8.86      0.00
   16    7    1      7.27      0.00
   17    7    1      0.61      0.00
   18    7    1      1.19      0.00
   19    7    1     -6.95      0.00
   20    7    1      8.20      0.00
   21    7    1      0.33      0.00
   22    7    1     -0.35      0.00
   23    7    1      3.61      0.00
   24    7    1      4.34      0.00
   25    7    1     -2.60      0.00
  -25    8    1     -1.47      0.00
  -24    8    1     -3.10      0.00
  -23    8    1      7.28      0.00
  -22    8    1     -5.05      0.00
  -20    8    1     -7.67      0.00
  -19    8    1     -2.92      0.00
  -18    8    1     11.62      0.00
  -17    8    1     -1.90      0.00
  -16    8    1     -7.46      0.00
  -15    8    1     21.66      0.00
  -14    8    1     -1.87      0.00
  -13    8    1    -10.02      0.00
  -12    8    1      9.93      0.00
  -11    8    1     14.13      0.00
  -10    8    1     13.90      0.00
   -9    8    1     -0.83      0.00
   -8    8    1     -4.69      0.00
   -7    8    1     12.70      0.00
   -6    8    1     22.59      0.00
   -5    8    1    -15.39      0.00
   -4    8    1      1.09      0.00
   -3    8    1     45.37      0.00
   -2    8    1    -14.20      0.00
   -1    8    1      9.70      0.00
    0    8    1     31.72      0.00
    1    8    1      6.94      0.00
    2    8    1     -7.51      0.00
    3    8    1    -23.76      0.00
    4    8    1     -5.78      0.00
    5    8    1    -49.32      0.00
    6    8    1     -3.24      0.00
    7    8    1      9.75      0.00
    8    8    1     33.32      0.00
    9    8    1     21.07      0.00
   10    8    1    -16.32      0.00
   11    8    1     40.35      0.00
   12    8    1      8.57      0.00
   13    8    1    -12.15      0.00
   14    8    1     -5.82      0.00
   15    8    1     28.15      0.00
   16    8    1      3.97      0.00
   17    8    1     -2.30      0.00
   18    8    1     -3.59      0.00
   19    8    1     10.81      0.00
   20    8    1     11.81      0.00
   21    8    1     -6.78      0.00
   22    8    1     -2.63      0.00
   23    8    1     11.83      0.00
   24    8    1     -0.03      0.00
   25    8    1     -4.76      0.00
  -24    9    1     -3.16      0.00
  -23    9    1      1.16      0.00
  -22    9    1      4.31      0.00
  -21    9    1      2.54      0.00
  -20    9    1     -3.70      0.00
  -19    9    1      7.49      0.00
  -18    9    1     -1.10      0.00
  -17    9    1     -3.29      0.00
  -16    9    1     -3.40      0.00
  -15    9    1     12.69      0.00
  -14    9    1      5.42      0.00
  -13    9    1      1.39      0.00
  -12    9    1     -4.35      0.00
  -11    9    1      2.19      0.00
  -10    9    1      8.85      0.00
   -9    9    1    -12.81      0.00
   -8    9    1      6.10      0.00
   -7    9    1     -7.75      0.00
   -6    9    1      0.92      0.00
   -5    9    1     16.83      0.00
   -4    9    1    -36.83      0.00
   -3    9    1     22.07      0.00
   -2    9    1    -59.13      0.00
   -1    9    1    -22.42      0.00
    0    9    1    -43.82      0.00
    1    9    1      6.62      0.00
    2    9    1    -47.73      0.00
    3    9    1     17.75      0.00
    4    9    1    -24.92      0.00
    5    9    1      2.47      0.00
    6    9    1    -53.27      0.00
    7    9    1    -33.86      0.00
    8    9    1     -8.94      0.00
    9    9    1     10.28      0.00
   10    9    1    -19.88      0.00
   11    9    1     -8.72      0.00
   12    9    1      2.50      0.00
   13    9    1     13.45      0.00
   14    9    1     -3.66      0.00
   15    9    1      2.47      0.00
   16    9    1     12.11      0.00
   17    9    1      6.56      0.00
   18    9    1      7.63      0.00
   19    9    1    -16.31      0.00
   20    9    1     11.22      0.00
   21    9    1     -0.89      0.00
   22    9    1      5.69      0.00
   23    9    1      0.71      0.00
   24    9    1      2.41      0.00
  -23   10    1      3.12      0.00
  -22   10    1     -0.99      0.00
  -21   10    1     -3.82      0.00
  -20   10    1      4.81      0.00
  -19   10    1     -0.09      0.00
  -18   10    1      9.95      0.00
  -17   10    1      0.32      0.00
  -16   10    1     -2.50      0.00
  -15   10    1     10.01      0.00
  -14   10    1    -15.57      0.00
  -13   10    1     -9.26      0.00
  -12   10    1      0.72      0.00
  -11   10    1     11.79      0.00
  -10   10    1    -11.34      0.00
   -9   10    1     12.05      0.00
   -8   10    1    -18.13      0.00
   -7   10    1     15.26      0.00
   -6   10    1     -0.43      0.00
   -5   10    1     -5.73      0.00
   -4   10    1    -12.84      0.00
   -3   10    1     29.29      0.00
   -2   10    1    -11.43      0.00
   -1   10    1      9.95      0.00
    0   10    1     -7.84      0.00
    1   10    1     11.08      0.00
    2   10    1     -0.49      0.00
    3   10    1      5.94      0.00
    4   10    1    -36.47      0.00
    5   10    1    -12.18      0.00
    6   10    1      1.16      0.00
    7   10    1      3.87      0.00
    8   10    1      3.57      0.00
    9   10    1     10.36      0.00
   10   10    1     -0.22      0.00
   11   10    1     18.58      0.00
   12   10    1      0.59      0.00
   13   10    1     -2.49      0.00
   14   10    1      5.13      0.00
   15   10    1     17.52      0.00
   16   10    1     -4.42      0.00
   17   10    1      2.22      0.00
   18   10    1      0.54      0.00
   19   10    1     -4.12      0.00
   20   10    1     10.13      0.00
   21   10    1     -7.49      0.00
   22   10    1      4.11      0.00
   23   10    1      3.20      0.00
  -23   11    1     -4.90      0.00
  -22   11    1      3.62      0.00
  -21   11    1      0.83      0.00
  -20   11    1      0.08      0.00
  -19   11    1     -0.18      0.00
  -18   11    1      6.37      0.00
  -17   11    1      6.93      0.00
  -16   11    1     -1.31      0.00
  -15   11    1      4.44      0.00
  -14   11    1     15.23      0.00
  -13   11    1     13.96      0.00
  -12   11    1     -7.79      0.00
  -11   11    1     -4.98      0.00
  -10   11    1     16.34      0.00
   -9   11    1      0.81      0.00
   -8   11    1    -20.74      0.00
   -7   11    1    -15.93      0.00
   -6   11    1     10.47      0.00
   -5   11    1     21.88      0.00
   -4   11    1    -25.80      0.00
   -3   11    1     -5.75      0.00
   -2   11    1      6.64      0.00
   -1   11    1    -25.80      0.00
    0   11    1    -30.30      0.00
    1   11    1    -14.58      0.00
    2   11    1      9.48      0.00
    3   11    1      7.69      0.00
    4   11    1    -20.35      0.00
    5   11    1     -8.48      0.00
    6   11    1      5.85      0.00
    7   11    1    -20.18      0.00
    8   11    1     -6.18      0.00
    9   11    1     -2.45      0.00
   11   11    1     -7.74      0.00
   12   11    1    -16.20      0.00
   13   11    1     -1.34      0.00
   14   11    1     -3.61      0.00
   15   11    1      9.38      0.00
   16   11    1     -7.93      0.00
   17   11    1      4.11      0.00
   18   11    1     -8.11      0.00
   19   11    1     -7.72      0.00
   20   11    1      1.68      0.00
   21   11    1     -2.76      0.00
   22   11    1      0.36      0.00
  -22   12    1     -3.29      0.00
  -21   12    1      2.00      0.00
  -20   12    1     -0.97      0.00
  -19   12    1     -2.59      0.00
  -18   12    1     10.60      0.00
  -17   12    1      4.89      0.00
  -16   12    1     -2.11      0.00
  -15   12    1      3.11      0.00
  -14   12    1     -1.82      0.00
  -13   12    1     -0.61      0.00
  -12   12    1      0.06      0.00
  -11   12    1     -0.05      0.00
  -10   12    1     15.09      0.00
   -9   12    1     13.18      0.00
   -8   12    1    -10.08      0.00
   -7   12    1     -1.13      0.00
   -6   12    1     20.14      0.00
   -5   12    1     -2.59      0.00
   -4   12    1     -2.32      0.00
   -3   12    1     10.99      0.00
   -2   12    1     22.09      0.00
   -1   12    1     12.07      0.00
    0   12    1     10.82      0.00
    1   12    1      1.44      0.00
    2   12    1     23.74      0.00
    3   12    1     11.43      0.00
    4   12    1     -8.09      0.00
    5   12    1      0.75      0.00
    6   12    1     11.97      0.00
    7   12    1     -3.53      0.00
    8   12    1     22.36      0.00
    9   12    1     10.25      0.00
   10   12    1     12.84      0.00
   11   12    1      4.76      0.00
   12   12    1     16.11      0.00
   13   12    1      1.88      0.00
   14   12    1     11.24      0.00
   15   12    1      3.44      0.00
   16   12    1     -0.03      0.00
   17   12    1      7.69      0.00
   18   12    1     -3.36      0.00
   19   12    1     -8.23      0.00
   20   12    1      2.40      0.00
   21   12    1     -2.05      0.00
   22   12    1     -1.10      0.00
  -21   13    1      2.13      0.00
  -20   13    1     -3.24      0.00
  -19   13    1     -2.52      0.00
  -18   13    1    -10.37      0.00
  -17   13    1     -1.11      0.00
  -15   13    1     -1.65      0.00
  -14   13    1    -12.63      0.00
  -13   13    1      5.59      0.00
  -12   13    1     -8.37      0.00
  -11   13    1      6.06      0.00
  -10   13    1     -4.73      0.00
   -9   13    1     -1.94      0.00
   -8   13    1     -9.47      0.00
   -7   13    1      7.44      0.00
   -6   13    1     -5.69      0.00
   -5   13    1     13.01      0.00
   -4   13    1     -1.28      0.00
   -3   13    1     14.19      0.00
   -2   13    1      3.32      0.00
   -1   13    1    -27.86      0.00
    0   13    1     -6.26      0.00
    1   13    1     10.17      0.00
    2   13    1     14.71      0.00
    3   13    1     -5.19      0.00
    4   13    1      1.35      0.00
    5   13    1      8.92      0.00
    6   13    1      9.42      0.00
    7   13    1    -11.91      0.00
    8   13    1     11.79      0.00
    9   13    1      6.70      0.00
   10   13    1      6.99      0.00
   11   13    1    -10.37      0.00
   12   13    1      2.59      0.00
   15   13    1      4.88      0.00
   16   13    1      5.55      0.00
   17   13    1      2.23      0.00
   18   13    1     -2.93      0.00
   19   13    1     -4.42      0.00
   20   13    1     -0.44      0.00
  -19   14    1      2.39      0.00
  -18   14    1      8.32      0.00
  -17   14    1     -0.26      0.00
  -16   14    1     -1.77      0.00
  -15   14    1      8.49      0.00
  -14   14    1     -5.79      0.00
  -13   14    1     -0.89      0.00
  -12   14    1     -6.75      0.00
  -11   14    1      4.09      0.00
  -10   14    1      3.25      0.00
   -9   14    1     14.08      0.00
   -8   14    1     -8.45      0.00
   -7   14    1      4.57      0.00
   -6   14    1      5.86      0.00
   -5   14    1      4.05      0.00
   -4   14    1      0.73      0.00
   -3   14    1      6.71      0.00
   -2   14    1     13.53      0.00
   -1   14    1     14.45      0.00
    0   14    1      1.31      0.00
    1   14    1    -11.73      0.00
    2   14    1      9.67      0.00
    3   14    1      8.06      0.00
    4   14    1    -15.39      0.00
    5   14    1     -7.19      0.00
    6   14    1     -5.39      0.00
    7   14    1     -3.15      0.00
    8   14    1     -1.94      0.00
    9   14    1      0.67      0.00
   10   14    1     -4.81      0.00
   11   14    1      8.38      0.00
   12   14    1     -2.90      0.00
   13   14    1     -9.29      0.00
   14   14    1     -0.63      0.00
   15   14    1      3.94      0.00
   16   14    1     -0.56      0.00
   17   14    1      0.65      0.00
   18   14    1     -0.83      0.00
   19   14    1     -0.38      0.00
  -18   15    1     -5.08      0.00
  -17   15    1     -4.49      0.00
  -16   15    1      1.83      0.00
  -15   15    1      1.74      0.00
  -14   15    1     -7.32      0.00
  -13   15    1     -0.60      0.00
  -12   15    1      4.73      0.00
  -11   15    1      9.29      0.00
  -10   15    1     -3.76      0.00
   -9   15    1    -11.99      0.00
   -8   15    1      1.08      0.00
   -7   15    1      3.09      0.00
   -6   15    1    -13.08      0.00
   -5   15    1      1.18      0.00
   -4   15    1      7.07      0.00
   -3   15    1      3.47      0.00
   -2   15    1     -6.65      0.00
   -1   15    1    -23.11      0.00
    0   15    1     -4.15      0.00
    1   15    1      6.64      0.00
    2   15    1      0.37      0.00
    3   15    1    -11.52      0.00
    4   15    1     -5.02      0.00
    5   15    1     -0.27      0.00
    6   15    1     -5.85      0.00
    8   15    1      5.63      0.00
    9   15    1      4.69      0.00
   10   15    1     -2.52      0.00
   11   15    1    -11.83      0.00
   12   15    1     -2.38      0.00
   13   15    1      3.71      0.00
   14   15    1      2.87      0.00
   15   15    1     -1.49      0.00
   16   15    1     -1.20      0.00
   17   15    1      2.87      0.00
   18   15    1     -4.79      0.00
  -16   16    1      1.73      0.00
  -15   16    1      3.03      0.00
  -14   16    1     -6.80      0.00
  -13   16    1      4.41      0.00
  -12   16    1     -2.51      0.00
  -11   16    1      4.10      0.00
  -10   16    1     -3.69      0.00
   -9   16    1     17.21      0.00
   -8   16    1      0.14      0.00
   -7   16    1      4.31      0.00
   -6   16    1     -2.54      0.00
   -5   16    1      1.49      0.00
   -4   16    1      7.03      0.00
   -3   16    1      1.68      0.00
   -2   16    1      7.90      0.00
   -1   16    1      8.47      0.00
    0   16    1      0.78      0.00
    1   16    1     -7.95      0.00
    2   16    1      6.66      0.00
    3   16    1      8.06      0.00
    4   16    1     -7.57      0.00
    5   16    1      3.97      0.00
    6   16    1      1.65      0.00
    7   16    1     -6.53      0.00
    8   16    1     -1.50      0.00
    9   16    1      2.00      0.00
   10   16    1      2.07      0.00
   11   16    1     -1.99      0.00
   12   16    1     -6.58      0.00
   13   16    1     -3.22      0.00
   14   16    1      1.35      0.00
   15   16    1     -2.35      0.00
   16   16    1     -3.70      0.00
  -15   17    1      2.33      0.00
  -14   17    1      0.14      0.00
  -13   17    1      5.26      0.00
  -12   17    1     -0.38      0.00
  -11   17    1     10.05      0.00
  -10   17    1      4.15      0.00
   -9   17    1     -1.06      0.00
   -8   17    1     -5.57      0.00
   -7   17    1      8.34      0.00
   -6   17    1     -0.27      0.00
   -5   17    1      7.52      0.00
   -4   17    1     -1.88      0.00
   -3   17    1      5.84      0.00
   -2   17    1      4.92      0.00
   -1   17    1     -8.16      0.00
    0   17    1    -15.24      0.00
    1   17    1     11.22      0.00
    2   17    1      2.41      0.00
    3   17    1     -2.02      0.00
    4   17    1    -21.62      0.00
    5   17    1     -0.27      0.00
    6   17    1     -2.70      0.00
    7   17    1      0.72      0.00
    8   17    1     -5.51      0.00
    9   17    1      4.70      0.00
   10   17    1      4.79      0.00
   11   17    1      1.34      0.00
   12   17    1     -5.96      0.00
   13   17    1      0.20      0.00
   14   17    1      4.98      0.00
  -12   18    1     -3.76      0.00
  -11   18    1     -5.57      0.00
  -10   18    1      0.41      0.00
   -9   18    1      8.14      0.00
   -8   18    1     -6.04      0.00
   -7   18    1     -1.90      0.00
   -6   18    1     -8.41      0.00
   -5   18    1     -0.83      0.00
   -4   18    1     -5.55      0.00
   -3   18    1     -1.51      0.00
   -2   18    1     -3.69      0.00
   -1   18    1      0.46      0.00
    0   18    1     -5.35      0.00
    1   18    1     -3.68      0.00
    2   18    1     -5.14      0.00
    3   18    1      5.75      0.00
    4   18    1     -2.78      0.00
    5   18    1      9.68      0.00
    6   18    1     -5.68      0.00
    7   18    1     -4.75      0.00
    8   18    1      2.81      0.00
    9   18    1      8.42      0.00
   10   18    1      0.54      0.00
   11   18    1      1.27      0.00
   12   18    1      0.26      0.00
   -9   19    1     -4.85      0.00
   -8   19    1      2.24      0.00
   -7   19    1      1.84      0.00
   -6   19    1     -1.50      0.00
   -5   19    1      3.79      0.00
   -4   19    1      4.07      0.00
   -3   19    1     -1.08      0.00
   -2   19    1      0.79      0.00
   -1   19    1     -6.92      0.00
    0   19    1     -3.91      0.00
    1   19    1      0.75      0.00
    2   19    1     -4.38      0.00
    3   19    1     -3.63      0.00
    4   19    1     -9.08      0.00
    5   19    1     -5.34      0.00
    6   19    1     -5.64      0.00
    7   19    1      2.59      0.00
    8   19    1      0.66      0.00
    9   19    1     -1.16      0.00
   -4   20    1      1.48      0.00
   -3   20    1      1.69      0.00
   -2   20    1      1.89      0.00
   -1   20    1     -1.24      0.00
    0   20    1      2.32      0.00
    1   20    1     -2.95      0.00
    2   20    1      1.56      0.00
    3   20    1      2.31      0.00
    4   20    1      1.53      0.00
  -26    0    2      2.75      0.00
  -24    0    2      5.80      0.00
  -22    0    2     -4.51      0.00
  -20    0    2     -0.87      0.00
  -18    0    2    -26.57      0.00
  -16    0    2      8.79      0.00
  -14    0    2    -18.26      0.00
  -12    0    2    -39.23      0.00
  -10    0    2   -117.44      0.00
   -8    0    2     71.59      0.00
   -4    0    2     20.98      0.00
   -2    0    2   -132.03      0.00
    4    0    2     83.94      0.00
    6    0    2     50.75      0.00
    8    0    2    139.75      0.00
   10    0    2    -34.21      0.00
   12    0    2     12.72      0.00
   14    0    2      4.84      0.00
   16    0    2     -7.72      0.00
   18    0    2    -29.55      0.00
   20    0    2      8.35      0.00
   22    0    2      2.53      0.00
   24    0    2     -6.84      0.00
   26    0    2     -0.01      0.00
  -26    1    2      1.86      0.00
  -25    1    2      3.02      0.00
  -24    1    2      5.55      0.00
  -23    1    2    -13.28      0.00
  -22    1    2     -2.03      0.00
  -21    1    2     -4.88      0.00
  -20    1    2     -0.45      0.00
  -19    1    2     12.86      0.00
  -18    1    2    -12.17      0.00
  -17    1    2      2.77      0.00
  -16    1    2      2.17      0.00
  -15    1    2      3.29      0.00
  -14    1    2      3.22      0.00
  -13    1    2     22.94      0.00
  -12    1    2     10.62      0.00
  -11    1    2     44.82      0.00
  -10    1    2    -18.21      0.00
   -9    1    2    -60.51      0.00
   -8    1    2    -11.17      0.00
   -6    1    2      1.18      0.00
   -4    1    2     38.93      0.00
   -3    1    2    -96.23      0.00
   -2    1    2     39.77      0.00
   -1    1    2     -4.80      0.00
    0    1    2     -1.98      0.00
    2    1    2    -26.69      0.00
    3    1    2    108.28      0.00
    4    1    2    -26.38      0.00
    6    1    2     -9.73      0.00
    8    1    2     -1.16      0.00
    9    1    2    -23.46      0.00
   10    1    2      7.72      0.00
   11    1    2     17.28      0.00
   12    1    2      4.71      0.00
   13    1    2      2.54      0.00
   14    1    2     -2.92      0.00
   15    1    2     -9.46      0.00
   16    1    2    -11.70      0.00
   17    1    2      0.46      0.00
   18    1    2     -6.59      0.00
   19    1    2      9.14      0.00
   20    1    2     -8.11      0.00
   21    1    2     -4.38      0.00
   22    1    2     -2.76      0.00
   23    1    2     -3.98      0.00
   24    1    2     -0.65      0.00
   25    1    2     -1.39      0.00
   26    1    2     -2.89      0.00
   27    1    2     -0.32      0.00
  -27    2    2     -0.59      0.00
  -26    2    2     -0.06      0.00
  -25    2    2      1.00      0.00
  -24    2    2      2.61      0.00
  -23    2    2      3.30      0.00
  -22    2    2      6.88      0.00
  -21    2    2      8.38      0.00
  -20    2    2      3.79      0.00
  -19    2    2      5.43      0.00
  -18    2    2     -6.23      0.00
  -17    2    2      1.76      0.00
  -16    2    2      6.31      0.00
  -15    2    2    -17.70      0.00
  -14    2    2     19.97      0.00
  -13    2    2    -17.29      0.00
  -12    2    2    -20.57      0.00
  -11    2    2    -13.04      0.00
  -10    2    2    -26.04      0.00
   -9    2    2      6.13      0.00
   -8    2    2     55.41      0.00
   -7    2    2      4.71      0.00
   -6    2    2     69.54      0.00
   -5    2    2     65.86      0.00
   -4    2    2     46.52      0.00
   -3    2    2     26.26      0.00
   -1    2    2      6.16      0.00
    0    2    2    182.39      0.00
    1    2    2     -9.82      0.00
    3    2    2      7.73      0.00
    4    2    2     72.29      0.00
    5    2    2     44.76      0.00
    6    2    2     89.45      0.00
    7    2    2     13.93      0.00
    8    2    2     64.18      0.00
    9    2    2     11.15      0.00
   10    2    2    -22.20      0.00
   11    2    2    -31.62      0.00
   12    2    2     14.20      0.00
   13    2    2      8.14      0.00
   14    2    2     31.23      0.00
   15    2    2     -0.48      0.00
   16    2    2      0.02      0.00
   17    2    2      7.24      0.00
   18    2    2    -18.18      0.00
   19    2    2    -14.54      0.00
   20    2    2     10.61      0.00
   21    2    2     -0.07      0.00
   22    2    2      8.75      0.00
   23    2    2     -6.53      0.00
   24    2    2     -4.50      0.00
   25    2    2      6.65      0.00
   26    2    2      0.30      0.00
   27    2    2      5.17      0.00
  -27    3    2      2.15      0.00
  -26    3    2      3.24      0.00
  -25    3    2      1.53      0.00
  -24    3    2     -0.26      0.00
  -23    3    2    -21.56      0.00
  -22    3    2     -1.45      0.00
  -21    3    2    -13.45      0.00
  -20    3    2     -9.29      0.00
  -19    3    2     -6.49      0.00
  -18    3    2     -7.13      0.00
  -17    3    2      1.60      0.00
  -16    3    2     -5.63      0.00
  -15    3    2    -24.97      0.00
  -14    3    2     14.20      0.00
  -13    3    2      5.82      0.00
  -12    3    2     -0.92      0.00
  -11    3    2    -22.72      0.00
  -10    3    2    -44.77      0.00
   -9    3    2    -69.29      0.00
   -8    3    2    -60.20      0.00
   -7    3    2    -40.83      0.00
   -6    3    2    -64.15      0.00
   -5    3    2      2.70      0.00
   -4    3    2    -28.36      0.00
   -2    3    2     11.74      0.00
   -1    3    2    -73.09      0.00
    0    3    2      9.42      0.00
    1    3    2    147.57      0.00
    2    3    2     43.58      0.00
    3    3    2    -53.06      0.00
    4    3    2     61.59      0.00
    5    3    2    -26.17      0.00
    6    3    2     41.33      0.00
    7    3    2    -68.91      0.00
    8    3    2      9.08      0.00
    9    3    2     34.29      0.00
   10    3    2    -10.78      0.00
   11    3    2    -25.63      0.00
   12    3    2     11.97      0.00
   13    3    2     14.46      0.00
   14    3    2    -13.58      0.00
   15    3    2    -14.04      0.00
   16    3    2      4.85      0.00
   17    3    2     32.68      0.00
   18    3    2     -4.59      0.00
   19    3    2     15.40      0.00
   20    3    2      2.34      0.00
   21    3    2      6.54      0.00
   22    3    2     -4.75      0.00
   23    3    2     -4.15      0.00
   24    3    2      5.63      0.00
   25    3    2      3.03      0.00
   26    3    2     -1.95      0.00
  -26    4    2     -0.05      0.00
  -25    4    2      3.07      0.00
  -24    4    2      2.92      0.00
  -23    4    2      0.59      0.00
  -22    4    2      7.65      0.00
  -21    4    2      6.07      0.00
  -20    4    2     -0.09      0.00
  -19    4    2     -2.01      0.00
  -18    4    2     -2.23      0.00
  -17    4    2      2.14      0.00
  -16    4    2     -2.61      0.00
  -15    4    2     -7.16      0.00
  -14    4    2     42.45      0.00
  -13    4    2      0.33      0.00
  -12    4    2     18.85      0.00
  -11    4    2     -1.01      0.00
  -10    4    2     45.64      0.00
   -9    4    2     -8.49      0.00
   -8    4    2     56.63      0.00
   -7    4    2    -45.25      0.00
   -6    4    2     42.23      0.00
   -5    4    2     36.93      0.00
   -4    4    2    -45.86      0.00
   -3    4    2     -3.48      0.00
   -2    4    2     95.33      0.00
   -1    4    2     -0.71      0.00
    0    4    2    111.10      0.00
    1    4    2    -40.00      0.00
    2    4    2     34.73      0.00
    3    4    2    -25.32      0.00
    4    4    2    -26.81      0.00
    5    4    2      6.69      0.00
    6    4    2     62.74      0.00
    7    4    2     10.53      0.00
    8    4    2     -4.51      0.00
    9    4    2     27.98      0.00
   10    4    2    -38.17      0.00
   11    4    2    -28.33      0.00
   12    4    2    -22.77      0.00
   13    4    2      4.04      0.00
   14    4    2     16.14      0.00
   15    4    2     -5.44      0.00
   16    4    2    -29.28      0.00
   17    4    2      3.57      0.00
   18    4    2    -24.57      0.00
   19    4    2     -5.10      0.00
   20    4    2     -1.90      0.00
   21    4    2      4.81      0.00
   22    4    2      4.15      0.00
   24    4    2     -4.17      0.00
   25    4    2      1.19      0.00
   26    4    2      1.09      0.00
  -26    5    2      2.84      0.00
  -25    5    2     -0.69      0.00
  -24    5    2     -1.43      0.00
  -23    5    2    -14.16      0.00
  -22    5    2      2.66      0.00
  -21    5    2    -16.23      0.00
  -20    5    2     -1.17      0.00
  -19    5    2     -9.89      0.00
  -18    5    2      7.89      0.00
  -17    5    2    -14.22      0.00
  -16    5    2      1.65      0.00
  -15    5    2    -24.34      0.00
  -14    5    2     27.71      0.00
  -13    5    2    -18.27      0.00
  -12    5    2     12.12      0.00
  -11    5    2    -11.69      0.00
  -10    5    2      4.27      0.00
   -9    5    2    -85.21      0.00
   -8    5    2      4.71      0.00
   -7    5    2    -43.29      0.00
   -6    5    2     -8.08      0.00
   -5    5    2    -17.81      0.00
   -4    5    2    -27.76      0.00
   -3    5    2    -75.47      0.00
   -2    5    2    -21.49      0.00
   -1    5    2    -45.64      0.00
    0    5    2    -34.77      0.00
    1    5    2      6.41      0.00
    2    5    2     -1.09      0.00
    3    5    2    -33.62      0.00
    4    5    2     17.71      0.00
    5    5    2    -96.16      0.00
    6    5    2     -4.88      0.00
    7    5    2    -12.65      0.00
    8    5    2    -42.76      0.00
    9    5    2      3.18      0.00
   10    5    2    -36.20      0.00
   11    5    2     12.48      0.00
   12    5    2      8.66      0.00
   13    5    2    -15.19      0.00
   14    5    2     -2.77      0.00
   15    5    2     -4.19      0.00
   16    5    2     15.46      0.00
   17    5    2     10.35      0.00
   18    5    2      3.70      0.00
   19    5    2     13.96      0.00
   20    5    2      0.44      0.00
   21    5    2      5.70      0.00
   22    5    2     -7.25      0.00
   23    5    2      5.07      0.00
   24    5    2      5.04      0.00
   25    5    2      5.13      0.00
   26    5    2      3.59      0.00
  -26    6    2     -0.84      0.00
  -25    6    2      2.07      0.00
  -24    6    2      3.09      0.00
  -23    6    2      1.80      0.00
  -22    6    2      5.68      0.00
  -21    6    2      5.93      0.00
  -20    6    2     10.86      0.00
  -19    6    2     -5.25      0.00
  -18    6    2      1.83      0.00
  -17    6    2      4.37      0.00
  -16    6    2      8.49      0.00
  -15    6    2    -18.44      0.00
  -14    6    2     12.58      0.00
  -13    6    2     16.83      0.00
  -12    6    2     21.20      0.00
  -11    6    2      2.78      0.00
  -10    6    2      2.57      0.00
   -9    6    2     29.00      0.00
   -8    6    2     71.82      0.00
   -7    6    2    -26.37      0.00
   -6    6    2     -2.60      0.00
   -5    6    2     62.24      0.00
   -4    6    2     12.61      0.00
   -3    6    2     -0.96      0.00
   -2    6    2      7.95      0.00
   -1    6    2     17.41      0.00
    0    6    2    134.20      0.00
    1    6    2    -48.64      0.00
    2    6    2    -22.88      0.00
    3    6    2    -19.44      0.00
    4    6    2      9.25      0.00
    5    6    2    -38.47      0.00
    6    6    2     57.95      0.00
    7    6    2     22.94      0.00
    8    6    2     22.08      0.00
    9    6    2     25.88      0.00
   10    6    2    -49.72      0.00
   11    6    2      6.82      0.00
   12    6    2    -19.95      0.00
   13    6    2      4.02      0.00
   14    6    2      9.31      0.00
   15    6    2      1.69      0.00
   16    6    2    -16.38      0.00
   17    6    2     -3.56      0.00
   18    6    2    -10.33      0.00
   19    6    2    -10.27      0.00
   20    6    2      5.48      0.00
   21    6    2      3.89      0.00
   22    6    2      2.30      0.00
   23    6    2     -3.72      0.00
   24    6    2     -3.92      0.00
   25    6    2     -2.22      0.00
  -25    7    2      4.23      0.00
  -24    7    2     -0.27      0.00
  -23    7    2     -1.97      0.00
  -22    7    2     -5.52      0.00
  -21    7    2     -5.23      0.00
  -20    7    2      3.93      0.00
  -19    7    2      1.43      0.00
  -18    7    2     -4.03      0.00
  -17    7    2     -0.72      0.00
  -16    7    2     11.92      0.00
  -15    7    2    -13.73      0.00
  -14    7    2     14.86      0.00
  -13    7    2     -3.28      0.00
  -12    7    2      5.96      0.00
  -11    7    2     -3.06      0.00
  -10    7    2    -19.87      0.00
   -9    7    2    -44.72      0.00
   -8    7    2    -12.81      0.00
   -7    7    2    -38.80      0.00
   -6    7    2    -33.85      0.00
   -5    7    2     11.50      0.00
   -4    7    2    -34.75      0.00
   -3    7    2    -26.35      0.00
   -2    7    2    -27.35      0.00
   -1    7    2     40.95      0.00
    0    7    2    -15.84      0.00
    1    7    2     25.26      0.00
    2    7    2    -19.34      0.00
    3    7    2     46.47      0.00
    4    7    2     10.34      0.00
    5    7    2    -61.78      0.00
    6    7    2      0.92      0.00
    7    7    2     20.03      0.00
    8    7    2    -20.01      0.00
    9    7    2      8.20      0.00
   10    7    2      1.19      0.00
   11    7    2     37.29      0.00
   12    7    2     14.07      0.00
   13    7    2     -2.85      0.00
   14    7    2     10.95      0.00
   15    7    2     17.99      0.00
   16    7    2      1.13      0.00
   17    7    2      9.26      0.00
   18    7    2     17.36      0.00
   19    7    2      9.21      0.00
   20    7    2      1.32      0.00
   21    7    2     -2.55      0.00
   22    7    2      5.27      0.00
   23    7    2      5.93      0.00
   24    7    2      6.72      0.00
   25    7    2      5.84      0.00
  -25    8    2     -5.31      0.00
  -24    8    2      0.47      0.00
  -23    8    2      0.64      0.00
  -22    8    2      4.23      0.00
  -21    8    2     -0.74      0.00
  -20    8    2     11.49      0.00
  -19    8    2      0.78      0.00
  -18    8    2      7.17      0.00
  -17    8    2     -3.22      0.00
  -16    8    2      5.54      0.00
  -15    8    2    -15.18      0.00
  -14    8    2      5.80      0.00
  -13    8    2     -3.17      0.00
  -12    8    2     -1.44      0.00
  -11    8    2      5.32      0.00
  -10    8    2     -3.52      0.00
   -9    8    2     13.65      0.00
   -8    8    2     -0.46      0.00
   -7    8    2      1.89      0.00
   -6    8    2    -19.79      0.00
   -5    8    2     16.84      0.00
   -4    8    2    -80.01      0.00
   -3    8    2     -1.92      0.00
   -2    8    2    -16.49      0.00
   -1    8    2     -6.18      0.00
    0    8    2     29.53      0.00
    1    8    2     12.50      0.00
    2    8    2    -20.30      0.00
    3    8    2     19.89      0.00
    4    8    2    -43.01      0.00
    5    8    2      4.77      0.00
    6    8    2     57.78      0.00
    7    8    2     20.99      0.00
    8    8    2      8.74      0.00
    9    8    2     15.70      0.00
   10    8    2    -30.42      0.00
   11    8    2     -9.49      0.00
   12    8    2     -3.00      0.00
   13    8    2     -5.21      0.00
   14    8    2     14.88      0.00
   15    8    2     -0.57      0.00
   16    8    2     -3.33      0.00
   17    8    2      1.45      0.00
   18    8    2     -4.79      0.00
   19    8    2    -10.27      0.00
   20    8    2      9.20      0.00
   21    8    2      1.25      0.00
   22    8    2     -3.06      0.00
   23    8    2     -4.92      0.00
   24    8    2     -4.49      0.00
  -24    9    2     -2.48      0.00
  -23    9    2     -7.12      0.00
  -22    9    2     -2.27      0.00
  -21    9    2     -5.84      0.00
  -20    9    2     -7.21      0.00
  -19    9    2     -2.09      0.00
  -18    9    2     -3.42      0.00
  -17    9    2      4.92      0.00
  -16    9    2      0.80      0.00
  -15    9    2    -10.12      0.00
  -14    9    2     13.69      0.00
  -13    9    2      5.76      0.00
  -12    9    2     -2.56      0.00
  -11    9    2     -6.50      0.00
  -10    9    2     -6.69      0.00
   -9    9    2    -18.78      0.00
   -8    9    2     12.12      0.00
   -7    9    2    -31.39      0.00
   -6    9    2      4.60      0.00
   -5    9    2     15.19      0.00
   -4    9    2     10.87      0.00
   -3    9    2    -27.55      0.00
   -2    9    2      7.90      0.00
   -1    9    2    -10.34      0.00
    0    9    2     31.46      0.00
    1    9    2    -13.04      0.00
    2    9    2     -8.09      0.00
    3    9    2      9.02      0.00
    4    9    2     28.42      0.00
    5    9    2    -27.42      0.00
    6    9    2      0.27      0.00
    7    9    2      4.05      0.00
    8    9    2     11.03      0.00
    9    9    2     24.52      0.00
   10    9    2      4.04      0.00
   11    9    2     14.92      0.00
   12    9    2     16.71      0.00
   13    9    2     -6.87      0.00
   14    9    2    -19.82      0.00
   15    9    2     -7.32      0.00
   16    9    2     -7.60      0.00
   17    9    2      1.09      0.00
   18    9    2      0.99      0.00
   19    9    2     -7.04      0.00
   20    9    2      4.17      0.00
   21    9    2     -5.30      0.00
   22    9    2     -0.96      0.00
   23    9    2     -1.22      0.00
   24    9    2      3.71      0.00
  -23   10    2      5.69      0.00
  -22   10    2      4.32      0.00
  -21   10    2      0.10      0.00
  -20   10    2      1.25      0.00
  -19   10    2      5.37      0.00
  -18   10    2      5.83      0.00
  -17   10    2     -8.01      0.00
  -16   10    2     -6.53      0.00
  -15   10    2     -1.60      0.00
  -14   10    2      8.75      0.00
  -13   10    2    -10.31      0.00
  -12   10    2    -13.77      0.00
  -11   10    2     14.10      0.00
  -10   10    2      8.50      0.00
   -9   10    2     -5.45      0.00
   -8   10    2    -17.26      0.00
   -7   10    2     15.79      0.00
   -6   10    2     12.38      0.00
   -5   10    2     -7.25      0.00
   -4   10    2    -63.13      0.00
   -3   10    2     16.10      0.00
   -2   10    2     23.76      0.00
   -1   10    2    -11.95      0.00
    0   10    2     36.24      0.00
    1   10    2     21.80      0.00
    2   10    2     27.86      0.00
    3   10    2    -10.41      0.00
    4   10    2    -33.06      0.00
    5   10    2     -9.34      0.00
    6   10    2     54.42      0.00
    7   10    2     -4.84      0.00
    8   10    2    -12.58      0.00
    9   10    2      5.79      0.00
   10   10    2    -16.18      0.00
   11   10    2    -11.46      0.00
   12   10    2     -5.48      0.00
   13   10    2     -5.16      0.00
   14   10    2     18.31      0.00
   15   10    2      2.17      0.00
   16   10    2    -10.35      0.00
   17   10    2     -3.24      0.00
   18   10    2     -1.18      0.00
   19   10    2     -5.00      0.00
   20   10    2      3.60      0.00
   21   10    2     -6.08      0.00
   22   10    2     -1.12      0.00
   23   10    2     -2.73      0.00
  -23   11    2      0.03      0.00
  -22   11    2     -1.78      0.00
  -21   11    2     -3.75      0.00
  -20   11    2     -3.58      0.00
  -19   11    2      2.28      0.00
  -18   11    2     -3.66      0.00
  -17   11    2     -8.96      0.00
  -16   11    2     -8.25      0.00
  -15   11    2     -7.21      0.00
  -14   11    2     -2.04      0.00
  -13   11    2     -8.97      0.00
  -12   11    2    -15.63      0.00
  -11   11    2     -2.13      0.00
  -10   11    2     -2.91      0.00
   -9   11    2    -17.78      0.00
   -8   11    2     17.84      0.00
   -7   11    2     -5.40      0.00
   -6   11    2     25.08      0.00
   -5   11    2     25.25      0.00
   -4   11    2     12.56      0.00
   -3   11    2     11.37      0.00
   -2   11    2     13.93      0.00
   -1   11    2      6.34      0.00
    0   11    2     25.22      0.00
    1   11    2      3.74      0.00
    2   11    2      9.59      0.00
    3   11    2     31.79      0.00
    4   11    2     32.32      0.00
    5   11    2    -13.53      0.00
    6   11    2      9.01      0.00
    7   11    2      7.20      0.00
    8   11    2     -0.07      0.00
    9   11    2     10.76      0.00
   10   11    2      1.36      0.00
   11   11    2     19.03      0.00
   12   11    2      5.63      0.00
   13   11    2    -10.21      0.00
   14   11    2    -15.57      0.00
   15   11    2      2.24      0.00
   16   11    2     -8.34      0.00
   17   11    2      3.81      0.00
   18   11    2     -0.38      0.00
   19   11    2      7.41      0.00
   20   11    2     -3.71      0.00
   21   11    2      2.24      0.00
   22   11    2     -2.03      0.00
  -22   12    2     -1.46      0.00
  -21   12    2     -4.62      0.00
  -20   12    2     -1.80      0.00
  -19   12    2     -0.56      0.00
  -18   12    2      7.01      0.00
  -17   12    2     -1.39      0.00
  -16   12    2     13.41      0.00
  -15   12    2     -2.55      0.00
  -14   12    2     11.61      0.00
  -13   12    2      6.17      0.00
  -12   12    2     11.40      0.00
  -11   12    2     -2.56      0.00
  -10   12    2     10.50      0.00
   -9   12    2     -9.59      0.00
   -8   12    2     16.02      0.00
   -7   12    2    -23.61      0.00
   -6   12    2     29.11      0.00
   -5   12    2    -14.88      0.00
   -4   12    2     -9.84      0.00
   -3   12    2     -6.88      0.00
   -2   12    2     16.78      0.00
   -1   12    2      9.51      0.00
    0   12    2     45.52      0.00
    1   12    2      5.23      0.00
    2   12    2     11.75      0.00
    3   12    2      7.72      0.00
    4   12    2     -9.56      0.00
    5   12    2     -6.99      0.00
    6   12    2     31.44      0.00
    7   12    2     25.12      0.00
    8   12    2      3.14      0.00
    9   12    2      4.59      0.00
   11   12    2      5.67      0.00
   12   12    2     -0.79      0.00
   13   12    2     -9.09      0.00
   14   12    2     -1.32      0.00
   15   12    2      5.13      0.00
   16   12    2     -8.35      0.00
   17   12    2     -5.30      0.00
   18   12    2     -1.74      0.00
   19   12    2      1.47      0.00
   20   12    2      6.44      0.00
   21   12    2      2.18      0.00
  -21   13    2     -3.21      0.00
  -20   13    2      5.16      0.00
  -19   13    2     -4.52      0.00
  -18   13    2     -5.24      0.00
  -17   13    2    -14.90      0.00
  -16   13    2      3.36      0.00
  -15   13    2    -12.53      0.00
  -14   13    2     -2.83      0.00
  -13   13    2     -7.41      0.00
  -12   13    2     -3.88      0.00
  -11   13    2    -10.10      0.00
  -10   13    2     -4.17      0.00
   -9   13    2     -9.45      0.00
   -8   13    2     12.01      0.00
   -7   13    2    -26.04      0.00
   -6   13    2     12.48      0.00
   -5   13    2     -1.70      0.00
   -4   13    2     -5.37      0.00
   -3   13    2    -14.40      0.00
   -2   13    2     -0.19      0.00
   -1   13    2    -16.73      0.00
    0   13    2     -9.12      0.00
    1   13    2     -9.78      0.00
    2   13    2     -6.06      0.00
    3   13    2      8.63      0.00
    4   13    2     -4.47      0.00
    5   13    2    -14.34      0.00
    6   13    2      1.83      0.00
    7   13    2    -16.35      0.00
    8   13    2    -23.01      0.00
    9   13    2      5.85      0.00
   10   13    2      7.60      0.00
   11   13    2      9.58      0.00
   12   13    2     -5.90      0.00
   13   13    2     -4.59      0.00
   14   13    2     -2.38      0.00
   15   13    2      2.99      0.00
   16   13    2    -11.84      0.00
   17   13    2     -0.84      0.00
   18   13    2      5.86      0.00
   19   13    2     -1.05      0.00
   20   13    2     -5.71      0.00
  -19   14    2     -0.46      0.00
  -18   14    2      6.37      0.00
  -17   14    2     -3.45      0.00
  -16   14    2     13.28      0.00
  -15   14    2     -0.30      0.00
  -14   14    2      3.81      0.00
  -13   14    2      7.56      0.00
  -12   14    2     10.07      0.00
  -11   14    2      8.54      0.00
  -10   14    2      1.70      0.00
   -9   14    2      2.25      0.00
   -8   14    2      9.98      0.00
   -7   14    2      1.48      0.00
   -6   14    2     26.19      0.00
   -5   14    2     -1.67      0.00
   -4   14    2     -6.87      0.00
   -3   14    2      3.45      0.00
   -2   14    2     13.07      0.00
   -1   14    2      8.32      0.00
    0   14    2     26.14      0.00
    1   14    2      3.80      0.00
    2   14    2      6.48      0.00
    3   14    2     -0.67      0.00
    4   14    2     -9.21      0.00
    5   14    2     -3.02      0.00
    6   14    2     21.16      0.00
    7   14    2      8.93      0.00
    8   14    2     12.58      0.00
    9   14    2     -1.86      0.00
   10   14    2    -17.30      0.00
   11   14    2     -3.93      0.00
   12   14    2      2.75      0.00
   13   14    2     -5.20      0.00
   14   14    2    -12.87      0.00
   15   14    2      4.36      0.00
   16   14    2     -9.23      0.00
   17   14    2      0.24      0.00
   18   14    2     -6.80      0.00
   19   14    2      2.14      0.00
  -18   15    2      1.48      0.00
  -17   15    2     -6.42      0.00
  -16   15    2      2.31      0.00
  -15   15    2     -6.05      0.00
  -14   15    2      5.90      0.00
  -13   15    2     -2.76      0.00
  -12   15    2     -1.49      0.00
  -11   15    2     -5.68      0.00
  -10   15    2      0.99      0.00
   -9   15    2     -2.55      0.00
   -8   15    2      7.64      0.00
   -7   15    2    -13.85      0.00
   -6   15    2      2.81      0.00
   -5   15    2      0.41      0.00
   -4   15    2     -5.24      0.00
   -3   15    2      1.86      0.00
   -2   15    2     -2.92      0.00
   -1   15    2     -8.41      0.00
    0   15    2    -10.99      0.00
    1   15    2      5.55      0.00
    2   15    2    -15.39      0.00
    3   15    2     10.27      0.00
    4   15    2    -10.37      0.00
    5   15    2     -0.28      0.00
    6   15    2     -6.20      0.00
    7   15    2    -19.11      0.00
    8   15    2    -10.46      0.00
    9   15    2      5.72      0.00
   10   15    2      4.05      0.00
   11   15    2     -0.46      0.00
   12   15    2      6.36      0.00
   13   15    2     -0.17      0.00
   14   15    2     -4.38      0.00
   15   15    2     -0.19      0.00
   16   15    2      0.05      0.00
   17   15    2      6.33      0.00
   18   15    2     -0.33      0.00
  -16   16    2      3.67      0.00
  -15   16    2     -0.75      0.00
  -14   16    2      0.57      0.00
  -13   16    2     -5.01      0.00
  -12   16    2      2.52      0.00
  -11   16    2      4.79      0.00
  -10   16    2     -1.59      0.00
   -9   16    2    -14.06      0.00
   -8   16    2      0.69      0.00
   -7   16    2      6.81      0.00
   -6   16    2      9.33      0.00
   -5   16    2    -15.53      0.00
   -4   16    2     -8.82      0.00
   -3   16    2      5.48      0.00
   -2   16    2      1.20      0.00
   -1   16    2     -6.54      0.00
    0   16    2     21.55      0.00
    1   16    2      9.89      0.00
    2   16    2      6.72      0.00
    3   16    2     -6.40      0.00
    4   16    2     -0.36      0.00
    5   16    2     15.34      0.00
    6   16    2     21.45      0.00
    7   16    2      2.09      0.00
    8   16    2     15.48      0.00
    9   16    2      5.37      0.00
   10   16    2      2.65      0.00
   11   16    2     -5.62      0.00
   12   16    2      4.74      0.00
   13   16    2      0.02      0.00
   14   16    2     -2.06      0.00
   15   16    2     -0.15      0.00
   16   16    2     -8.00      0.00
  -14   17    2      1.66      0.00
  -13   17    2     -1.75      0.00
  -12   17    2     -2.84      0.00
  -11   17    2      2.03      0.00
  -10   17    2      1.27      0.00
   -9   17    2     -8.52      0.00
   -8   17    2      2.46      0.00
   -7   17    2     -3.93      0.00
   -6   17    2     -0.64      0.00
   -5   17    2     -4.32      0.00
   -4   17    2     -1.84      0.00
   -3   17    2      7.00      0.00
   -2   17    2      5.50      0.00
   -1   17    2    -10.57      0.00
    0   17    2     -3.33      0.00
    1   17    2      1.11      0.00
    2   17    2     -1.75      0.00
    3   17    2      4.74      0.00
    4   17    2     -1.25      0.00
    5   17    2     -2.18      0.00
    6   17    2      3.36      0.00
    7   17    2     -9.35      0.00
    8   17    2     -2.55      0.00
    9   17    2     -0.45      0.00
   10   17    2      4.05      0.00
   11   17    2     -0.61      0.00
   12   17    2      3.51      0.00
   13   17    2     -3.43      0.00
   14   17    2      0.28      0.00
  -12   18    2      0.03      0.00
  -11   18    2     -2.49      0.00
  -10   18    2     -1.45      0.00
   -9   18    2     -1.53      0.00
   -8   18    2      1.08      0.00
   -7   18    2      0.97      0.00
   -6   18    2     -1.66      0.00
   -5   18    2     -0.04      0.00
   -4   18    2    -12.32      0.00
   -3   18    2     -2.86      0.00
   -2   18    2     -7.09      0.00
   -1   18    2      4.34      0.00
    0   18    2     10.22      0.00
    1   18    2     -4.92      0.00
    2   18    2     -1.85      0.00
    3   18    2     -3.24      0.00
    4   18    2     -6.48      0.00
    5   18    2      1.92      0.00
    6   18    2      3.51      0.00
    7   18    2      1.39      0.00
    8   18    2      5.48      0.00
    9   18    2     -4.92      0.00
   10   18    2      0.58      0.00
   11   18    2     -3.77      0.00
   12   18    2      1.49      0.00
   -9   19    2     -2.81      0.00
   -8   19    2      4.92      0.00
   -7   19    2     -4.48      0.00
   -6   19    2      0.77      0.00
   -5   19    2      0.65      0.00
   -4   19    2     -0.15      0.00
   -3   19    2      3.85      0.00
   -2   19    2      5.19      0.00
   -1   19    2     -5.11      0.00
    0   19    2     -3.26      0.00
    1   19    2      4.04      0.00
    2   19    2      5.32      0.00
    3   19    2      2.40      0.00
    4   19    2     -0.16      0.00
    5   19    2      4.58      0.00
    6   19    2      5.89      0.00
    7   19    2     -3.76      0.00
    8   19    2     -4.66      0.00
    9   19    2      1.45      0.00
   -4   20    2     -2.03      0.00
   -3   20    2     -1.40      0.00
   -2   20    2      1.00      0.00
   -1   20    2      4.00      0.00
    0   20    2      7.12      0.00
    1   20    2     -4.75      0.00
    2   20    2      2.04      0.00
    3   20    2     -4.17      0.00
    4   20    2     -2.26      0.00
  -27    0    3      0.61      0.00
  -25    0    3      7.08      0.00
  -23    0    3      1.63      0.00
  -21    0    3      9.90      0.00
  -19    0    3      4.54      0.00
  -17    0    3     27.32      0.00
  -15    0    3     -8.96      0.00
  -13    0    3      6.57      0.00
  -11    0    3      1.14      0.00
   -9    0    3     52.50      0.00
   -7    0    3     48.44      0.00
   -5    0    3    -28.80      0.00
   -3    0    3     32.41      0.00
   -1    0    3     55.83      0.00
    1    0    3     80.45      0.00
    3    0    3     34.06      0.00
    5    0    3    -10.17      0.00
    7    0    3    -71.71      0.00
    9    0    3    -42.22      0.00
   11    0    3    -28.70      0.00
   13    0    3    -11.17      0.00
   15    0    3    -22.57      0.00
   17    0    3     -5.92      0.00
   19    0    3    -11.78      0.00
   21    0    3     -9.50      0.00
   23    0    3     -1.71      0.00
   25    0    3     -1.39      0.00
   27    0    3     -3.84      0.00
  -27    1    3     -1.05      0.00
  -26    1    3     -9.78      0.00
  -25    1    3     -5.81      0.00
  -24    1    3     -7.34      0.00
  -23    1    3     -5.91      0.00
  -22    1    3     -7.08      0.00
  -21    1    3    -11.10      0.00
  -20    1    3     -1.75      0.00
  -18    1    3    -21.59      0.00
  -17    1    3     -2.77      0.00
  -16    1    3     -4.92      0.00
  -15    1    3      8.81      0.00
  -14    1    3    -11.61      0.00
  -13    1    3     -0.56      0.00
  -12    1    3     -5.00      0.00
  -11    1    3     33.83      0.00
  -10    1    3      2.99      0.00
   -9    1    3     20.04      0.00
   -8    1    3     -2.45      0.00
   -7    1    3     91.95      0.00
   -6    1    3    -35.85      0.00
   -5    1    3     29.37      0.00
   -4    1    3     13.50      0.00
   -3    1    3     46.96      0.00
   -2    1    3     28.43      0.00
    0    1    3    101.86      0.00
    2    1    3     21.92      0.00
    3    1    3      5.17      0.00
    4    1    3    -39.56      0.00
    5    1    3     88.60      0.00
    6    1    3    -22.63      0.00
    7    1    3     59.35      0.00
    8    1    3     63.80      0.00
    9    1    3     61.83      0.00
   10    1    3     46.32      0.00
   11    1    3     22.31      0.00
   12    1    3    -23.52      0.00
   13    1    3     10.28      0.00
   14    1    3    -12.47      0.00
   15    1    3      0.95      0.00
   16    1    3      1.02      0.00
   17    1    3      5.99      0.00
   18    1    3      5.51      0.00
   19    1    3      5.98      0.00
   20    1    3      2.68      0.00
   21    1    3      6.16      0.00
   22    1    3      0.55      0.00
   23    1    3      0.27      0.00
   24    1    3     -2.24      0.00
   25    1    3      0.21      0.00
   26    1    3      4.63      0.00
   27    1    3     -1.43      0.00
  -27    2    3      0.53      0.00
  -26    2    3      2.19      0.00
  -25    2    3      5.20      0.00
  -24    2    3      0.61      0.00
  -23    2    3      8.41      0.00
  -22    2    3     -3.28      0.00
  -21    2    3     -0.65      0.00
  -20    2    3     -4.43      0.00
  -19    2    3      5.28      0.00
  -18    2    3     -6.22      0.00
  -17    2    3      5.90      0.00
  -16    2    3      7.77      0.00
  -15    2    3     -1.62      0.00
  -14    2    3     10.16      0.00
  -13    2    3     -4.02      0.00
  -12    2    3      8.52      0.00
  -11    2    3      9.81      0.00
   -9    2    3     33.88      0.00
   -8    2    3     -7.41      0.00
   -7    2    3     41.99      0.00
   -6    2    3    -43.62      0.00
   -5    2    3    -15.06      0.00
   -4    2    3    -49.13      0.00
   -3    2    3     39.96      0.00
   -2    2    3    -90.50      0.00
   -1    2    3      8.82      0.00
    0    2    3    -10.94      0.00
    1    2    3     -1.40      0.00
    2    2    3    -85.69      0.00
    3    2    3    -55.98      0.00
    4    2    3     12.56      0.00
    5    2    3    -47.61      0.00
    6    2    3   -150.85      0.00
    7    2    3    -62.99      0.00
    8    2    3    -40.81      0.00
    9    2    3     -5.15      0.00
   10    2    3    -60.96      0.00
   11    2    3     21.77      0.00
   12    2    3     20.48      0.00
   13    2    3     17.64      0.00
   14    2    3     -9.79      0.00
   15    2    3      6.74      0.00
   16    2    3     16.40      0.00
   17    2    3     -7.68      0.00
   18    2    3     -7.48      0.00
   19    2    3     -8.00      0.00
   20    2    3     12.82      0.00
   21    2    3    -11.50      0.00
   22    2    3      6.95      0.00
   23    2    3     -0.25      0.00
   24    2    3      8.20      0.00
   25    2    3     -2.47      0.00
   26    2    3      2.87      0.00
  -27    3    3     -1.87      0.00
  -26    3    3     -4.65      0.00
  -25    3    3     -1.66      0.00
  -24    3    3     -7.83      0.00
  -23    3    3     -3.02      0.00
  -22    3    3      3.17      0.00
  -21    3    3      3.15      0.00
  -20    3    3      5.34      0.00
  -19    3    3     10.12      0.00
  -18    3    3     -8.72      0.00
  -17    3    3      9.23      0.00
  -16    3    3     -2.65      0.00
  -15    3    3    -13.24      0.00
  -14    3    3    -18.08      0.00
  -13    3    3     -9.43      0.00
  -12    3    3    -21.38      0.00
  -11    3    3     -9.76      0.00
  -10    3    3    -16.61      0.00
   -9    3    3     28.32      0.00
   -8    3    3      1.67      0.00
   -7    3    3     42.01      0.00
   -6    3    3    -10.75      0.00
   -5    3    3     77.89      0.00
   -4    3    3    -17.56      0.00
   -3    3    3    -38.58      0.00
   -2    3    3    -26.93      0.00
   -1    3    3    -42.52      0.00
    0    3    3    -21.39      0.00
    1    3    3      4.61      0.00
    2    3    3    -26.04      0.00
    3    3    3      5.86      0.00
    4    3    3    -48.72      0.00
    5    3    3    -18.58      0.00
    6    3    3    -12.81      0.00
    7    3    3      7.17      0.00
    8    3    3     42.44      0.00
    9    3    3      2.28      0.00
   10    3    3     28.47      0.00
   11    3    3     -7.67      0.00
   12    3    3    -17.02      0.00
   13    3    3     -2.97      0.00
   14    3    3      5.13      0.00
   15    3    3     -9.30      0.00
   16    3    3     11.33      0.00
   17    3    3      5.01      0.00
   18    3    3     16.83      0.00
   19    3    3      5.12      0.00
   20    3    3     -1.83      0.00
   21    3    3     11.97      0.00
   22    3    3      1.61      0.00
   23    3    3      1.75      0.00
   24    3    3     -4.61      0.00
   25    3    3      0.44      0.00
   26    3    3      5.73      0.00
  -26    4    3      0.20      0.00
  -25    4    3      3.45      0.00
  -24    4    3     -2.96      0.00
  -23    4    3      3.72      0.00
  -22    4    3    -11.82      0.00
  -21    4    3     -1.15      0.00
  -20    4    3     -6.13      0.00
  -19    4    3     10.53      0.00
  -18    4    3    -10.15      0.00
  -17    4    3     23.46      0.00
  -16    4    3     20.06      0.00
  -15    4    3     31.96      0.00
  -14    4    3    -10.22      0.00
  -13    4    3     22.47      0.00
  -12    4    3     -3.18      0.00
  -11    4    3     34.84      0.00
  -10    4    3    -77.22      0.00
   -9    4    3     25.65      0.00
   -8    4    3    -34.03      0.00
   -7    4    3     16.68      0.00
   -6    4    3    -64.95      0.00
   -5    4    3     -1.21      0.00
   -4    4    3      4.26      0.00
   -3    4    3     43.06      0.00
   -2    4    3    -24.87      0.00
   -1    4    3      7.42      0.00
    0    4    3    -36.30      0.00
    1    4    3      3.35      0.00
    2    4    3    -53.51      0.00
    3    4    3    -28.30      0.00
    4    4    3    -33.26      0.00
    5    4    3     -1.53      0.00
    6    4    3    -69.14      0.00
    7    4    3    -35.83      0.00
    8    4    3    -60.50      0.00
    9    4    3      8.84      0.00
   10    4    3      0.93      0.00
   11    4    3     -0.95      0.00
   12    4    3     -5.20      0.00
   13    4    3     -0.47      0.00
   14    4    3     18.33      0.00
   15    4    3    -14.63      0.00
   16    4    3      9.86      0.00
   17    4    3    -12.87      0.00
   18    4    3      3.69      0.00
   19    4    3    -13.09      0.00
   20    4    3      0.24      0.00
   21    4    3     -1.79      0.00
   22    4    3      1.58      0.00
   23    4    3      3.06      0.00
   24    4    3     -1.78      0.00
   25    4    3     -1.93      0.00
   26    4    3     -1.98      0.00
  -26    5    3     -0.53      0.00
  -25    5    3      7.02      0.00
  -24    5    3     -3.70      0.00
  -23    5    3      2.32      0.00
  -22    5    3      8.80      0.00
  -21    5    3     10.63      0.00
  -20    5    3      0.41      0.00
  -19    5    3      3.94      0.00
  -18    5    3      1.53      0.00
  -17    5    3     14.06      0.00
  -16    5    3      1.60      0.00
  -15    5    3    -21.57      0.00
  -14    5    3     21.93      0.00
  -13    5    3     25.02      0.00
  -12    5    3     -3.61      0.00
  -11    5    3     -0.97      0.00
  -10    5    3     -6.38      0.00
   -9    5    3     65.26      0.00
   -8    5    3    -23.11      0.00
   -7    5    3    -23.37      0.00
   -6    5    3    -30.47      0.00
   -5    5    3     65.15      0.00
   -4    5    3    -54.81      0.00
   -3    5    3   -139.18      0.00
   -2    5    3    -27.24      0.00
   -1    5    3      7.43      0.00
    0    5    3    -47.23      0.00
    1    5    3     -4.66      0.00
    2    5    3    -21.81      0.00
    3    5    3     73.97      0.00
    4    5    3    -58.74      0.00
    5    5    3    -39.86      0.00
    6    5    3    -30.90      0.00
    7    5    3     41.17      0.00
    8    5    3    -10.05      0.00
    9    5    3     13.95      0.00
   10    5    3      1.70      0.00
   11    5    3     18.76      0.00
   12    5    3    -18.01      0.00
   13    5    3      4.03      0.00
   14    5    3      5.74      0.00
   15    5    3     -6.03      0.00
   16    5    3     18.97      0.00
   17    5    3     -8.28      0.00
   18    5    3     12.74      0.00
   19    5    3     -7.09      0.00
   20    5    3      7.17      0.00
   21    5    3      5.43      0.00
   22    5    3     -2.52      0.00
   23    5    3     -0.81      0.00
   24    5    3      3.17      0.00
   25    5    3      3.10      0.00
   26    5    3      1.46      0.00
  -26    6    3      0.34      0.00
  -25    6    3      0.41      0.00
  -24    6    3     -4.14      0.00
  -23    6    3     -5.56      0.00
  -22    6    3     -5.32      0.00
  -21    6    3     -3.55      0.00
  -20    6    3     -5.54      0.00
  -19    6    3     -4.10      0.00
  -18    6    3      2.68      0.00
  -17    6    3     12.28      0.00
  -16    6    3     12.52      0.00
  -15    6    3     -3.67      0.00
  -14    6    3      5.94      0.00
  -13    6    3    -10.29      0.00
  -12    6    3     -2.24      0.00
  -11    6    3      6.30      0.00
  -10    6    3    -37.05      0.00
   -9    6    3     28.78      0.00
   -8    6    3    -20.88      0.00
   -7    6    3     16.86      0.00
   -6    6    3    -16.47      0.00
   -5    6    3     37.55      0.00
   -4    6    3     59.81      0.00
   -3    6    3     18.88      0.00
   -2    6    3     38.20      0.00
   -1    6    3     -8.36      0.00
    0    6    3     19.52      0.00
    1    6    3    -28.00      0.00
    2    6    3      1.57      0.00
    3    6    3     13.15      0.00
    4    6    3     64.56      0.00
    5    6    3     18.36      0.00
    6    6    3     26.96      0.00
    7    6    3      1.28      0.00
    8    6    3     41.13      0.00
    9    6    3     14.27      0.00
   10    6    3     38.90      0.00
   11    6    3      3.20      0.00
   12    6    3     21.31      0.00
   13    6    3     11.47      0.00
   14    6    3     15.93      0.00
   15    6    3      5.95      0.00
   16    6    3      7.93      0.00
   17    6    3     10.43      0.00
   18    6    3     -1.34      0.00
   19    6    3     -6.43      0.00
   20    6    3     -3.85      0.00
   21    6    3     -0.86      0.00
   22    6    3     -1.15      0.00
   23    6    3      0.46      0.00
   24    6    3     -3.50      0.00
   25    6    3     -5.30      0.00
  -25    7    3      6.90      0.00
  -24    7    3     -2.83      0.00
  -23    7    3      3.34      0.00
  -22    7    3      5.04      0.00
  -21    7    3      3.73      0.00
  -20    7    3     -5.80      0.00
  -19    7    3      5.28      0.00
  -18    7    3    -19.35      0.00
  -17    7    3      0.18      0.00
  -16    7    3    -10.14      0.00
  -15    7    3    -11.42      0.00
  -14    7    3      7.30      0.00
  -13    7    3     -6.88      0.00
  -12    7    3     11.50      0.00
  -11    7    3      6.35      0.00
  -10    7    3    -12.06      0.00
   -9    7    3     -5.54      0.00
   -8    7    3      6.59      0.00
   -7    7    3     -2.64      0.00
   -6    7    3    -20.14      0.00
   -5    7    3     -5.14      0.00
   -4    7    3      7.38      0.00
   -3    7    3    -60.20      0.00
   -2    7    3      8.54      0.00
   -1    7    3    -44.34      0.00
    0    7    3      8.18      0.00
    2    7    3    -29.25      0.00
    3    7    3    -10.64      0.00
    4    7    3    -39.41      0.00
    5    7    3    -42.23      0.00
    6    7    3    -53.13      0.00
    7    7    3     -9.18      0.00
    8    7    3     -3.63      0.00
    9    7    3      1.80      0.00
   10    7    3     -0.05      0.00
   11    7    3    -19.43      0.00
   12    7    3      9.14      0.00
   13    7    3    -16.48      0.00
   14    7    3     -1.25      0.00
   15    7    3    -13.76      0.00
   16    7    3     11.15      0.00
   17    7    3     -4.33      0.00
   18    7    3     -3.68      0.00
   19    7    3     -1.07      0.00
   20    7    3      3.40      0.00
   21    7    3      7.23      0.00
   22    7    3     -1.63      0.00
   23    7    3      0.65      0.00
   24    7    3      4.16      0.00
   25    7    3      0.99      0.00
  -25    8    3     -1.60      0.00
  -24    8    3     -1.67      0.00
  -23    8    3      6.03      0.00
  -22    8    3      2.82      0.00
  -21    8    3     -3.89      0.00
  -20    8    3      0.94      0.00
  -19    8    3      9.51      0.00
  -18    8    3     13.17      0.00
  -17    8    3      6.33      0.00
  -16    8    3     -0.19      0.00
  -15    8    3      4.77      0.00
  -14    8    3     -5.19      0.00
  -13    8    3    -18.18      0.00
  -12    8    3     -7.47      0.00
  -11    8    3      4.34      0.00
  -10    8    3    -17.56      0.00
   -9    8    3      9.76      0.00
   -8    8    3    -14.59      0.00
   -7    8    3    -12.75      0.00
   -6    8    3    -29.73      0.00
   -5    8    3     19.92      0.00
   -4    8    3     42.35      0.00
   -3    8    3     -3.73      0.00
   -2    8    3     12.22      0.00
   -1    8    3     -9.29      0.00
    0    8    3     18.47      0.00
    1    8    3    -44.73      0.00
    2    8    3    -23.03      0.00
    3    8    3     20.25      0.00
    4    8    3     48.53      0.00
    5    8    3    -15.68      0.00
    6    8    3    -16.65      0.00
    7    8    3      4.31      0.00
    8    8    3     11.60      0.00
    9    8    3    -17.79      0.00
   10    8    3    -15.33      0.00
   11    8    3      4.94      0.00
   12    8    3      8.59      0.00
   13    8    3    -21.48      0.00
   14    8    3      4.65      0.00
   15    8    3      9.32      0.00
   16    8    3     14.25      0.00
   17    8    3     -8.98      0.00
   18    8    3     -9.50      0.00
   19    8    3      1.05      0.00
   20    8    3     -5.99      0.00
   21    8    3     -1.56      0.00
   22    8    3     -9.28      0.00
   23    8    3     10.43      0.00
   24    8    3     -2.59      0.00
  -24    9    3     -3.86      0.00
  -23    9    3     -4.31      0.00
  -22    9    3      4.96      0.00
  -21    9    3     -6.57      0.00
  -20    9    3     -0.92      0.00
  -19    9    3      2.39      0.00
  -18    9    3    -10.35      0.00
  -17    9    3     -3.47      0.00
  -16    9    3     -1.91      0.00
  -15    9    3      1.76      0.00
  -14    9    3      9.77      0.00
  -13    9    3     -3.07      0.00
  -12    9    3      7.44      0.00
  -11    9    3     24.49      0.00
  -10    9    3     -4.96      0.00
   -9    9    3     -1.15      0.00
   -8    9    3     21.88      0.00
   -7    9    3     13.82      0.00
   -6    9    3      7.01      0.00
   -5    9    3     15.68      0.00
   -4    9    3     19.97      0.00
   -3    9    3     -9.10      0.00
   -2    9    3     23.78      0.00
   -1    9    3     -2.10      0.00
    0    9    3     30.59      0.00
    1    9    3     36.20      0.00
    2    9    3     12.57      0.00
    3    9    3     -8.54      0.00
    4    9    3      9.45      0.00
    5    9    3    -29.13      0.00
    6    9    3    -19.74      0.00
    7    9    3      3.42      0.00
    8    9    3     -5.47      0.00
    9    9    3     26.25      0.00
   10    9    3    -13.95      0.00
   11    9    3    -12.04      0.00
   12    9    3    -10.59      0.00
   13    9    3     -0.58      0.00
   14    9    3    -10.51      0.00
   15    9    3     -8.39      0.00
   16    9    3      0.10      0.00
   18    9    3     -2.59      0.00
   19    9    3     -1.00      0.00
   20    9    3     -5.27      0.00
   21    9    3     10.86      0.00
   22    9    3     -1.04      0.00
   23    9    3      1.01      0.00
   24    9    3      0.95      0.00
  -23   10    3      4.44      0.00
  -22   10    3     -5.88      0.00
  -21   10    3     -2.06      0.00
  -20   10    3     -0.85      0.00
  -19   10    3      2.91      0.00
  -18   10    3     10.33      0.00
  -17   10    3      7.92      0.00
  -16   10    3      6.83      0.00
  -15   10    3      6.24      0.00
  -14   10    3      3.76      0.00
  -13   10    3    -10.34      0.00
  -12   10    3     14.63      0.00
  -11   10    3     11.67      0.00
  -10   10    3     14.83      0.00
   -9   10    3      5.63      0.00
   -8   10    3     14.43      0.00
   -7   10    3    -16.40      0.00
   -6   10    3     -4.95      0.00
   -5   10    3      1.53      0.00
   -4   10    3     35.04      0.00
   -3   10    3      7.65      0.00
   -2   10    3     15.78      0.00
   -1   10    3     -4.76      0.00
    0   10    3    -12.31      0.00
    1   10    3    -26.72      0.00
    2   10    3     -3.34      0.00
    3   10    3     -2.34      0.00
    4   10    3     14.71      0.00
    5   10    3    -29.85      0.00
    6   10    3     17.09      0.00
    7   10    3     -8.80      0.00
    8   10    3    -10.32      0.00
    9   10    3      2.46      0.00
   10   10    3     -5.46      0.00
   11   10    3      7.00      0.00
   12   10    3    -14.94      0.00
   13   10    3    -10.86      0.00
   14   10    3      7.88      0.00
   15   10    3      0.45      0.00
   16   10    3      0.02      0.00
   17   10    3     -1.13      0.00
   18   10    3     -2.67      0.00
   19   10    3     -3.48      0.00
   20   10    3     -7.57      0.00
   21   10    3      5.66      0.00
   22   10    3     -1.07      0.00
   23   10    3      6.02      0.00
  -22   11    3      2.23      0.00
  -21   11    3     -0.16      0.00
  -20   11    3     -5.81      0.00
  -19   11    3      0.21      0.00
  -18   11    3     -6.96      0.00
  -17   11    3      1.71      0.00
  -16   11    3    -15.11      0.00
  -15   11    3     -9.91      0.00
  -14   11    3     10.43      0.00
  -13   11    3      4.27      0.00
  -12   11    3    -23.16      0.00
  -11   11    3     14.28      0.00
  -10   11    3     -1.04      0.00
   -9   11    3     10.07      0.00
   -8   11    3     -6.04      0.00
   -7   11    3      5.16      0.00
   -6   11    3     11.30      0.00
   -5   11    3     25.91      0.00
   -4   11    3    -26.37      0.00
   -3   11    3     -4.83      0.00
   -2   11    3      3.57      0.00
   -1   11    3     23.29      0.00
    0   11    3    -17.48      0.00
    1   11    3     24.95      0.00
    2   11    3      2.98      0.00
    3   11    3     13.65      0.00
    4   11    3    -13.23      0.00
    5   11    3    -33.35      0.00
    6   11    3     -5.94      0.00
    7   11    3     13.69      0.00
    8   11    3    -12.06      0.00
    9   11    3     15.69      0.00
   10   11    3      6.84      0.00
   11   11    3     12.86      0.00
   12   11    3      3.80      0.00
   13   11    3      2.45      0.00
   14   11    3     14.51      0.00
   15   11    3     12.64      0.00
   16   11    3     19.04      0.00
   17   11    3      0.13      0.00
   18   11    3     11.19      0.00
   19   11    3      3.06      0.00
   20   11    3      3.58      0.00
   21   11    3      5.50      0.00
   22   11    3     -3.16      0.00
  -22   12    3     -1.01      0.00
  -21   12    3      1.01      0.00
  -20   12    3     -5.68      0.00
  -19   12    3     -0.28      0.00
  -18   12    3      4.53      0.00
  -17   12    3     13.29      0.00
  -16   12    3     -9.50      0.00
  -15   12    3      0.77      0.00
  -13   12    3     -1.30      0.00
  -12   12    3    -12.89      0.00
  -11   12    3     16.06      0.00
  -10   12    3     13.05      0.00
   -9   12    3     23.96      0.00
   -8   12    3    -16.63      0.00
   -7   12    3     -2.10      0.00
   -6   12    3      3.66      0.00
   -5   12    3     11.70      0.00
   -4   12    3      7.09      0.00
   -3   12    3     21.27      0.00
   -2   12    3      5.61      0.00
   -1   12    3      6.29      0.00
    0   12    3    -33.94      0.00
    1   12    3     -4.10      0.00
    2   12    3    -16.10      0.00
    3   12    3      8.20      0.00
    4   12    3     -6.52      0.00
    5   12    3    -12.83      0.00
    6   12    3      1.75      0.00
    7   12    3     -3.91      0.00
    8   12    3    -15.66      0.00
    9   12    3     14.11      0.00
   10   12    3    -17.30      0.00
   11   12    3     -0.85      0.00
   12   12    3    -19.58      0.00
   13   12    3     -6.02      0.00
   14   12    3     -1.94      0.00
   15   12    3     -1.67      0.00
   16   12    3     -2.57      0.00
   17   12    3      1.16      0.00
   18   12    3      5.08      0.00
   19   12    3    -10.55      0.00
   20   12    3      1.74      0.00
   21   12    3      0.05      0.00
  -21   13    3      0.81      0.00
  -20   13    3      4.95      0.00
  -19   13    3      6.07      0.00
  -18   13    3      0.13      0.00
  -17   13    3      6.56      0.00
  -16   13    3      3.57      0.00
  -15   13    3      0.33      0.00
  -14   13    3      9.04      0.00
  -13   13    3      1.33      0.00
  -12   13    3     -9.28      0.00
  -11   13    3     12.32      0.00
  -10   13    3    -12.56      0.00
   -9   13    3     -7.45      0.00
   -8   13    3     -4.51      0.00
   -7   13    3      4.98      0.00
   -6   13    3     -7.22      0.00
   -5   13    3     -2.04      0.00
   -4   13    3    -21.61      0.00
   -3   13    3      5.43      0.00
   -2   13    3     -8.09      0.00
   -1   13    3     -1.33      0.00
    0   13    3     -6.55      0.00
    1   13    3     22.73      0.00
    2   13    3    -14.75      0.00
    3   13    3     -4.42      0.00
    4   13    3     -5.78      0.00
    5   13    3    -26.44      0.00
    6   13    3    -13.08      0.00
    7   13    3     -7.67      0.00
    8   13    3     -4.52      0.00
    9   13    3      1.96      0.00
   10   13    3     -1.41      0.00
   11   13    3      2.83      0.00
   12   13    3      5.37      0.00
   13   13    3     -5.42      0.00
   14   13    3     -1.01      0.00
   15   13    3     10.84      0.00
   16   13    3      7.40      0.00
   17   13    3     -4.14      0.00
   18   13    3      6.25      0.00
   19   13    3      1.80      0.00
   20   13    3      3.34      0.00
  -19   14    3      1.98      0.00
  -18   14    3      1.26      0.00
  -17   14    3      4.22      0.00
  -16   14    3     -8.22      0.00
  -15   14    3     -0.78      0.00
  -14   14    3     -3.70      0.00
  -13   14    3     -5.06      0.00
  -12   14    3     -9.43      0.00
  -11   14    3     14.29      0.00
  -10   14    3      6.76      0.00
   -9   14    3     23.70      0.00
   -8   14    3    -13.08      0.00
   -7   14    3     -4.09      0.00
   -6   14    3      1.05      0.00
   -5   14    3      9.55      0.00
   -4   14    3      5.34      0.00
   -3   14    3     14.35      0.00
   -2   14    3      7.38      0.00
   -1   14    3      9.48      0.00
    0   14    3    -14.05      0.00
    1   14    3     -2.14      0.00
    2   14    3      6.14      0.00
    3   14    3     21.29      0.00
    4   14    3     11.82      0.00
    5   14    3    -12.96      0.00
    6   14    3     23.43      0.00
    7   14    3      5.23      0.00
    8   14    3     12.74      0.00
    9   14    3      3.28      0.00
   10   14    3      3.53      0.00
   11   14    3      2.43      0.00
   12   14    3      3.60      0.00
   13   14    3    -13.10      0.00
   14   14    3      3.86      0.00
   15   14    3     11.69      0.00
   16   14    3      0.26      0.00
   17   14    3     -3.51      0.00
   18   14    3     -1.18      0.00
   19   14    3     -0.82      0.00
  -18   15    3     -4.25      0.00
  -17   15    3      3.68      0.00
  -16   15    3      2.09      0.00
  -15   15    3      7.70      0.00
  -14   15    3     -1.86      0.00
  -13   15    3      1.93      0.00
  -12   15    3     -6.36      0.00
  -11   15    3     10.62      0.00
  -10   15    3    -14.46      0.00
   -9   15    3     -4.83      0.00
   -8   15    3      7.98      0.00
   -7   15    3      5.63      0.00
   -6   15    3     -1.47      0.00
   -5   15    3      0.25      0.00
   -4   15    3     -3.15      0.00
   -3   15    3      5.21      0.00
   -2   15    3      0.46      0.00
   -1   15    3     -3.78      0.00
    0   15    3     10.47      0.00
    1   15    3     12.32      0.00
    2   15    3    -10.31      0.00
    3   15    3     -6.60      0.00
    4   15    3      5.22      0.00
    5   15    3    -11.31      0.00
    6   15    3     -4.07      0.00
    7   15    3     -9.42      0.00
    8   15    3      2.88      0.00
    9   15    3      9.90      0.00
   10   15    3      1.04      0.00
   11   15    3     -7.56      0.00
   12   15    3      5.38      0.00
   13   15    3     -5.45      0.00
   14   15    3     -4.60      0.00
   15   15    3     -0.91      0.00
   16   15    3      3.00      0.00
   17   15    3      0.84      0.00
   18   15    3      5.45      0.00
  -16   16    3     -0.07      0.00
  -15   16    3     -7.84      0.00
  -14   16    3     -6.70      0.00
  -13   16    3     -7.81      0.00
  -12   16    3      0.65      0.00
  -11   16    3      6.27      0.00
  -10   16    3      1.25      0.00
   -9   16    3     12.46      0.00
   -8   16    3     -6.57      0.00
   -7   16    3     -3.21      0.00
   -6   16    3     -4.95      0.00
   -5   16    3      1.17      0.00
   -4   16    3     -0.81      0.00
   -3   16    3     12.75      0.00
   -2   16    3     -0.88      0.00
   -1   16    3     -2.61      0.00
    0   16    3    -12.22      0.00
    1   16    3     -0.49      0.00
    2   16    3      5.50      0.00
    3   16    3      3.84      0.00
    4   16    3     -1.60      0.00
    5   16    3    -10.74      0.00
    6   16    3      9.78      0.00
    7   16    3     -6.96      0.00
    8   16    3     -2.10      0.00
    9   16    3     11.60      0.00
   10   16    3      0.41      0.00
   11   16    3     -1.64      0.00
   12   16    3      3.43      0.00
   13   16    3     -0.89      0.00
   14   16    3      6.47      0.00
   15   16    3      4.03      0.00
   16   16    3     -1.26      0.00
  -14   17    3      5.75      0.00
  -13   17    3     -0.22      0.00
  -12   17    3     -8.53      0.00
  -11   17    3     -4.82      0.00
  -10   17    3      1.19      0.00
   -9   17    3     -9.69      0.00
   -8   17    3      4.00      0.00
   -7   17    3     -3.54      0.00
   -6   17    3     13.08      0.00
   -5   17    3     -5.16      0.00
   -4   17    3     -6.16      0.00
   -3   17    3      0.01      0.00
   -2   17    3     15.31      0.00
   -1   17    3     -9.77      0.00
    0   17    3      1.64      0.00
    1   17    3      1.87      0.00
    2   17    3      3.40      0.00
    3   17    3     -9.53      0.00
    4   17    3     -3.15      0.00
    5   17    3    -14.19      0.00
    6   17    3      6.02      0.00
    7   17    3    -10.52      0.00
    8   17    3     -8.14      0.00
    9   17    3      2.25      0.00
   10   17    3     -0.53      0.00
   11   17    3     -4.47      0.00
   12   17    3     -5.07      0.00
   13   17    3     -5.16      0.00
   14   17    3     -6.43      0.00
  -12   18    3      0.31      0.00
  -11   18    3      5.91      0.00
  -10   18    3      7.03      0.00
   -9   18    3      6.21      0.00
   -8   18    3     -4.94      0.00
   -7   18    3     -3.93      0.00
   -6   18    3      5.09      0.00
   -5   18    3     -0.57      0.00
   -4   18    3      1.46      0.00
   -3   18    3      9.58      0.00
   -2   18    3      2.87      0.00
   -1   18    3     -5.17      0.00
    0   18    3     -3.34      0.00
    1   18    3      1.72      0.00
    2   18    3      1.31      0.00
    3   18    3     -4.12      0.00
    4   18    3     -1.30      0.00
    5   18    3     -5.32      0.00
    6   18    3     -2.77      0.00
    7   18    3    -12.78      0.00
    8   18    3     -2.04      0.00
    9   18    3      8.13      0.00
   10   18    3     -4.86      0.00
   11   18    3     -6.16      0.00
   12   18    3      4.56      0.00
   -9   19    3      1.65      0.00
   -8   19    3      3.13      0.00
   -7   19    3      3.93      0.00
   -6   19    3     -1.98      0.00
   -5   19    3      1.26      0.00
   -4   19    3     -6.08      0.00
   -3   19    3      3.96      0.00
   -2   19    3      1.84      0.00
   -1   19    3     -0.60      0.00
    0   19    3     -0.23      0.00
    1   19    3      7.33      0.00
    2   19    3     -1.12      0.00
    3   19    3      1.59      0.00
    4   19    3      0.52      0.00
    5   19    3     -3.60      0.00
    6   19    3      2.26      0.00
    7   19    3     -1.40      0.00
    8   19    3     -3.38      0.00
    9   19    3      3.68      0.00
   -4   20    3     -1.03      0.00
   -3   20    3      2.01      0.00
   -2   20    3     -2.36      0.00
   -1   20    3     -2.45      0.00
    0   20    3     -5.36      0.00
    1   20    3     -1.05      0.00
    2   20    3     -1.60      0.00
    3   20    3      0.69      0.00
  -26    0    4     -3.78      0.00
  -24    0    4      7.40      0.00
  -22    0    4      9.43      0.00
  -20    0    4     23.65      0.00
  -18    0    4     16.30      0.00
  -16    0    4     26.61      0.00
  -14    0    4     -1.25      0.00
  -12    0    4     41.47      0.00
  -10    0    4      2.69      0.00
   -8    0    4     67.56      0.00
   -6    0    4    -67.54      0.00
   -4    0    4     73.38      0.00
    4    0    4    -24.68      0.00
    6    0    4    -30.52      0.00
   10    0    4    -51.12      0.00
   12    0    4     12.97      0.00
   14    0    4     44.84      0.00
   16    0    4      1.81      0.00
   18    0    4     19.83      0.00
   20    0    4     16.36      0.00
   22    0    4      3.54      0.00
   24    0    4    -12.94      0.00
   26    0    4      0.95      0.00
  -27    1    4      1.28      0.00
  -26    1    4     -3.69      0.00
  -25    1    4     -1.67      0.00
  -24    1    4     -0.27      0.00
  -23    1    4     -6.54      0.00
  -22    1    4     -2.58      0.00
  -21    1    4    -11.84      0.00
  -20    1    4     11.19      0.00
  -19    1    4     -4.51      0.00
  -18    1    4      4.22      0.00
  -17    1    4    -40.56      0.00
  -16    1    4      6.94      0.00
  -15    1    4      3.46      0.00
  -14    1    4    -14.96      0.00
  -13    1    4      8.59      0.00
  -12    1    4    -24.38      0.00
  -11    1    4     17.91      0.00
  -10    1    4    -23.83      0.00
   -9    1    4   -116.12      0.00
   -8    1    4    -36.99      0.00
   -7    1    4     34.14      0.00
   -6    1    4    -51.27      0.00
   -5    1    4      8.83      0.00
   -4    1    4    -31.82      0.00
   -3    1    4     46.11      0.00
   -2    1    4    -31.68      0.00
   -1    1    4    -38.71      0.00
    0    1    4     22.43      0.00
    1    1    4      9.54      0.00
    2    1    4     14.63      0.00
    3    1    4    -23.79      0.00
    4    1    4     34.66      0.00
    5    1    4     -1.36      0.00
    6    1    4     15.59      0.00
    7    1    4     68.33      0.00
    8    1    4     36.19      0.00
    9    1    4     50.39      0.00
   10    1    4     16.12      0.00
   11    1    4     18.27      0.00
   12    1    4      5.20      0.00
   13    1    4    -32.40      0.00
   14    1    4     10.88      0.00
   15    1    4     32.79      0.00
   16    1    4     16.25      0.00
   17    1    4     13.83      0.00
   18    1    4     17.76      0.00
   19    1    4      5.93      0.00
   20    1    4      6.25      0.00
   21    1    4      0.11      0.00
   22    1    4      1.16      0.00
   23    1    4      7.56      0.00
   24    1    4     -0.86      0.00
   25    1    4      1.48      0.00
   26    1    4     -0.13      0.00
  -27    2    4     -2.65      0.00
  -26    2    4      1.13      0.00
  -25    2    4      2.44      0.00
  -24    2    4      1.84      0.00
  -23    2    4     -0.36      0.00
  -22    2    4      3.14      0.00
  -21    2    4      7.13      0.00
  -20    2    4      2.70      0.00
  -19    2    4     -0.81      0.00
  -18    2    4     10.30      0.00
  -17    2    4     11.78      0.00
  -16    2    4      6.33      0.00
  -15    2    4      1.49      0.00
  -14    2    4      8.40      0.00
  -13    2    4     31.13      0.00
  -12    2    4     -7.39      0.00
  -11    2    4     18.08      0.00
  -10    2    4     11.24      0.00
   -9    2    4      1.33      0.00
   -8    2    4    -19.96      0.00
   -7    2    4    -18.71      0.00
   -6    2    4    -24.75      0.00
   -5    2    4    -77.61      0.00
   -4    2    4    -61.77      0.00
   -3    2    4    -26.04      0.00
   -2    2    4    -52.05      0.00
   -1    2    4     -9.54      0.00
    0    2    4     53.65      0.00
    1    2    4     22.27      0.00
    2    2    4    -15.59      0.00
    3    2    4    -30.96      0.00
    4    2    4    -72.66      0.00
    5    2    4     -9.22      0.00
    6    2    4     30.34      0.00
    7    2    4    -26.96      0.00
    8    2    4     35.18      0.00
    9    2    4     -1.98      0.00
   10    2    4    -33.60      0.00
   11    2    4     -8.31      0.00
   12    2    4     -4.79      0.00
   13    2    4     -3.81      0.00
   14    2    4      5.62      0.00
   15    2    4    -22.93      0.00
   16    2    4    -27.56      0.00
   17    2    4     -7.18      0.00
   18    2    4     -2.90      0.00
   19    2    4     -8.20      0.00
   20    2    4      6.26      0.00
   21    2    4      2.40      0.00
   22    2    4     -5.89      0.00
   23    2    4     -4.23      0.00
   24    2    4    -17.39      0.00
   26    2    4     -0.55      0.00
  -26    3    4     -0.22      0.00
  -25    3    4      2.84      0.00
  -24    3    4      0.97      0.00
  -23    3    4     -1.09      0.00
  -22    3    4      8.33      0.00
  -21    3    4      0.07      0.00
  -20    3    4      9.13      0.00
  -19    3    4     -1.66      0.00
  -18    3    4     14.06      0.00
  -17    3    4    -21.79      0.00
  -16    3    4      3.56      0.00
  -15    3    4    -10.88      0.00
  -14    3    4     -1.16      0.00
  -13    3    4     27.49      0.00
  -12    3    4    -18.56      0.00
  -11    3    4     11.86      0.00
  -10    3    4     16.62      0.00
   -9    3    4    -61.36      0.00
   -8    3    4    -18.75      0.00
   -7    3    4     13.79      0.00
   -6    3    4    -21.69      0.00
   -5    3    4    -35.69      0.00
   -4    3    4      5.60      0.00
   -3    3    4    -34.11      0.00
   -2    3    4    -21.13      0.00
   -1    3    4    -97.94      0.00
    0    3    4     -2.88      0.00
    1    3    4    110.25      0.00
    2    3    4    -68.58      0.00
    3    3    4    -14.03      0.00
    4    3    4    -48.40      0.00
    5    3    4     60.43      0.00
    6    3    4    -51.96      0.00
    8    3    4     57.26      0.00
    9    3    4     59.08      0.00
   10    3    4     29.46      0.00
   11    3    4    -33.65      0.00
   12    3    4     33.01      0.00
   13    3    4     -2.84      0.00
   14    3    4      4.34      0.00
   15    3    4      9.17      0.00
   16    3    4     22.55      0.00
   17    3    4     20.39      0.00
   18    3    4      2.97      0.00
   19    3    4     -3.84      0.00
   20    3    4      1.27      0.00
   21    3    4      6.79      0.00
   22    3    4     -4.28      0.00
   23    3    4      7.63      0.00
   24    3    4     -2.16      0.00
   25    3    4      4.09      0.00
   26    3    4      0.08      0.00
  -26    4    4      0.14      0.00
  -25    4    4      2.64      0.00
  -24    4    4      1.10      0.00
  -23    4    4     -6.66      0.00
  -22    4    4     -1.28      0.00
  -21    4    4      3.41      0.00
  -20    4    4     -4.04      0.00
  -19    4    4     -2.30      0.00
  -18    4    4     -0.76      0.00
  -17    4    4     -0.56      0.00
  -16    4    4     -5.73      0.00
  -15    4    4    -11.03      0.00
  -14    4    4     -1.36      0.00
  -13    4    4      9.76      0.00
  -12    4    4    -37.67      0.00
  -11    4    4      6.96      0.00
  -10    4    4     -4.77      0.00
   -9    4    4     16.53      0.00
   -8    4    4    -30.01      0.00
   -7    4    4     33.91      0.00
   -6    4    4     39.75      0.00
   -5    4    4    -29.80      0.00
   -4    4    4     -7.28      0.00
   -3    4    4    -10.44      0.00
   -2    4    4     77.06      0.00
   -1    4    4    -16.64      0.00
    1    4    4     29.69      0.00
    2    4    4     60.08      0.00
    3    4    4     -4.43      0.00
    4    4    4    -26.10      0.00
    5    4    4     58.60      0.00
    6    4    4     60.55      0.00
    7    4    4      2.26      0.00
    8    4    4     33.76      0.00
    9    4    4      9.05      0.00
   10    4    4     -3.89      0.00
   11    4    4    -15.81      0.00
   12    4    4     11.50      0.00
   13    4    4     -2.39      0.00
   14    4    4      8.99      0.00
   15    4    4    -12.99      0.00
   16    4    4    -29.73      0.00
   17    4    4     -3.54      0.00
   18    4    4    -11.77      0.00
   19    4    4      6.00      0.00
   20    4    4      1.47      0.00
   21    4    4     -2.42      0.00
   23    4    4     -1.56      0.00
   24    4    4    -15.24      0.00
   25    4    4     -0.96      0.00
   26    4    4     -1.84      0.00
  -26    5    4     -3.87      0.00
  -25    5    4      3.54      0.00
  -24    5    4     -4.08      0.00
  -23    5    4      1.50      0.00
  -22    5    4      7.27      0.00
  -21    5    4      3.10      0.00
  -20    5    4     -0.33      0.00
  -19    5    4      3.76      0.00
  -18    5    4     13.65      0.00
  -17    5    4     -7.73      0.00
  -16    5    4     -3.74      0.00
  -15    5    4    -14.20      0.00
  -14    5    4      1.58      0.00
  -13    5    4     15.51      0.00
  -12    5    4    -19.80      0.00
  -11    5    4     -2.32      0.00
  -10    5    4     11.21      0.00
   -9    5    4    -41.73      0.00
   -8    5    4    -50.28      0.00
   -7    5    4     15.04      0.00
   -6    5    4    -33.11      0.00
   -5    5    4     24.35      0.00
   -4    5    4     10.37      0.00
   -3    5    4    -46.41      0.00
   -2    5    4     28.16      0.00
   -1    5    4    -21.47      0.00
    0    5    4     13.13      0.00
    1    5    4     85.73      0.00
    2    5    4    -34.02      0.00
    3    5    4     60.95      0.00
    4    5    4    -58.94      0.00
    5    5    4      4.60      0.00
    6    5    4    -57.56      0.00
    7    5    4     30.75      0.00
    8    5    4     31.01      0.00
    9    5    4     29.44      0.00
   10    5    4     13.22      0.00
   11    5    4      2.26      0.00
   12    5    4      9.62      0.00
   13    5    4     -4.97      0.00
   14    5    4    -15.65      0.00
   15    5    4     27.42      0.00
   16    5    4      3.19      0.00
   17    5    4     19.69      0.00
   18    5    4     -5.83      0.00
   19    5    4      7.33      0.00
   20    5    4      0.75      0.00
   21    5    4      5.31      0.00
   22    5    4      5.98      0.00
   23    5    4      6.54      0.00
   24    5    4      2.75      0.00
   25    5    4      4.84      0.00
   26    5    4      2.17      0.00
  -26    6    4      0.04      0.00
  -25    6    4     -1.38      0.00
  -24    6    4      3.22      0.00
  -23    6    4    -12.03      0.00
  -22    6    4     -1.82      0.00
  -21    6    4     -0.20      0.00
  -20    6    4      6.06      0.00
  -19    6    4    -10.33      0.00
  -18    6    4     -4.76      0.00
  -17    6    4     -0.25      0.00
  -16    6    4     21.67      0.00
  -15    6    4    -20.42      0.00
  -14    6    4      5.17      0.00
  -13    6    4     13.04      0.00
  -12    6    4     15.73      0.00
  -11    6    4    -26.26      0.00
  -10    6    4    -11.68      0.00
   -9    6    4     10.45      0.00
   -8    6    4      9.84      0.00
   -7    6    4      3.01      0.00
   -6    6    4    -46.01      0.00
   -5    6    4    -10.70      0.00
   -4    6    4    -40.22      0.00
   -3    6    4    -33.84      0.00
   -2    6    4    -43.23      0.00
   -1    6    4      0.71      0.00
    0    6    4     55.79      0.00
    1    6    4     19.86      0.00
    2    6    4    -28.39      0.00
    3    6    4     25.86      0.00
    4    6    4    -29.71      0.00
    5    6    4     59.33      0.00
    6    6    4    -18.38      0.00
    7    6    4     12.39      0.00
    8    6    4    -13.56      0.00
    9    6    4    -13.38      0.00
   10    6    4    -26.28      0.00
   11    6    4    -20.48      0.00
   12    6    4     15.81      0.00
   13    6    4      1.39      0.00
   14    6    4      2.93      0.00
   15    6    4      0.36      0.00
   16    6    4    -24.75      0.00
   17    6    4     13.58      0.00
   18    6    4    -20.62      0.00
   19    6    4     15.03      0.00
   20    6    4     -2.13      0.00
   21    6    4      8.54      0.00
   22    6    4    -10.71      0.00
   23    6    4      0.63      0.00
   24    6    4     -9.19      0.00
   25    6    4      6.09      0.00
  -25    7    4     -2.55      0.00
  -24    7    4      0.69      0.00
  -23    7    4    -12.25      0.00
  -22    7    4     -1.15      0.00
  -21    7    4     -9.02      0.00
  -20    7    4      3.72      0.00
  -19    7    4     -9.84      0.00
  -18    7    4      2.92      0.00
  -17    7    4      0.60      0.00
  -16    7    4      4.26      0.00
  -15    7    4    -24.39      0.00
  -14    7    4    -10.82      0.00
  -13    7    4     16.20      0.00
  -12    7    4      5.45      0.00
  -11    7    4    -34.60      0.00
  -10    7    4     21.92      0.00
   -9    7    4    -27.87      0.00
   -8    7    4      7.64      0.00
   -7    7    4    -27.94      0.00
   -6    7    4     14.02      0.00
   -5    7    4     45.11      0.00
   -4    7    4     53.07      0.00
   -3    7    4    -88.60      0.00
   -2    7    4     31.11      0.00
   -1    7    4    -29.14      0.00
    0    7    4      2.36      0.00
    1    7    4     -0.17      0.00
    2    7    4    -15.49      0.00
    3    7    4     26.49      0.00
    4    7    4    -29.44      0.00
    5    7    4    -42.12      0.00
    6    7    4    -32.90      0.00
    7    7    4     43.23      0.00
    8    7    4     -2.40      0.00
    9    7    4     24.71      0.00
   10    7    4     -6.06      0.00
   11    7    4      4.23      0.00
   12    7    4    -24.98      0.00
   13    7    4    -21.50      0.00
   14    7    4    -14.72      0.00
   15    7    4      5.98      0.00
   16    7    4    -10.47      0.00
   17    7    4      3.41      0.00
   18    7    4     -4.37      0.00
   19    7    4      9.69      0.00
   20    7    4    -10.53      0.00
   21    7    4      8.46      0.00
   22    7    4     -0.59      0.00
   23    7    4      6.70      0.00
   24    7    4     -3.28      0.00
   25    7    4      1.96      0.00
  -25    8    4      1.13      0.00
  -24    8    4      6.32      0.00
  -23    8    4     -1.89      0.00
  -21    8    4     -0.80      0.00
  -20    8    4      6.18      0.00
  -19    8    4     -3.53      0.00
  -18    8    4      0.52      0.00
  -17    8    4     -8.19      0.00
  -16    8    4     21.26      0.00
  -15    8    4     -2.25      0.00
  -14    8    4     20.99      0.00
  -13    8    4     21.14      0.00
  -12    8    4     21.33      0.00
  -11    8    4     -2.77      0.00
  -10    8    4     29.36      0.00
   -9    8    4      5.76      0.00
   -8    8    4     22.01      0.00
   -7    8    4      9.68      0.00
   -6    8    4     19.00      0.00
   -5    8    4      2.85      0.00
   -4    8    4    -36.40      0.00
   -3    8    4     -4.50      0.00
   -2    8    4     24.36      0.00
   -1    8    4     11.78      0.00
    0    8    4     21.95      0.00
    1    8    4     10.51      0.00
    2    8    4      1.36      0.00
    3    8    4     -9.13      0.00
    4    8    4    -33.05      0.00
    5    8    4     21.18      0.00
    6    8    4     -7.95      0.00
    7    8    4     -4.23      0.00
    8    8    4    -23.87      0.00
    9    8    4      1.16      0.00
   10    8    4    -23.71      0.00
   11    8    4      4.33      0.00
   12    8    4     17.33      0.00
   13    8    4     24.37      0.00
   14    8    4     -1.06      0.00
   15    8    4     -6.44      0.00
   16    8    4     -6.86      0.00
   17    8    4      0.56      0.00
   18    8    4    -14.42      0.00
   19    8    4      0.23      0.00
   20    8    4      7.06      0.00
   21    8    4      6.10      0.00
   22    8    4     -9.42      0.00
   23    8    4      1.65      0.00
   24    8    4      0.55      0.00
  -24    9    4     -3.77      0.00
  -23    9    4    -10.58      0.00
  -22    9    4      3.93      0.00
  -21    9    4     -4.07      0.00
  -20    9    4      1.87      0.00
  -19    9    4     -7.98      0.00
  -18    9    4      5.96      0.00
  -17    9    4      1.01      0.00
  -16    9    4      0.08      0.00
  -15    9    4    -31.66      0.00
  -14    9    4    -19.48      0.00
  -13    9    4      0.89      0.00
  -12    9    4     -1.24      0.00
  -11    9    4    -31.39      0.00
  -10    9    4    -10.55      0.00
   -9    9    4    -13.89      0.00
   -8    9    4     -1.42      0.00
   -7    9    4    -25.99      0.00
   -6    9    4    -16.32      0.00
   -5    9    4     39.60      0.00
   -4    9    4     31.65      0.00
   -3    9    4    -55.11      0.00
   -2    9    4     -7.55      0.00
   -1    9    4    -16.63      0.00
    0    9    4     -0.61      0.00
    1    9    4     34.71      0.00
    2    9    4     -2.55      0.00
    3    9    4      9.76      0.00
    4    9    4     21.87      0.00
    5    9    4    -15.45      0.00
    6    9    4     -7.49      0.00
    7    9    4     15.79      0.00
    8    9    4     13.18      0.00
    9    9    4     39.70      0.00
   10    9    4     -9.27      0.00
   11    9    4     -2.02      0.00
   12    9    4     -0.06      0.00
   13    9    4     14.18      0.00
   14    9    4     -4.01      0.00
   15    9    4     10.78      0.00
   16    9    4     14.78      0.00
   17    9    4     26.59      0.00
   18    9    4     -2.55      0.00
   19    9    4     10.77      0.00
   20    9    4     -0.47      0.00
   21    9    4     19.47      0.00
   22    9    4     -3.40      0.00
   23    9    4      4.96      0.00
   24    9    4     -0.47      0.00
  -23   10    4     -1.20      0.00
  -22   10    4      2.16      0.00
  -21   10    4     -5.85      0.00
  -20   10    4     -0.61      0.00
  -19   10    4      8.32      0.00
  -18   10    4      7.31      0.00
  -17   10    4    -11.12      0.00
  -16   10    4     13.33      0.00
  -15   10    4     12.19      0.00
  -14   10    4     24.67      0.00
  -13   10    4      1.58      0.00
  -12   10    4      3.59      0.00
  -11   10    4     -2.91      0.00
  -10   10    4     19.22      0.00
   -9   10    4    -19.39      0.00
   -8   10    4      0.47      0.00
   -7   10    4      8.35      0.00
   -6   10    4     15.93      0.00
   -5   10    4      0.79      0.00
   -4   10    4    -29.27      0.00
   -3   10    4      2.31      0.00
   -2   10    4     37.25      0.00
   -1   10    4      9.67      0.00
    0   10    4     -1.73      0.00
    1   10    4     13.19      0.00
    2   10    4     -3.74      0.00
    3   10    4      3.55      0.00
    4   10    4    -28.98      0.00
    5   10    4     29.74      0.00
    6   10    4     21.65      0.00
    7   10    4      8.76      0.00
    8   10    4    -15.08      0.00
    9   10    4      1.99      0.00
   10   10    4      0.83      0.00
   11   10    4      8.58      0.00
   12   10    4      5.06      0.00
   13   10    4     10.67      0.00
   14   10    4      5.72      0.00
   15   10    4    -10.31      0.00
   16   10    4     -8.11      0.00
   17   10    4    -10.93      0.00
   18   10    4     -5.92      0.00
   19   10    4      0.74      0.00
   20   10    4      1.72      0.00
   21   10    4     -2.17      0.00
   22   10    4     -6.49      0.00
   23   10    4      3.70      0.00
  -22   11    4      4.37      0.00
  -21   11    4     -8.69      0.00
  -20   11    4     -1.08      0.00
  -19   11    4     -2.38      0.00
  -18   11    4      2.76      0.00
  -17   11    4     -6.47      0.00
  -16   11    4      1.73      0.00
  -15   11    4    -13.89      0.00
  -14   11    4     -3.07      0.00
  -13   11    4     -9.10      0.00
  -12   11    4      8.53      0.00
  -11   11    4     -3.26      0.00
  -10   11    4     -1.60      0.00
   -9   11    4    -18.81      0.00
   -8   11    4     -7.14      0.00
   -7   11    4    -24.79      0.00
   -6   11    4    -19.49      0.00
   -5   11    4      9.49      0.00
   -4   11    4      4.66      0.00
   -3   11    4    -55.44      0.00
   -2   11    4     -1.04      0.00
   -1   11    4    -19.90      0.00
    0   11    4     -2.80      0.00
    1   11    4     10.65      0.00
    2   11    4      8.97      0.00
    3   11    4     11.37      0.00
    4   11    4      4.86      0.00
    5   11    4    -27.13      0.00
    6   11    4      0.92      0.00
    7   11    4     22.26      0.00
    8   11    4      8.67      0.00
    9   11    4     18.62      0.00
   10   11    4     14.04      0.00
   11   11    4     -1.13      0.00
   12   11    4      1.30      0.00
   13   11    4     -0.04      0.00
   14   11    4      6.78      0.00
   15   11    4      0.90      0.00
   16   11    4      7.94      0.00
   17   11    4      3.84      0.00
   18   11    4      5.67      0.00
   19   11    4     -3.00      0.00
   20   11    4      0.28      0.00
   21   11    4      2.75      0.00
   22   11    4      0.45      0.00
  -21   12    4     -2.17      0.00
  -20   12    4      2.74      0.00
  -18   12    4     -0.06      0.00
  -17   12    4     -3.34      0.00
  -14   12    4      0.11      0.00
  -13   12    4      5.58      0.00
  -12   12    4     -2.34      0.00
  -11   12    4    -10.23      0.00
  -10   12    4     -5.59      0.00
   -9   12    4      6.08      0.00
   -8   12    4      7.53      0.00
   -7   12    4     12.45      0.00
   -6   12    4    -10.82      0.00
   -5   12    4     30.04      0.00
   -4   12    4     -8.38      0.00
   -3   12    4     -9.57      0.00
   -2   12    4     15.30      0.00
   -1   12    4     17.35      0.00
    0   12    4     15.93      0.00
    1   12    4    -18.98      0.00
    2   12    4     -6.02      0.00
    3   12    4      5.91      0.00
    4   12    4      8.56      0.00
    5   12    4     -4.99      0.00
    6   12    4     20.41      0.00
    7   12    4      8.52      0.00
    8   12    4     -4.12      0.00
    9   12    4    -23.13      0.00
   10   12    4     -2.43      0.00
   11   12    4      9.36      0.00
   12   12    4      6.91      0.00
   13   12    4     -1.64      0.00
   14   12    4     -0.35      0.00
   15   12    4     -6.65      0.00
   16   12    4     -7.26      0.00
   17   12    4     -7.91      0.00
   18   12    4     -8.45      0.00
   19   12    4     -6.79      0.00
   20   12    4     -3.46      0.00
   21   12    4     -5.70      0.00
  -20   13    4     -0.68      0.00
  -19   13    4     -3.05      0.00
  -18   13    4     -5.32      0.00
  -17   13    4     -1.77      0.00
  -16   13    4      1.13      0.00
  -15   13    4     -5.27      0.00
  -14   13    4     -2.26      0.00
  -13   13    4      0.84      0.00
  -12   13    4     10.44      0.00
  -11   13    4      2.95      0.00
  -10   13    4      5.97      0.00
   -9   13    4     -8.88      0.00
   -8   13    4     -0.10      0.00
   -7   13    4    -15.17      0.00
   -6   13    4     -3.00      0.00
   -5   13    4     28.01      0.00
   -4   13    4      0.84      0.00
   -3   13    4    -18.41      0.00
   -2   13    4     12.74      0.00
   -1   13    4      7.26      0.00
    0   13    4     -2.09      0.00
    1   13    4     21.99      0.00
    2   13    4     22.58      0.00
    3   13    4     17.92      0.00
    4   13    4     -3.18      0.00
    5   13    4    -15.08      0.00
    6   13    4     16.77      0.00
    7   13    4     22.15      0.00
    8   13    4     -5.33      0.00
    9   13    4     15.06      0.00
   10   13    4     21.26      0.00
   11   13    4      1.49      0.00
   12   13    4    -16.20      0.00
   13   13    4     -5.06      0.00
   14   13    4      9.29      0.00
   15   13    4      2.71      0.00
   16   13    4     -3.44      0.00
   17   13    4     -0.39      0.00
   18   13    4     11.45      0.00
   19   13    4      4.24      0.00
   20   13    4     -2.30      0.00
  -19   14    4     -0.38      0.00
  -18   14    4      0.27      0.00
  -17   14    4     -6.63      0.00
  -16   14    4     -0.97      0.00
  -15   14    4     -3.32      0.00
  -14   14    4      1.58      0.00
  -13   14    4     -5.36      0.00
  -12   14    4     -3.22      0.00
  -11   14    4    -15.04      0.00
  -10   14    4     -0.76      0.00
   -9   14    4     -8.82      0.00
   -8   14    4      7.71      0.00
   -7   14    4     -0.74      0.00
   -6   14    4     -5.16      0.00
   -5   14    4      8.24      0.00
   -4   14    4     -7.52      0.00
   -3   14    4     -9.51      0.00
   -2   14    4     13.19      0.00
   -1   14    4     11.34      0.00
    0   14    4      6.43      0.00
    1   14    4    -14.02      0.00
    2   14    4     -3.41      0.00
    3   14    4      2.58      0.00
    4   14    4     15.37      0.00
    5   14    4     -3.95      0.00
    6   14    4     10.37      0.00
    7   14    4      7.06      0.00
    8   14    4     -4.06      0.00
    9   14    4    -14.39      0.00
   10   14    4     -8.11      0.00
   11   14    4      8.66      0.00
   12   14    4      9.64      0.00
   13   14    4      1.85      0.00
   14   14    4     -2.84      0.00
   15   14    4     -4.40      0.00
   16   14    4     -1.16      0.00
   17   14    4     -5.04      0.00
   18   14    4     -5.69      0.00
   19   14    4     -3.13      0.00
  -18   15    4      0.22      0.00
  -17   15    4      0.83      0.00
  -16   15    4     -2.15      0.00
  -15   15    4     -2.46      0.00
  -14   15    4      1.42      0.00
  -13   15    4     -0.19      0.00
  -12   15    4      7.85      0.00
  -11   15    4     10.32      0.00
  -10   15    4      5.75      0.00
   -9   15    4    -10.81      0.00
   -8   15    4      3.79      0.00
   -7   15    4     -8.81      0.00
   -6   15    4     -0.75      0.00
   -5   15    4      6.07      0.00
   -4   15    4      4.54      0.00
   -3   15    4    -15.12      0.00
   -2   15    4      2.03      0.00
   -1   15    4    -10.08      0.00
    0   15    4      0.19      0.00
    1   15    4     12.47      0.00
    2   15    4      1.16      0.00
    3   15    4     -0.51      0.00
    4   15    4      1.74      0.00
    5   15    4    -11.41      0.00
    6   15    4      1.40      0.00
    7   15    4     12.04      0.00
    8   15    4     -4.09      0.00
    9   15    4     14.63      0.00
   10   15    4     -3.62      0.00
   11   15    4      0.12      0.00
   12   15    4    -10.79      0.00
   13   15    4     -1.92      0.00
   14   15    4     -9.52      0.00
   15   15    4     -0.99      0.00
   16   15    4      0.64      0.00
   17   15    4      1.06      0.00
  -16   16    4      0.34      0.00
  -15   16    4      3.70      0.00
  -14   16    4      9.35      0.00
  -13   16    4     -6.56      0.00
  -12   16    4      0.22      0.00
  -11   16    4     -0.23      0.00
  -10   16    4      0.66      0.00
   -9   16    4     -8.80      0.00
   -8   16    4      3.16      0.00
   -7   16    4     13.10      0.00
   -6   16    4    -10.22      0.00
   -5   16    4     -3.74      0.00
   -4   16    4     -3.89      0.00
   -3   16    4      8.20      0.00
   -2   16    4      1.13      0.00
   -1   16    4      1.43      0.00
    0   16    4     -6.19      0.00
    1   16    4      0.77      0.00
    2   16    4    -18.84      0.00
    3   16    4     -7.88      0.00
    4   16    4     -1.39      0.00
    5   16    4      0.26      0.00
    6   16    4     -0.57      0.00
    7   16    4     -1.09      0.00
    8   16    4    -13.71      0.00
    9   16    4     -3.94      0.00
   10   16    4     -6.33      0.00
   11   16    4      4.58      0.00
   12   16    4     -4.09      0.00
   13   16    4      4.14      0.00
   14   16    4     -1.09      0.00
   15   16    4      0.08      0.00
   16   16    4     -3.98      0.00
  -14   17    4      2.70      0.00
  -13   17    4     -9.52      0.00
  -12   17    4      3.98      0.00
  -11   17    4     14.32      0.00
  -10   17    4      6.75      0.00
   -9   17    4     -8.51      0.00
   -8   17    4     -0.71      0.00
   -7   17    4      7.09      0.00
   -6   17    4     -0.57      0.00
   -5   17    4     -2.76      0.00
   -4   17    4     -6.67      0.00
   -3   17    4     -5.31      0.00
   -2   17    4     -3.13      0.00
   -1   17    4     -8.50      0.00
    0   17    4     -6.22      0.00
    1   17    4     16.53      0.00
    2   17    4     -8.85      0.00
    3   17    4      6.08      0.00
    4   17    4     -4.55      0.00
    5   17    4     -4.97      0.00
    6   17    4     -1.38      0.00
    7   17    4      9.95      0.00
    8   17    4     -3.37      0.00
    9   17    4      8.01      0.00
   10   17    4     -1.06      0.00
   11   17    4      4.98      0.00
   12   17    4     -2.75      0.00
   13   17    4     -1.05      0.00
   14   17    4     -6.17      0.00
  -12   18    4      3.36      0.00
  -11   18    4     -5.89      0.00
  -10   18    4     -0.25      0.00
   -9   18    4      0.01      0.00
   -8   18    4      1.74      0.00
   -7   18    4      2.52      0.00
   -6   18    4     -4.00      0.00
   -5   18    4     -0.21      0.00
   -4   18    4      4.59      0.00
   -3   18    4     -0.01      0.00
   -2   18    4      6.85      0.00
   -1   18    4      2.26      0.00
    0   18    4      0.41      0.00
    1   18    4     -5.44      0.00
    2   18    4     -9.04      0.00
    3   18    4     -1.08      0.00
    4   18    4      3.51      0.00
    5   18    4     -0.02      0.00
    6   18    4      4.32      0.00
    7   18    4      6.09      0.00
    8   18    4     -2.61      0.00
    9   18    4     -0.42      0.00
   10   18    4     -2.13      0.00
   11   18    4      4.60      0.00
   -9   19    4     -0.99      0.00
   -8   19    4     -6.24      0.00
   -7   19    4      3.78      0.00
   -6   19    4     -2.48      0.00
   -5   19    4     -1.68      0.00
   -4   19    4    -10.58      0.00
   -3   19    4     -3.56      0.00
   -2   19    4      1.25      0.00
   -1   19    4     -8.31      0.00
    0   19    4     -5.14      0.00
    1   19    4     11.48      0.00
    2   19    4     -2.29      0.00
    3   19    4     -1.10      0.00
    4   19    4     -5.04      0.00
    5   19    4     -2.47      0.00
    6   19    4      5.37      0.00
    7   19    4     -0.60      0.00
    8   19    4     -2.77      0.00
   -3   20    4      2.30      0.00
   -2   20    4      1.97      0.00
   -1   20    4      0.99      0.00
    0   20    4     -2.60      0.00
    1   20    4     -2.51      0.00
    2   20    4     -3.93      0.00
  -27    0    5      6.52      0.00
  -25    0    5      4.94      0.00
  -23    0    5     -1.22      0.00
  -19    0    5      1.28      0.00
  -17    0    5     19.79      0.00
  -15    0    5     18.87      0.00
  -13    0    5     29.32      0.00
  -11    0    5     25.89      0.00
   -9    0    5     23.36      0.00
   -7    0    5    -62.78      0.00
   -5    0    5     26.14      0.00
   -3    0    5     20.83      0.00
   -1    0    5     15.83      0.00
    1    0    5      0.47      0.00
    3    0    5     28.95      0.00
    5    0    5    -73.37      0.00
    7    0    5    -57.40      0.00
    9    0    5     27.91      0.00
   11    0    5      4.30      0.00
   13    0    5     -0.69      0.00
   15    0    5     -7.05      0.00
   17    0    5     -4.57      0.00
   19    0    5    -24.29      0.00
   21    0    5     -7.67      0.00
   23    0    5      2.21      0.00
   25    0    5     -7.21      0.00
  -27    1    5      1.76      0.00
  -26    1    5     -4.69      0.00
  -25    1    5      0.48      0.00
  -24    1    5      5.10      0.00
  -23    1    5      6.93      0.00
  -22    1    5      1.62      0.00
  -21    1    5     -1.14      0.00
  -20    1    5      4.30      0.00
  -19    1    5      4.19      0.00
  -18    1    5    -27.79      0.00
  -17    1    5    -21.61      0.00
  -16    1    5      1.21      0.00
  -15    1    5     -1.20      0.00
  -14    1    5    -28.54      0.00
  -13    1    5    -34.58      0.00
  -12    1    5    -36.49      0.00
  -11    1    5      5.07      0.00
  -10    1    5    -79.57      0.00
   -9    1    5    -63.22      0.00
   -8    1    5     42.73      0.00
   -7    1    5     -8.11      0.00
   -6    1    5     16.75      0.00
   -5    1    5    -98.38      0.00
   -4    1    5    -54.26      0.00
   -3    1    5    -14.00      0.00
   -2    1    5    -40.98      0.00
   -1    1    5    -85.41      0.00
    0    1    5    -27.45      0.00
    1    1    5    -24.37      0.00
    2    1    5     27.98      0.00
    3    1    5    -61.52      0.00
    4    1    5     24.93      0.00
    5    1    5    -39.95      0.00
    6    1    5     87.89      0.00
    7    1    5    -66.03      0.00
    8    1    5    -14.40      0.00
    9    1    5    -55.53      0.00
   10    1    5     32.89      0.00
   11    1    5    -27.17      0.00
   12    1    5     14.50      0.00
   13    1    5     -9.73      0.00
   14    1    5     31.72      0.00
   15    1    5     15.21      0.00
   16    1    5     -2.69      0.00
   17    1    5      6.31      0.00
   18    1    5      0.81      0.00
   19    1    5     -1.00      0.00
   20    1    5     -4.62      0.00
   21    1    5      2.01      0.00
   22    1    5     -7.21      0.00
   23    1    5      2.39      0.00
   24    1    5      4.45      0.00
   25    1    5      2.07      0.00
   26    1    5     11.69      0.00
  -27    2    5      3.98      0.00
  -26    2    5      0.54      0.00
  -25    2    5     -1.14      0.00
  -24    2    5      1.29      0.00
  -23    2    5      1.83      0.00
  -22    2    5     -2.86      0.00
  -21    2    5    -10.23      0.00
  -20    2    5     -1.41      0.00
  -19    2    5     15.60      0.00
  -18    2    5      2.92      0.00
  -17    2    5     19.55      0.00
  -16    2    5      9.36      0.00
  -15    2    5     27.53      0.00
  -14    2    5     -6.00      0.00
  -13    2    5     12.85      0.00
  -12    2    5     15.23      0.00
  -11    2    5     25.71      0.00
  -10    2    5    -20.98      0.00
   -9    2    5      6.07      0.00
   -8    2    5     24.99      0.00
   -7    2    5    -41.30      0.00
   -5    2    5     16.89      0.00
   -3    2    5     51.32      0.00
   -2    2    5      8.36      0.00
   -1    2    5     36.05      0.00
    0    2    5    101.14      0.00
    1    2    5     56.44      0.00
    2    2    5    -63.82      0.00
    3    2    5     64.03      0.00
    4    2    5     66.11      0.00
    5    2    5    -33.98      0.00
    6    2    5    -11.38      0.00
    7    2    5    -49.29      0.00
    8    2    5     80.41      0.00
    9    2    5     -3.57      0.00
   10    2    5    -14.41      0.00
   11    2    5    -30.66      0.00
   12    2    5      3.69      0.00
   13    2    5    -43.63      0.00
   14    2    5    -26.13      0.00
   15    2    5    -12.67      0.00
   16    2    5    -13.42      0.00
   17    2    5     -3.16      0.00
   18    2    5    -11.51      0.00
   19    2    5    -12.06      0.00
   20    2    5     -5.22      0.00
   21    2    5     -5.44      0.00
   22    2    5     -7.39      0.00
   23    2    5     -1.76      0.00
   25    2    5     -7.83      0.00
   26    2    5     -1.35      0.00
  -26    3    5     -4.26      0.00
  -25    3    5     -2.30      0.00
  -24    3    5     -1.33      0.00
  -23    3    5      0.41      0.00
  -22    3    5      0.30      0.00
  -21    3    5     -4.71      0.00
  -20    3    5      0.33      0.00
  -19    3    5     -3.96      0.00
  -18    3    5    -22.65      0.00
  -17    3    5    -24.40      0.00
  -16    3    5     14.68      0.00
  -15    3    5      6.47      0.00
  -14    3    5     12.26      0.00
  -13    3    5     -9.41      0.00
  -12    3    5     10.78      0.00
  -11    3    5     15.44      0.00
  -10    3    5     -8.57      0.00
   -9    3    5    -44.70      0.00
   -8    3    5     55.38      0.00
   -7    3    5    -38.57      0.00
   -6    3    5     16.09      0.00
   -5    3    5    -77.17      0.00
   -4    3    5    -27.31      0.00
   -3    3    5    -45.33      0.00
   -2    3    5     24.18      0.00
   -1    3    5    -29.58      0.00
    0    3    5     42.37      0.00
    1    3    5    -29.52      0.00
    2    3    5     18.46      0.00
    3    3    5     38.29      0.00
    4    3    5    -21.58      0.00
    5    3    5     23.83      0.00
    6    3    5     -1.12      0.00
    7    3    5     10.41      0.00
    8    3    5    -43.15      0.00
    9    3    5    -15.34      0.00
   10    3    5      4.17      0.00
   11    3    5     -3.97      0.00
   12    3    5     -1.08      0.00
   13    3    5     -0.10      0.00
   14    3    5     17.93      0.00
   15    3    5     24.48      0.00
   16    3    5    -12.12      0.00
   17    3    5     14.73      0.00
   18    3    5      5.33      0.00
   19    3    5     -5.00      0.00
   20    3    5     -3.28      0.00
   21    3    5      6.87      0.00
   24    3    5     11.20      0.00
   25    3    5      5.14      0.00
   26    3    5     12.77      0.00
  -26    4    5      3.53      0.00
  -25    4    5     -0.98      0.00
  -24    4    5      6.93      0.00
  -23    4    5     -6.37      0.00
  -22    4    5     -0.33      0.00
  -21    4    5    -15.41      0.00
  -20    4    5      5.51      0.00
  -19    4    5     -4.42      0.00
  -18    4    5      6.01      0.00
  -17    4    5     -3.00      0.00
  -16    4    5     13.99      0.00
  -15    4    5     -6.36      0.00
  -14    4    5    -13.98      0.00
  -13    4    5    -22.68      0.00
  -12    4    5     41.22      0.00
  -11    4    5     11.81      0.00
  -10    4    5     -5.53      0.00
   -9    4    5    -12.31      0.00
   -8    4    5     36.97      0.00
   -7    4    5    -11.26      0.00
   -6    4    5    -18.59      0.00
   -5    4    5    -14.00      0.00
   -4    4    5     70.35      0.00
   -3    4    5     37.51      0.00
   -2    4    5    -92.36      0.00
   -1    4    5    -26.35      0.00
    0    4    5    -30.12      0.00
    1    4    5      6.55      0.00
    2    4    5    -41.97      0.00
    3    4    5    -10.88      0.00
    4    4    5    -11.59      0.00
    5    4    5    -40.36      0.00
    6    4    5     22.48      0.00
    7    4    5    -46.32      0.00
    8    4    5     10.50      0.00
    9    4    5     16.95      0.00
   10    4    5     15.64      0.00
   11    4    5    -12.55      0.00
   12    4    5    -24.90      0.00
   13    4    5    -16.87      0.00
   14    4    5      7.85      0.00
   15    4    5      8.39      0.00
   16    4    5    -24.11      0.00
   17    4    5     18.98      0.00
   18    4    5      4.82      0.00
   19    4    5     -6.35      0.00
   20    4    5     -7.22      0.00
   21    4    5     -4.72      0.00
   22    4    5      4.30      0.00
   23    4    5     -7.61      0.00
   24    4    5     -3.47      0.00
   25    4    5     -5.66      0.00
   26    4    5      3.05      0.00
  -26    5    5     -3.18      0.00
  -25    5    5     -3.61      0.00
  -24    5    5     -9.50      0.00
  -23    5    5      0.09      0.00
  -22    5    5      2.17      0.00
  -21    5    5      1.38      0.00
  -20    5    5    -11.23      0.00
  -19    5    5     -5.25      0.00
  -18    5    5     -9.28      0.00
  -17    5    5     -5.82      0.00
  -16    5    5     -5.63      0.00
  -15    5    5      7.01      0.00
  -14    5    5     23.50      0.00
  -13    5    5     15.88      0.00
  -12    5    5    -18.79      0.00
  -11    5    5     -6.58      0.00
  -10    5    5     28.16      0.00
   -9    5    5    -14.59      0.00
   -8    5    5     46.70      0.00
   -7    5    5    -41.58      0.00
   -6    5    5     42.31      0.00
   -5    5    5     21.53      0.00
   -4    5    5      1.11      0.00
   -3    5    5      1.69      0.00
   -2    5    5     40.55      0.00
   -1    5    5     61.19      0.00
    0    5    5     30.26      0.00
    1    5    5    -38.85      0.00
    2    5    5    -17.52      0.00
    3    5    5     42.38      0.00
    4    5    5    -30.07      0.00
    5    5    5    -13.28      0.00
    6    5    5    -13.18      0.00
    7    5    5      5.00      0.00
    8    5    5     -7.30      0.00
    9    5    5    -20.34      0.00
   10    5    5      4.79      0.00
   11    5    5     -8.01      0.00
   12    5    5      1.60      0.00
   13    5    5    -13.83      0.00
   14    5    5     -4.03      0.00
   15    5    5     17.89      0.00
   16    5    5     -3.40      0.00
   17    5    5     12.40      0.00
   18    5    5      0.08      0.00
   19    5    5     -4.61      0.00
   20    5    5      8.05      0.00
   21    5    5      2.40      0.00
   22    5    5      4.45      0.00
   23    5    5     -2.33      0.00
   24    5    5     13.44      0.00
   25    5    5      1.22      0.00
  -25    6    5      4.44      0.00
  -24    6    5      6.27      0.00
  -23    6    5     -2.14      0.00
  -22    6    5      2.85      0.00
  -21    6    5      5.43      0.00
  -20    6    5      5.81      0.00
  -19    6    5     -0.32      0.00
  -18    6    5     10.80      0.00
  -17    6    5     13.59      0.00
  -16    6    5     -6.46      0.00
  -15    6    5     -5.58      0.00
  -14    6    5    -25.51      0.00
  -13    6    5      4.57      0.00
  -12    6    5      3.87      0.00
  -11    6    5     23.93      0.00
  -10    6    5    -10.39      0.00
   -9    6    5     -0.26      0.00
   -8    6    5     -8.72      0.00
   -7    6    5    -16.54      0.00
   -6    6    5    -43.04      0.00
   -5    6    5    -27.93      0.00
   -4    6    5      2.19      0.00
   -3    6    5     27.85      0.00
   -2    6    5   -131.96      0.00
   -1    6    5      2.91      0.00
    0    6    5    -58.67      0.00
    1    6    5     11.01      0.00
    2    6    5    -73.14      0.00
    3    6    5    -13.83      0.00
    4    6    5    -44.60      0.00
    5    6    5    -48.50      0.00
    6    6    5    -57.06      0.00
    7    6    5    -45.23      0.00
    8    6    5    -16.72      0.00
    9    6    5      5.45      0.00
   10    6    5     -7.44      0.00
   11    6    5    -13.06      0.00
   12    6    5     -3.39      0.00
   13    6    5    -27.10      0.00
   14    6    5     18.39      0.00
   15    6    5     -6.66      0.00
   16    6    5     -9.16      0.00
   17    6    5      2.07      0.00
   18    6    5      6.37      0.00
   19    6    5    -10.37      0.00
   20    6    5     -3.09      0.00
   21    6    5     -2.51      0.00
   22    6    5      7.58      0.00
   23    6    5      3.67      0.00
   24    6    5     -5.00      0.00
   25    6    5      0.29      0.00
  -25    7    5     -6.32      0.00
  -24    7    5     -9.87      0.00
  -23    7    5     -1.24      0.00
  -22    7    5      1.90      0.00
  -21    7    5      1.62      0.00
  -20    7    5     -7.56      0.00
  -19    7    5      4.54      0.00
  -18    7    5     -1.04      0.00
  -17    7    5      2.79      0.00
  -16    7    5      5.64      0.00
  -15    7    5     27.47      0.00
  -14    7    5     13.58      0.00
  -13    7    5     18.40      0.00
  -12    7    5    -31.22      0.00
  -11    7    5     30.05      0.00
  -10    7    5      2.73      0.00
   -9    7    5     -7.90      0.00
   -8    7    5     19.13      0.00
   -7    7    5     24.11      0.00
   -6    7    5     -5.87      0.00
   -5    7    5     -7.28      0.00
   -4    7    5     -1.01      0.00
   -3    7    5     48.88      0.00
   -2    7    5     10.66      0.00
   -1    7    5      9.35      0.00
    0    7    5     47.06      0.00
    1    7    5     27.48      0.00
    2    7    5     -9.75      0.00
    3    7    5     22.29      0.00
    4    7    5     35.14      0.00
    5    7    5     25.35      0.00
    6    7    5     -3.58      0.00
    7    7    5     11.80      0.00
    8    7    5     29.31      0.00
    9    7    5     14.63      0.00
   10    7    5    -17.02      0.00
   11    7    5     12.83      0.00
   12    7    5      6.95      0.00
   13    7    5     -0.31      0.00
   14    7    5     -9.86      0.00
   15    7    5     22.61      0.00
   16    7    5     17.58      0.00
   17    7    5      5.04      0.00
   18    7    5      5.46      0.00
   19    7    5     -6.16      0.00
   20    7    5      5.09      0.00
   21    7    5    -11.70      0.00
   22    7    5     -3.51      0.00
   23    7    5     -4.37      0.00
   24    7    5      5.43      0.00
   25    7    5     -3.13      0.00
  -24    8    5      2.24      0.00
  -23    8    5      2.63      0.00
  -22    8    5     -4.33      0.00
  -21    8    5      3.69      0.00
  -20    8    5     -4.66      0.00
  -19    8    5      9.45      0.00
  -18    8    5      4.95      0.00
  -17    8    5      6.26      0.00
  -16    8    5     -7.08      0.00
  -15    8    5     -6.73      0.00
  -14    8    5    -18.37      0.00
  -13    8    5      3.19      0.00
  -12    8    5      6.06      0.00
  -11    8    5     18.17      0.00
  -10    8    5     -1.11      0.00
   -9    8    5      6.52      0.00
   -8    8    5      1.34      0.00
   -7    8    5     -6.95      0.00
   -6    8    5     -9.15      0.00
   -5    8    5     -9.13      0.00
   -4    8    5     43.49      0.00
   -3    8    5     17.35      0.00
   -2    8    5    -55.31      0.00
   -1    8    5      3.95      0.00
    0    8    5     23.64      0.00
    1    8    5     -8.93      0.00
    2    8    5    -11.70      0.00
    3    8    5     -2.22      0.00
    4    8    5     32.12      0.00
    5    8    5    -35.12      0.00
    6    8    5    -24.91      0.00
    7    8    5     -7.43      0.00
    8    8    5     48.65      0.00
    9    8    5      5.40      0.00
   10    8    5      9.92      0.00
   11    8    5     16.80      0.00
   12    8    5     22.83      0.00
   13    8    5    -28.26      0.00
   14    8    5     -6.66      0.00
   15    8    5     12.61      0.00
   16    8    5     -7.61      0.00
   17    8    5     -4.73      0.00
   18    8    5     -8.27      0.00
   19    8    5     -0.26      0.00
   20    8    5      8.93      0.00
   21    8    5     -9.65      0.00
   22    8    5      5.38      0.00
   23    8    5      1.55      0.00
   24    8    5      0.15      0.00
  -24    9    5     -9.77      0.00
  -23    9    5      0.63      0.00
  -22    9    5     -0.22      0.00
  -21    9    5      6.59      0.00
  -20    9    5    -10.91      0.00
  -19    9    5      2.42      0.00
  -18    9    5    -11.29      0.00
  -17    9    5      1.76      0.00
  -16    9    5     -0.15      0.00
  -15    9    5      4.46      0.00
  -14    9    5      2.71      0.00
  -13    9    5      2.03      0.00
  -12    9    5    -24.35      0.00
  -11    9    5      0.90      0.00
  -10    9    5      0.45      0.00
   -9    9    5      3.51      0.00
   -8    9    5      1.41      0.00
   -7    9    5     16.13      0.00
   -6    9    5    -31.25      0.00
   -5    9    5      1.59      0.00
   -4    9    5    -14.50      0.00
   -3    9    5     12.37      0.00
   -2    9    5      0.09      0.00
   -1    9    5    -12.16      0.00
    0    9    5     28.25      0.00
    1    9    5     11.16      0.00
    2    9    5    -20.84      0.00
    3    9    5      1.23      0.00
    4    9    5     18.75      0.00
    5    9    5      9.66      0.00
    6    9    5    -21.46      0.00
    7    9    5    -11.76      0.00
    8    9    5     24.98      0.00
    9    9    5     12.17      0.00
   10    9    5     -3.29      0.00
   11    9    5    -12.15      0.00
   12    9    5     25.56      0.00
   13    9    5     -2.09      0.00
   14    9    5      6.10      0.00
   15    9    5      5.83      0.00
   16    9    5     16.46      0.00
   17    9    5      8.81      0.00
   18    9    5      0.46      0.00
   19    9    5     -6.48      0.00
   20    9    5     -2.89      0.00
   21    9    5     -5.25      0.00
   22    9    5     -0.84      0.00
   23    9    5     -4.81      0.00
  -23   10    5     -1.62      0.00
  -22   10    5     -7.73      0.00
  -21   10    5      4.99      0.00
  -20   10    5     -3.55      0.00
  -19   10    5     11.51      0.00
  -18   10    5     -0.86      0.00
  -17   10    5      6.50      0.00
  -16   10    5    -10.97      0.00
  -15   10    5     -4.13      0.00
  -14   10    5    -25.26      0.00
  -13   10    5      1.31      0.00
  -12   10    5     -5.94      0.00
  -11   10    5      9.20      0.00
  -10   10    5     10.41      0.00
   -9   10    5     -1.58      0.00
   -8   10    5     -4.86      0.00
   -7   10    5      9.08      0.00
   -6   10    5     16.70      0.00
   -5   10    5      6.84      0.00
   -4   10    5     23.39      0.00
   -3   10    5     25.20      0.00
   -2   10    5     12.55      0.00
   -1   10    5    -13.59      0.00
    0   10    5     17.33      0.00
    1   10    5     -5.19      0.00
    2   10    5     46.66      0.00
    3   10    5     -1.46      0.00
    4   10    5      2.80      0.00
    5   10    5      2.43      0.00
    6   10    5     -5.03      0.00
    7   10    5    -10.63      0.00
    8   10    5      1.14      0.00
    9   10    5      9.51      0.00
   10   10    5      7.92      0.00
   11   10    5     -4.87      0.00
   12   10    5     -2.56      0.00
   13   10    5    -16.15      0.00
   14   10    5     -4.43      0.00
   15   10    5     -1.49      0.00
   16   10    5    -11.47      0.00
   17   10    5      4.46      0.00
   18   10    5     -5.80      0.00
   19   10    5     -2.80      0.00
   20   10    5      2.62      0.00
   21   10    5     -1.65      0.00
   22   10    5     -1.42      0.00
   23   10    5      0.40      0.00
  -22   11    5      5.40      0.00
  -21   11    5      4.64      0.00
  -20   11    5     -5.56      0.00
  -19   11    5     -5.23      0.00
  -18   11    5      3.79      0.00
  -17   11    5      8.77      0.00
  -16   11    5      4.26      0.00
  -15   11    5     -8.07      0.00
  -14   11    5     16.53      0.00
  -13   11    5      9.90      0.00
  -12   11    5    -20.76      0.00
  -11   11    5    -25.24      0.00
  -10   11    5     18.88      0.00
   -9   11    5      2.88      0.00
   -8   11    5     -2.19      0.00
   -7   11    5    -12.09      0.00
   -6   11    5     -4.25      0.00
   -5   11    5     18.45      0.00
   -4   11    5     -8.84      0.00
   -3   11    5     -1.60      0.00
   -2   11    5     29.99      0.00
   -1   11    5     -0.83      0.00
    0   11    5     13.38      0.00
    1   11    5    -13.80      0.00
    2   11    5      3.35      0.00
    3   11    5     -5.90      0.00
    4   11    5      3.20      0.00
    5   11    5     -9.14      0.00
    6   11    5    -18.40      0.00
    7   11    5      2.59      0.00
    8   11    5     -4.13      0.00
    9   11    5      9.39      0.00
   10   11    5    -12.83      0.00
   11   11    5    -10.62      0.00
   12   11    5     -0.87      0.00
   13   11    5    -12.87      0.00
   14   11    5    -11.08      0.00
   15   11    5      1.88      0.00
   16   11    5      4.83      0.00
   17   11    5      0.03      0.00
   18   11    5     -8.14      0.00
   19   11    5     -5.02      0.00
   20   11    5      3.68      0.00
   21   11    5     -0.92      0.00
   22   11    5      0.09      0.00
  -21   12    5     -1.10      0.00
  -20   12    5     -5.08      0.00
  -19   12    5      0.17      0.00
  -16   12    5     -4.54      0.00
  -15   12    5     -8.36      0.00
  -14   12    5     -1.77      0.00
  -13   12    5      6.16      0.00
  -12   12    5     -5.12      0.00
  -11   12    5     -0.24      0.00
  -10   12    5     41.71      0.00
   -9   12    5     -0.43      0.00
   -8   12    5     -8.03      0.00
   -7   12    5     -2.91      0.00
   -6   12    5     29.36      0.00
   -5   12    5     11.33      0.00
   -4   12    5     -0.15      0.00
   -3   12    5     11.35      0.00
   -2   12    5     32.04      0.00
   -1   12    5     -4.23      0.00
    0   12    5     12.93      0.00
    1   12    5     -5.19      0.00
    2   12    5     55.78      0.00
    3   12    5     -5.97      0.00
    4   12    5      9.33      0.00
    5   12    5     -5.04      0.00
    6   12    5      6.51      0.00
    7   12    5    -22.69      0.00
    8   12    5     -3.68      0.00
    9   12    5      3.73      0.00
   10   12    5      4.94      0.00
   11   12    5     -7.07      0.00
   12   12    5     -1.24      0.00
   13   12    5     -3.95      0.00
   14   12    5     -0.76      0.00
   15   12    5     -3.86      0.00
   16   12    5     -6.90      0.00
   17   12    5      9.32      0.00
   18   12    5     -8.02      0.00
   19   12    5      0.09      0.00
   20   12    5     -2.49      0.00
   21   12    5      4.96      0.00
  -20   13    5     -4.49      0.00
  -19   13    5     -0.95      0.00
  -18   13    5     -5.98      0.00
  -17   13    5      2.61      0.00
  -16   13    5      9.87      0.00
  -15   13    5     -3.33      0.00
  -14   13    5     -1.72      0.00
  -13   13    5      7.62      0.00
  -12   13    5    -10.26      0.00
  -11   13    5     -7.49      0.00
  -10   13    5      7.69      0.00
   -9   13    5      1.40      0.00
   -8   13    5     18.07      0.00
   -7   13    5      0.10      0.00
   -6   13    5     -3.63      0.00
   -5   13    5     10.91      0.00
   -4   13    5      1.17      0.00
   -3   13    5      4.20      0.00
   -2   13    5     12.82      0.00
   -1   13    5    -11.98      0.00
    0   13    5     -0.55      0.00
    1   13    5     -7.99      0.00
    2   13    5     -2.67      0.00
    3   13    5    -12.29      0.00
    4   13    5      5.93      0.00
    5   13    5     -3.82      0.00
    6   13    5    -12.17      0.00
    7   13    5     11.72      0.00
    8   13    5      1.70      0.00
    9   13    5     18.38      0.00
   10   13    5     -2.58      0.00
   11   13    5     -3.43      0.00
   12   13    5     -3.27      0.00
   13   13    5     -7.40      0.00
   14   13    5     -1.61      0.00
   15   13    5      7.08      0.00
   16   13    5      8.84      0.00
   17   13    5     -0.43      0.00
   18   13    5      2.92      0.00
   19   13    5      2.23      0.00
   20   13    5      1.15      0.00
  -19   14    5      3.94      0.00
  -18   14    5      7.52      0.00
  -17   14    5     -3.13      0.00
  -16   14    5      1.22      0.00
  -15   14    5     -2.64      0.00
  -14   14    5     -1.57      0.00
  -13   14    5      7.04      0.00
  -12   14    5     -4.32      0.00
  -11   14    5     -3.16      0.00
  -10   14    5     15.05      0.00
   -9   14    5      4.70      0.00
   -8   14    5    -15.92      0.00
   -7   14    5    -11.72      0.00
   -6   14    5     -0.21      0.00
   -5   14    5     17.76      0.00
   -4   14    5    -13.83      0.00
   -3   14    5     -8.20      0.00
   -2   14    5      5.75      0.00
   -1   14    5     15.08      0.00
    0   14    5    -16.23      0.00
    1   14    5    -13.50      0.00
    2   14    5     12.15      0.00
    3   14    5      7.89      0.00
    4   14    5    -13.52      0.00
    5   14    5    -20.88      0.00
    6   14    5    -14.00      0.00
    7   14    5     -6.85      0.00
    8   14    5    -16.17      0.00
    9   14    5     -9.72      0.00
   10   14    5     -6.65      0.00
   11   14    5      8.87      0.00
   12   14    5      1.66      0.00
   13   14    5     -8.56      0.00
   14   14    5     -4.70      0.00
   15   14    5      1.79      0.00
   16   14    5      3.57      0.00
   17   14    5     -1.73      0.00
   18   14    5     -0.14      0.00
   19   14    5      1.12      0.00
  -18   15    5     -4.82      0.00
  -17   15    5     -2.61      0.00
  -16   15    5     12.64      0.00
  -15   15    5     -0.75      0.00
  -14   15    5     -8.70      0.00
  -13   15    5      2.44      0.00
  -12   15    5     -4.20      0.00
  -11   15    5     -0.27      0.00
  -10   15    5     -2.54      0.00
   -9   15    5      3.57      0.00
   -8   15    5     19.88      0.00
   -7   15    5     -0.56      0.00
   -6   15    5     -9.85      0.00
   -5   15    5     10.68      0.00
   -4   15    5      6.89      0.00
   -3   15    5     -6.71      0.00
   -2   15    5      6.76      0.00
   -1   15    5     -8.34      0.00
    0   15    5      0.05      0.00
    1   15    5     -4.03      0.00
    2   15    5      1.81      0.00
    3   15    5     -9.68      0.00
    4   15    5      7.82      0.00
    5   15    5     -8.74      0.00
    6   15    5     -3.71      0.00
    7   15    5     -3.35      0.00
    8   15    5     -0.09      0.00
    9   15    5     10.88      0.00
   10   15    5      6.29      0.00
   11   15    5    -12.23      0.00
   12   15    5     -8.36      0.00
   13   15    5      1.14      0.00
   14   15    5     -0.86      0.00
   15   15    5      5.28      0.00
   16   15    5      0.48      0.00
   17   15    5      2.29      0.00
  -16   16    5      3.85      0.00
  -15   16    5      3.69      0.00
  -14   16    5     -5.27      0.00
  -13   16    5      7.57      0.00
  -12   16    5     -1.27      0.00
  -11   16    5      0.84      0.00
  -10   16    5     -1.70      0.00
   -9   16    5     -1.03      0.00
   -8   16    5     -9.59      0.00
   -7   16    5     -4.44      0.00
   -6   16    5     -8.58      0.00
   -5   16    5      8.21      0.00
   -4   16    5     -4.56      0.00
   -3   16    5     -4.25      0.00
   -2   16    5      4.58      0.00
   -1   16    5      7.34      0.00
    0   16    5    -14.80      0.00
    1   16    5     -4.23      0.00
    2   16    5      4.96      0.00
    3   16    5      2.92      0.00
    4   16    5     -5.71      0.00
    5   16    5     -7.19      0.00
    6   16    5     -0.43      0.00
    7   16    5     -9.74      0.00
    8   16    5     -6.74      0.00
    9   16    5     -4.69      0.00
   10   16    5      3.97      0.00
   11   16    5     -5.13      0.00
   12   16    5      1.98      0.00
   13   16    5     -1.90      0.00
   14   16    5     -2.52      0.00
   15   16    5     -4.98      0.00
  -14   17    5     -5.77      0.00
  -13   17    5      5.15      0.00
  -12   17    5    -14.37      0.00
  -11   17    5      6.55      0.00
  -10   17    5     -0.51      0.00
   -9   17    5      3.52      0.00
   -8   17    5     -0.03      0.00
   -7   17    5      4.96      0.00
   -6   17    5     -5.05      0.00
   -5   17    5      9.35      0.00
   -4   17    5     -6.19      0.00
   -3   17    5     -0.69      0.00
   -2   17    5     11.14      0.00
   -1   17    5     -1.79      0.00
    0   17    5     -7.32      0.00
    1   17    5      5.79      0.00
    2   17    5     10.80      0.00
    3   17    5      3.74      0.00
    4   17    5     -0.07      0.00
    5   17    5     -2.82      0.00
    6   17    5      7.04      0.00
    7   17    5      8.55      0.00
    8   17    5     -0.55      0.00
    9   17    5      7.74      0.00
   10   17    5     16.17      0.00
   11   17    5     -3.99      0.00
   12   17    5     -0.56      0.00
   13   17    5     -0.19      0.00
   14   17    5      5.10      0.00
  -12   18    5     -2.17      0.00
  -11   18    5      1.27      0.00
  -10   18    5      2.48      0.00
   -9   18    5      0.16      0.00
   -8   18    5     -6.94      0.00
   -7   18    5      2.26      0.00
   -6   18    5     -6.29      0.00
   -5   18    5      4.12      0.00
   -4   18    5     -3.26      0.00
   -3   18    5      1.23      0.00
   -2   18    5      2.21      0.00
   -1   18    5      1.14      0.00
    0   18    5     -5.40      0.00
    1   18    5      1.81      0.00
    2   18    5      1.12      0.00
    3   18    5     -0.69      0.00
    4   18    5      4.98      0.00
    5   18    5      1.50      0.00
    6   18    5     -3.08      0.00
    7   18    5     -8.21      0.00
    8   18    5     -4.44      0.00
    9   18    5      0.55      0.00
   10   18    5     -0.25      0.00
   11   18    5     -7.73      0.00
   -8   19    5      5.14      0.00
   -7   19    5      0.03      0.00
   -6   19    5     -2.41      0.00
   -5   19    5      1.97      0.00
   -4   19    5      1.84      0.00
   -3   19    5     -1.59      0.00
   -2   19    5      6.14      0.00
   -1   19    5     -6.25      0.00
    0   19    5     -2.36      0.00
    1   19    5      0.03      0.00
    2   19    5      1.30      0.00
    3   19    5     -3.06      0.00
    4   19    5     -3.83      0.00
    5   19    5     -8.26      0.00
    6   19    5     -0.63      0.00
    7   19    5      3.13      0.00
    8   19    5     -2.33      0.00
   -1   20    5      2.53      0.00
    0   20    5     -0.32      0.00
    1   20    5     -0.57      0.00
  -26    0    6      7.03      0.00
  -24    0    6     13.24      0.00
  -22    0    6      3.32      0.00
  -20    0    6      2.01      0.00
  -18    0    6    -13.72      0.00
  -16    0    6     -9.92      0.00
  -14    0    6     -1.53      0.00
  -12    0    6      9.37      0.00
  -10    0    6    -13.22      0.00
   -8    0    6    -34.60      0.00
   -6    0    6    -75.63      0.00
   -4    0    6    -73.37      0.00
    0    0    6    -14.29      0.00
    4    0    6    -23.32      0.00
    6    0    6     10.30      0.00
    8    0    6      5.12      0.00
   10    0    6    -15.73      0.00
   12    0    6    -25.96      0.00
   14    0    6    -46.14      0.00
   16    0    6    -31.41      0.00
   18    0    6     -9.11      0.00
   20    0    6      2.44      0.00
   22    0    6      5.61      0.00
   24    0    6     -1.55      0.00
   26    0    6     -0.40      0.00
  -27    1    6     -3.10      0.00
  -26    1    6     -0.22      0.00
  -25    1    6     -7.96      0.00
  -24    1    6      6.59      0.00
  -23    1    6    -16.77      0.00
  -22    1    6     -5.56      0.00
  -20    1    6      6.42      0.00
  -19    1    6     20.94      0.00
  -18    1    6     -5.84      0.00
  -17    1    6      8.77      0.00
  -16    1    6     16.63      0.00
  -15    1    6    -10.97      0.00
  -14    1    6      6.78      0.00
  -13    1    6     -8.24      0.00
  -12    1    6     32.37      0.00
  -11    1    6     -0.45      0.00
  -10    1    6     15.51      0.00
   -9    1    6    -24.33      0.00
   -8    1    6     38.02      0.00
   -7    1    6     53.96      0.00
   -6    1    6     27.33      0.00
   -5    1    6     28.26      0.00
   -4    1    6     10.95      0.00
   -3    1    6    -27.45      0.00
   -2    1    6    -21.67      0.00
   -1    1    6    -42.33      0.00
    0    1    6    -32.11      0.00
    2    1    6    -44.96      0.00
    3    1    6      3.55      0.00
    4    1    6    -52.29      0.00
    5    1    6    -92.15      0.00
    6    1    6    -38.59      0.00
    7    1    6      7.38      0.00
    8    1    6    -33.88      0.00
    9    1    6     45.99      0.00
   10    1    6     -3.72      0.00
   11    1    6      8.15      0.00
   12    1    6      0.19      0.00
   13    1    6      0.52      0.00
   14    1    6      0.88      0.00
   15    1    6     35.77      0.00
   16    1    6    -13.73      0.00
   17    1    6      2.83      0.00
   18    1    6     -8.42      0.00
   19    1    6     16.35      0.00
   20    1    6     -2.67      0.00
   21    1    6      3.98      0.00
   22    1    6      2.92      0.00
   23    1    6      3.47      0.00
   24    1    6      5.65      0.00
   25    1    6     -4.55      0.00
   26    1    6      2.75      0.00
  -26    2    6      8.05      0.00
  -25    2    6     -3.88      0.00
  -24    2    6      9.78      0.00
  -23    2    6     -7.44      0.00
  -22    2    6     10.47      0.00
  -21    2    6     -2.90      0.00
  -20    2    6     -0.99      0.00
  -19    2    6     -5.31      0.00
  -18    2    6     -3.42      0.00
  -17    2    6      8.97      0.00
  -16    2    6    -21.71      0.00
  -15    2    6     -6.63      0.00
  -14    2    6     10.56      0.00
  -13    2    6      0.64      0.00
  -12    2    6    -11.09      0.00
  -11    2    6    -20.45      0.00
  -10    2    6     28.33      0.00
   -9    2    6     28.57      0.00
   -8    2    6    -51.36      0.00
   -7    2    6      7.03      0.00
   -6    2    6      8.38      0.00
   -5    2    6     31.41      0.00
   -4    2    6    -91.57      0.00
   -3    2    6     -0.33      0.00
   -2    2    6     29.30      0.00
   -1    2    6    -22.44      0.00
    0    2    6    -48.96      0.00
    1    2    6     -3.05      0.00
    2    2    6    -29.48      0.00
    3    2    6      9.61      0.00
    4    2    6    -34.19      0.00
    5    2    6     17.77      0.00
    6    2    6     20.02      0.00
    7    2    6    -11.90      0.00
    8    2    6     -5.85      0.00
    9    2    6     26.53      0.00
   10    2    6    -14.38      0.00
   11    2    6      1.78      0.00
   12    2    6     11.00      0.00
   13    2    6     24.99      0.00
   14    2    6     -7.88      0.00
   15    2    6      2.80      0.00
   16    2    6      7.51      0.00
   17    2    6     19.50      0.00
   18    2    6      3.09      0.00
   19    2    6      1.46      0.00
   20    2    6      9.59      0.00
   21    2    6      6.07      0.00
   23    2    6     -4.90      0.00
   25    2    6     -2.23      0.00
   26    2    6     -1.72      0.00
  -26    3    6     -3.21      0.00
  -25    3    6     -0.17      0.00
  -24    3    6      2.36      0.00
  -23    3    6     -8.95      0.00
  -22    3    6     -6.12      0.00
  -21    3    6     -0.74      0.00
  -20    3    6      8.47      0.00
  -19    3    6     17.10      0.00
  -18    3    6      2.47      0.00
  -17    3    6      9.64      0.00
  -16    3    6     20.47      0.00
  -15    3    6      1.80      0.00
  -14    3    6     -4.31      0.00
  -13    3    6      3.64      0.00
  -12    3    6     11.03      0.00
  -11    3    6     -6.78      0.00
  -10    3    6    -36.15      0.00
   -9    3    6    -50.66      0.00
   -8    3    6     -2.04      0.00
   -7    3    6     42.44      0.00
   -6    3    6      1.20      0.00
   -5    3    6     43.71      0.00
   -4    3    6    -25.03      0.00
   -3    3    6     60.65      0.00
   -2    3    6    -44.08      0.00
   -1    3    6    -28.70      0.00
    0    3    6    -39.19      0.00
    1    3    6    193.73      0.00
    2    3    6    -16.50      0.00
    3    3    6    -71.11      0.00
    4    3    6    -33.48      0.00
    5    3    6    -19.18      0.00
    6    3    6    -18.77      0.00
    7    3    6     -9.72      0.00
    8    3    6    -50.22      0.00
    9    3    6    113.84      0.00
   10    3    6    -30.34      0.00
   11    3    6     -1.96      0.00
   12    3    6    -11.23      0.00
   13    3    6     34.60      0.00
   14    3    6     -7.91      0.00
   15    3    6     11.91      0.00
   16    3    6     -3.56      0.00
   17    3    6      2.37      0.00
   18    3    6      2.67      0.00
   19    3    6     -7.23      0.00
   21    3    6      4.65      0.00
   23    3    6     -0.80      0.00
   24    3    6      8.69      0.00
   25    3    6     -3.77      0.00
   26    3    6      6.43      0.00
  -26    4    6      3.63      0.00
  -25    4    6     -2.42      0.00
  -24    4    6      4.64      0.00
  -23    4    6     -4.09      0.00
  -22    4    6      5.84      0.00
  -21    4    6     -2.63      0.00
  -20    4    6      3.43      0.00
  -19    4    6     -2.03      0.00
  -18    4    6      6.48      0.00
  -17    4    6      2.50      0.00
  -16    4    6     -1.76      0.00
  -15    4    6      3.64      0.00
  -14    4    6     17.84      0.00
  -13    4    6     -0.77      0.00
  -12    4    6      5.34      0.00
  -11    4    6    -11.21      0.00
  -10    4    6     15.16      0.00
   -9    4    6     11.59      0.00
   -8    4    6    -52.17      0.00
   -7    4    6    -42.82      0.00
   -6    4    6    -30.26      0.00
   -5    4    6    -19.41      0.00
   -4    4    6   -110.70      0.00
   -3    4    6     -4.70      0.00
   -2    4    6    -60.27      0.00
   -1    4    6      6.01      0.00
    0    4    6   -106.26      0.00
    1    4    6     34.63      0.00
    2    4    6    -49.14      0.00
    3    4    6      1.31      0.00
    4    4    6    -27.85      0.00
    5    4    6    -14.15      0.00
    6    4    6     34.82      0.00
    7    4    6    -62.33      0.00
    8    4    6     -8.78      0.00
    9    4    6     20.69      0.00
   10    4    6    -14.76      0.00
   11    4    6     -0.84      0.00
   12    4    6      1.50      0.00
   13    4    6     30.77      0.00
   14    4    6     -0.12      0.00
   15    4    6      5.73      0.00
   16    4    6      3.97      0.00
   19    4    6      0.33      0.00
   20    4    6      7.89      0.00
   21    4    6      0.20      0.00
   22    4    6     -6.57      0.00
   23    4    6      1.28      0.00
   24    4    6     -4.52      0.00
   25    4    6     -1.58      0.00
  -26    5    6      1.41      0.00
  -25    5    6     -1.33      0.00
  -24    5    6      5.71      0.00
  -23    5    6     -6.96      0.00
  -22    5    6     -3.72      0.00
  -21    5    6     -7.70      0.00
  -20    5    6      2.39      0.00
  -19    5    6      6.71      0.00
  -18    5    6      6.01      0.00
  -17    5    6     -3.47      0.00
  -16    5    6     11.10      0.00
  -15    5    6      3.92      0.00
  -14    5    6      1.67      0.00
  -13    5    6      9.33      0.00
  -12    5    6      5.25      0.00
  -11    5    6      6.00      0.00
  -10    5    6    -21.76      0.00
   -9    5    6    -39.86      0.00
   -8    5    6     13.79      0.00
   -7    5    6     -2.42      0.00
   -6    5    6     48.67      0.00
   -5    5    6     19.17      0.00
   -4    5    6     -5.66      0.00
   -3    5    6    -56.84      0.00
   -2    5    6    -22.78      0.00
   -1    5    6    -23.51      0.00
    0    5    6    -49.19      0.00
    1    5    6     40.85      0.00
    2    5    6      6.60      0.00
    3    5    6     -1.94      0.00
    4    5    6     -7.94      0.00
    5    5    6    -56.38      0.00
    6    5    6     52.08      0.00
    7    5    6     38.73      0.00
    8    5    6    -10.39      0.00
    9    5    6     39.38      0.00
   10    5    6      2.57      0.00
   11    5    6      4.71      0.00
   12    5    6     -7.60      0.00
   13    5    6      6.02      0.00
   14    5    6      2.70      0.00
   15    5    6     14.35      0.00
   16    5    6     -6.63      0.00
   17    5    6     -8.27      0.00
   18    5    6      3.28      0.00
   19    5    6    -13.85      0.00
   20    5    6      0.01      0.00
   21    5    6      2.45      0.00
   22    5    6      2.25      0.00
   23    5    6     -0.32      0.00
   24    5    6     -2.23      0.00
   25    5    6     -1.59      0.00
  -25    6    6      2.57      0.00
  -24    6    6      6.08      0.00
  -23    6    6     -0.01      0.00
  -22    6    6     -0.96      0.00
  -21    6    6      8.77      0.00
  -20    6    6      3.62      0.00
  -19    6    6     -6.25      0.00
  -18    6    6     -9.91      0.00
  -17    6    6      7.25      0.00
  -16    6    6     14.70      0.00
  -15    6    6    -11.07      0.00
  -14    6    6     -7.10      0.00
  -13    6    6      3.08      0.00
  -12    6    6     33.73      0.00
  -11    6    6    -12.57      0.00
  -10    6    6    -28.55      0.00
   -9    6    6     20.33      0.00
   -8    6    6     17.98      0.00
   -7    6    6    -48.06      0.00
   -6    6    6    -21.94      0.00
   -5    6    6    -13.40      0.00
   -4    6    6     76.42      0.00
   -3    6    6     -0.06      0.00
   -2    6    6     -4.95      0.00
   -1    6    6     18.61      0.00
    0    6    6     36.85      0.00
    1    6    6      8.06      0.00
    2    6    6    -29.47      0.00
    3    6    6     -6.27      0.00
    4    6    6     19.17      0.00
    5    6    6    -27.02      0.00
    6    6    6     35.65      0.00
    7    6    6    -35.64      0.00
    8    6    6      7.91      0.00
    9    6    6     28.12      0.00
   10    6    6      0.92      0.00
   11    6    6      6.76      0.00
   12    6    6     -2.22      0.00
   13    6    6     17.95      0.00
   14    6    6      3.71      0.00
   15    6    6    -10.69      0.00
   16    6    6     -9.93      0.00
   17    6    6      0.51      0.00
   18    6    6      2.19      0.00
   19    6    6    -13.99      0.00
   20    6    6      2.46      0.00
   21    6    6      0.59      0.00
   22    6    6     -4.02      0.00
   23    6    6     -3.40      0.00
   24    6    6     -7.68      0.00
   25    6    6      3.01      0.00
  -25    7    6     -2.95      0.00
  -24    7    6      4.91      0.00
  -23    7    6     -2.07      0.00
  -22    7    6     -6.64      0.00
  -21    7    6      0.93      0.00
  -20    7    6      3.89      0.00
  -19    7    6      3.35      0.00
  -18    7    6     -2.15      0.00
  -17    7    6    -10.77      0.00
  -16    7    6      1.66      0.00
  -15    7    6    -23.11      0.00
  -14    7    6     -7.17      0.00
  -13    7    6      5.15      0.00
  -12    7    6      2.56      0.00
  -11    7    6      0.59      0.00
  -10    7    6    -27.16      0.00
   -9    7    6     11.52      0.00
   -8    7    6      0.06      0.00
   -7    7    6      2.01      0.00
   -6    7    6     15.25      0.00
   -5    7    6     52.97      0.00
   -4    7    6      1.58      0.00
   -3    7    6    -71.64      0.00
   -2    7    6      0.05      0.00
   -1    7    6     23.85      0.00
    0    7    6     18.21      0.00
    1    7    6      8.97      0.00
    2    7    6     37.77      0.00
    3    7    6     55.39      0.00
    4    7    6     23.29      0.00
    5    7    6    -48.15      0.00
    6    7    6     60.93      0.00
    7    7    6     52.83      0.00
    8    7    6      3.91      0.00
    9    7    6      5.64      0.00
   10    7    6     17.76      0.00
   11    7    6     19.18      0.00
   12    7    6     -2.96      0.00
   13    7    6     11.75      0.00
   14    7    6     18.42      0.00
   15    7    6     38.68      0.00
   16    7    6    -10.04      0.00
   17    7    6      8.08      0.00
   18    7    6      5.71      0.00
   19    7    6      2.09      0.00
   20    7    6     -2.25      0.00
   21    7    6      6.43      0.00
   22    7    6      4.11      0.00
   23    7    6      4.85      0.00
   24    7    6      2.88      0.00
  -24    8    6      0.55      0.00
  -23    8    6     -2.81      0.00
  -22    8    6     -5.47      0.00
  -21    8    6      3.54      0.00
  -20    8    6     -2.66      0.00
  -19    8    6      1.54      0.00
  -18    8    6     -2.73      0.00
  -17    8    6     10.15      0.00
  -16    8    6     18.30      0.00
  -15    8    6     -2.77      0.00
  -14    8    6      1.70      0.00
  -13    8    6    -15.75      0.00
  -12    8    6     12.61      0.00
  -11    8    6    -13.79      0.00
  -10    8    6    -31.51      0.00
   -9    8    6     -6.73      0.00
   -8    8    6    -18.24      0.00
   -7    8    6    -27.56      0.00
   -6    8    6    -22.09      0.00
   -5    8    6    -20.14      0.00
   -4    8    6     40.30      0.00
   -3    8    6     13.63      0.00
   -2    8    6      1.22      0.00
   -1    8    6      2.00      0.00
    0    8    6     15.40      0.00
    1    8    6     -0.92      0.00
    2    8    6    -29.00      0.00
    3    8    6     -2.07      0.00
    4    8    6     -9.81      0.00
    5    8    6      1.00      0.00
    6    8    6     -5.04      0.00
    7    8    6     -7.40      0.00
    8    8    6    -11.73      0.00
    9    8    6     13.66      0.00
   10    8    6    -20.18      0.00
   11    8    6    -16.19      0.00
   12    8    6     -3.49      0.00
   13    8    6     -9.15      0.00
   14    8    6     -8.11      0.00
   15    8    6     -9.26      0.00
   16    8    6    -16.34      0.00
   17    8    6     11.54      0.00
   18    8    6    -13.90      0.00
   19    8    6     -0.53      0.00
   20    8    6     -2.77      0.00
   21    8    6      3.76      0.00
   22    8    6     -5.03      0.00
   23    8    6     -1.74      0.00
   24    8    6     -2.27      0.00
  -24    9    6      0.45      0.00
  -23    9    6      0.41      0.00
  -22    9    6      0.97      0.00
  -21    9    6      0.90      0.00
  -20    9    6     -3.80      0.00
  -19    9    6     -5.40      0.00
  -18    9    6      1.15      0.00
  -17    9    6    -12.94      0.00
  -16    9    6     -4.06      0.00
  -15    9    6    -17.16      0.00
  -14    9    6      3.31      0.00
  -13    9    6      4.24      0.00
  -12    9    6     20.39      0.00
  -11    9    6      1.35      0.00
  -10    9    6     -6.60      0.00
   -9    9    6     -1.55      0.00
   -8    9    6     18.62      0.00
   -7    9    6     -0.84      0.00
   -6    9    6     -3.78      0.00
   -5    9    6     21.82      0.00
   -4    9    6     19.72      0.00
   -3    9    6    -42.23      0.00
   -2    9    6    -11.44      0.00
   -1    9    6     -5.29      0.00
    0    9    6     43.47      0.00
    1    9    6     15.80      0.00
    2    9    6    -10.24      0.00
    3    9    6     10.67      0.00
    4    9    6      8.38      0.00
    5    9    6     -9.43      0.00
    6    9    6     -8.40      0.00
    7    9    6     32.11      0.00
    8    9    6      5.30      0.00
    9    9    6     29.68      0.00
   10    9    6    -14.17      0.00
   11    9    6     -0.94      0.00
   12    9    6     15.30      0.00
   13    9    6      0.06      0.00
   14    9    6      1.24      0.00
   15    9    6     -0.80      0.00
   16    9    6      1.80      0.00
   17    9    6      5.43      0.00
   18    9    6     -5.68      0.00
   19    9    6     -2.02      0.00
   20    9    6      0.61      0.00
   21    9    6     12.63      0.00
   22    9    6     -0.97      0.00
   23    9    6      3.48      0.00
  -23   10    6     -0.35      0.00
  -22   10    6     -1.26      0.00
  -21   10    6     -4.49      0.00
  -20   10    6     -2.36      0.00
  -19   10    6      5.04      0.00
  -18   10    6      2.66      0.00
  -17   10    6     -4.39      0.00
  -16   10    6      7.06      0.00
  -15   10    6     11.74      0.00
  -14   10    6      1.66      0.00
  -13   10    6    -10.68      0.00
  -12   10    6      1.14      0.00
  -11   10    6     29.15      0.00
  -10   10    6     -3.10      0.00
   -9   10    6      8.72      0.00
   -8   10    6      0.52      0.00
   -7   10    6     23.50      0.00
   -6   10    6     -6.87      0.00
   -5   10    6     -5.21      0.00
   -4   10    6     10.59      0.00
   -3   10    6     36.67      0.00
   -2   10    6    -15.85      0.00
   -1   10    6      1.61      0.00
    0   10    6      5.22      0.00
    1   10    6      1.68      0.00
    2   10    6     -7.79      0.00
    3   10    6     -7.87      0.00
    4   10    6    -11.38      0.00
    5   10    6      1.24      0.00
    6   10    6    -15.51      0.00
    7   10    6      0.37      0.00
    8   10    6    -28.23      0.00
    9   10    6      6.00      0.00
   10   10    6    -16.80      0.00
   11   10    6      0.86      0.00
   12   10    6     -3.52      0.00
   13   10    6    -12.65      0.00
   14   10    6      7.80      0.00
   15   10    6      3.98      0.00
   16   10    6     -7.51      0.00
   17   10    6     -3.33      0.00
   18   10    6     -0.86      0.00
   19   10    6      4.25      0.00
   20   10    6     -2.01      0.00
   21   10    6     -4.63      0.00
   22   10    6     -0.72      0.00
  -22   11    6      2.63      0.00
  -20   11    6     -3.92      0.00
  -19   11    6      0.64      0.00
  -18   11    6      6.02      0.00
  -17   11    6    -10.60      0.00
  -16   11    6    -10.41      0.00
  -15   11    6     -3.16      0.00
  -14   11    6      3.88      0.00
  -13   11    6      1.44      0.00
  -12   11    6     -2.81      0.00
  -11   11    6      7.06      0.00
  -10   11    6     -6.23      0.00
   -9   11    6     -6.85      0.00
   -8   11    6     -2.82      0.00
   -7   11    6      6.67      0.00
   -6   11    6      0.09      0.00
   -5   11    6     18.19      0.00
   -4   11    6      4.19      0.00
   -3   11    6    -17.53      0.00
   -2   11    6    -15.34      0.00
   -1   11    6     10.10      0.00
    0   11    6     14.46      0.00
    1   11    6      8.04      0.00
    2   11    6    -18.64      0.00
    3   11    6     11.49      0.00
    4   11    6      0.51      0.00
    5   11    6    -11.42      0.00
    6   11    6     -8.64      0.00
    7   11    6     32.30      0.00
    8   11    6      0.81      0.00
    9   11    6     24.75      0.00
   10   11    6    -15.15      0.00
   11   11    6     10.77      0.00
   12   11    6     10.91      0.00
   13   11    6      1.47      0.00
   14   11    6      3.26      0.00
   15   11    6      4.51      0.00
   16   11    6      4.47      0.00
   17   11    6      8.37      0.00
   18   11    6      3.76      0.00
   19   11    6      2.85      0.00
   20   11    6      0.73      0.00
   21   11    6      6.76      0.00
   22   11    6     -0.51      0.00
  -21   12    6     -0.78      0.00
  -20   12    6      1.47      0.00
  -19   12    6     -1.55      0.00
  -18   12    6      3.09      0.00
  -17   12    6     -2.55      0.00
  -16   12    6     10.82      0.00
  -15   12    6     -5.20      0.00
  -14   12    6     -2.81      0.00
  -13   12    6     -2.26      0.00
  -12   12    6     -1.66      0.00
  -11   12    6      8.30      0.00
  -10   12    6     -8.32      0.00
   -9   12    6      4.17      0.00
   -8   12    6     -5.46      0.00
   -7   12    6     -0.81      0.00
   -6   12    6    -20.78      0.00
   -5   12    6     -2.86      0.00
   -4   12    6     -0.84      0.00
   -3   12    6     15.99      0.00
   -2   12    6    -30.85      0.00
   -1   12    6     13.12      0.00
    0   12    6      0.15      0.00
    1   12    6     -1.93      0.00
    2   12    6    -12.30      0.00
    3   12    6     11.88      0.00
    4   12    6     -4.37      0.00
    5   12    6      1.66      0.00
    6   12    6     -8.81      0.00
    7   12    6     13.32      0.00
    8   12    6     -4.18      0.00
    9   12    6     -2.51      0.00
   10   12    6     -0.53      0.00
   11   12    6      9.65      0.00
   12   12    6     11.76      0.00
   13   12    6    -12.84      0.00
   14   12    6     13.90      0.00
   15   12    6      1.06      0.00
   16   12    6      4.72      0.00
   17   12    6     -4.24      0.00
   18   12    6      7.13      0.00
   19   12    6      3.63      0.00
   20   12    6      2.97      0.00
   21   12    6      4.55      0.00
  -20   13    6      1.54      0.00
  -19   13    6      1.24      0.00
  -18   13    6      3.31      0.00
  -17   13    6     -0.62      0.00
  -16   13    6     -5.41      0.00
  -15   13    6     -7.19      0.00
  -14   13    6      4.52      0.00
  -13   13    6      9.73      0.00
  -12   13    6     -8.69      0.00
  -11   13    6     -1.80      0.00
  -10   13    6     -1.70      0.00
   -9   13    6      5.53      0.00
   -8   13    6    -11.92      0.00
   -7   13    6     -5.81      0.00
   -6   13    6      9.03      0.00
   -5   13    6      0.61      0.00
   -4   13    6     -4.35      0.00
   -3   13    6    -29.26      0.00
   -2   13    6      4.27      0.00
   -1   13    6     -5.78      0.00
    0   13    6      3.81      0.00
    1   13    6     -9.35      0.00
    2   13    6     -1.14      0.00
    3   13    6     -4.47      0.00
    4   13    6     -6.76      0.00
    5   13    6    -12.35      0.00
    6   13    6      7.23      0.00
    7   13    6     10.01      0.00
    8   13    6     -3.48      0.00
    9   13    6      7.32      0.00
   10   13    6      1.08      0.00
   11   13    6      3.18      0.00
   12   13    6      1.64      0.00
   13   13    6     -3.34      0.00
   14   13    6      6.40      0.00
   15   13    6      4.26      0.00
   16   13    6     -4.96      0.00
   17   13    6     -1.85      0.00
   18   13    6      3.71      0.00
   19   13    6     -3.34      0.00
  -19   14    6      0.77      0.00
  -18   14    6      4.64      0.00
  -17   14    6      1.56      0.00
  -16   14    6      6.07      0.00
  -15   14    6     -2.01      0.00
  -14   14    6      1.54      0.00
  -13   14    6      2.84      0.00
  -12   14    6     -4.85      0.00
  -11   14    6      4.75      0.00
  -10   14    6      7.91      0.00
   -9   14    6      5.18      0.00
   -8   14    6    -16.23      0.00
   -7   14    6     -1.37      0.00
   -6   14    6     -6.67      0.00
   -5   14    6      0.61      0.00
   -4   14    6    -16.02      0.00
   -3   14    6      3.68      0.00
   -2   14    6    -14.12      0.00
   -1   14    6      3.28      0.00
    0   14    6     -9.98      0.00
    1   14    6    -11.61      0.00
    2   14    6     -2.53      0.00
    3   14    6      2.14      0.00
    4   14    6     -5.26      0.00
    5   14    6     -0.19      0.00
    6   14    6     -2.50      0.00
    7   14    6      8.83      0.00
    8   14    6      8.62      0.00
    9   14    6     -6.14      0.00
   10   14    6     -3.31      0.00
   11   14    6      4.95      0.00
   12   14    6      8.03      0.00
   13   14    6    -10.98      0.00
   14   14    6     -5.77      0.00
   15   14    6     -1.10      0.00
   16   14    6     -0.30      0.00
   17   14    6     -3.75      0.00
   18   14    6     -0.23      0.00
  -17   15    6     -3.22      0.00
  -16   15    6     -2.88      0.00
  -15   15    6     -7.92      0.00
  -14   15    6      1.15      0.00
  -13   15    6      4.90      0.00
  -12   15    6     -3.83      0.00
  -11   15    6     -4.45      0.00
  -10   15    6     -5.34      0.00
   -9   15    6      0.03      0.00
   -8   15    6     -3.38      0.00
   -7   15    6      0.91      0.00
   -6   15    6     -0.88      0.00
   -5   15    6      1.56      0.00
   -4   15    6      0.82      0.00
   -3   15    6      0.33      0.00
   -2   15    6      2.17      0.00
   -1   15    6      5.93      0.00
    0   15    6     15.19      0.00
    1   15    6      9.15      0.00
    2   15    6     -1.35      0.00
    3   15    6     -3.09      0.00
    4   15    6      7.60      0.00
    5   15    6      4.14      0.00
    6   15    6     -0.56      0.00
    7   15    6     -0.30      0.00
    8   15    6     10.66      0.00
    9   15    6     11.59      0.00
   10   15    6     -1.48      0.00
   11   15    6      1.69      0.00
   12   15    6     13.09      0.00
   13   15    6      4.74      0.00
   14   15    6      0.86      0.00
   15   15    6      4.10      0.00
   16   15    6      3.04      0.00
   17   15    6      3.04      0.00
  -16   16    6      0.67      0.00
  -15   16    6     -0.53      0.00
  -14   16    6     -0.09      0.00
  -13   16    6     -4.84      0.00
  -12   16    6     -2.29      0.00
  -11   16    6      3.11      0.00
  -10   16    6     16.11      0.00
   -9   16    6     -4.93      0.00
   -8   16    6      1.62      0.00
   -7   16    6      1.23      0.00
   -6   16    6      7.47      0.00
   -5   16    6     -6.81      0.00
   -4   16    6     -3.43      0.00
   -3   16    6      0.59      0.00
   -2   16    6     -1.31      0.00
   -1   16    6     -5.50      0.00
    0   16    6      0.81      0.00
    1   16    6     -8.61      0.00
    2   16    6     11.34      0.00
    3   16    6     -7.37      0.00
    4   16    6     -3.28      0.00
    5   16    6      0.79      0.00
    6   16    6      2.54      0.00
    7   16    6      2.13      0.00
    8   16    6     -0.68      0.00
    9   16    6     -7.60      0.00
   10   16    6     -2.07      0.00
   11   16    6      0.57      0.00
   12   16    6     -0.68      0.00
   13   16    6     -8.58      0.00
   14   16    6     -6.21      0.00
   15   16    6     -4.61      0.00
  -14   17    6      1.24      0.00
  -13   17    6     -1.67      0.00
  -12   17    6     -3.45      0.00
  -11   17    6      1.70      0.00
  -10   17    6     -4.17      0.00
   -9   17    6     -9.84      0.00
   -8   17    6     -3.97      0.00
   -7   17    6      1.24      0.00
   -6   17    6      1.08      0.00
   -5   17    6     -5.21      0.00
   -4   17    6     -3.09      0.00
   -3   17    6      7.25      0.00
   -2   17    6      3.56      0.00
   -1   17    6      3.23      0.00
    0   17    6      3.30      0.00
    1   17    6      3.78      0.00
    2   17    6      0.10      0.00
    3   17    6     -5.21      0.00
    4   17    6      1.46      0.00
    5   17    6      2.06      0.00
    6   17    6     -0.90      0.00
    7   17    6      2.11      0.00
    8   17    6      1.11      0.00
    9   17    6      9.65      0.00
   10   17    6     -0.74      0.00
   11   17    6      3.72      0.00
   12   17    6      5.36      0.00
   13   17    6      2.88      0.00
  -11   18    6     -2.65      0.00
  -10   18    6      6.92      0.00
   -9   18    6      6.10      0.00
   -8   18    6      0.15      0.00
   -7   18    6      0.19      0.00
   -6   18    6     -0.28      0.00
   -5   18    6      3.73      0.00
   -4   18    6    -10.52      0.00
   -3   18    6     -4.54      0.00
   -2   18    6     -8.36      0.00
   -1   18    6      5.31      0.00
    0   18    6     -7.14      0.00
    1   18    6     -5.63      0.00
    2   18    6      2.37      0.00
    3   18    6     -2.95      0.00
    4   18    6     -5.62      0.00
    5   18    6     -2.63      0.00
    6   18    6     -1.26      0.00
    7   18    6      0.06      0.00
    8   18    6     -4.73      0.00
    9   18    6     -6.28      0.00
   10   18    6     -4.52      0.00
   11   18    6      0.56      0.00
   -8   19    6      0.34      0.00
   -7   19    6     -0.10      0.00
   -6   19    6      6.10      0.00
   -5   19    6     -1.60      0.00
   -4   19    6     -5.13      0.00
   -3   19    6      5.34      0.00
   -2   19    6      6.22      0.00
   -1   19    6     -0.47      0.00
    0   19    6     -7.28      0.00
    1   19    6      4.86      0.00
    2   19    6      1.34      0.00
    3   19    6     -3.53      0.00
    4   19    6     -9.10      0.00
    5   19    6      5.23      0.00
    6   19    6      2.54      0.00
    7   19    6      3.11      0.00
  -25    0    7     -0.12      0.00
  -23    0    7     -0.29      0.00
  -21    0    7      5.85      0.00
  -19    0    7     14.28      0.00
  -17    0    7     -4.65      0.00
  -15    0    7     -1.81      0.00
  -13    0    7      1.83      0.00
  -11    0    7     -8.98      0.00
   -9    0    7    -53.68      0.00
   -7    0    7     31.86      0.00
   -5    0    7     46.25      0.00
   -3    0    7      0.98      0.00
   -1    0    7    -15.33      0.00
    1    0    7    -36.49      0.00
    3    0    7    -12.99      0.00
    5    0    7    -40.87      0.00
    7    0    7     17.85      0.00
    9    0    7    -33.82      0.00
   11    0    7    -19.80      0.00
   13    0    7    -36.74      0.00
   15    0    7     -1.15      0.00
   17    0    7    -12.55      0.00
   19    0    7     -2.92      0.00
   21    0    7    -11.41      0.00
   23    0    7     -4.44      0.00
   25    0    7     -7.28      0.00
  -25    1    7     -1.01      0.00
  -24    1    7     -5.13      0.00
  -22    1    7      8.01      0.00
  -21    1    7      0.64      0.00
  -20    1    7     -7.07      0.00
  -19    1    7     13.10      0.00
  -18    1    7     -5.63      0.00
  -17    1    7      6.36      0.00
  -16    1    7     17.09      0.00
  -15    1    7     24.46      0.00
  -14    1    7     30.18      0.00
  -13    1    7     -0.79      0.00
  -12    1    7     12.48      0.00
  -11    1    7     38.37      0.00
  -10    1    7     38.73      0.00
   -9    1    7    -24.54      0.00
   -8    1    7      0.72      0.00
   -7    1    7     25.93      0.00
   -6    1    7   -100.28      0.00
   -5    1    7    -41.48      0.00
   -4    1    7    -37.19      0.00
   -3    1    7     65.91      0.00
   -2    1    7     55.61      0.00
    0    1    7     40.18      0.00
    1    1    7     85.65      0.00
    2    1    7     17.23      0.00
    3    1    7     12.98      0.00
    4    1    7     16.99      0.00
    5    1    7     32.61      0.00
    6    1    7     -4.59      0.00
    7    1    7     42.13      0.00
    8    1    7     -7.38      0.00
    9    1    7     42.50      0.00
   10    1    7     26.30      0.00
   11    1    7     29.24      0.00
   12    1    7     -9.99      0.00
   13    1    7     -9.18      0.00
   14    1    7      5.06      0.00
   15    1    7     -9.56      0.00
   16    1    7     22.17      0.00
   17    1    7    -16.99      0.00
   18    1    7     22.27      0.00
   19    1    7      1.09      0.00
   20    1    7      5.02      0.00
   21    1    7      2.49      0.00
   22    1    7      2.06      0.00
   23    1    7      1.42      0.00
   24    1    7      4.03      0.00
   25    1    7     -0.82      0.00
   26    1    7     -0.02      0.00
  -26    2    7     -2.13      0.00
  -25    2    7     -2.04      0.00
  -24    2    7     -4.52      0.00
  -23    2    7     -1.40      0.00
  -22    2    7     -3.67      0.00
  -21    2    7    -10.99      0.00
  -20    2    7      4.20      0.00
  -19    2    7      5.24      0.00
  -18    2    7     -3.07      0.00
  -17    2    7    -23.45      0.00
  -16    2    7     -9.27      0.00
  -15    2    7     -7.80      0.00
  -14    2    7    -14.32      0.00
  -13    2    7     -6.81      0.00
  -12    2    7     -0.68      0.00
  -11    2    7     -3.81      0.00
  -10    2    7      0.70      0.00
   -9    2    7    -47.24      0.00
   -8    2    7     10.37      0.00
   -7    2    7     28.54      0.00
   -6    2    7    -59.50      0.00
   -5    2    7     12.82      0.00
   -4    2    7    -46.00      0.00
   -3    2    7    -17.41      0.00
   -2    2    7   -130.35      0.00
   -1    2    7    -47.15      0.00
    0    2    7     -9.62      0.00
    1    2    7    -29.27      0.00
    2    2    7    -84.66      0.00
    3    2    7    -27.42      0.00
    4    2    7     75.88      0.00
    5    2    7    -39.94      0.00
    6    2    7    -36.01      0.00
    7    2    7     11.56      0.00
    8    2    7     37.20      0.00
    9    2    7     -9.01      0.00
   10    2    7    -21.29      0.00
   11    2    7     17.82      0.00
   12    2    7     20.46      0.00
   13    2    7    -11.74      0.00
   14    2    7     -0.88      0.00
   15    2    7     10.05      0.00
   16    2    7     27.96      0.00
   17    2    7    -17.87      0.00
   18    2    7      5.56      0.00
   19    2    7    -11.09      0.00
   20    2    7     -5.61      0.00
   21    2    7     -9.21      0.00
   22    2    7     -3.20      0.00
   23    2    7     -0.39      0.00
   24    2    7     -3.17      0.00
   25    2    7      2.04      0.00
   26    2    7     -1.14      0.00
  -26    3    7     -7.78      0.00
  -25    3    7      3.59      0.00
  -24    3    7     -7.33      0.00
  -23    3    7      4.22      0.00
  -22    3    7      0.73      0.00
  -21    3    7      2.61      0.00
  -20    3    7     -3.41      0.00
  -19    3    7      7.08      0.00
  -18    3    7    -16.35      0.00
  -17    3    7      8.04      0.00
  -16    3    7     13.49      0.00
  -15    3    7      8.82      0.00
  -14    3    7     -3.66      0.00
  -13    3    7     -7.03      0.00
  -12    3    7    -18.22      0.00
  -11    3    7     22.20      0.00
  -10    3    7      7.33      0.00
   -9    3    7    -20.94      0.00
   -8    3    7     11.76      0.00
   -7    3    7     -6.03      0.00
   -6    3    7    -47.10      0.00
   -5    3    7    -40.26      0.00
   -4    3    7    -20.36      0.00
   -3    3    7     34.42      0.00
   -2    3    7     34.11      0.00
   -1    3    7    -34.20      0.00
    0    3    7      7.92      0.00
    1    3    7     50.59      0.00
    2    3    7     12.06      0.00
    3    3    7    -53.18      0.00
    4    3    7     50.27      0.00
    5    3    7    -41.11      0.00
    6    3    7     27.46      0.00
    7    3    7    -14.98      0.00
    8    3    7     16.21      0.00
    9    3    7     30.25      0.00
   10    3    7     21.74      0.00
   11    3    7      7.37      0.00
   12    3    7    -22.20      0.00
   13    3    7     -7.40      0.00
   14    3    7    -14.70      0.00
   15    3    7    -11.86      0.00
   16    3    7     -0.22      0.00
   17    3    7    -16.05      0.00
   18    3    7     19.79      0.00
   19    3    7     -1.49      0.00
   20    3    7     -4.60      0.00
   22    3    7     -3.37      0.00
   23    3    7     -1.91      0.00
   24    3    7     -6.40      0.00
   25    3    7     -2.74      0.00
  -26    4    7      0.11      0.00
  -25    4    7      4.16      0.00
  -24    4    7     -3.98      0.00
  -23    4    7      2.05      0.00
  -22    4    7     -0.51      0.00
  -21    4    7      2.49      0.00
  -20    4    7      9.43      0.00
  -19    4    7     12.45      0.00
  -18    4    7      3.49      0.00
  -17    4    7     -8.00      0.00
  -16    4    7     -5.89      0.00
  -15    4    7      1.35      0.00
  -14    4    7     -6.56      0.00
  -13    4    7      3.44      0.00
  -12    4    7      1.66      0.00
  -11    4    7      1.96      0.00
  -10    4    7      5.68      0.00
   -9    4    7    -27.78      0.00
   -8    4    7     -5.07      0.00
   -7    4    7     25.54      0.00
   -6    4    7     -3.85      0.00
   -5    4    7      6.48      0.00
   -4    4    7     -5.67      0.00
   -3    4    7     19.35      0.00
   -2    4    7     14.97      0.00
   -1    4    7      4.21      0.00
    0    4    7    -27.51      0.00
    1    4    7     70.50      0.00
    2    4    7    -25.98      0.00
    3    4    7     21.82      0.00
    4    4    7    -19.28      0.00
    5    4    7     -0.27      0.00
    6    4    7     -7.51      0.00
    7    4    7    -29.46      0.00
    8    4    7    -23.77      0.00
    9    4    7     -9.47      0.00
   10    4    7     14.72      0.00
   11    4    7    -14.54      0.00
   12    4    7    -10.90      0.00
   13    4    7    -14.06      0.00
   14    4    7     -0.62      0.00
   15    4    7     -9.88      0.00
   16    4    7     -0.79      0.00
   17    4    7    -12.53      0.00
   18    4    7      3.53      0.00
   19    4    7    -13.47      0.00
   20    4    7    -14.51      0.00
   21    4    7      1.71      0.00
   22    4    7     -0.66      0.00
   23    4    7      6.01      0.00
   24    4    7     -4.08      0.00
   25    4    7      7.75      0.00
  -26    5    7     -7.24      0.00
  -25    5    7     -5.33      0.00
  -24    5    7    -12.13      0.00
  -23    5    7     -7.36      0.00
  -22    5    7     -0.81      0.00
  -21    5    7     -8.17      0.00
  -20    5    7    -11.63      0.00
  -19    5    7     -6.18      0.00
  -18    5    7     -7.09      0.00
  -17    5    7      4.21      0.00
  -16    5    7      4.51      0.00
  -15    5    7    -16.66      0.00
  -14    5    7      6.06      0.00
  -13    5    7    -11.67      0.00
  -12    5    7    -30.28      0.00
  -11    5    7      2.69      0.00
  -10    5    7     15.88      0.00
   -9    5    7      9.75      0.00
   -8    5    7      8.86      0.00
   -7    5    7    -19.44      0.00
   -6    5    7     -6.97      0.00
   -5    5    7    -17.14      0.00
   -4    5    7    -17.38      0.00
   -3    5    7    -26.03      0.00
   -2    5    7     64.99      0.00
   -1    5    7    -48.25      0.00
    0    5    7     41.09      0.00
    1    5    7     38.82      0.00
    2    5    7     64.59      0.00
    3    5    7     -7.74      0.00
    4    5    7     54.79      0.00
    5    5    7     -0.70      0.00
    6    5    7     19.52      0.00
    7    5    7      5.31      0.00
    8    5    7    -10.89      0.00
    9    5    7     47.77      0.00
   10    5    7      5.36      0.00
   11    5    7      3.47      0.00
   12    5    7     -7.84      0.00
   13    5    7     10.45      0.00
   14    5    7    -19.65      0.00
   15    5    7      4.80      0.00
   16    5    7      5.03      0.00
   17    5    7     -4.46      0.00
   18    5    7      1.93      0.00
   19    5    7     -2.49      0.00
   20    5    7     -3.24      0.00
   21    5    7      6.87      0.00
   22    5    7    -10.63      0.00
   23    5    7      0.49      0.00
   24    5    7     -1.19      0.00
   25    5    7      2.72      0.00
  -25    6    7      7.22      0.00
  -24    6    7     -2.22      0.00
  -23    6    7     -9.57      0.00
  -22    6    7      2.43      0.00
  -21    6    7      0.61      0.00
  -20    6    7      8.42      0.00
  -19    6    7     -5.75      0.00
  -18    6    7     11.06      0.00
  -17    6    7      1.19      0.00
  -16    6    7      3.56      0.00
  -15    6    7     -5.33      0.00
  -14    6    7     21.27      0.00
  -13    6    7     12.93      0.00
  -12    6    7     26.22      0.00
  -11    6    7    -20.23      0.00
  -10    6    7     29.80      0.00
   -9    6    7     -7.29      0.00
   -8    6    7      7.57      0.00
   -7    6    7     -2.97      0.00
   -6    6    7     18.57      0.00
   -5    6    7      6.35      0.00
   -4    6    7     40.49      0.00
   -3    6    7    -23.19      0.00
   -2    6    7     45.20      0.00
   -1    6    7    -24.36      0.00
    0    6    7      1.32      0.00
    1    6    7     15.07      0.00
    2    6    7    -14.21      0.00
    3    6    7      8.08      0.00
    4    6    7     13.05      0.00
    5    6    7     -2.95      0.00
    6    6    7     -0.88      0.00
    7    6    7    -29.18      0.00
    8    6    7    -11.21      0.00
    9    6    7     11.06      0.00
   10    6    7      0.23      0.00
   11    6    7    -16.37      0.00
   12    6    7    -20.83      0.00
   13    6    7     -3.93      0.00
   14    6    7    -21.90      0.00
   15    6    7     -4.44      0.00
   16    6    7    -12.81      0.00
   17    6    7      6.11      0.00
   18    6    7     -1.59      0.00
   19    6    7     -2.93      0.00
   20    6    7     -9.73      0.00
   21    6    7      1.03      0.00
   22    6    7      1.55      0.00
   23    6    7      0.42      0.00
   24    6    7     -1.68      0.00
  -25    7    7      1.32      0.00
  -24    7    7    -10.41      0.00
  -23    7    7     -0.19      0.00
  -22    7    7     -3.24      0.00
  -21    7    7    -11.70      0.00
  -20    7    7     -5.90      0.00
  -19    7    7     -6.06      0.00
  -18    7    7     -9.36      0.00
  -17    7    7    -12.11      0.00
  -16    7    7      8.17      0.00
  -15    7    7    -16.54      0.00
  -14    7    7     -0.36      0.00
  -13    7    7    -37.65      0.00
  -12    7    7     -6.94      0.00
  -11    7    7      5.62      0.00
  -10    7    7     19.60      0.00
   -9    7    7    -22.19      0.00
   -8    7    7     31.34      0.00
   -7    7    7     10.42      0.00
   -6    7    7      1.93      0.00
   -5    7    7    -19.13      0.00
   -4    7    7     -4.36      0.00
   -3    7    7     17.78      0.00
   -2    7    7     40.31      0.00
   -1    7    7    -53.78      0.00
    0    7    7     21.45      0.00
    1    7    7     39.89      0.00
    2    7    7      9.65      0.00
    3    7    7    -19.98      0.00
    4    7    7      7.24      0.00
    5    7    7    -16.95      0.00
    6    7    7    -15.34      0.00
    7    7    7     -7.48      0.00
    8    7    7     -9.37      0.00
    9    7    7     20.37      0.00
   10    7    7     21.63      0.00
   11    7    7     -3.54      0.00
   13    7    7      0.36      0.00
   14    7    7     -4.75      0.00
   15    7    7     15.46      0.00
   16    7    7      6.10      0.00
   17    7    7     -3.22      0.00
   18    7    7      0.24      0.00
   19    7    7     10.21      0.00
   20    7    7     -1.58      0.00
   21    7    7      8.34      0.00
   22    7    7      0.68      0.00
   23    7    7      8.24      0.00
   24    7    7      5.05      0.00
  -24    8    7     -1.79      0.00
  -23    8    7     -7.61      0.00
  -22    8    7      2.02      0.00
  -21    8    7     -4.37      0.00
  -20    8    7      9.75      0.00
  -19    8    7     -6.97      0.00
  -18    8    7      4.36      0.00
  -17    8    7      1.29      0.00
  -16    8    7     -4.19      0.00
  -15    8    7      0.44      0.00
  -14    8    7    -10.00      0.00
  -13    8    7     23.08      0.00
  -12    8    7     21.89      0.00
  -11    8    7    -13.22      0.00
  -10    8    7      3.47      0.00
   -9    8    7     19.37      0.00
   -8    8    7     19.01      0.00
   -7    8    7    -12.37      0.00
   -6    8    7    -14.35      0.00
   -5    8    7      9.70      0.00
   -4    8    7     43.20      0.00
   -3    8    7    -31.65      0.00
   -2    8    7    -15.95      0.00
   -1    8    7     -9.05      0.00
    0    8    7     -6.37      0.00
    1    8    7     -0.56      0.00
    2    8    7    -51.31      0.00
    3    8    7     22.59      0.00
    4    8    7     24.99      0.00
    5    8    7    -15.19      0.00
    6    8    7    -37.79      0.00
    7    8    7    -20.98      0.00
    8    8    7    -15.52      0.00
    9    8    7     -7.84      0.00
   10    8    7    -26.89      0.00
   11    8    7    -19.02      0.00
   12    8    7     -2.81      0.00
   13    8    7    -25.64      0.00
   14    8    7    -17.11      0.00
   15    8    7     -4.77      0.00
   16    8    7      7.22      0.00
   17    8    7     -0.78      0.00
   18    8    7     -8.78      0.00
   19    8    7     -0.73      0.00
   20    8    7     -5.35      0.00
   21    8    7      0.62      0.00
   22    8    7     -8.75      0.00
   23    8    7     -0.36      0.00
  -24    9    7     -3.62      0.00
  -23    9    7      2.64      0.00
  -22    9    7      0.83      0.00
  -21    9    7     -3.38      0.00
  -20    9    7      7.22      0.00
  -19    9    7      1.09      0.00
  -18    9    7      5.82      0.00
  -17    9    7      5.19      0.00
  -16    9    7     22.86      0.00
  -15    9    7     -0.17      0.00
  -14    9    7     -3.04      0.00
  -13    9    7    -10.88      0.00
  -12    9    7     -3.67      0.00
  -11    9    7      0.31      0.00
  -10    9    7     -1.44      0.00
   -9    9    7     -4.71      0.00
   -8    9    7     25.66      0.00
   -7    9    7     -6.96      0.00
   -6    9    7      0.67      0.00
   -5    9    7     15.33      0.00
   -4    9    7     18.20      0.00
   -3    9    7      9.13      0.00
   -2    9    7     33.35      0.00
   -1    9    7    -10.56      0.00
    0    9    7     16.19      0.00
    1    9    7     24.31      0.00
    2    9    7    -16.41      0.00
    3    9    7      5.82      0.00
    4    9    7      2.51      0.00
    5    9    7     -6.86      0.00
    6    9    7     -8.89      0.00
    7    9    7     13.51      0.00
    8    9    7     -4.43      0.00
    9    9    7     33.29      0.00
   10    9    7     15.01      0.00
   11    9    7      2.05      0.00
   12    9    7     14.26      0.00
   13    9    7      8.44      0.00
   14    9    7     -0.80      0.00
   15    9    7      4.07      0.00
   16    9    7      7.95      0.00
   17    9    7     -8.79      0.00
   18    9    7     13.50      0.00
   19    9    7     -4.63      0.00
   20    9    7      2.21      0.00
   21    9    7      4.98      0.00
   22    9    7      3.91      0.00
   23    9    7      1.47      0.00
  -23   10    7     -5.80      0.00
  -22   10    7     -4.30      0.00
  -21   10    7     -3.13      0.00
  -20   10    7      3.99      0.00
  -19   10    7     -7.70      0.00
  -18   10    7     -2.36      0.00
  -17   10    7     -5.84      0.00
  -16   10    7     -1.28      0.00
  -15   10    7      1.57      0.00
  -14   10    7    -11.27      0.00
  -13   10    7      6.59      0.00
  -12   10    7     13.95      0.00
  -11   10    7      0.59      0.00
  -10   10    7     -8.51      0.00
   -9   10    7      8.10      0.00
   -8   10    7     -8.49      0.00
   -7   10    7     -9.45      0.00
   -6   10    7    -16.13      0.00
   -5   10    7    -20.29      0.00
   -4   10    7     21.03      0.00
   -3   10    7    -12.39      0.00
   -2   10    7     12.44      0.00
   -1   10    7    -11.47      0.00
    0   10    7    -14.53      0.00
    1   10    7      9.89      0.00
    2   10    7      9.45      0.00
    3   10    7     -0.65      0.00
    4   10    7     27.39      0.00
    5   10    7    -12.79      0.00
    6   10    7     22.20      0.00
    7   10    7    -34.87      0.00
    8   10    7      0.42      0.00
    9   10    7      8.41      0.00
   10   10    7     19.13      0.00
   11   10    7    -21.59      0.00
   12   10    7      1.77      0.00
   13   10    7     -6.82      0.00
   14   10    7      2.08      0.00
   15   10    7     -9.06      0.00
   16   10    7      3.20      0.00
   17   10    7      7.27      0.00
   18   10    7     -0.01      0.00
   19   10    7    -11.49      0.00
   20   10    7     -4.39      0.00
   21   10    7      0.76      0.00
   22   10    7     -3.35      0.00
  -22   11    7     -1.43      0.00
  -21   11    7      3.04      0.00
  -20   11    7     -9.04      0.00
  -19   11    7      3.48      0.00
  -18   11    7      3.44      0.00
  -17   11    7     16.57      0.00
  -16   11    7      0.21      0.00
  -15   11    7      0.16      0.00
  -14   11    7      2.08      0.00
  -13   11    7      5.38      0.00
  -12   11    7    -11.72      0.00
  -11   11    7     -0.45      0.00
  -10   11    7      3.01      0.00
   -9   11    7     27.01      0.00
   -8   11    7      9.05      0.00
   -7   11    7     -1.68      0.00
   -6   11    7      0.06      0.00
   -5   11    7     27.77      0.00
   -4   11    7      8.64      0.00
   -3   11    7    -19.71      0.00
   -2   11    7     25.60      0.00
   -1   11    7      1.60      0.00
    0   11    7      8.33      0.00
    1   11    7      4.78      0.00
    2   11    7    -11.14      0.00
    3   11    7     22.29      0.00
    4   11    7      9.90      0.00
    5   11    7    -16.29      0.00
    6   11    7      9.28      0.00
    7   11    7     14.58      0.00
    8   11    7      8.26      0.00
    9   11    7      7.19      0.00
   10   11    7     14.95      0.00
   11   11    7     -2.43      0.00
   12   11    7     18.13      0.00
   13   11    7     -3.17      0.00
   14   11    7     -2.13      0.00
   15   11    7      5.03      0.00
   16   11    7      9.78      0.00
   17   11    7     -7.30      0.00
   18   11    7      1.66      0.00
   19   11    7     -4.85      0.00
   20   11    7      2.33      0.00
   21   11    7      2.00      0.00
  -21   12    7      1.43      0.00
  -20   12    7     -6.20      0.00
  -19   12    7     -1.83      0.00
  -18   12    7     -3.18      0.00
  -17   12    7      0.76      0.00
  -16   12    7    -12.43      0.00
  -15   12    7      5.50      0.00
  -14   12    7     -1.94      0.00
  -13   12    7     -2.32      0.00
  -12   12    7     -3.62      0.00
  -11   12    7     -3.50      0.00
  -10   12    7     -2.64      0.00
   -9   12    7     -1.19      0.00
   -8   12    7    -30.58      0.00
   -7   12    7     -9.31      0.00
   -6   12    7    -10.41      0.00
   -5   12    7    -17.95      0.00
   -4   12    7      9.79      0.00
   -3   12    7     -1.91      0.00
   -2   12    7     12.53      0.00
   -1   12    7     -7.32      0.00
    0   12    7    -21.15      0.00
    1   12    7      2.61      0.00
    2   12    7     -1.12      0.00
    3   12    7     -0.10      0.00
    4   12    7      2.90      0.00
    5   12    7     -4.02      0.00
    6   12    7      1.84      0.00
    7   12    7    -23.83      0.00
    8   12    7     -6.48      0.00
    9   12    7     12.97      0.00
   10   12    7     17.04      0.00
   11   12    7    -15.86      0.00
   12   12    7     -5.32      0.00
   13   12    7    -10.77      0.00
   14   12    7      0.00      0.00
   15   12    7     -7.69      0.00
   16   12    7     -0.55      0.00
   17   12    7      4.94      0.00
   18   12    7      5.63      0.00
   19   12    7     -9.06      0.00
   20   12    7     -1.29      0.00
  -20   13    7     -1.40      0.00
  -19   13    7     -3.02      0.00
  -18   13    7     -0.77      0.00
  -17   13    7      2.68      0.00
  -16   13    7      0.08      0.00
  -15   13    7     -1.57      0.00
  -14   13    7     -2.52      0.00
  -13   13    7     -6.28      0.00
  -12   13    7     -0.74      0.00
  -11   13    7     -3.07      0.00
  -10   13    7     -1.73      0.00
   -9   13    7      9.98      0.00
   -8   13    7      9.89      0.00
   -7   13    7      6.46      0.00
   -6   13    7     -6.64      0.00
   -5   13    7     14.28      0.00
   -4   13    7     13.73      0.00
   -3   13    7     -7.15      0.00
   -2   13    7     19.96      0.00
   -1   13    7      3.38      0.00
    0   13    7     25.93      0.00
    1   13    7      5.55      0.00
    2   13    7      1.44      0.00
    3   13    7     14.61      0.00
    4   13    7     19.48      0.00
    5   13    7    -15.27      0.00
    6   13    7      0.41      0.00
    7   13    7      8.67      0.00
    8   13    7     -4.33      0.00
    9   13    7     -7.71      0.00
   10   13    7     -5.70      0.00
   11   13    7     -5.34      0.00
   12   13    7      5.09      0.00
   13   13    7     -6.91      0.00
   14   13    7     -7.09      0.00
   15   13    7      7.84      0.00
   16   13    7     -4.22      0.00
   17   13    7     -6.05      0.00
   18   13    7      0.49      0.00
   19   13    7     -1.31      0.00
  -19   14    7      0.38      0.00
  -18   14    7      2.48      0.00
  -17   14    7      0.44      0.00
  -16   14    7     -4.41      0.00
  -15   14    7      5.51      0.00
  -14   14    7      1.00      0.00
  -13   14    7     -2.13      0.00
  -12   14    7      7.72      0.00
  -11   14    7     -7.01      0.00
  -10   14    7     11.95      0.00
   -9   14    7      5.37      0.00
   -8   14    7     -3.16      0.00
   -7   14    7    -10.65      0.00
   -6   14    7      4.29      0.00
   -5   14    7      2.53      0.00
   -4   14    7     22.49      0.00
   -3   14    7     -2.49      0.00
   -2   14    7      9.05      0.00
   -1   14    7      9.63      0.00
    0   14    7     -9.72      0.00
    1   14    7    -17.12      0.00
    2   14    7      2.77      0.00
    3   14    7     13.69      0.00
    4   14    7      7.71      0.00
    5   14    7    -15.76      0.00
    6   14    7     -6.81      0.00
    7   14    7     -1.15      0.00
    8   14    7     -3.72      0.00
    9   14    7     -2.04      0.00
   10   14    7      1.37      0.00
   11   14    7      2.07      0.00
   12   14    7     -6.82      0.00
   13   14    7    -24.06      0.00
   14   14    7    -11.66      0.00
   15   14    7      5.12      0.00
   16   14    7     -1.02      0.00
   17   14    7     -1.35      0.00
   18   14    7     -2.51      0.00
  -17   15    7     -0.45      0.00
  -16   15    7      3.40      0.00
  -15   15    7     -1.08      0.00
  -14   15    7     -2.56      0.00
  -13   15    7     -1.16      0.00
  -12   15    7      2.97      0.00
  -11   15    7     -7.07      0.00
  -10   15    7     -6.82      0.00
   -9   15    7      3.69      0.00
   -8   15    7      4.91      0.00
   -7   15    7     -4.89      0.00
   -6   15    7    -15.05      0.00
   -5   15    7      8.10      0.00
   -4   15    7      2.07      0.00
   -3   15    7     -6.94      0.00
   -2   15    7     -2.37      0.00
   -1   15    7     10.94      0.00
    0   15    7      9.91      0.00
    1   15    7      2.90      0.00
    2   15    7    -11.19      0.00
    3   15    7      7.81      0.00
    4   15    7      6.87      0.00
    5   15    7      1.87      0.00
    6   15    7     -3.15      0.00
    7   15    7     11.60      0.00
    8   15    7     -6.36      0.00
    9   15    7      9.64      0.00
   10   15    7     -2.48      0.00
   11   15    7     -3.76      0.00
   12   15    7      5.91      0.00
   13   15    7      2.54      0.00
   14   15    7      4.05      0.00
   15   15    7      3.37      0.00
   16   15    7      2.59      0.00
  -15   16    7      3.62      0.00
  -14   16    7      0.06      0.00
  -13   16    7     -2.33      0.00
  -12   16    7      8.68      0.00
  -11   16    7      3.73      0.00
  -10   16    7      8.40      0.00
   -9   16    7      5.76      0.00
   -8   16    7     -2.76      0.00
   -7   16    7      2.10      0.00
   -6   16    7     -0.36      0.00
   -5   16    7     -0.97      0.00
   -4   16    7     10.73      0.00
   -3   16    7      7.46      0.00
   -2   16    7     -2.59      0.00
   -1   16    7      2.06      0.00
    0   16    7    -17.30      0.00
    1   16    7     -7.34      0.00
    2   16    7      0.70      0.00
    3   16    7      3.99      0.00
    4   16    7     -3.59      0.00
    5   16    7     -6.82      0.00
    6   16    7    -12.33      0.00
    7   16    7     -4.54      0.00
    8   16    7     -8.82      0.00
    9   16    7      7.18      0.00
   10   16    7     -1.39      0.00
   11   16    7      2.53      0.00
   12   16    7     -4.73      0.00
   13   16    7    -10.67      0.00
   14   16    7     -7.77      0.00
   15   16    7     -0.38      0.00
  -13   17    7     -3.11      0.00
  -12   17    7     -1.12      0.00
  -11   17    7     -6.46      0.00
  -10   17    7      5.93      0.00
   -9   17    7     -0.57      0.00
   -8   17    7      0.71      0.00
   -7   17    7     -2.29      0.00
   -6   17    7      2.83      0.00
   -5   17    7     -6.00      0.00
   -4   17    7     -1.68      0.00
   -3   17    7     -8.77      0.00
   -2   17    7      6.15      0.00
   -1   17    7      1.76      0.00
    0   17    7     -0.82      0.00
    1   17    7     -4.26      0.00
    2   17    7     -5.44      0.00
    3   17    7     -5.45      0.00
    4   17    7     -0.12      0.00
    5   17    7     -6.94      0.00
    6   17    7      1.43      0.00
    7   17    7      0.68      0.00
    8   17    7     -7.89      0.00
    9   17    7      2.61      0.00
   10   17    7     -4.84      0.00
   11   17    7     -1.55      0.00
   12   17    7     -1.95      0.00
   13   17    7      1.74      0.00
  -11   18    7     -0.76      0.00
  -10   18    7      4.84      0.00
   -9   18    7     -0.77      0.00
   -8   18    7    -11.85      0.00
   -7   18    7      0.41      0.00
   -6   18    7     -0.18      0.00
   -5   18    7     -3.78      0.00
   -4   18    7      6.23      0.00
   -3   18    7      5.57      0.00
   -2   18    7     -1.06      0.00
   -1   18    7     -5.11      0.00
    0   18    7     -8.90      0.00
    1   18    7     -0.23      0.00
    2   18    7      1.81      0.00
    3   18    7     -1.13      0.00
    4   18    7      2.96      0.00
    5   18    7     -2.28      0.00
    6   18    7     -4.45      0.00
    7   18    7     -8.64      0.00
    8   18    7      3.27      0.00
    9   18    7      6.31      0.00
   10   18    7      6.34      0.00
   -7   19    7      4.64      0.00
   -6   19    7      1.09      0.00
   -5   19    7     -7.68      0.00
   -4   19    7      1.09      0.00
   -3   19    7     -2.94      0.00
   -2   19    7      8.03      0.00
   -1   19    7      0.37      0.00
    0   19    7      3.24      0.00
    1   19    7      1.50      0.00
    2   19    7      2.75      0.00
    3   19    7     -0.89      0.00
    4   19    7      6.32      0.00
    5   19    7      2.12      0.00
    6   19    7      7.07      0.00
  -26    0    8      3.33      0.00
  -24    0    8      1.62      0.00
  -20    0    8     -1.10      0.00
  -18    0    8     14.78      0.00
  -16    0    8     20.59      0.00
  -14    0    8    -17.18      0.00
  -12    0    8    -15.26      0.00
  -10    0    8    -33.09      0.00
   -8    0    8    -24.40      0.00
   -6    0    8    -14.89      0.00
   -4    0    8     17.00      0.00
   -2    0    8    -53.10      0.00
    0    0    8    -22.14      0.00
    2    0    8     72.31      0.00
    4    0    8    -34.99      0.00
    6    0    8    -22.73      0.00
    8    0    8    -37.37      0.00
   10    0    8     11.06      0.00
   12    0    8     14.78      0.00
   14    0    8     45.65      0.00
   16    0    8      7.98      0.00
   18    0    8     -5.00      0.00
   20    0    8     -9.23      0.00
   22    0    8     -7.11      0.00
  -26    1    8     -4.68      0.00
  -25    1    8     12.81      0.00
  -24    1    8      3.17      0.00
  -23    1    8     14.13      0.00
  -22    1    8     -1.36      0.00
  -21    1    8     12.23      0.00
  -20    1    8      4.45      0.00
  -19    1    8     12.48      0.00
  -18    1    8     -4.93      0.00
  -17    1    8    -14.39      0.00
  -16    1    8      3.58      0.00
  -15    1    8     -4.07      0.00
  -14    1    8     -5.89      0.00
  -13    1    8     25.23      0.00
  -12    1    8     -2.75      0.00
  -11    1    8     -1.59      0.00
  -10    1    8    -13.10      0.00
   -9    1    8    -29.60      0.00
   -8    1    8      3.69      0.00
   -7    1    8     16.21      0.00
   -6    1    8     -8.62      0.00
   -5    1    8     40.13      0.00
   -4    1    8     24.29      0.00
   -3    1    8    -54.22      0.00
   -2    1    8      8.31      0.00
   -1    1    8     -3.44      0.00
    0    1    8     14.81      0.00
    1    1    8    -25.45      0.00
    2    1    8      2.37      0.00
    3    1    8     -8.17      0.00
    4    1    8     13.18      0.00
    5    1    8    -19.86      0.00
    6    1    8      6.31      0.00
    7    1    8     75.47      0.00
    8    1    8     -9.18      0.00
    9    1    8     22.45      0.00
   10    1    8    -15.62      0.00
   11    1    8     18.67      0.00
   12    1    8    -27.86      0.00
   13    1    8     -9.82      0.00
   14    1    8     -6.41      0.00
   15    1    8     22.26      0.00
   16    1    8      4.42      0.00
   17    1    8     -0.68      0.00
   18    1    8      9.08      0.00
   19    1    8      3.54      0.00
   20    1    8      5.24      0.00
   21    1    8     -4.15      0.00
   22    1    8     -0.30      0.00
   23    1    8     13.59      0.00
   24    1    8      0.23      0.00
   25    1    8      6.75      0.00
  -26    2    8      3.79      0.00
  -25    2    8      0.23      0.00
  -24    2    8      1.37      0.00
  -23    2    8      0.53      0.00
  -22    2    8     -1.35      0.00
  -21    2    8     -0.80      0.00
  -20    2    8     -3.35      0.00
  -19    2    8     -7.42      0.00
  -18    2    8     23.83      0.00
  -17    2    8     -5.76      0.00
  -16    2    8     12.59      0.00
  -15    2    8    -11.29      0.00
  -14    2    8      8.76      0.00
  -13    2    8     -5.68      0.00
  -12    2    8    -29.11      0.00
  -11    2    8    -14.59      0.00
  -10    2    8     -8.98      0.00
   -9    2    8    -44.55      0.00
   -8    2    8    -87.81      0.00
   -7    2    8    -38.73      0.00
   -6    2    8    -21.46      0.00
   -5    2    8    -23.05      0.00
   -4    2    8    -65.12      0.00
   -3    2    8      7.66      0.00
   -2    2    8    -42.32      0.00
    0    2    8    -65.27      0.00
    1    2    8     15.64      0.00
    2    2    8     39.28      0.00
    3    2    8     -6.27      0.00
    4    2    8    -72.72      0.00
    5    2    8    -17.90      0.00
    6    2    8    -57.13      0.00
    7    2    8    -12.24      0.00
    8    2    8    -35.85      0.00
    9    2    8    -23.10      0.00
   10    2    8    -15.23      0.00
   11    2    8    -11.02      0.00
   12    2    8      2.53      0.00
   13    2    8      3.73      0.00
   14    2    8     -1.43      0.00
   15    2    8     -2.31      0.00
   16    2    8    -10.25      0.00
   17    2    8     -1.35      0.00
   18    2    8    -21.54      0.00
   19    2    8     -2.42      0.00
   21    2    8      1.43      0.00
   22    2    8     -1.36      0.00
   23    2    8      2.32      0.00
   24    2    8     -2.21      0.00
   25    2    8      1.39      0.00
  -25    3    8     -0.89      0.00
  -24    3    8      3.98      0.00
  -23    3    8     -1.91      0.00
  -22    3    8      2.76      0.00
  -20    3    8     -0.25      0.00
  -19    3    8      4.69      0.00
  -18    3    8     -6.53      0.00
  -17    3    8    -17.92      0.00
  -16    3    8      5.09      0.00
  -15    3    8     -3.76      0.00
  -14    3    8      7.12      0.00
  -13    3    8     18.46      0.00
  -12    3    8     23.27      0.00
  -11    3    8     30.74      0.00
  -10    3    8     28.17      0.00
   -9    3    8    -10.98      0.00
   -8    3    8     56.80      0.00
   -7    3    8     74.02      0.00
   -6    3    8     20.51      0.00
   -5    3    8     13.42      0.00
   -4    3    8     51.13      0.00
   -3    3    8      4.49      0.00
   -2    3    8     16.94      0.00
   -1    3    8    -61.06      0.00
    0    3    8      7.42      0.00
    1    3    8     72.36      0.00
    2    3    8     -6.02      0.00
    3    3    8    -37.88      0.00
    4    3    8     17.50      0.00
    5    3    8     52.64      0.00
    6    3    8     10.91      0.00
    7    3    8     15.46      0.00
    8    3    8      6.78      0.00
    9    3    8     39.42      0.00
   10    3    8     -4.14      0.00
   11    3    8    -32.92      0.00
   12    3    8    -22.10      0.00
   13    3    8      7.40      0.00
   14    3    8     -9.31      0.00
   15    3    8     13.55      0.00
   16    3    8      0.58      0.00
   17    3    8     19.44      0.00
   18    3    8     -1.95      0.00
   19    3    8     -4.22      0.00
   21    3    8     -3.84      0.00
   22    3    8     -3.43      0.00
   23    3    8      1.44      0.00
   24    3    8     -2.73      0.00
   25    3    8      0.42      0.00
  -26    4    8      4.59      0.00
  -25    4    8     -0.66      0.00
  -24    4    8      8.56      0.00
  -23    4    8      4.34      0.00
  -22    4    8     -1.07      0.00
  -21    4    8     -4.43      0.00
  -20    4    8     -7.13      0.00
  -19    4    8      6.74      0.00
  -18    4    8      4.63      0.00
  -17    4    8     -4.45      0.00
  -16    4    8     -0.93      0.00
  -15    4    8     12.74      0.00
  -14    4    8      5.57      0.00
  -13    4    8     -2.90      0.00
  -12    4    8    -15.31      0.00
  -11    4    8      5.56      0.00
  -10    4    8      7.65      0.00
   -9    4    8    -51.49      0.00
   -8    4    8    -53.01      0.00
   -7    4    8     -6.65      0.00
   -6    4    8      3.32      0.00
   -5    4    8     -6.86      0.00
   -4    4    8    -10.00      0.00
   -3    4    8     15.48      0.00
   -2    4    8      7.13      0.00
   -1    4    8    -34.80      0.00
    0    4    8    -16.87      0.00
    1    4    8    -20.60      0.00
    2    4    8     -4.43      0.00
    3    4    8    -46.65      0.00
    4    4    8    -89.37      0.00
    5    4    8      4.27      0.00
    6    4    8    -80.72      0.00
    7    4    8     12.32      0.00
    8    4    8    -29.23      0.00
    9    4    8     -3.05      0.00
   10    4    8     -1.22      0.00
   11    4    8     -6.54      0.00
   12    4    8     17.07      0.00
   13    4    8     -3.62      0.00
   14    4    8      4.74      0.00
   15    4    8      1.81      0.00
   16    4    8     -2.76      0.00
   17    4    8     -5.51      0.00
   18    4    8    -12.40      0.00
   19    4    8      9.64      0.00
   20    4    8      8.72      0.00
   21    4    8     -1.71      0.00
   22    4    8      5.13      0.00
   23    4    8      4.58      0.00
   24    4    8      7.25      0.00
   25    4    8      0.63      0.00
  -25    5    8     -0.79      0.00
  -24    5    8      1.41      0.00
  -23    5    8     -0.80      0.00
  -22    5    8      7.05      0.00
  -21    5    8      0.75      0.00
  -20    5    8      2.75      0.00
  -19    5    8      4.91      0.00
  -18    5    8     -3.97      0.00
  -17    5    8    -10.56      0.00
  -16    5    8    -10.17      0.00
  -15    5    8     -7.06      0.00
  -14    5    8     -6.43      0.00
  -13    5    8     15.55      0.00
  -12    5    8     -8.94      0.00
  -11    5    8     28.11      0.00
  -10    5    8     13.97      0.00
   -9    5    8      4.32      0.00
   -8    5    8      4.35      0.00
   -7    5    8     56.02      0.00
   -6    5    8    -24.88      0.00
   -5    5    8     64.15      0.00
   -4    5    8    -24.56      0.00
   -3    5    8     31.26      0.00
   -2    5    8      6.42      0.00
   -1    5    8     42.36      0.00
    0    5    8    -10.55      0.00
    1    5    8     61.82      0.00
    2    5    8     17.11      0.00
    3    5    8     10.15      0.00
    4    5    8      3.22      0.00
    5    5    8    -11.66      0.00
    6    5    8      0.63      0.00
    7    5    8     41.00      0.00
    8    5    8    -16.45      0.00
    9    5    8     26.54      0.00
   10    5    8      7.17      0.00
   11    5    8      3.21      0.00
   12    5    8     -8.48      0.00
   13    5    8     10.93      0.00
   14    5    8     18.11      0.00
   15    5    8     23.73      0.00
   16    5    8     11.44      0.00
   17    5    8     15.77      0.00
   18    5    8     11.71      0.00
   19    5    8     -5.02      0.00
   20    5    8     -2.67      0.00
   21    5    8     -0.29      0.00
   22    5    8      5.85      0.00
   23    5    8     -6.74      0.00
   24    5    8     -0.30      0.00
   25    5    8     -2.15      0.00
  -25    6    8     -3.13      0.00
  -24    6    8     -1.06      0.00
  -23    6    8     -3.36      0.00
  -22    6    8     -5.91      0.00
  -21    6    8     -0.76      0.00
  -20    6    8      4.77      0.00
  -19    6    8      1.22      0.00
  -18    6    8     -0.66      0.00
  -17    6    8     13.95      0.00
  -16    6    8      9.52      0.00
  -15    6    8     13.13      0.00
  -14    6    8    -22.15      0.00
  -13    6    8     22.00      0.00
  -12    6    8     -2.98      0.00
  -11    6    8      3.39      0.00
  -10    6    8    -18.24      0.00
   -9    6    8    -29.94      0.00
   -8    6    8     -0.89      0.00
   -7    6    8     -1.40      0.00
   -6    6    8    -37.83      0.00
   -5    6    8     10.66      0.00
   -4    6    8     -1.19      0.00
   -3    6    8     10.42      0.00
   -2    6    8    -63.22      0.00
   -1    6    8    -22.22      0.00
    0    6    8    -14.47      0.00
    1    6    8      2.98      0.00
    2    6    8    -39.14      0.00
    3    6    8    -19.00      0.00
    4    6    8    -41.74      0.00
    5    6    8     15.24      0.00
    6    6    8    -34.79      0.00
    7    6    8      8.66      0.00
    8    6    8     -9.37      0.00
    9    6    8     -8.79      0.00
   10    6    8      9.07      0.00
   11    6    8    -13.31      0.00
   12    6    8      0.20      0.00
   13    6    8      4.53      0.00
   14    6    8      3.05      0.00
   15    6    8      4.00      0.00
   16    6    8    -10.05      0.00
   17    6    8      6.13      0.00
   18    6    8     -4.01      0.00
   19    6    8      5.54      0.00
   20    6    8     -3.87      0.00
   21    6    8      2.50      0.00
   22    6    8      1.98      0.00
   23    6    8     -2.15      0.00
   24    6    8      2.44      0.00
  -24    7    8      5.44      0.00
  -23    7    8      5.36      0.00
  -22    7    8      3.43      0.00
  -21    7    8      3.43      0.00
  -20    7    8      7.84      0.00
  -19    7    8      2.26      0.00
  -18    7    8     -0.93      0.00
  -17    7    8      4.40      0.00
  -16    7    8      3.99      0.00
  -15    7    8     -1.79      0.00
  -14    7    8     -1.23      0.00
  -13    7    8     32.05      0.00
  -12    7    8    -10.05      0.00
  -11    7    8      4.37      0.00
  -10    7    8      5.40      0.00
   -9    7    8    -17.22      0.00
   -8    7    8     -5.75      0.00
   -7    7    8    -29.74      0.00
   -6    7    8    -26.46      0.00
   -5    7    8     20.28      0.00
   -4    7    8    -32.85      0.00
   -3    7    8    -19.81      0.00
   -2    7    8     -9.99      0.00
   -1    7    8     34.16      0.00
    0    7    8    -41.41      0.00
    1    7    8     26.27      0.00
    2    7    8    -20.58      0.00
    3    7    8      4.94      0.00
    4    7    8    -27.70      0.00
    5    7    8    -39.37      0.00
    6    7    8     -6.57      0.00
    7    7    8     34.55      0.00
    8    7    8    -12.98      0.00
    9    7    8      9.72      0.00
   10    7    8     25.62      0.00
   11    7    8     -3.02      0.00
   12    7    8     -2.38      0.00
   13    7    8    -11.46      0.00
   14    7    8     16.87      0.00
   15    7    8      9.94      0.00
   16    7    8      3.08      0.00
   17    7    8     -1.06      0.00
   18    7    8      9.92      0.00
   19    7    8     -3.91      0.00
   20    7    8     -2.09      0.00
   21    7    8      1.83      0.00
   22    7    8      3.38      0.00
   23    7    8     -2.23      0.00
   24    7    8      0.23      0.00
  -24    8    8     -4.17      0.00
  -23    8    8     -2.54      0.00
  -22    8    8      0.34      0.00
  -21    8    8      1.37      0.00
  -20    8    8      4.66      0.00
  -19    8    8     -2.37      0.00
  -18    8    8     -3.22      0.00
  -17    8    8      1.67      0.00
  -16    8    8     -7.00      0.00
  -15    8    8     -2.52      0.00
  -14    8    8    -25.47      0.00
  -13    8    8     21.50      0.00
  -12    8    8    -13.97      0.00
  -11    8    8     16.83      0.00
  -10    8    8      7.93      0.00
   -9    8    8      4.32      0.00
   -8    8    8     20.25      0.00
   -7    8    8     21.26      0.00
   -6    8    8     14.60      0.00
   -5    8    8     21.29      0.00
   -4    8    8     18.38      0.00
   -3    8    8      9.18      0.00
   -2    8    8     -6.64      0.00
   -1    8    8     -1.67      0.00
    0    8    8     14.24      0.00
    1    8    8     32.39      0.00
    2    8    8     -2.33      0.00
    3    8    8      9.04      0.00
    4    8    8     14.66      0.00
    5    8    8     18.46      0.00
    6    8    8      8.06      0.00
    7    8    8      2.35      0.00
    8    8    8     32.79      0.00
    9    8    8      0.50      0.00
   10    8    8     17.30      0.00
   11    8    8      1.77      0.00
   12    8    8     19.77      0.00
   13    8    8     19.02      0.00
   14    8    8     -0.88      0.00
   15    8    8      2.68      0.00
   16    8    8      4.54      0.00
   17    8    8     -5.53      0.00
   18    8    8     -2.15      0.00
   19    8    8     -5.13      0.00
   20    8    8      0.20      0.00
   21    8    8     -4.86      0.00
   22    8    8     -6.93      0.00
   23    8    8     -3.06      0.00
  -23    9    8     -1.73      0.00
  -22    9    8      0.63      0.00
  -21    9    8      2.08      0.00
  -20    9    8     -1.68      0.00
  -19    9    8      5.90      0.00
  -18    9    8     -2.34      0.00
  -17    9    8      7.34      0.00
  -16    9    8      7.13      0.00
  -15    9    8      0.74      0.00
  -14    9    8     -7.72      0.00
  -13    9    8     18.53      0.00
  -12    9    8     -9.73      0.00
  -11    9    8     12.32      0.00
  -10    9    8    -13.14      0.00
   -9    9    8    -16.30      0.00
   -8    9    8      6.74      0.00
   -7    9    8     -6.99      0.00
   -6    9    8    -17.01      0.00
   -5    9    8      4.34      0.00
   -4    9    8     11.77      0.00
   -3    9    8      1.72      0.00
   -2    9    8      3.64      0.00
   -1    9    8     -9.23      0.00
    0    9    8      8.35      0.00
    1    9    8     51.62      0.00
    2    9    8    -12.74      0.00
    3    9    8    -13.73      0.00
    4    9    8     13.60      0.00
    5    9    8     -1.32      0.00
    6    9    8     -5.19      0.00
    7    9    8     -4.39      0.00
    8    9    8     16.20      0.00
    9    9    8     15.79      0.00
   10    9    8      4.59      0.00
   11    9    8    -21.30      0.00
   12    9    8      3.54      0.00
   13    9    8     16.60      0.00
   14    9    8    -15.17      0.00
   15    9    8     15.41      0.00
   16    9    8      3.85      0.00
   17    9    8     16.48      0.00
   18    9    8     -0.44      0.00
   19    9    8     -4.22      0.00
   20    9    8      3.36      0.00
   21    9    8      4.44      0.00
   22    9    8      0.94      0.00
  -23   10    8      1.82      0.00
  -22   10    8      3.67      0.00
  -21   10    8     -0.53      0.00
  -20   10    8      5.93      0.00
  -19   10    8      7.80      0.00
  -18   10    8     -1.28      0.00
  -17   10    8     -9.08      0.00
  -16   10    8     -2.51      0.00
  -15   10    8    -10.15      0.00
  -14   10    8    -14.34      0.00
  -13   10    8    -13.47      0.00
  -12   10    8    -10.08      0.00
  -11   10    8     -7.60      0.00
  -10   10    8     -9.21      0.00
   -9   10    8    -23.16      0.00
   -8   10    8      0.14      0.00
   -7   10    8      3.59      0.00
   -6   10    8    -10.97      0.00
   -5   10    8     -0.76      0.00
   -4   10    8      6.27      0.00
   -3   10    8     -2.17      0.00
   -2   10    8     -7.37      0.00
   -1   10    8     -9.72      0.00
    0   10    8     -2.64      0.00
    1   10    8     20.99      0.00
    2   10    8    -25.03      0.00
    3   10    8      4.20      0.00
    4   10    8     -4.60      0.00
    5   10    8      8.16      0.00
    6   10    8      5.77      0.00
    7   10    8     -4.13      0.00
    8   10    8     20.48      0.00
    9   10    8    -13.50      0.00
   10   10    8     19.14      0.00
   11   10    8     -4.49      0.00
   12   10    8     12.01      0.00
   13   10    8      3.59      0.00
   14   10    8     -6.12      0.00
   15   10    8      4.29      0.00
   16   10    8     -6.63      0.00
   17   10    8     -4.80      0.00
   18   10    8     -4.50      0.00
   19   10    8      9.47      0.00
   20   10    8      0.02      0.00
   21   10    8     -1.25      0.00
   22   10    8     -0.79      0.00
  -22   11    8      2.22      0.00
  -21   11    8     -5.56      0.00
  -20   11    8     -5.25      0.00
  -19   11    8      5.26      0.00
  -18   11    8     -0.80      0.00
  -17   11    8      0.54      0.00
  -16   11    8      2.82      0.00
  -15   11    8      2.83      0.00
  -14   11    8      0.70      0.00
  -13   11    8      4.96      0.00
  -12   11    8     -2.39      0.00
  -11   11    8      9.96      0.00
  -10   11    8      9.24      0.00
   -9   11    8    -11.14      0.00
   -8   11    8     10.14      0.00
   -7   11    8     -7.50      0.00
   -6   11    8      2.25      0.00
   -5   11    8     10.26      0.00
   -4   11    8     14.89      0.00
   -3   11    8    -12.93      0.00
   -2   11    8     30.15      0.00
   -1   11    8    -12.10      0.00
    0   11    8     28.57      0.00
    1   11    8     21.40      0.00
    2   11    8     11.74      0.00
    3   11    8      2.89      0.00
    4   11    8     10.86      0.00
    5   11    8    -11.18      0.00
    6   11    8      0.18      0.00
    7   11    8     -1.69      0.00
    8   11    8      5.64      0.00
    9   11    8     -0.38      0.00
   10   11    8      3.76      0.00
   11   11    8    -22.39      0.00
   12   11    8     -4.21      0.00
   13   11    8      7.58      0.00
   14   11    8    -11.73      0.00
   15   11    8     12.10      0.00
   16   11    8     -3.00      0.00
   17   11    8     12.29      0.00
   18   11    8     -5.61      0.00
   19   11    8      1.13      0.00
   20   11    8     -4.48      0.00
   21   11    8      6.10      0.00
  -21   12    8      0.76      0.00
  -20   12    8      5.41      0.00
  -19   12    8      2.98      0.00
  -18   12    8     -3.05      0.00
  -17   12    8      3.58      0.00
  -16   12    8      4.00      0.00
  -15   12    8     -6.68      0.00
  -14   12    8    -10.61      0.00
  -13   12    8      2.88      0.00
  -12   12    8      6.46      0.00
  -11   12    8     -9.50      0.00
  -10   12    8     -3.05      0.00
   -9   12    8     -0.45      0.00
   -8   12    8     19.22      0.00
   -7   12    8      4.42      0.00
   -6   12    8    -11.95      0.00
   -5   12    8     14.10      0.00
   -4   12    8     -2.53      0.00
   -3   12    8     -8.16      0.00
   -2   12    8    -23.25      0.00
   -1   12    8     -5.11      0.00
    0   12    8    -15.88      0.00
    1   12    8     -4.70      0.00
    2   12    8    -39.94      0.00
    3   12    8     -3.37      0.00
    4   12    8    -20.80      0.00
    5   12    8     -3.35      0.00
    6   12    8    -14.26      0.00
    7   12    8      0.89      0.00
    8   12    8    -14.56      0.00
    9   12    8     -9.18      0.00
   10   12    8     -1.82      0.00
   11   12    8     -4.60      0.00
   12   12    8     -5.02      0.00
   13   12    8      4.57      0.00
   14   12    8     -8.98      0.00
   15   12    8     -5.82      0.00
   16   12    8     -8.13      0.00
   17   12    8      1.72      0.00
   18   12    8      2.49      0.00
   19   12    8     -1.42      0.00
   20   12    8      0.86      0.00
  -20   13    8     -2.46      0.00
  -19   13    8     -3.99      0.00
  -18   13    8      2.78      0.00
  -17   13    8      0.00      0.00
  -16   13    8      3.70      0.00
  -15   13    8     -3.20      0.00
  -14   13    8      1.30      0.00
  -13   13    8      9.32      0.00
  -12   13    8     -5.52      0.00
  -11   13    8      0.72      0.00
  -10   13    8      6.58      0.00
   -9   13    8      4.06      0.00
   -8   13    8     -6.57      0.00
   -7   13    8    -10.73      0.00
   -6   13    8     -5.69      0.00
   -5   13    8     27.89      0.00
   -4   13    8    -12.10      0.00
   -3   13    8     -2.02      0.00
   -2   13    8     14.84      0.00
   -1   13    8      8.42      0.00
    0   13    8      0.34      0.00
    1   13    8     18.02      0.00
    2   13    8      7.40      0.00
    3   13    8     16.21      0.00
    4   13    8     -8.96      0.00
    5   13    8    -11.99      0.00
    6   13    8      8.24      0.00
    7   13    8     16.02      0.00
    8   13    8     -3.46      0.00
    9   13    8     10.11      0.00
   10   13    8     13.50      0.00
   11   13    8      1.69      0.00
   12   13    8     -2.39      0.00
   13   13    8      4.85      0.00
   14   13    8      4.10      0.00
   15   13    8     13.24      0.00
   16   13    8      0.41      0.00
   17   13    8      3.97      0.00
   18   13    8      2.66      0.00
   19   13    8      4.21      0.00
  -18   14    8      0.48      0.00
  -17   14    8     -0.12      0.00
  -16   14    8     -1.72      0.00
  -15   14    8     -2.13      0.00
  -14   14    8     -2.65      0.00
  -13   14    8      5.41      0.00
  -12   14    8     -4.95      0.00
  -11   14    8     -5.12      0.00
  -10   14    8      1.52      0.00
   -9   14    8      6.02      0.00
   -8   14    8      5.70      0.00
   -7   14    8      2.58      0.00
   -6   14    8      1.09      0.00
   -5   14    8     13.61      0.00
   -4   14    8    -14.85      0.00
   -3   14    8     -9.94      0.00
   -2   14    8     -8.92      0.00
   -1   14    8      4.76      0.00
    0   14    8    -14.51      0.00
    1   14    8     -4.28      0.00
    2   14    8    -24.02      0.00
    3   14    8      4.30      0.00
    4   14    8     -9.76      0.00
    5   14    8     -3.35      0.00
    6   14    8    -11.19      0.00
    7   14    8     -0.11      0.00
    8   14    8    -16.74      0.00
    9   14    8     -9.34      0.00
   10   14    8     -4.21      0.00
   11   14    8     -3.00      0.00
   12   14    8      6.01      0.00
   13   14    8      0.23      0.00
   14   14    8      0.40      0.00
   15   14    8     -4.51      0.00
   16   14    8      2.87      0.00
   17   14    8     -1.78      0.00
   18   14    8      3.19      0.00
  -17   15    8      4.91      0.00
  -16   15    8      5.04      0.00
  -15   15    8     -0.43      0.00
  -14   15    8     -4.06      0.00
  -13   15    8      2.74      0.00
  -12   15    8     -2.48      0.00
  -11   15    8      3.17      0.00
  -10   15    8     -9.67      0.00
   -9   15    8      1.79      0.00
   -8   15    8     -2.10      0.00
   -7   15    8     -6.66      0.00
   -6   15    8    -16.92      0.00
   -5   15    8     10.82      0.00
   -4   15    8     -1.88      0.00
   -3   15    8     -9.19      0.00
   -2   15    8     -8.48      0.00
   -1   15    8     -9.59      0.00
    0   15    8      1.24      0.00
    1   15    8      6.24      0.00
    2   15    8    -17.20      0.00
    3   15    8      5.44      0.00
    4   15    8     -1.87      0.00
    5   15    8    -11.04      0.00
    6   15    8     -5.12      0.00
    7   15    8     10.57      0.00
    8   15    8      8.13      0.00
    9   15    8     10.40      0.00
   10   15    8     -2.30      0.00
   11   15    8     -2.02      0.00
   12   15    8      8.99      0.00
   13   15    8     -0.13      0.00
   14   15    8     -1.89      0.00
   15   15    8      0.82      0.00
   16   15    8      5.90      0.00
  -15   16    8      6.60      0.00
  -14   16    8      2.92      0.00
  -13   16    8      2.72      0.00
  -12   16    8     -4.09      0.00
  -11   16    8      4.37      0.00
  -10   16    8     -5.80      0.00
   -9   16    8      2.20      0.00
   -8   16    8     -4.25      0.00
   -7   16    8      8.66      0.00
   -6   16    8    -10.86      0.00
   -5   16    8      7.26      0.00
   -4   16    8    -11.48      0.00
   -3   16    8     -0.33      0.00
   -2   16    8     -1.83      0.00
   -1   16    8      5.70      0.00
    0   16    8     -3.14      0.00
    1   16    8     -1.55      0.00
    2   16    8    -10.20      0.00
    3   16    8      5.45      0.00
    4   16    8     -0.05      0.00
    5   16    8     -1.15      0.00
    6   16    8      3.81      0.00
    7   16    8      3.48      0.00
    8   16    8    -11.08      0.00
    9   16    8     -6.02      0.00
   10   16    8      4.47      0.00
   11   16    8      3.50      0.00
   12   16    8      4.75      0.00
   13   16    8     -2.23      0.00
   14   16    8      2.87      0.00
  -13   17    8     -6.82      0.00
  -12   17    8     -1.27      0.00
  -11   17    8      5.85      0.00
  -10   17    8     -2.73      0.00
   -9   17    8     -4.05      0.00
   -8   17    8     -0.63      0.00
   -7   17    8      2.79      0.00
   -6   17    8     -6.11      0.00
   -5   17    8      4.18      0.00
   -4   17    8     -0.86      0.00
   -3   17    8     -6.43      0.00
   -2   17    8     -1.82      0.00
   -1   17    8     -8.62      0.00
    0   17    8      5.61      0.00
    1   17    8      5.01      0.00
    2   17    8     -8.82      0.00
    3   17    8      8.52      0.00
    4   17    8     -0.93      0.00
    5   17    8     -6.64      0.00
    6   17    8     -1.14      0.00
    7   17    8     10.85      0.00
    8   17    8      3.55      0.00
    9   17    8      7.16      0.00
   10   17    8     -4.56      0.00
   11   17    8     -0.61      0.00
   12   17    8      1.97      0.00
  -10   18    8      1.85      0.00
   -9   18    8     -1.75      0.00
   -8   18    8      3.40      0.00
   -7   18    8     -3.22      0.00
   -6   18    8     -1.85      0.00
   -5   18    8      3.58      0.00
   -4   18    8     -0.18      0.00
   -3   18    8     -3.16      0.00
   -2   18    8      9.06      0.00
   -1   18    8      2.51      0.00
    0   18    8      7.25      0.00
    1   18    8     -6.56      0.00
    2   18    8     -1.32      0.00
    3   18    8      2.41      0.00
    4   18    8      2.81      0.00
    5   18    8      1.17      0.00
    6   18    8      2.48      0.00
    7   18    8      5.84      0.00
    8   18    8     -4.64      0.00
    9   18    8      1.49      0.00
   -6   19    8      3.19      0.00
   -5   19    8      1.55      0.00
   -4   19    8     -5.36      0.00
   -3   19    8     -3.52      0.00
   -2   19    8      5.04      0.00
   -1   19    8     -8.86      0.00
    0   19    8      2.14      0.00
    1   19    8      4.40      0.00
    2   19    8      5.32      0.00
    3   19    8      1.99      0.00
    4   19    8     -2.76      0.00
    5   19    8     -3.63      0.00
  -25    0    9     -7.91      0.00
  -23    0    9    -18.66      0.00
  -21    0    9     -7.96      0.00
  -19    0    9     -9.67      0.00
  -17    0    9    -21.36      0.00
  -15    0    9    -24.01      0.00
  -13    0    9    -14.09      0.00
  -11    0    9    -26.43      0.00
   -9    0    9     27.84      0.00
   -7    0    9    -21.76      0.00
   -5    0    9    -62.56      0.00
   -3    0    9    -87.42      0.00
   -1    0    9     15.71      0.00
    1    0    9      2.89      0.00
    3    0    9     47.31      0.00
    5    0    9    -18.38      0.00
    7    0    9      7.76      0.00
    9    0    9     28.14      0.00
   11    0    9     27.00      0.00
   13    0    9    -13.79      0.00
   15    0    9      1.14      0.00
   17    0    9      3.98      0.00
   19    0    9      4.61      0.00
   21    0    9      8.23      0.00
   23    0    9     13.86      0.00
   25    0    9      0.32      0.00
  -26    1    9     -6.58      0.00
  -25    1    9     -6.74      0.00
  -24    1    9     -0.86      0.00
  -23    1    9     -6.04      0.00
  -22    1    9      0.12      0.00
  -21    1    9    -13.48      0.00
  -20    1    9     -1.10      0.00
  -19    1    9      3.69      0.00
  -18    1    9      8.05      0.00
  -17    1    9    -11.60      0.00
  -16    1    9     10.49      0.00
  -15    1    9      4.48      0.00
  -14    1    9      6.88      0.00
  -13    1    9    -27.18      0.00
  -12    1    9      1.88      0.00
  -11    1    9      6.57      0.00
  -10    1    9      3.85      0.00
   -9    1    9    -19.76      0.00
   -8    1    9     -7.49      0.00
   -7    1    9     45.50      0.00
   -6    1    9     21.03      0.00
   -5    1    9     -8.11      0.00
   -4    1    9     -5.12      0.00
   -3    1    9     24.97      0.00
   -2    1    9     16.72      0.00
   -1    1    9    -40.70      0.00
    0    1    9    -29.06      0.00
    1    1    9    -29.07      0.00
    2    1    9      5.72      0.00
    3    1    9    -34.57      0.00
    4    1    9    -15.41      0.00
    5    1    9    -17.70      0.00
    6    1    9     -0.70      0.00
    7    1    9     -2.77      0.00
    8    1    9    -37.87      0.00
    9    1    9    -25.97      0.00
   10    1    9     -5.36      0.00
   11    1    9      8.69      0.00
   12    1    9     -5.74      0.00
   13    1    9     -8.25      0.00
   14    1    9    -21.17      0.00
   15    1    9     19.18      0.00
   16    1    9    -18.18      0.00
   17    1    9     -0.48      0.00
   18    1    9     -6.38      0.00
   19    1    9      1.03      0.00
   20    1    9      0.57      0.00
   21    1    9    -10.47      0.00
   22    1    9     -4.44      0.00
   23    1    9     -1.87      0.00
   24    1    9     -1.09      0.00
   25    1    9     -1.48      0.00
  -26    2    9      6.22      0.00
  -25    2    9     -5.26      0.00
  -24    2    9      3.47      0.00
  -23    2    9     -6.31      0.00
  -22    2    9     -1.04      0.00
  -21    2    9     -1.69      0.00
  -20    2    9     -4.41      0.00
  -19    2    9      8.90      0.00
  -18    2    9     -0.40      0.00
  -17    2    9     -8.97      0.00
  -16    2    9     19.11      0.00
  -15    2    9      0.15      0.00
  -14    2    9      9.96      0.00
  -13    2    9     -3.99      0.00
  -12    2    9     33.39      0.00
  -11    2    9    -18.44      0.00
  -10    2    9      6.20      0.00
   -9    2    9     12.38      0.00
   -8    2    9     17.30      0.00
   -7    2    9    -10.98      0.00
   -5    2    9    -43.93      0.00
   -4    2    9     41.14      0.00
   -3    2    9    -40.58      0.00
   -2    2    9    -56.37      0.00
   -1    2    9     25.94      0.00
    0    2    9     14.61      0.00
    1    2    9     11.80      0.00
    2    2    9    -49.02      0.00
    3    2    9     26.09      0.00
    4    2    9     -3.53      0.00
    5    2    9    -25.37      0.00
    6    2    9    -86.55      0.00
    7    2    9     -6.51      0.00
    8    2    9     -6.75      0.00
    9    2    9      2.82      0.00
   10    2    9    -13.39      0.00
   11    2    9      1.93      0.00
   13    2    9    -34.69      0.00
   14    2    9      2.13      0.00
   15    2    9     -4.69      0.00
   16    2    9     -3.08      0.00
   17    2    9      6.26      0.00
   18    2    9     -2.34      0.00
   19    2    9      7.46      0.00
   20    2    9      3.86      0.00
   21    2    9     10.49      0.00
   22    2    9     13.70      0.00
   23    2    9      5.41      0.00
   24    2    9      1.04      0.00
   25    2    9     -2.66      0.00
  -26    3    9     -3.92      0.00
  -25    3    9    -10.39      0.00
  -24    3    9      2.38      0.00
  -23    3    9    -13.50      0.00
  -22    3    9     -1.27      0.00
  -21    3    9    -13.81      0.00
  -20    3    9      3.95      0.00
  -19    3    9      9.96      0.00
  -18    3    9     -0.92      0.00
  -17    3    9     -3.20      0.00
  -16    3    9     17.01      0.00
  -15    3    9      7.27      0.00
  -14    3    9     -1.30      0.00
  -13    3    9    -22.94      0.00
  -12    3    9      7.18      0.00
  -11    3    9     -1.74      0.00
  -10    3    9     -6.12      0.00
   -9    3    9    -13.70      0.00
   -8    3    9     -3.58      0.00
   -7    3    9     33.25      0.00
   -6    3    9    -10.18      0.00
   -5    3    9     -3.31      0.00
   -4    3    9     -3.12      0.00
   -3    3    9     25.48      0.00
   -2    3    9     25.98      0.00
   -1    3    9     -5.38      0.00
    0    3    9     32.28      0.00
    1    3    9      1.24      0.00
    2    3    9     51.13      0.00
    3    3    9      2.92      0.00
    4    3    9     49.75      0.00
    5    3    9     40.18      0.00
    6    3    9     25.17      0.00
    7    3    9     28.43      0.00
    8    3    9     -7.25      0.00
    9    3    9      7.22      0.00
   10    3    9     20.31      0.00
   11    3    9     19.44      0.00
   12    3    9     25.10      0.00
   13    3    9     -2.06      0.00
   14    3    9     14.71      0.00
   15    3    9     11.31      0.00
   16    3    9      1.63      0.00
   17    3    9     -5.17      0.00
   18    3    9      5.61      0.00
   20    3    9     -5.32      0.00
   22    3    9     -2.37      0.00
   23    3    9      2.56      0.00
   24    3    9      0.30      0.00
   25    3    9      0.72      0.00
  -25    4    9     -2.56      0.00
  -24    4    9      3.55      0.00
  -23    4    9    -13.90      0.00
  -22    4    9     -0.99      0.00
  -21    4    9    -10.10      0.00
  -20    4    9    -11.26      0.00
  -19    4    9      1.00      0.00
  -18    4    9      0.96      0.00
  -17    4    9     -9.96      0.00
  -16    4    9      8.84      0.00
  -15    4    9     12.96      0.00
  -14    4    9     10.16      0.00
  -13    4    9     -3.02      0.00
  -12    4    9     21.45      0.00
  -11    4    9    -11.11      0.00
  -10    4    9     35.12      0.00
   -9    4    9    -19.89      0.00
   -8    4    9      3.71      0.00
   -7    4    9    -11.01      0.00
   -6    4    9     10.09      0.00
   -5    4    9    -62.39      0.00
   -4    4    9     -7.39      0.00
   -3    4    9    -47.03      0.00
   -2    4    9    -26.43      0.00
   -1    4    9    -45.07      0.00
    0    4    9    -58.19      0.00
    1    4    9    -33.21      0.00
    2    4    9     70.23      0.00
    3    4    9    -36.29      0.00
    4    4    9      2.13      0.00
    5    4    9    -16.86      0.00
    6    4    9     13.24      0.00
    7    4    9     -5.47      0.00
    8    4    9    -24.90      0.00
    9    4    9     21.97      0.00
   10    4    9     19.19      0.00
   11    4    9     -3.11      0.00
   12    4    9    -15.58      0.00
   13    4    9    -21.18      0.00
   14    4    9     13.03      0.00
   15    4    9    -13.08      0.00
   16    4    9     -7.96      0.00
   17    4    9      1.86      0.00
   18    4    9      2.63      0.00
   19    4    9     -4.95      0.00
   20    4    9     -4.14      0.00
   21    4    9      1.33      0.00
   22    4    9      8.77      0.00
   23    4    9     -2.07      0.00
   24    4    9     -2.75      0.00
   25    4    9     -5.28      0.00
  -25    5    9      1.81      0.00
  -24    5    9     -1.50      0.00
  -23    5    9     -0.93      0.00
  -22    5    9      3.91      0.00
  -21    5    9     -2.97      0.00
  -20    5    9     -5.41      0.00
  -19    5    9      8.00      0.00
  -18    5    9      4.72      0.00
  -17    5    9      1.07      0.00
  -16    5    9      0.09      0.00
  -15    5    9      4.44      0.00
  -14    5    9     12.75      0.00
  -13    5    9    -11.49      0.00
  -12    5    9     -4.02      0.00
  -11    5    9    -14.15      0.00
  -10    5    9     11.69      0.00
   -9    5    9    -24.80      0.00
   -8    5    9      4.07      0.00
   -7    5    9    -12.03      0.00
   -6    5    9      1.16      0.00
   -5    5    9    -21.06      0.00
   -4    5    9     -0.39      0.00
   -3    5    9     18.60      0.00
   -2    5    9     14.59      0.00
   -1    5    9     13.85      0.00
    0    5    9     -5.36      0.00
    1    5    9    -14.42      0.00
    2    5    9     16.12      0.00
    3    5    9    -54.32      0.00
    4    5    9     51.04      0.00
    5    5    9    -14.64      0.00
    6    5    9     47.41      0.00
    7    5    9    -31.48      0.00
    8    5    9     25.69      0.00
    9    5    9     -4.13      0.00
   10    5    9     35.39      0.00
   11    5    9      2.59      0.00
   12    5    9     29.74      0.00
   13    5    9      2.34      0.00
   14    5    9      1.64      0.00
   15    5    9     -3.02      0.00
   16    5    9     10.90      0.00
   17    5    9     -5.16      0.00
   18    5    9      2.87      0.00
   19    5    9     -5.76      0.00
   20    5    9      5.53      0.00
   21    5    9     -1.40      0.00
   22    5    9     -3.08      0.00
   23    5    9      3.90      0.00
   24    5    9      5.23      0.00
  -25    6    9      0.81      0.00
  -24    6    9      4.18      0.00
  -23    6    9    -13.41      0.00
  -22    6    9      0.86      0.00
  -20    6    9     -9.23      0.00
  -19    6    9     -5.09      0.00
  -18    6    9      2.65      0.00
  -17    6    9     -8.09      0.00
  -16    6    9    -11.78      0.00
  -15    6    9      1.66      0.00
  -14    6    9    -16.75      0.00
  -13    6    9      1.78      0.00
  -12    6    9    -12.53      0.00
  -11    6    9     -6.83      0.00
  -10    6    9     21.76      0.00
   -9    6    9     -7.58      0.00
   -8    6    9     -1.56      0.00
   -7    6    9      1.63      0.00
   -6    6    9     16.31      0.00
   -5    6    9    -21.91      0.00
   -4    6    9     20.69      0.00
   -3    6    9     -3.97      0.00
   -2    6    9    -24.79      0.00
   -1    6    9     12.77      0.00
    0    6    9    -37.51      0.00
    1    6    9     24.59      0.00
    2    6    9     55.81      0.00
    3    6    9      2.10      0.00
    4    6    9     18.93      0.00
    5    6    9     -0.49      0.00
    6    6    9      2.57      0.00
    7    6    9    -15.89      0.00
    8    6    9     -2.83      0.00
    9    6    9     -0.07      0.00
   10    6    9     24.71      0.00
   11    6    9    -14.10      0.00
   12    6    9    -11.75      0.00
   13    6    9    -10.80      0.00
   14    6    9      6.76      0.00
   15    6    9     -7.78      0.00
   16    6    9     -7.94      0.00
   17    6    9     -4.17      0.00
   18    6    9     -5.88      0.00
   19    6    9    -11.98      0.00
   20    6    9    -11.35      0.00
   21    6    9     -7.93      0.00
   22    6    9      1.45      0.00
   23    6    9      1.69      0.00
   24    6    9     -7.37      0.00
  -24    7    9     -2.13      0.00
  -23    7    9      1.58      0.00
  -22    7    9     -2.83      0.00
  -21    7    9     -0.18      0.00
  -20    7    9     -6.19      0.00
  -19    7    9     11.38      0.00
  -18    7    9     -2.86      0.00
  -17    7    9     -1.71      0.00
  -16    7    9      4.62      0.00
  -15    7    9     12.45      0.00
  -14    7    9      9.84      0.00
  -13    7    9    -19.10      0.00
  -12    7    9     -3.85      0.00
  -11    7    9      9.07      0.00
  -10    7    9      4.66      0.00
   -9    7    9    -27.21      0.00
   -8    7    9     16.19      0.00
   -7    7    9     16.97      0.00
   -6    7    9     10.25      0.00
   -5    7    9    -39.29      0.00
   -4    7    9     30.36      0.00
   -3    7    9     37.77      0.00
   -2    7    9     37.21      0.00
   -1    7    9     11.76      0.00
    0    7    9     12.79      0.00
    1    7    9      9.52      0.00
    2    7    9     11.19      0.00
    3    7    9    -24.05      0.00
    4    7    9     53.71      0.00
    5    7    9      6.53      0.00
    6    7    9     27.07      0.00
    7    7    9      9.64      0.00
    8    7    9      2.98      0.00
    9    7    9     -0.68      0.00
   10    7    9      0.84      0.00
   11    7    9     15.30      0.00
   12    7    9     -8.64      0.00
   13    7    9     -9.08      0.00
   14    7    9    -20.50      0.00
   15    7    9      1.34      0.00
   16    7    9     -2.91      0.00
   17    7    9    -13.84      0.00
   18    7    9      5.37      0.00
   19    7    9     -0.67      0.00
   20    7    9      1.60      0.00
   21    7    9     -7.10      0.00
   22    7    9      0.71      0.00
   23    7    9      6.77      0.00
  -24    8    9      6.80      0.00
  -23    8    9     -7.74      0.00
  -22    8    9      0.38      0.00
  -21    8    9     -2.72      0.00
  -20    8    9     -4.94      0.00
  -19    8    9     -7.37      0.00
  -18    8    9      5.73      0.00
  -17    8    9     -6.84      0.00
  -16    8    9      5.96      0.00
  -15    8    9     -5.33      0.00
  -14    8    9    -11.84      0.00
  -13    8    9      4.67      0.00
  -12    8    9      8.22      0.00
  -11    8    9    -16.32      0.00
  -10    8    9     -0.88      0.00
   -9    8    9     -6.86      0.00
   -8    8    9     -4.40      0.00
   -7    8    9     -7.77      0.00
   -6    8    9    -25.91      0.00
   -5    8    9     -3.81      0.00
   -4    8    9     43.05      0.00
   -3    8    9      3.87      0.00
   -2    8    9    -34.88      0.00
   -1    8    9     24.03      0.00
    0    8    9      9.99      0.00
    1    8    9     14.90      0.00
    2    8    9     19.97      0.00
    3    8    9     -6.55      0.00
    4    8    9     41.64      0.00
    5    8    9    -21.29      0.00
    6    8    9    -24.40      0.00
    7    8    9     -8.99      0.00
    8    8    9     32.26      0.00
    9    8    9     -5.11      0.00
   10    8    9     15.27      0.00
   11    8    9     11.76      0.00
   12    8    9      0.05      0.00
   13    8    9     -0.08      0.00
   14    8    9    -13.31      0.00
   15    8    9     10.27      0.00
   16    8    9      3.24      0.00
   17    8    9     -2.80      0.00
   18    8    9     -8.53      0.00
   19    8    9     -4.69      0.00
   20    8    9      4.64      0.00
   21    8    9     -5.13      0.00
   22    8    9      2.39      0.00
   23    8    9      3.46      0.00
  -23    9    9     -1.89      0.00
  -22    9    9     -6.30      0.00
  -21    9    9      0.95      0.00
  -20    9    9     -7.85      0.00
  -19    9    9     -1.76      0.00
  -18    9    9    -17.17      0.00
  -17    9    9     -3.37      0.00
  -16    9    9     -0.10      0.00
  -15    9    9     -4.56      0.00
  -14    9    9      0.86      0.00
  -13    9    9     -7.61      0.00
  -12    9    9      6.19      0.00
  -11    9    9      4.72      0.00
  -10    9    9     11.06      0.00
   -9    9    9     11.91      0.00
   -8    9    9     30.69      0.00
   -7    9    9     13.41      0.00
   -6    9    9     -6.01      0.00
   -5    9    9    -12.85      0.00
   -4    9    9     10.01      0.00
   -3    9    9     12.59      0.00
   -2    9    9      7.40      0.00
   -1    9    9     12.41      0.00
    0    9    9      4.73      0.00
    1    9    9     -2.96      0.00
    2    9    9     -3.61      0.00
    3    9    9    -20.74      0.00
    4    9    9     45.12      0.00
    5    9    9      5.96      0.00
    6    9    9      4.02      0.00
    7    9    9     -0.75      0.00
    8    9    9     -7.75      0.00
    9    9    9     -5.57      0.00
   10    9    9     -0.85      0.00
   11    9    9     -2.45      0.00
   12    9    9     -8.70      0.00
   13    9    9     -0.73      0.00
   14    9    9    -15.97      0.00
   15    9    9      5.79      0.00
   16    9    9     -9.54      0.00
   17    9    9      6.49      0.00
   18    9    9      2.54      0.00
   19    9    9      3.06      0.00
   20    9    9     -6.08      0.00
   21    9    9     -0.93      0.00
   22    9    9      2.30      0.00
  -22   10    9     -2.29      0.00
  -20   10    9      1.72      0.00
  -19   10    9     -3.55      0.00
  -18   10    9      5.52      0.00
  -17   10    9     -2.52      0.00
  -16   10    9      7.96      0.00
  -15   10    9      5.19      0.00
  -14   10    9     -6.70      0.00
  -13   10    9      1.87      0.00
  -12   10    9     10.14      0.00
  -11   10    9     -4.41      0.00
  -10   10    9     12.65      0.00
   -9   10    9    -21.22      0.00
   -8   10    9     -8.19      0.00
   -7   10    9      9.20      0.00
   -6   10    9     -7.37      0.00
   -5   10    9     -9.38      0.00
   -4   10    9     12.16      0.00
   -3   10    9     22.69      0.00
   -2   10    9    -24.35      0.00
   -1   10    9     -1.32      0.00
    0   10    9    -41.10      0.00
    1   10    9     19.82      0.00
    2   10    9      0.90      0.00
    3   10    9    -27.70      0.00
    4   10    9    -21.42      0.00
    5   10    9     -3.14      0.00
    6   10    9    -40.59      0.00
    7   10    9    -17.08      0.00
    8   10    9     -5.62      0.00
    9   10    9     11.17      0.00
   10   10    9      7.82      0.00
   11   10    9     -4.88      0.00
   12   10    9    -11.00      0.00
   13   10    9      1.48      0.00
   14   10    9     -9.53      0.00
   15   10    9     -8.21      0.00
   16   10    9      2.01      0.00
   17   10    9      0.63      0.00
   18   10    9     -5.66      0.00
   19   10    9     -2.29      0.00
   20   10    9      4.93      0.00
   21   10    9      0.97      0.00
  -21   11    9      0.44      0.00
  -20   11    9     -0.07      0.00
  -19   11    9    -12.03      0.00
  -18   11    9      2.63      0.00
  -17   11    9     -5.93      0.00
  -16   11    9      0.18      0.00
  -15   11    9    -18.34      0.00
  -14   11    9     10.16      0.00
  -13   11    9      1.14      0.00
  -12   11    9     -6.24      0.00
  -11   11    9     -5.26      0.00
  -10   11    9     15.14      0.00
   -9   11    9     16.19      0.00
   -8   11    9     16.90      0.00
   -7   11    9     -5.79      0.00
   -6   11    9    -12.39      0.00
   -5   11    9     -0.19      0.00
   -4   11    9     -7.76      0.00
   -3   11    9      9.54      0.00
   -2   11    9      5.35      0.00
   -1   11    9     20.20      0.00
    0   11    9      3.02      0.00
    1   11    9     -4.49      0.00
    2   11    9     -3.43      0.00
    3   11    9    -12.07      0.00
    4   11    9     34.50      0.00
    5   11    9     14.43      0.00
    6   11    9     -8.60      0.00
    7   11    9      6.63      0.00
    8   11    9    -10.51      0.00
    9   11    9      5.33      0.00
   10   11    9     -2.95      0.00
   11   11    9      0.90      0.00
   12   11    9      4.34      0.00
   13   11    9      4.46      0.00
   14   11    9    -13.73      0.00
   15   11    9      1.63      0.00
   16   11    9      7.69      0.00
   17   11    9      1.94      0.00
   18   11    9      2.63      0.00
   19   11    9     -4.06      0.00
   20   11    9      3.72      0.00
  -20   12    9      0.86      0.00
  -19   12    9      0.57      0.00
  -18   12    9      8.99      0.00
  -17   12    9      1.19      0.00
  -16   12    9      2.08      0.00
  -15   12    9      2.44      0.00
  -14   12    9      0.47      0.00
  -13   12    9      2.34      0.00
  -12   12    9     -0.90      0.00
  -11   12    9     -0.53      0.00
  -10   12    9     19.37      0.00
   -9   12    9    -17.44      0.00
   -8   12    9    -10.27      0.00
   -7   12    9      4.38      0.00
   -6   12    9     10.54      0.00
   -5   12    9    -14.22      0.00
   -4   12    9     15.02      0.00
   -3   12    9      8.28      0.00
   -2   12    9     -1.41      0.00
   -1   12    9    -10.56      0.00
    0   12    9    -18.94      0.00
    1   12    9     13.09      0.00
    2   12    9     18.68      0.00
    3   12    9    -24.25      0.00
    4   12    9      1.15      0.00
    5   12    9      1.65      0.00
    6   12    9    -15.54      0.00
    7   12    9    -14.91      0.00
    8   12    9      4.00      0.00
    9   12    9      7.29      0.00
   10   12    9      9.54      0.00
   11   12    9    -10.79      0.00
   12   12    9     -6.00      0.00
   13   12    9      3.57      0.00
   14   12    9     -4.31      0.00
   15   12    9     -4.57      0.00
   16   12    9      3.23      0.00
   17   12    9      1.19      0.00
   18   12    9     -3.04      0.00
   19   12    9     -4.58      0.00
  -19   13    9     -2.85      0.00
  -18   13    9     -4.24      0.00
  -17   13    9     -0.24      0.00
  -16   13    9      8.96      0.00
  -15   13    9     -6.92      0.00
  -14   13    9      6.27      0.00
  -13   13    9      2.29      0.00
  -12   13    9     -5.41      0.00
  -11   13    9     -0.36      0.00
  -10   13    9      4.34      0.00
   -9   13    9     10.03      0.00
   -8   13    9      8.34      0.00
   -7   13    9     -6.23      0.00
   -6   13    9    -21.21      0.00
   -5   13    9     -4.54      0.00
   -4   13    9    -13.60      0.00
   -3   13    9      9.07      0.00
   -2   13    9      2.97      0.00
   -1   13    9     10.58      0.00
    0   13    9     -6.89      0.00
    1   13    9     -3.03      0.00
    2   13    9    -12.43      0.00
    3   13    9     -4.01      0.00
    4   13    9     18.05      0.00
    5   13    9     17.21      0.00
    6   13    9     -0.57      0.00
    7   13    9     12.49      0.00
    8   13    9      2.06      0.00
    9   13    9      6.40      0.00
   10   13    9     20.45      0.00
   11   13    9     -1.06      0.00
   12   13    9     11.29      0.00
   13   13    9     -5.28      0.00
   14   13    9     -3.10      0.00
   15   13    9     -1.45      0.00
   16   13    9      6.12      0.00
   17   13    9     -3.28      0.00
   18   13    9      7.53      0.00
  -18   14    9     -0.81      0.00
  -17   14    9      2.51      0.00
  -16   14    9     -2.19      0.00
  -15   14    9     -2.59      0.00
  -14   14    9     -6.45      0.00
  -13   14    9      8.01      0.00
  -12   14    9      1.51      0.00
  -11   14    9     -3.39      0.00
  -10   14    9      2.51      0.00
   -9   14    9      1.33      0.00
   -8   14    9    -13.43      0.00
   -7   14    9    -10.94      0.00
   -6   14    9     -3.37      0.00
   -5   14    9     -1.44      0.00
   -4   14    9     11.19      0.00
   -3   14    9    -19.97      0.00
   -2   14    9      1.27      0.00
   -1   14    9      3.57      0.00
    0   14    9     -4.40      0.00
    1   14    9     -7.23      0.00
    2   14    9     10.36      0.00
    3   14    9     -1.80      0.00
    4   14    9      1.91      0.00
    5   14    9    -13.36      0.00
    6   14    9    -15.78      0.00
    7   14    9      0.97      0.00
    8   14    9      7.56      0.00
    9   14    9     -9.90      0.00
   10   14    9      5.47      0.00
   11   14    9     -3.10      0.00
   12   14    9      5.10      0.00
   13   14    9     -4.21      0.00
   14   14    9     -5.69      0.00
   15   14    9      2.72      0.00
   16   14    9      5.61      0.00
   17   14    9     -1.58      0.00
  -16   15    9      9.27      0.00
  -15   15    9     -6.81      0.00
  -14   15    9     -0.72      0.00
  -13   15    9      0.40      0.00
  -12   15    9      0.71      0.00
  -11   15    9    -12.36      0.00
  -10   15    9      5.26      0.00
   -9   15    9     11.74      0.00
   -8   15    9     20.17      0.00
   -7   15    9    -13.57      0.00
   -6   15    9    -10.02      0.00
   -5   15    9      5.06      0.00
   -4   15    9      5.69      0.00
   -3   15    9     -3.30      0.00
   -2   15    9     17.96      0.00
   -1   15    9      6.17      0.00
    0   15    9      8.43      0.00
    1   15    9     -8.78      0.00
    2   15    9      1.84      0.00
    3   15    9     -1.81      0.00
    4   15    9     13.30      0.00
    5   15    9     10.71      0.00
    6   15    9      1.13      0.00
    7   15    9      1.41      0.00
    8   15    9     -7.44      0.00
    9   15    9      6.10      0.00
   10   15    9     14.92      0.00
   11   15    9     -7.88      0.00
   12   15    9     -0.41      0.00
   13   15    9     -0.99      0.00
   14   15    9     -9.31      0.00
   15   15    9     -3.24      0.00
   16   15    9     -2.48      0.00
  -15   16    9     -3.21      0.00
  -14   16    9     -7.97      0.00
  -13   16    9     -1.57      0.00
  -12   16    9      6.07      0.00
  -11   16    9     -4.99      0.00
  -10   16    9      1.98      0.00
   -9   16    9     -6.26      0.00
   -8   16    9     -1.95      0.00
   -7   16    9     -5.44      0.00
   -6   16    9      1.90      0.00
   -5   16    9      0.05      0.00
   -4   16    9      8.55      0.00
   -3   16    9    -10.27      0.00
   -2   16    9      3.94      0.00
   -1   16    9      2.53      0.00
    0   16    9     -0.83      0.00
    1   16    9     -2.45      0.00
    2   16    9     11.41      0.00
    3   16    9     -2.84      0.00
    4   16    9      1.38      0.00
    5   16    9     -4.80      0.00
    6   16    9     -5.21      0.00
    7   16    9     -2.05      0.00
    8   16    9      0.79      0.00
    9   16    9     -3.71      0.00
   10   16    9      5.79      0.00
   11   16    9     -8.16      0.00
   12   16    9      2.39      0.00
   13   16    9      0.62      0.00
   14   16    9     -3.55      0.00
  -12   17    9     -4.01      0.00
  -11   17    9     -4.02      0.00
  -10   17    9      8.60      0.00
   -9   17    9      6.67      0.00
   -8   17    9      9.90      0.00
   -7   17    9     -6.69      0.00
   -6   17    9     -5.15      0.00
   -5   17    9      3.41      0.00
   -4   17    9      0.89      0.00
   -3   17    9      0.60      0.00
   -2   17    9     14.16      0.00
   -1   17    9      4.78      0.00
    0   17    9      1.89      0.00
    1   17    9     -6.40      0.00
    2   17    9      2.31      0.00
    3   17    9      5.45      0.00
    4   17    9      6.29      0.00
    5   17    9      5.83      0.00
    6   17    9     -0.18      0.00
    7   17    9      6.15      0.00
    8   17    9     -6.94      0.00
    9   17    9      4.51      0.00
   10   17    9      8.60      0.00
   11   17    9     -2.15      0.00
   12   17    9      5.04      0.00
  -10   18    9      5.83      0.00
   -9   18    9     -3.98      0.00
   -8   18    9      0.62      0.00
   -7   18    9     -0.77      0.00
   -6   18    9      2.72      0.00
   -5   18    9      1.07      0.00
   -4   18    9     -0.63      0.00
   -3   18    9     -1.90      0.00
   -2   18    9     -6.77      0.00
   -1   18    9      2.68      0.00
    0   18    9     -3.51      0.00
    1   18    9      1.25      0.00
    2   18    9     -0.97      0.00
    3   18    9     -1.78      0.00
    4   18    9     -1.36      0.00
    5   18    9      3.74      0.00
    6   18    9     -6.51      0.00
    7   18    9      3.58      0.00
    8   18    9     -7.30      0.00
    9   18    9      2.80      0.00
   -5   19    9     -1.28      0.00
   -4   19    9      0.16      0.00
   -3   19    9      3.44      0.00
   -2   19    9      4.32      0.00
   -1   19    9      0.23      0.00
    0   19    9     -4.55      0.00
    1   19    9     -5.02      0.00
    2   19    9     -1.29      0.00
    3   19    9     -2.18      0.00
    4   19    9      1.12      0.00
  -24    0   10     10.09      0.00
  -22    0   10     10.81      0.00
  -20    0   10      2.23      0.00
  -18    0   10      4.95      0.00
  -16    0   10    -10.46      0.00
  -14    0   10      5.91      0.00
  -12    0   10     13.88      0.00
  -10    0   10    -18.77      0.00
   -8    0   10    -97.16      0.00
   -6    0   10    -81.34      0.00
   -4    0   10    -97.69      0.00
    2    0   10    -85.71      0.00
    4    0   10   -122.51      0.00
    6    0   10    -29.49      0.00
    8    0   10    -30.05      0.00
   10    0   10      7.15      0.00
   12    0   10      5.18      0.00
   14    0   10      0.35      0.00
   16    0   10     13.72      0.00
   18    0   10     18.03      0.00
   20    0   10     18.60      0.00
   22    0   10     -0.38      0.00
   24    0   10      9.19      0.00
  -26    1   10     -5.60      0.00
  -25    1   10      4.90      0.00
  -24    1   10      0.43      0.00
  -23    1   10     -6.08      0.00
  -22    1   10     -6.17      0.00
  -21    1   10     15.67      0.00
  -20    1   10      3.66      0.00
  -19    1   10     12.32      0.00
  -18    1   10     -5.27      0.00
  -17    1   10     20.36      0.00
  -16    1   10     -0.50      0.00
  -15    1   10     -1.21      0.00
  -14    1   10     -6.85      0.00
  -13    1   10     33.21      0.00
  -12    1   10      7.79      0.00
  -11    1   10      3.73      0.00
  -10    1   10      8.51      0.00
   -9    1   10     25.44      0.00
   -8    1   10      5.62      0.00
   -7    1   10      7.77      0.00
   -6    1   10     -6.66      0.00
   -5    1   10     75.36      0.00
   -4    1   10    -11.72      0.00
   -3    1   10    -34.71      0.00
   -2    1   10     -4.89      0.00
    0    1   10     18.05      0.00
    1    1   10     39.17      0.00
    2    1   10     38.61      0.00
    3    1   10     56.74      0.00
    4    1   10     24.21      0.00
    5    1   10    -59.14      0.00
    6    1   10     28.63      0.00
    7    1   10     20.30      0.00
    8    1   10     12.09      0.00
    9    1   10      5.56      0.00
   10    1   10     18.29      0.00
   11    1   10    -19.85      0.00
   12    1   10      8.15      0.00
   13    1   10    -10.44      0.00
   14    1   10      7.04      0.00
   15    1   10     19.28      0.00
   16    1   10     -6.55      0.00
   17    1   10     -6.46      0.00
   18    1   10    -10.23      0.00
   19    1   10    -13.39      0.00
   20    1   10     -4.77      0.00
   21    1   10     -9.40      0.00
   22    1   10     -5.77      0.00
   23    1   10     -0.02      0.00
   24    1   10     -0.08      0.00
   25    1   10     -6.21      0.00
  -25    2   10     -0.14      0.00
  -24    2   10      4.30      0.00
  -23    2   10      8.98      0.00
  -22    2   10      7.12      0.00
  -21    2   10     16.91      0.00
  -20    2   10     -6.27      0.00
  -19    2   10      9.84      0.00
  -18    2   10      5.11      0.00
  -17    2   10     17.07      0.00
  -16    2   10    -22.36      0.00
  -15    2   10      1.66      0.00
  -14    2   10      4.69      0.00
  -13    2   10     14.66      0.00
  -12    2   10     -7.22      0.00
  -11    2   10     -7.03      0.00
  -10    2   10     15.16      0.00
   -9    2   10     20.86      0.00
   -8    2   10    -65.65      0.00
   -7    2   10      5.73      0.00
   -6    2   10     19.62      0.00
   -5    2   10     10.87      0.00
   -4    2   10    -29.91      0.00
   -3    2   10    -12.65      0.00
   -2    2   10     40.13      0.00
   -1    2   10    -14.56      0.00
    0    2   10    -29.40      0.00
    1    2   10    -42.00      0.00
    2    2   10    -41.28      0.00
    3    2   10    -13.95      0.00
    4    2   10    -55.68      0.00
    5    2   10     -9.22      0.00
    6    2   10    -11.93      0.00
    7    2   10     15.33      0.00
    8    2   10      9.88      0.00
    9    2   10     24.72      0.00
   10    2   10     -2.93      0.00
   11    2   10     10.23      0.00
   12    2   10     27.86      0.00
   13    2   10    -11.47      0.00
   14    2   10      1.68      0.00
   15    2   10    -16.14      0.00
   16    2   10     30.61      0.00
   17    2   10      1.31      0.00
   18    2   10     12.58      0.00
   19    2   10      1.60      0.00
   20    2   10     13.87      0.00
   21    2   10      4.50      0.00
   22    2   10    -12.69      0.00
   23    2   10      0.45      0.00
   24    2   10      2.79      0.00
   25    2   10     -3.58      0.00
  -25    3   10      4.68      0.00
  -24    3   10     -1.49      0.00
  -23    3   10      1.65      0.00
  -22    3   10     -8.78      0.00
  -21    3   10      6.79      0.00
  -20    3   10      0.86      0.00
  -19    3   10     11.29      0.00
  -18    3   10     -8.34      0.00
  -17    3   10     -2.55      0.00
  -16    3   10     -2.57      0.00
  -15    3   10     -2.84      0.00
  -14    3   10    -18.47      0.00
  -13    3   10      4.75      0.00
  -12    3   10      4.32      0.00
  -11    3   10      9.21      0.00
  -10    3   10    -10.46      0.00
   -9    3   10    -25.89      0.00
   -8    3   10    -24.75      0.00
   -7    3   10     17.73      0.00
   -6    3   10    -31.51      0.00
   -5    3   10      5.32      0.00
   -4    3   10    -28.60      0.00
   -3    3   10     19.72      0.00
   -2    3   10      3.87      0.00
   -1    3   10    -53.74      0.00
    0    3   10     22.99      0.00
    1    3   10     93.48      0.00
    2    3   10     54.99      0.00
    3    3   10    -33.58      0.00
    4    3   10      2.80      0.00
    5    3   10    -37.70      0.00
    6    3   10     14.65      0.00
    7    3   10    -36.92      0.00
    8    3   10     -9.81      0.00
    9    3   10     39.88      0.00
   10    3   10      0.06      0.00
   11    3   10     -9.67      0.00
   12    3   10      4.10      0.00
   13    3   10     22.59      0.00
   14    3   10     12.91      0.00
   15    3   10      6.63      0.00
   16    3   10      2.86      0.00
   17    3   10    -10.13      0.00
   18    3   10      1.99      0.00
   19    3   10    -22.81      0.00
   20    3   10      2.99      0.00
   21    3   10      0.33      0.00
   22    3   10     -0.93      0.00
   23    3   10      7.41      0.00
   24    3   10     -2.38      0.00
  -25    4   10     -9.02      0.00
  -24    4   10      0.22      0.00
  -23    4   10      7.65      0.00
  -22    4   10      2.80      0.00
  -21    4   10      6.32      0.00
  -20    4   10      3.75      0.00
  -19    4   10     13.98      0.00
  -18    4   10      8.51      0.00
  -17    4   10     -5.64      0.00
  -16    4   10     -7.52      0.00
  -15    4   10     -1.98      0.00
  -14    4   10    -11.41      0.00
  -13    4   10    -17.46      0.00
  -12    4   10    -11.06      0.00
  -11    4   10    -12.32      0.00
  -10    4   10      3.29      0.00
   -9    4   10      7.02      0.00
   -8    4   10    -33.42      0.00
   -7    4   10     11.74      0.00
   -6    4   10     19.86      0.00
   -5    4   10     -6.01      0.00
   -4    4   10      1.00      0.00
   -3    4   10      2.95      0.00
   -2    4   10     20.73      0.00
   -1    4   10      4.04      0.00
    0    4   10     -1.94      0.00
    1    4   10      1.86      0.00
    2    4   10      2.86      0.00
    3    4   10     -4.31      0.00
    4    4   10     11.09      0.00
    5    4   10     -5.68      0.00
    6    4   10     10.70      0.00
    7    4   10    -14.66      0.00
    8    4   10      2.61      0.00
    9    4   10     12.30      0.00
   10    4   10    -30.91      0.00
   11    4   10     10.61      0.00
   12    4   10    -13.58      0.00
   13    4   10     -7.99      0.00
   14    4   10    -25.13      0.00
   15    4   10      1.08      0.00
   16    4   10      0.41      0.00
   17    4   10     -0.65      0.00
   18    4   10     -2.47      0.00
   19    4   10      3.02      0.00
   20    4   10     -0.94      0.00
   21    4   10     -2.48      0.00
   22    4   10    -16.97      0.00
   23    4   10      2.04      0.00
   24    4   10     -1.67      0.00
  -25    5   10     -0.08      0.00
  -24    5   10     -0.60      0.00
  -23    5   10      1.03      0.00
  -21    5   10     -1.57      0.00
  -20    5   10     -5.73      0.00
  -19    5   10     10.53      0.00
  -18    5   10      1.06      0.00
  -17    5   10     -6.45      0.00
  -16    5   10     11.48      0.00
  -15    5   10     -0.77      0.00
  -14    5   10     16.05      0.00
  -13    5   10      3.59      0.00
  -12    5   10     31.00      0.00
  -11    5   10     -2.33      0.00
  -10    5   10     24.28      0.00
   -9    5   10    -19.64      0.00
   -8    5   10    -12.29      0.00
   -7    5   10      0.52      0.00
   -6    5   10     15.27      0.00
   -5    5   10     24.53      0.00
   -4    5   10     -5.52      0.00
   -3    5   10    -24.74      0.00
   -2    5   10     27.51      0.00
   -1    5   10     -5.24      0.00
    0    5   10    -18.41      0.00
    1    5   10     46.01      0.00
    2    5   10     26.42      0.00
    3    5   10     18.01      0.00
    4    5   10    -40.93      0.00
    5    5   10    -49.61      0.00
    6    5   10     16.45      0.00
    7    5   10     -6.06      0.00
    8    5   10    -18.27      0.00
    9    5   10      4.47      0.00
   10    5   10     -2.32      0.00
   11    5   10     -6.75      0.00
   12    5   10    -16.28      0.00
   13    5   10      3.39      0.00
   14    5   10      2.13      0.00
   15    5   10      5.56      0.00
   16    5   10    -12.01      0.00
   17    5   10     -7.67      0.00
   18    5   10      2.91      0.00
   19    5   10    -16.85      0.00
   20    5   10      2.63      0.00
   21    5   10      7.11      0.00
   22    5   10      3.45      0.00
   23    5   10      4.24      0.00
   24    5   10     -2.63      0.00
  -24    6   10      3.67      0.00
  -23    6   10     -2.08      0.00
  -22    6   10      0.18      0.00
  -21    6   10      4.77      0.00
  -20    6   10      0.64      0.00
  -19    6   10     -1.74      0.00
  -18    6   10     -9.53      0.00
  -17    6   10     -8.96      0.00
  -16    6   10      1.80      0.00
  -15    6   10    -14.41      0.00
  -14    6   10    -27.04      0.00
  -13    6   10    -11.43      0.00
  -12    6   10     13.00      0.00
  -11    6   10    -10.54      0.00
  -10    6   10    -11.61      0.00
   -9    6   10     18.80      0.00
   -8    6   10      0.61      0.00
   -7    6   10     15.33      0.00
   -6    6   10    -19.79      0.00
   -5    6   10     -2.49      0.00
   -4    6   10     28.38      0.00
   -3    6   10      0.96      0.00
   -2    6   10     -1.47      0.00
   -1    6   10      0.81      0.00
    0    6   10     16.34      0.00
    1    6   10     -8.85      0.00
    2    6   10     13.83      0.00
    3    6   10    -14.65      0.00
    4    6   10     -6.73      0.00
    5    6   10     -5.60      0.00
    6    6   10      7.51      0.00
    7    6   10    -13.92      0.00
    8    6   10    -24.59      0.00
    9    6   10     20.38      0.00
   10    6   10      5.58      0.00
   11    6   10     11.19      0.00
   12    6   10     -6.98      0.00
   13    6   10      4.99      0.00
   14    6   10     13.80      0.00
   15    6   10     -1.95      0.00
   16    6   10     -2.60      0.00
   17    6   10      5.44      0.00
   18    6   10     14.56      0.00
   19    6   10     -5.51      0.00
   20    6   10     -5.56      0.00
   21    6   10      1.35      0.00
   22    6   10     -0.65      0.00
   23    6   10      1.32      0.00
  -24    7   10     -0.22      0.00
  -23    7   10      0.26      0.00
  -22    7   10     -8.18      0.00
  -21    7   10      2.89      0.00
  -20    7   10     -3.01      0.00
  -19    7   10     18.93      0.00
  -18    7   10      0.76      0.00
  -17    7   10      3.10      0.00
  -16    7   10      0.09      0.00
  -15    7   10      0.42      0.00
  -14    7   10      2.13      0.00
  -13    7   10     12.05      0.00
  -12    7   10     16.33      0.00
  -11    7   10      5.10      0.00
  -10    7   10     18.28      0.00
   -9    7   10     24.55      0.00
   -8    7   10    -11.62      0.00
   -7    7   10     43.20      0.00
   -6    7   10     18.02      0.00
   -5    7   10     76.64      0.00
   -4    7   10      2.46      0.00
   -3    7   10     -4.59      0.00
   -2    7   10     18.46      0.00
   -1    7   10     26.50      0.00
    0    7   10    -15.26      0.00
    1    7   10     21.87      0.00
    2    7   10     30.71      0.00
    3    7   10     28.07      0.00
    4    7   10    -16.58      0.00
    5    7   10    -40.56      0.00
    6    7   10     28.36      0.00
    7    7   10     22.32      0.00
    8    7   10    -25.42      0.00
    9    7   10      8.33      0.00
   10    7   10    -13.56      0.00
   11    7   10     14.78      0.00
   12    7   10    -22.78      0.00
   13    7   10      6.32      0.00
   14    7   10      9.92      0.00
   15    7   10     19.90      0.00
   16    7   10     -1.17      0.00
   17    7   10      0.64      0.00
   18    7   10      4.86      0.00
   19    7   10     -2.20      0.00
   20    7   10      5.09      0.00
   21    7   10      1.61      0.00
   22    7   10     -0.53      0.00
   23    7   10     -1.84      0.00
  -23    8   10     -0.79      0.00
  -22    8   10     -2.04      0.00
  -21    8   10      4.55      0.00
  -20    8   10     -6.05      0.00
  -19    8   10     -1.51      0.00
  -18    8   10      0.40      0.00
  -17    8   10     -3.06      0.00
  -16    8   10      7.90      0.00
  -15    8   10     -2.98      0.00
  -14    8   10    -14.09      0.00
  -13    8   10     -6.08      0.00
  -12    8   10      0.62      0.00
  -11    8   10    -18.99      0.00
  -10    8   10    -11.00      0.00
   -9    8   10     -3.78      0.00
   -8    8   10    -24.61      0.00
   -7    8   10     -5.64      0.00
   -6    8   10    -45.19      0.00
   -5    8   10     -5.22      0.00
   -4    8   10    -12.09      0.00
   -3    8   10      2.64      0.00
   -2    8   10    -38.63      0.00
   -1    8   10      4.14      0.00
    0    8   10    -16.77      0.00
    1    8   10    -22.92      0.00
    2    8   10    -14.86      0.00
    3    8   10    -25.40      0.00
    4    8   10    -10.94      0.00
    5    8   10    -18.99      0.00
    6    8   10    -11.09      0.00
    7    8   10    -14.74      0.00
    8    8   10    -14.87      0.00
    9    8   10      6.50      0.00
   10    8   10     -1.68      0.00
   11    8   10      1.64      0.00
   12    8   10     -1.43      0.00
   13    8   10     -5.66      0.00
   14    8   10      7.99      0.00
   15    8   10     -5.44      0.00
   16    8   10      3.62      0.00
   17    8   10      4.26      0.00
   18    8   10     10.83      0.00
   19    8   10      4.21      0.00
   20    8   10      1.80      0.00
   21    8   10      4.71      0.00
   22    8   10      5.45      0.00
  -23    9   10      1.80      0.00
  -22    9   10      0.58      0.00
  -21    9   10      7.64      0.00
  -20    9   10      1.30      0.00
  -19    9   10     20.34      0.00
  -18    9   10      6.59      0.00
  -17    9   10      2.46      0.00
  -16    9   10      1.80      0.00
  -15    9   10     12.83      0.00
  -14    9   10    -13.86      0.00
  -13    9   10      6.98      0.00
  -12    9   10     10.49      0.00
  -11    9   10     18.21      0.00
  -10    9   10     -7.98      0.00
   -9    9   10     -5.36      0.00
   -8    9   10     -5.46      0.00
   -7    9   10     40.22      0.00
   -6    9   10    -13.81      0.00
   -5    9   10     18.36      0.00
   -4    9   10     10.38      0.00
   -3    9   10     12.42      0.00
   -2    9   10    -17.66      0.00
   -1    9   10     -8.45      0.00
    0    9   10      3.28      0.00
    1    9   10     28.91      0.00
    2    9   10     -1.12      0.00
    3    9   10    -27.63      0.00
    4    9   10     16.15      0.00
    5    9   10    -25.58      0.00
    6    9   10     12.82      0.00
    7    9   10     -3.38      0.00
    8    9   10      7.77      0.00
    9    9   10     17.23      0.00
   10    9   10    -18.80      0.00
   11    9   10     -5.21      0.00
   12    9   10      6.82      0.00
   13    9   10      2.89      0.00
   14    9   10      7.77      0.00
   15    9   10     -1.95      0.00
   16    9   10      9.63      0.00
   17    9   10      2.84      0.00
   18    9   10     -5.69      0.00
   19    9   10     -3.79      0.00
   20    9   10     -0.29      0.00
   21    9   10      0.38      0.00
   22    9   10     -3.93      0.00
  -22   10   10     -8.49      0.00
  -21   10   10      2.62      0.00
  -20   10   10    -12.76      0.00
  -19   10   10      6.25      0.00
  -18   10   10     -3.08      0.00
  -17   10   10     -3.09      0.00
  -16   10   10      5.94      0.00
  -15   10   10     20.53      0.00
  -14   10   10    -18.30      0.00
  -13   10   10      5.04      0.00
  -12   10   10     -0.92      0.00
  -11   10   10      8.30      0.00
  -10   10   10     -6.64      0.00
   -9   10   10     -0.52      0.00
   -8   10   10      3.96      0.00
   -7   10   10     10.26      0.00
   -6   10   10    -31.14      0.00
   -5   10   10     -8.81      0.00
   -4   10   10     11.78      0.00
   -3   10   10      9.08      0.00
   -2   10   10    -30.37      0.00
   -1   10   10      3.70      0.00
    0   10   10     -1.64      0.00
    1   10   10     -0.87      0.00
    2   10   10     -4.13      0.00
    3   10   10     -2.47      0.00
    4   10   10      6.64      0.00
    5   10   10     -1.07      0.00
    6   10   10     -6.66      0.00
    7   10   10      4.17      0.00
    8   10   10     -9.68      0.00
    9   10   10      3.63      0.00
   10   10   10     -0.55      0.00
   11   10   10     12.63      0.00
   12   10   10     -6.09      0.00
   13   10   10    -11.38      0.00
   14   10   10     11.65      0.00
   15   10   10      1.08      0.00
   16   10   10     10.91      0.00
   17   10   10     -6.36      0.00
   18   10   10     15.50      0.00
   19   10   10      3.61      0.00
   20   10   10      3.86      0.00
   21   10   10     -7.59      0.00
  -21   11   10      2.07      0.00
  -20   11   10     -5.96      0.00
  -19   11   10     13.77      0.00
  -18   11   10      7.48      0.00
  -17   11   10     -6.62      0.00
  -16   11   10     -1.79      0.00
  -15   11   10      8.86      0.00
  -14   11   10     -7.27      0.00
  -13   11   10      2.84      0.00
  -12   11   10     -7.99      0.00
  -11   11   10     15.79      0.00
  -10   11   10    -17.35      0.00
   -9   11   10     -6.82      0.00
   -8   11   10    -21.22      0.00
   -7   11   10     28.56      0.00
   -6   11   10    -12.12      0.00
   -5   11   10     17.03      0.00
   -4   11   10      5.61      0.00
   -3   11   10      5.51      0.00
   -2   11   10    -15.03      0.00
   -1   11   10     11.33      0.00
    0   11   10      1.28      0.00
    1   11   10     15.62      0.00
    2   11   10    -11.96      0.00
    3   11   10    -16.42      0.00
    4   11   10     11.80      0.00
    5   11   10    -20.93      0.00
    6   11   10      9.68      0.00
    7   11   10     10.56      0.00
    8   11   10     15.77      0.00
    9   11   10     14.20      0.00
   10   11   10     -5.91      0.00
   11   11   10      1.80      0.00
   12   11   10      5.88      0.00
   13   11   10      3.90      0.00
   14   11   10      3.67      0.00
   15   11   10     -3.50      0.00
   16   11   10     -0.63      0.00
   17   11   10      1.14      0.00
   18   11   10     -0.48      0.00
   19   11   10     -5.96      0.00
   20   11   10      1.33      0.00
  -20   12   10     -8.66      0.00
  -19   12   10     -2.30      0.00
  -18   12   10     -6.66      0.00
  -17   12   10     -0.68      0.00
  -16   12   10      5.80      0.00
  -15   12   10      5.92      0.00
  -14   12   10    -17.00      0.00
  -13   12   10      4.35      0.00
  -12   12   10     -0.21      0.00
  -11   12   10      1.67      0.00
  -10   12   10     -7.31      0.00
   -9   12   10     -1.54      0.00
   -8   12   10      1.53      0.00
   -7   12   10      5.95      0.00
   -6   12   10    -29.91      0.00
   -5   12   10    -15.85      0.00
   -4   12   10     16.41      0.00
   -3   12   10      3.84      0.00
   -2   12   10    -14.51      0.00
   -1   12   10     -1.69      0.00
    0   12   10      3.51      0.00
    1   12   10     13.26      0.00
    2   12   10      4.41      0.00
    3   12   10      7.66      0.00
    4   12   10      7.09      0.00
    5   12   10      7.36      0.00
    6   12   10     -7.48      0.00
    7   12   10     -2.92      0.00
    8   12   10     -8.31      0.00
    9   12   10     -4.80      0.00
   10   12   10      6.48      0.00
   11   12   10      0.26      0.00
   12   12   10     -5.45      0.00
   13   12   10     -3.42      0.00
   14   12   10      8.16      0.00
   15   12   10     -0.35      0.00
   16   12   10      1.74      0.00
   17   12   10      7.82      0.00
   18   12   10      7.80      0.00
   19   12   10      1.27      0.00
  -19   13   10      7.94      0.00
  -18   13   10      5.57      0.00
  -17   13   10      0.11      0.00
  -16   13   10     -5.20      0.00
  -15   13   10     -5.71      0.00
  -14   13   10      2.06      0.00
  -13   13   10      4.01      0.00
  -12   13   10    -10.25      0.00
  -11   13   10     -8.16      0.00
  -10   13   10     -3.29      0.00
   -9   13   10     -7.69      0.00
   -8   13   10    -12.16      0.00
   -7   13   10      7.16      0.00
   -6   13   10     12.04      0.00
   -5   13   10      8.81      0.00
   -4   13   10      9.17      0.00
   -3   13   10    -13.89      0.00
   -2   13   10      2.47      0.00
   -1   13   10      1.56      0.00
    0   13   10     -2.10      0.00
    1   13   10      0.17      0.00
    2   13   10     -9.19      0.00
    3   13   10    -12.03      0.00
    4   13   10     -1.96      0.00
    5   13   10    -10.29      0.00
    6   13   10      3.23      0.00
    7   13   10     12.27      0.00
    8   13   10     -0.14      0.00
    9   13   10     -6.19      0.00
   10   13   10     -6.09      0.00
   11   13   10     -4.16      0.00
   12   13   10     -4.03      0.00
   13   13   10     -6.78      0.00
   14   13   10      1.07      0.00
   15   13   10      0.79      0.00
   16   13   10     -6.42      0.00
   17   13   10     -1.06      0.00
   18   13   10      0.28      0.00
  -18   14   10      0.02      0.00
  -17   14   10     -1.19      0.00
  -16   14   10      2.52      0.00
  -15   14   10      3.39      0.00
  -14   14   10     -0.80      0.00
  -13   14   10      4.25      0.00
  -12   14   10     -6.32      0.00
  -11   14   10     -1.07      0.00
  -10   14   10     11.44      0.00
   -9   14   10     -0.26      0.00
   -8   14   10    -13.03      0.00
   -7   14   10      3.96      0.00
   -6   14   10    -12.90      0.00
   -5   14   10     -4.28      0.00
   -4   14   10      0.89      0.00
   -3   14   10      5.45      0.00
   -2   14   10     -1.00      0.00
   -1   14   10      1.64      0.00
    0   14   10     -9.38      0.00
    1   14   10      6.64      0.00
    2   14   10     -1.82      0.00
    3   14   10      2.33      0.00
    4   14   10     -1.08      0.00
    5   14   10      3.69      0.00
    6   14   10    -20.42      0.00
    7   14   10      1.60      0.00
    8   14   10     -2.51      0.00
    9   14   10     -3.34      0.00
   10   14   10     -1.63      0.00
   11   14   10      0.73      0.00
   12   14   10     -1.26      0.00
   13   14   10     -3.13      0.00
   14   14   10     -4.82      0.00
   15   14   10      1.09      0.00
   16   14   10     -0.02      0.00
   17   14   10      3.51      0.00
  -16   15   10     -0.95      0.00
  -15   15   10     -7.54      0.00
  -14   15   10      1.42      0.00
  -13   15   10      8.52      0.00
  -12   15   10      4.98      0.00
  -11   15   10     -4.39      0.00
  -10   15   10     -1.63      0.00
   -9   15   10     -4.66      0.00
   -8   15   10      9.49      0.00
   -7   15   10      6.21      0.00
   -6   15   10      2.40      0.00
   -5   15   10      4.54      0.00
   -4   15   10     14.48      0.00
   -3   15   10     -5.14      0.00
   -2   15   10     -8.27      0.00
   -1   15   10      2.63      0.00
    0   15   10      9.66      0.00
    1   15   10      8.72      0.00
    2   15   10    -17.38      0.00
    3   15   10    -12.25      0.00
    4   15   10      9.73      0.00
    5   15   10      4.93      0.00
    6   15   10     -9.73      0.00
    7   15   10      8.89      0.00
    8   15   10      6.24      0.00
    9   15   10      0.64      0.00
   10   15   10    -13.04      0.00
   11   15   10      1.74      0.00
   12   15   10      3.47      0.00
   13   15   10      4.89      0.00
   14   15   10     -6.96      0.00
   15   15   10      7.22      0.00
  -14   16   10      0.08      0.00
  -13   16   10     -3.38      0.00
  -12   16   10     -5.21      0.00
  -11   16   10     -4.08      0.00
  -10   16   10      9.73      0.00
   -9   16   10     -7.93      0.00
   -8   16   10     -4.95      0.00
   -7   16   10     -2.29      0.00
   -6   16   10     -5.60      0.00
   -5   16   10     -6.35      0.00
   -4   16   10      2.59      0.00
   -3   16   10     -1.78      0.00
   -2   16   10     -1.18      0.00
   -1   16   10      0.90      0.00
    0   16   10    -13.62      0.00
    1   16   10      2.08      0.00
    2   16   10     -3.09      0.00
    3   16   10     -0.20      0.00
    4   16   10     -3.38      0.00
    5   16   10     -2.22      0.00
    6   16   10    -13.42      0.00
    7   16   10      5.01      0.00
    8   16   10      2.60      0.00
    9   16   10     -3.62      0.00
   10   16   10      3.10      0.00
   11   16   10      2.51      0.00
   12   16   10      2.13      0.00
   13   16   10     -3.71      0.00
  -12   17   10      1.71      0.00
  -11   17   10      5.78      0.00
  -10   17   10     -3.24      0.00
   -9   17   10      1.04      0.00
   -8   17   10      1.04      0.00
   -7   17   10      8.21      0.00
   -6   17   10     -1.41      0.00
   -5   17   10      3.13      0.00
   -4   17   10      5.69      0.00
   -3   17   10     -5.47      0.00
   -2   17   10      0.47      0.00
   -1   17   10      2.94      0.00
    0   17   10      6.39      0.00
    1   17   10      4.99      0.00
    2   17   10     -7.95      0.00
    3   17   10     -9.14      0.00
    4   17   10      5.46      0.00
    5   17   10      0.41      0.00
    6   17   10     -3.37      0.00
    7   17   10     -0.26      0.00
    8   17   10      3.44      0.00
    9   17   10     -3.51      0.00
   10   17   10     -0.52      0.00
   11   17   10     -1.98      0.00
   -9   18   10      3.67      0.00
   -8   18   10     -6.08      0.00
   -7   18   10     -1.51      0.00
   -6   18   10     -5.59      0.00
   -5   18   10      1.48      0.00
   -4   18   10     -1.76      0.00
   -3   18   10     -5.85      0.00
   -2   18   10     -3.18      0.00
   -1   18   10      2.50      0.00
    0   18   10    -12.13      0.00
    1   18   10      1.07      0.00
    2   18   10     -1.50      0.00
    3   18   10     -1.48      0.00
    4   18   10      1.26      0.00
    5   18   10     -0.26      0.00
    6   18   10     -4.97      0.00
    7   18   10      1.44      0.00
    8   18   10      2.64      0.00
   -3   19   10     -0.76      0.00
   -2   19   10      6.80      0.00
   -1   19   10      3.66      0.00
    0   19   10     -3.93      0.00
    1   19   10      8.32      0.00
    2   19   10      0.60      0.00
  -25    0   11      5.63      0.00
  -23    0   11      1.85      0.00
  -21    0   11     -7.21      0.00
  -19    0   11     -2.75      0.00
  -17    0   11    -13.41      0.00
  -15    0   11     -2.03      0.00
  -13    0   11     -7.03      0.00
  -11    0   11    -19.06      0.00
   -9    0   11    -41.69      0.00
   -7    0   11    -33.78      0.00
   -5    0   11    -16.54      0.00
   -3    0   11    -50.78      0.00
   -1    0   11    -16.39      0.00
    1    0   11    -42.14      0.00
    3    0   11     -0.39      0.00
    5    0   11    -10.09      0.00
    7    0   11     31.09      0.00
    9    0   11    -34.45      0.00
   11    0   11    -13.50      0.00
   13    0   11     -2.36      0.00
   15    0   11      8.93      0.00
   17    0   11    -18.16      0.00
   19    0   11      2.24      0.00
   21    0   11      5.04      0.00
   23    0   11      7.90      0.00
  -25    1   11     -0.78      0.00
  -24    1   11     -1.05      0.00
  -23    1   11     -1.07      0.00
  -22    1   11     10.66      0.00
  -20    1   11     -2.36      0.00
  -19    1   11     -5.76      0.00
  -18    1   11     15.42      0.00
  -17    1   11    -11.70      0.00
  -16    1   11     10.75      0.00
  -15    1   11      4.34      0.00
  -14    1   11     20.27      0.00
  -13    1   11     -8.29      0.00
  -12    1   11    -12.64      0.00
  -11    1   11     19.98      0.00
  -10    1   11      2.68      0.00
   -9    1   11     -8.14      0.00
   -8    1   11     21.11      0.00
   -7    1   11      2.30      0.00
   -6    1   11      3.21      0.00
   -5    1   11    -30.47      0.00
   -4    1   11     -0.12      0.00
   -3    1   11     15.73      0.00
   -2    1   11     30.14      0.00
   -1    1   11      1.32      0.00
    0    1   11     25.64      0.00
    1    1   11     22.28      0.00
    2    1   11     14.11      0.00
    3    1   11     32.78      0.00
    4    1   11     52.93      0.00
    5    1   11      1.77      0.00
    6    1   11      1.75      0.00
    7    1   11     21.92      0.00
    8    1   11      4.71      0.00
    9    1   11     -8.82      0.00
   10    1   11     31.34      0.00
   11    1   11     14.45      0.00
   12    1   11     15.82      0.00
   14    1   11    -21.85      0.00
   15    1   11      5.86      0.00
   16    1   11      4.09      0.00
   17    1   11    -14.86      0.00
   18    1   11     -0.06      0.00
   19    1   11      6.03      0.00
   20    1   11    -14.33      0.00
   21    1   11      0.74      0.00
   22    1   11     -7.84      0.00
   23    1   11      7.47      0.00
   24    1   11      1.92      0.00
  -25    2   11     -3.35      0.00
  -24    2   11     -2.06      0.00
  -23    2   11     -2.98      0.00
  -21    2   11    -12.74      0.00
  -20    2   11     -7.77      0.00
  -19    2   11     -5.84      0.00
  -18    2   11      2.33      0.00
  -17    2   11    -19.20      0.00
  -16    2   11     -4.60      0.00
  -15    2   11     -9.44      0.00
  -14    2   11      3.13      0.00
  -13    2   11     -7.06      0.00
  -12    2   11      3.76      0.00
  -11    2   11    -15.19      0.00
  -10    2   11     -7.37      0.00
   -9    2   11    -28.01      0.00
   -8    2   11     12.30      0.00
   -7    2   11    -22.65      0.00
   -6    2   11     14.61      0.00
   -5    2   11    -32.84      0.00
   -4    2   11     53.91      0.00
   -3    2   11    -69.31      0.00
   -2    2   11     20.72      0.00
   -1    2   11    -42.93      0.00
    0    2   11     66.80      0.00
    1    2   11    -38.37      0.00
    2    2   11     -9.47      0.00
    3    2   11      7.04      0.00
    4    2   11     44.13      0.00
    5    2   11     10.67      0.00
    6    2   11     -3.62      0.00
    7    2   11     46.18      0.00
    8    2   11     23.57      0.00
    9    2   11    -17.04      0.00
   10    2   11    -25.08      0.00
   11    2   11      3.40      0.00
   12    2   11     -9.12      0.00
   13    2   11      8.49      0.00
   14    2   11    -22.83      0.00
   15    2   11     11.23      0.00
   16    2   11      9.36      0.00
   17    2   11    -14.84      0.00
   18    2   11      0.89      0.00
   19    2   11     -5.82      0.00
   20    2   11     -8.75      0.00
   21    2   11      5.50      0.00
   22    2   11     -6.42      0.00
   23    2   11      5.42      0.00
   24    2   11     -2.75      0.00
  -25    3   11      2.46      0.00
  -24    3   11      2.57      0.00
  -22    3   11     -2.78      0.00
  -20    3   11      0.92      0.00
  -18    3   11     -2.58      0.00
  -17    3   11    -10.86      0.00
  -16    3   11     17.46      0.00
  -15    3   11     -4.43      0.00
  -14    3   11     11.89      0.00
  -13    3   11    -13.32      0.00
  -12    3   11      5.28      0.00
  -11    3   11     12.29      0.00
  -10    3   11     -1.37      0.00
   -9    3   11      7.87      0.00
   -8    3   11     23.69      0.00
   -7    3   11      2.20      0.00
   -6    3   11    -11.65      0.00
   -5    3   11    -16.41      0.00
   -4    3   11     -6.79      0.00
   -3    3   11     28.87      0.00
   -2    3   11    -11.52      0.00
   -1    3   11    -38.05      0.00
    0    3   11    -19.58      0.00
    1    3   11    -17.45      0.00
    2    3   11    -49.64      0.00
    3    3   11    -19.41      0.00
    4    3   11     -0.02      0.00
    5    3   11    -19.07      0.00
    6    3   11    -33.46      0.00
    7    3   11    -12.51      0.00
    8    3   11     -5.93      0.00
    9    3   11     -9.81      0.00
   10    3   11     26.42      0.00
   11    3   11     -5.58      0.00
   12    3   11      0.95      0.00
   13    3   11    -17.32      0.00
   14    3   11    -29.94      0.00
   15    3   11      3.13      0.00
   16    3   11     -6.55      0.00
   18    3   11     10.01      0.00
   19    3   11      3.54      0.00
   20    3   11     -2.36      0.00
   21    3   11     -3.11      0.00
   22    3   11      2.14      0.00
   23    3   11      5.63      0.00
   24    3   11      5.08      0.00
  -25    4   11     -1.02      0.00
  -24    4   11     -6.67      0.00
  -23    4   11     -3.74      0.00
  -22    4   11     -0.25      0.00
  -21    4   11     -5.32      0.00
  -19    4   11     -2.27      0.00
  -18    4   11     11.46      0.00
  -17    4   11    -12.66      0.00
  -16    4   11    -14.38      0.00
  -15    4   11     -1.67      0.00
  -14    4   11     21.28      0.00
  -13    4   11      3.89      0.00
  -12    4   11     -9.30      0.00
  -11    4   11      5.67      0.00
  -10    4   11     16.22      0.00
   -9    4   11     -2.57      0.00
   -8    4   11    -42.89      0.00
   -7    4   11     22.10      0.00
   -6    4   11     38.00      0.00
   -5    4   11     -1.46      0.00
   -4    4   11    -23.07      0.00
   -3    4   11      3.40      0.00
   -2    4   11     70.39      0.00
   -1    4   11     16.31      0.00
    0    4   11     -8.91      0.00
    1    4   11     33.29      0.00
    2    4   11     16.56      0.00
    3    4   11     14.92      0.00
    4    4   11    -49.32      0.00
    5    4   11     24.21      0.00
    6    4   11     -0.57      0.00
    7    4   11     17.46      0.00
    8    4   11    -16.69      0.00
    9    4   11     -6.60      0.00
   10    4   11      7.68      0.00
   11    4   11     -2.01      0.00
   12    4   11      2.59      0.00
   13    4   11     18.92      0.00
   14    4   11     -2.37      0.00
   15    4   11      9.35      0.00
   16    4   11      8.86      0.00
   17    4   11     -0.24      0.00
   18    4   11     -1.78      0.00
   19    4   11     -4.58      0.00
   20    4   11     -5.97      0.00
   21    4   11      4.96      0.00
   22    4   11     -6.13      0.00
   23    4   11      1.67      0.00
   24    4   11      2.93      0.00
  -25    5   11      4.34      0.00
  -24    5   11      2.55      0.00
  -23    5   11      7.11      0.00
  -22    5   11     -1.70      0.00
  -20    5   11     -4.78      0.00
  -19    5   11     -5.19      0.00
  -18    5   11      0.17      0.00
  -17    5   11      7.01      0.00
  -16    5   11     -0.89      0.00
  -15    5   11     -0.07      0.00
  -14    5   11      9.02      0.00
  -13    5   11    -14.09      0.00
  -12    5   11    -13.98      0.00
  -11    5   11      8.13      0.00
  -10    5   11      2.75      0.00
   -9    5   11     24.38      0.00
   -8    5   11      3.87      0.00
   -7    5   11     15.30      0.00
   -6    5   11     -6.95      0.00
   -5    5   11      0.40      0.00
   -4    5   11    -16.16      0.00
   -3    5   11     39.45      0.00
   -2    5   11     14.65      0.00
   -1    5   11    -52.56      0.00
    0    5   11     -0.93      0.00
    1    5   11      1.34      0.00
    2    5   11      0.31      0.00
    3    5   11      5.39      0.00
    4    5   11     -1.31      0.00
    5    5   11     54.27      0.00
    6    5   11    -29.36      0.00
    7    5   11     14.65      0.00
    8    5   11    -20.70      0.00
    9    5   11     35.44      0.00
   10    5   11     13.70      0.00
   11    5   11     -9.66      0.00
   12    5   11      4.09      0.00
   13    5   11     -9.13      0.00
   14    5   11    -23.81      0.00
   15    5   11     -4.51      0.00
   16    5   11      4.98      0.00
   17    5   11     -2.10      0.00
   18    5   11      6.09      0.00
   19    5   11     -2.10      0.00
   20    5   11      0.49      0.00
   21    5   11      0.02      0.00
   22    5   11     -4.51      0.00
   23    5   11      2.91      0.00
  -24    6   11     -5.78      0.00
  -23    6   11     -9.70      0.00
  -22    6   11      0.44      0.00
  -21    6   11     -6.93      0.00
  -20    6   11      2.11      0.00
  -19    6   11    -10.23      0.00
  -18    6   11     16.95      0.00
  -17    6   11     -7.62      0.00
  -16    6   11     -4.17      0.00
  -15    6   11      0.22      0.00
  -14    6   11     27.98      0.00
  -13    6   11     14.77      0.00
  -12    6   11      0.17      0.00
  -11    6   11     -5.35      0.00
  -10    6   11      6.68      0.00
   -9    6   11     -5.90      0.00
   -8    6   11    -51.74      0.00
   -7    6   11      0.46      0.00
   -6    6   11      3.20      0.00
   -5    6   11     -8.84      0.00
   -4    6   11    -39.54      0.00
   -3    6   11     -2.85      0.00
   -2    6   11     27.93      0.00
   -1    6   11     11.73      0.00
    0    6   11     -1.82      0.00
    1    6   11      6.24      0.00
    2    6   11     19.32      0.00
    3    6   11    -25.32      0.00
    4    6   11    -15.38      0.00
    5    6   11     12.09      0.00
    6    6   11      6.01      0.00
    7    6   11     12.33      0.00
    8    6   11     -3.08      0.00
    9    6   11     22.15      0.00
   10    6   11     10.59      0.00
   11    6   11      8.20      0.00
   12    6   11      9.82      0.00
   13    6   11     11.37      0.00
   14    6   11      4.70      0.00
   15    6   11     -5.08      0.00
   16    6   11     11.85      0.00
   17    6   11     -4.59      0.00
   18    6   11      4.47      0.00
   19    6   11     -1.50      0.00
   20    6   11      2.15      0.00
   21    6   11      5.88      0.00
   22    6   11     -0.21      0.00
   23    6   11      2.91      0.00
  -24    7   11      5.73      0.00
  -23    7   11     10.72      0.00
  -22    7   11     -2.25      0.00
  -21    7   11     -4.04      0.00
  -20    7   11      2.71      0.00
  -19    7   11     -4.86      0.00
  -18    7   11     -6.44      0.00
  -17    7   11      3.21      0.00
  -16    7   11     -3.96      0.00
  -15    7   11     13.28      0.00
  -14    7   11     -2.38      0.00
  -13    7   11    -16.96      0.00
  -12    7   11     -6.55      0.00
  -11    7   11     20.29      0.00
  -10    7   11     12.68      0.00
   -9    7   11     10.53      0.00
   -8    7   11      6.65      0.00
   -7    7   11      9.21      0.00
   -6    7   11     -1.09      0.00
   -5    7   11    -23.41      0.00
   -4    7   11    -24.91      0.00
   -3    7   11     23.25      0.00
   -2    7   11     22.35      0.00
   -1    7   11    -54.53      0.00
    0    7   11     -2.54      0.00
    1    7   11    -25.96      0.00
    2    7   11     35.17      0.00
    3    7   11     -4.77      0.00
    4    7   11     12.63      0.00
    5    7   11     -6.23      0.00
    6    7   11     11.60      0.00
    7    7   11     -8.94      0.00
    8    7   11     -3.50      0.00
    9    7   11      1.11      0.00
   10    7   11     32.58      0.00
   11    7   11     11.06      0.00
   12    7   11      9.18      0.00
   13    7   11    -11.38      0.00
   14    7   11     -3.68      0.00
   15    7   11     11.86      0.00
   16    7   11     -1.13      0.00
   17    7   11     -5.86      0.00
   18    7   11      5.46      0.00
   19    7   11      6.48      0.00
   20    7   11    -14.77      0.00
   21    7   11     -2.32      0.00
   22    7   11     -9.30      0.00
   23    7   11      4.70      0.00
  -23    8   11     -4.45      0.00
  -22    8   11      2.44      0.00
  -21    8   11     -0.77      0.00
  -20    8   11     11.70      0.00
  -19    8   11     -6.65      0.00
  -18    8   11      7.45      0.00
  -17    8   11     -5.14      0.00
  -16    8   11     -2.73      0.00
  -15    8   11     -9.89      0.00
  -14    8   11     -4.73      0.00
  -13    8   11     12.28      0.00
  -12    8   11      9.15      0.00
  -11    8   11    -26.27      0.00
  -10    8   11    -12.79      0.00
   -9    8   11     -3.62      0.00
   -8    8   11     -1.72      0.00
   -7    8   11    -16.33      0.00
   -6    8   11     -1.60      0.00
   -5    8   11     -5.67      0.00
   -4    8   11      5.80      0.00
   -3    8   11    -16.44      0.00
   -2    8   11    -21.24      0.00
   -1    8   11     15.02      0.00
    0    8   11      4.79      0.00
    1    8   11     -5.06      0.00
    2    8   11    -22.14      0.00
    3    8   11    -12.22      0.00
    4    8   11      2.88      0.00
    5    8   11     13.14      0.00
    6    8   11    -16.92      0.00
    7    8   11     11.81      0.00
    8    8   11      6.52      0.00
    9    8   11      6.04      0.00
   10    8   11     -8.64      0.00
   11    8   11     -2.03      0.00
   12    8   11      9.12      0.00
   13    8   11    -10.26      0.00
   14    8   11     -9.24      0.00
   15    8   11    -12.55      0.00
   16    8   11      9.96      0.00
   17    8   11     -8.50      0.00
   18    8   11     -2.38      0.00
   19    8   11     -2.51      0.00
   20    8   11      4.02      0.00
   21    8   11      6.51      0.00
   22    8   11     -0.79      0.00
  -22    9   11      0.90      0.00
  -21    9   11     -8.71      0.00
  -20    9   11     10.50      0.00
  -19    9   11    -12.41      0.00
  -18    9   11     -4.59      0.00
  -17    9   11      1.59      0.00
  -16    9   11      7.53      0.00
  -15    9   11     -0.66      0.00
  -14    9   11     -4.14      0.00
  -13    9   11    -13.28      0.00
  -12    9   11     10.20      0.00
  -11    9   11     -1.20      0.00
  -10    9   11      7.94      0.00
   -9    9   11     15.94      0.00
   -8    9   11     14.02      0.00
   -7    9   11    -18.13      0.00
   -6    9   11      4.50      0.00
   -5    9   11     -5.89      0.00
   -4    9   11     13.10      0.00
   -3    9   11     16.11      0.00
   -2    9   11     46.84      0.00
   -1    9   11    -10.86      0.00
    0    9   11     21.91      0.00
    1    9   11    -10.16      0.00
    2    9   11     37.38      0.00
    3    9   11     15.68      0.00
    4    9   11     13.28      0.00
    5    9   11     -1.59      0.00
    6    9   11     15.02      0.00
    7    9   11    -12.58      0.00
    8    9   11     -4.67      0.00
    9    9   11      7.76      0.00
   10    9   11     25.77      0.00
   11    9   11     11.78      0.00
   12    9   11      2.18      0.00
   13    9   11     -4.72      0.00
   14    9   11     -2.57      0.00
   15    9   11     -2.17      0.00
   16    9   11     -6.89      0.00
   17    9   11    -11.51      0.00
   18    9   11      3.54      0.00
   19    9   11     -4.62      0.00
   20    9   11    -11.98      0.00
   21    9   11      0.95      0.00
  -22   10   11     -1.83      0.00
  -21   10   11      0.35      0.00
  -20   10   11      9.36      0.00
  -19   10   11      0.20      0.00
  -18   10   11     -1.26      0.00
  -17   10   11     -7.03      0.00
  -16   10   11     -3.90      0.00
  -15   10   11     -4.05      0.00
  -14   10   11    -13.79      0.00
  -13   10   11     -5.24      0.00
  -12   10   11      6.14      0.00
  -11   10   11    -15.34      0.00
  -10   10   11     -7.21      0.00
   -9   10   11    -11.56      0.00
   -8   10   11      1.37      0.00
   -7   10   11      0.91      0.00
   -6   10   11     10.96      0.00
   -5   10   11    -27.80      0.00
   -4   10   11      6.07      0.00
   -3   10   11    -13.78      0.00
   -2   10   11      6.34      0.00
   -1   10   11    -11.12      0.00
    0   10   11      1.81      0.00
    1   10   11      0.16      0.00
    2   10   11     12.63      0.00
    3   10   11    -20.21      0.00
    4   10   11     -1.30      0.00
    5   10   11     27.04      0.00
    6   10   11      8.39      0.00
    7   10   11     -8.43      0.00
    8   10   11     -2.01      0.00
    9   10   11      8.05      0.00
   10   10   11     -0.87      0.00
   11   10   11    -13.66      0.00
   12   10   11     -6.29      0.00
   13   10   11      6.39      0.00
   14   10   11     -5.17      0.00
   15   10   11     -4.35      0.00
   16   10   11      5.80      0.00
   17   10   11      4.91      0.00
   18   10   11      3.05      0.00
   19   10   11     -2.64      0.00
   20   10   11      2.52      0.00
  -21   11   11     -5.81      0.00
  -20   11   11     -2.98      0.00
  -19   11   11     -4.75      0.00
  -18   11   11      0.58      0.00
  -17   11   11      8.44      0.00
  -15   11   11      0.05      0.00
  -14   11   11      6.03      0.00
  -13   11   11    -12.90      0.00
  -12   11   11      9.56      0.00
  -11   11   11     -7.95      0.00
  -10   11   11      8.73      0.00
   -9   11   11     13.65      0.00
   -8   11   11      4.14      0.00
   -7   11   11    -16.39      0.00
   -6   11   11     -5.88      0.00
   -5   11   11      1.11      0.00
   -4   11   11      4.32      0.00
   -3   11   11     14.76      0.00
   -2   11   11     14.51      0.00
   -1   11   11      3.14      0.00
    0   11   11     -3.06      0.00
    1   11   11     -3.30      0.00
    2   11   11     -2.71      0.00
    3   11   11     15.38      0.00
    4   11   11     -2.54      0.00
    5   11   11      3.44      0.00
    6   11   11     -2.17      0.00
    7   11   11    -14.18      0.00
    8   11   11      1.04      0.00
    9   11   11      7.63      0.00
   10   11   11     10.22      0.00
   11   11   11      0.81      0.00
   12   11   11      8.79      0.00
   13   11   11      0.06      0.00
   14   11   11     -9.89      0.00
   15   11   11     -5.58      0.00
   16   11   11      3.09      0.00
   17   11   11     -0.86      0.00
   18   11   11     -2.76      0.00
   19   11   11     -4.55      0.00
   20   11   11      0.94      0.00
  -20   12   11      3.42      0.00
  -19   12   11     -2.23      0.00
  -18   12   11     -0.59      0.00
  -17   12   11     -8.39      0.00
  -16   12   11     -5.36      0.00
  -15   12   11      4.20      0.00
  -14   12   11     -7.67      0.00
  -13   12   11     -0.24      0.00
  -12   12   11      6.14      0.00
  -11   12   11      0.96      0.00
  -10   12   11     -0.95      0.00
   -9   12   11      1.31      0.00
   -8   12   11      3.33      0.00
   -7   12   11     18.49      0.00
   -6   12   11     -1.05      0.00
   -5   12   11    -20.82      0.00
   -4   12   11      3.67      0.00
   -3   12   11     -0.38      0.00
   -2   12   11     -8.94      0.00
   -1   12   11     -3.37      0.00
    0   12   11     -9.03      0.00
    1   12   11      4.69      0.00
    2   12   11     -7.64      0.00
    3   12   11    -17.63      0.00
    4   12   11    -18.10      0.00
    5   12   11     18.60      0.00
    6   12   11     -2.58      0.00
    7   12   11    -12.68      0.00
    8   12   11     -8.65      0.00
    9   12   11      4.03      0.00
   10   12   11      5.50      0.00
   11   12   11     -7.37      0.00
   12   12   11    -11.65      0.00
   13   12   11      1.11      0.00
   14   12   11     -2.60      0.00
   15   12   11     -5.69      0.00
   16   12   11     -0.96      0.00
   17   12   11      3.44      0.00
   18   12   11      0.92      0.00
   19   12   11      0.84      0.00
  -18   13   11      4.03      0.00
  -17   13   11      2.51      0.00
  -16   13   11      7.85      0.00
  -15   13   11      2.23      0.00
  -14   13   11      1.49      0.00
  -13   13   11    -17.27      0.00
  -12   13   11      6.72      0.00
  -11   13   11     -2.50      0.00
  -10   13   11      8.28      0.00
   -9   13   11      5.22      0.00
   -8   13   11      6.12      0.00
   -7   13   11     -9.74      0.00
   -6   13   11     -2.20      0.00
   -5   13   11     -5.43      0.00
   -4   13   11      1.93      0.00
   -3   13   11      9.06      0.00
   -2   13   11      0.76      0.00
   -1   13   11      7.27      0.00
    0   13   11     -7.01      0.00
    1   13   11     -2.53      0.00
    2   13   11     -6.27      0.00
    3   13   11     14.28      0.00
    4   13   11     -6.19      0.00
    5   13   11     -1.75      0.00
    6   13   11     -8.53      0.00
    7   13   11     -8.21      0.00
    8   13   11    -12.12      0.00
    9   13   11      0.76      0.00
   10   13   11     -1.08      0.00
   11   13   11      5.14      0.00
   12   13   11     -4.49      0.00
   13   13   11      6.00      0.00
   14   13   11     -1.59      0.00
   15   13   11      1.26      0.00
   16   13   11     -0.39      0.00
   17   13   11     -0.56      0.00
  -17   14   11     -7.15      0.00
  -16   14   11      2.63      0.00
  -15   14   11      1.44      0.00
  -14   14   11     -5.42      0.00
  -13   14   11      2.93      0.00
  -12   14   11      8.89      0.00
  -11   14   11     -8.29      0.00
  -10   14   11     -7.40      0.00
   -9   14   11      8.64      0.00
   -8   14   11      8.13      0.00
   -7   14   11      7.50      0.00
   -6   14   11     -5.18      0.00
   -5   14   11     -5.33      0.00
   -4   14   11     13.66      0.00
   -3   14   11     -7.55      0.00
   -2   14   11    -11.60      0.00
   -1   14   11     14.77      0.00
    0   14   11     -2.66      0.00
    1   14   11     -8.20      0.00
    2   14   11     -4.23      0.00
    3   14   11      3.07      0.00
    4   14   11      3.73      0.00
    5   14   11      0.94      0.00
    6   14   11      7.13      0.00
    7   14   11      3.47      0.00
    8   14   11     11.08      0.00
    9   14   11     -7.40      0.00
   10   14   11     11.29      0.00
   11   14   11      9.78      0.00
   12   14   11     -3.31      0.00
   13   14   11     -3.75      0.00
   14   14   11     -5.27      0.00
   15   14   11      1.39      0.00
   16   14   11      1.93      0.00
  -15   15   11     -0.75      0.00
  -14   15   11     -3.24      0.00
  -13   15   11     -3.53      0.00
  -12   15   11      1.85      0.00
  -11   15   11     -3.15      0.00
  -10   15   11     -3.14      0.00
   -9   15   11     15.21      0.00
   -8   15   11      1.43      0.00
   -7   15   11    -10.87      0.00
   -6   15   11     -8.52      0.00
   -5   15   11      4.41      0.00
   -4   15   11      5.67      0.00
   -3   15   11      1.18      0.00
   -2   15   11     -6.65      0.00
   -1   15   11     14.02      0.00
    0   15   11     -1.08      0.00
    1   15   11     -2.64      0.00
    2   15   11     -7.71      0.00
    3   15   11      7.85      0.00
    4   15   11      0.42      0.00
    5   15   11      0.56      0.00
    6   15   11     -0.06      0.00
    7   15   11     -6.72      0.00
    8   15   11     -2.41      0.00
    9   15   11      0.82      0.00
   10   15   11      6.14      0.00
   11   15   11      1.72      0.00
   12   15   11     -1.31      0.00
   13   15   11      9.07      0.00
   14   15   11      2.11      0.00
  -14   16   11      0.95      0.00
  -13   16   11     -1.33      0.00
  -12   16   11     10.27      0.00
  -11   16   11     -1.93      0.00
  -10   16   11     -3.94      0.00
   -9   16   11      1.28      0.00
   -8   16   11      2.00      0.00
   -7   16   11      6.09      0.00
   -6   16   11     -5.42      0.00
   -5   16   11    -17.98      0.00
   -4   16   11      8.43      0.00
   -3   16   11     -8.20      0.00
   -2   16   11     -6.38      0.00
   -1   16   11      1.29      0.00
    0   16   11     -6.33      0.00
    1   16   11     -4.83      0.00
    2   16   11     -2.76      0.00
    3   16   11      1.49      0.00
    4   16   11      0.78      0.00
    5   16   11      4.45      0.00
    6   16   11      2.17      0.00
    7   16   11      4.68      0.00
    8   16   11      7.33      0.00
    9   16   11     -0.87      0.00
   10   16   11      8.34      0.00
   11   16   11      7.82      0.00
   12   16   11     -2.35      0.00
  -11   17   11     -6.78      0.00
  -10   17   11     -0.38      0.00
   -9   17   11      4.86      0.00
   -8   17   11     -0.44      0.00
   -7   17   11     -2.66      0.00
   -6   17   11     -1.32      0.00
   -5   17   11      2.59      0.00
   -4   17   11     10.63      0.00
   -3   17   11      0.15      0.00
   -2   17   11      0.86      0.00
   -1   17   11      6.07      0.00
    0   17   11     10.82      0.00
    1   17   11     -4.50      0.00
    2   17   11     -3.03      0.00
    3   17   11      1.33      0.00
    4   17   11     11.07      0.00
    5   17   11      0.49      0.00
    6   17   11      1.01      0.00
    7   17   11     -0.08      0.00
    8   17   11      5.46      0.00
    9   17   11     -1.66      0.00
   10   17   11      0.93      0.00
   -8   18   11     -2.13      0.00
   -7   18   11      3.80      0.00
   -6   18   11     -0.33      0.00
   -5   18   11    -13.58      0.00
   -4   18   11      8.88      0.00
   -3   18   11     -2.50      0.00
   -2   18   11      1.27      0.00
   -1   18   11     -1.79      0.00
    0   18   11      2.54      0.00
    1   18   11      0.03      0.00
    2   18   11      0.93      0.00
    3   18   11     -2.18      0.00
    4   18   11      3.29      0.00
    5   18   11     -0.34      0.00
    6   18   11     -4.04      0.00
    7   18   11     -0.98      0.00
  -24    0   12      5.13      0.00
  -22    0   12    -18.58      0.00
  -20    0   12      2.85      0.00
  -18    0   12     12.11      0.00
  -16    0   12     18.26      0.00
  -14    0   12    -25.86      0.00
  -12    0   12      2.12      0.00
  -10    0   12     12.95      0.00
   -8    0   12     16.90      0.00
   -6    0   12     34.44      0.00
   -4    0   12     87.37      0.00
   -2    0   12     21.59      0.00
    0    0   12    -64.25      0.00
    2    0   12     35.43      0.00
    4    0   12    -19.85      0.00
    6    0   12    -24.23      0.00
    8    0   12    -35.37      0.00
   10    0   12     20.85      0.00
   12    0   12    -13.79      0.00
   14    0   12      4.30      0.00
   16    0   12     -8.60      0.00
   18    0   12      3.01      0.00
   20    0   12      4.42      0.00
   22    0   12     -0.24      0.00
   24    0   12      3.28      0.00
  -25    1   12     -1.57      0.00
  -24    1   12     -1.32      0.00
  -23    1   12     -3.80      0.00
  -22    1   12     -1.13      0.00
  -21    1   12     10.47      0.00
  -20    1   12      1.31      0.00
  -19    1   12     -0.98      0.00
  -18    1   12      3.29      0.00
  -17    1   12     -0.37      0.00
  -16    1   12      6.79      0.00
  -15    1   12    -23.53      0.00
  -14    1   12      2.21      0.00
  -13    1   12     36.57      0.00
  -12    1   12     -4.40      0.00
  -11    1   12     -4.65      0.00
  -10    1   12    -12.47      0.00
   -9    1   12      7.59      0.00
   -8    1   12     -8.20      0.00
   -7    1   12    -33.87      0.00
   -6    1   12     -2.85      0.00
   -5    1   12     25.58      0.00
   -4    1   12     12.45      0.00
   -3    1   12   -108.13      0.00
   -2    1   12      8.50      0.00
   -1    1   12     57.65      0.00
    0    1   12     -4.84      0.00
    1    1   12     24.21      0.00
    2    1   12    -25.33      0.00
    3    1   12      4.57      0.00
    4    1   12    -26.19      0.00
    5    1   12    -74.63      0.00
    6    1   12    -19.52      0.00
    7    1   12     13.49      0.00
    8    1   12    -12.85      0.00
    9    1   12    -11.42      0.00
   10    1   12      5.38      0.00
   11    1   12     -6.29      0.00
   12    1   12      9.27      0.00
   13    1   12     11.55      0.00
   14    1   12     10.05      0.00
   15    1   12      8.25      0.00
   16    1   12     13.14      0.00
   17    1   12      4.42      0.00
   18    1   12      9.89      0.00
   19    1   12     -1.30      0.00
   20    1   12      9.71      0.00
   21    1   12      8.99      0.00
   22    1   12      4.21      0.00
   23    1   12     -1.14      0.00
   24    1   12      3.94      0.00
  -25    2   12     -4.00      0.00
  -24    2   12      4.95      0.00
  -23    2   12      2.76      0.00
  -22    2   12     -8.81      0.00
  -21    2   12     -7.73      0.00
  -20    2   12     -2.71      0.00
  -19    2   12     -4.46      0.00
  -18    2   12     15.95      0.00
  -17    2   12     -0.62      0.00
  -16    2   12      7.78      0.00
  -15    2   12     -2.73      0.00
  -14    2   12    -14.19      0.00
  -13    2   12      2.21      0.00
  -12    2   12     -8.83      0.00
  -11    2   12      3.76      0.00
  -10    2   12     12.39      0.00
   -9    2   12     16.05      0.00
   -8    2   12    -32.09      0.00
   -7    2   12      2.99      0.00
   -6    2   12    -13.19      0.00
   -5    2   12      6.44      0.00
   -4    2   12     17.21      0.00
   -3    2   12    -19.89      0.00
   -2    2   12    -17.80      0.00
   -1    2   12     -1.62      0.00
    0    2   12    -54.50      0.00
    1    2   12    -11.92      0.00
    2    2   12     19.65      0.00
    3    2   12     26.08      0.00
    4    2   12      3.33      0.00
    5    2   12    -13.66      0.00
    6    2   12    -58.71      0.00
    7    2   12      3.51      0.00
    8    2   12    -20.22      0.00
    9    2   12    -29.90      0.00
   10    2   12     -7.59      0.00
   11    2   12     -9.27      0.00
   12    2   12      2.52      0.00
   13    2   12     -0.07      0.00
   14    2   12    -15.73      0.00
   15    2   12     11.41      0.00
   16    2   12     -6.49      0.00
   17    2   12     -5.20      0.00
   18    2   12     -9.48      0.00
   19    2   12     -3.85      0.00
   20    2   12      8.24      0.00
   21    2   12     -5.58      0.00
   22    2   12      3.36      0.00
   23    2   12     -1.51      0.00
   24    2   12      6.93      0.00
  -25    3   12     -0.45      0.00
  -24    3   12     -7.80      0.00
  -21    3   12     12.25      0.00
  -20    3   12      3.14      0.00
  -19    3   12     18.56      0.00
  -18    3   12      6.96      0.00
  -17    3   12      6.47      0.00
  -16    3   12     12.92      0.00
  -15    3   12     11.15      0.00
  -14    3   12      4.34      0.00
  -13    3   12     18.69      0.00
  -12    3   12      6.42      0.00
  -11    3   12     15.22      0.00
  -10    3   12     -7.14      0.00
   -9    3   12    -28.00      0.00
   -8    3   12     13.54      0.00
   -7    3   12     19.76      0.00
   -6    3   12     10.44      0.00
   -5    3   12     -5.58      0.00
   -4    3   12     25.59      0.00
   -3    3   12    -22.41      0.00
   -2    3   12     12.94      0.00
   -1    3   12     -3.80      0.00
    0    3   12      0.23      0.00
    1    3   12     74.57      0.00
    2    3   12    -15.29      0.00
    3    3   12    -33.70      0.00
    4    3   12      2.20      0.00
    5    3   12     -9.26      0.00
    6    3   12      1.02      0.00
    7    3   12      3.69      0.00
    8    3   12      3.25      0.00
    9    3   12      1.44      0.00
   10    3   12     18.34      0.00
   11    3   12    -45.54      0.00
   12    3   12     21.63      0.00
   13    3   12     -8.99      0.00
   14    3   12      6.19      0.00
   15    3   12     -3.69      0.00
   16    3   12      5.68      0.00
   17    3   12      5.11      0.00
   18    3   12     -0.50      0.00
   19    3   12     -3.12      0.00
   20    3   12     -0.88      0.00
   21    3   12     -1.23      0.00
   22    3   12      6.29      0.00
   23    3   12     -7.90      0.00
   24    3   12      4.58      0.00
  -24    4   12      3.00      0.00
  -23    4   12     11.90      0.00
  -22    4   12     -6.95      0.00
  -21    4   12    -16.35      0.00
  -20    4   12    -12.36      0.00
  -19    4   12     -0.47      0.00
  -18    4   12      3.90      0.00
  -17    4   12    -12.81      0.00
  -16    4   12     -9.84      0.00
  -15    4   12     17.91      0.00
  -14    4   12    -22.80      0.00
  -13    4   12      2.70      0.00
  -12    4   12     -9.97      0.00
  -11    4   12     31.88      0.00
  -10    4   12      6.26      0.00
   -9    4   12      8.91      0.00
   -8    4   12    -32.05      0.00
   -7    4   12     13.44      0.00
   -6    4   12    -23.09      0.00
   -5    4   12     -3.74      0.00
   -4    4   12     14.60      0.00
   -3    4   12    -10.71      0.00
   -2    4   12    -17.08      0.00
   -1    4   12    -18.74      0.00
    0    4   12    -21.41      0.00
    1    4   12     -9.99      0.00
    2    4   12     18.01      0.00
    3    4   12     19.98      0.00
    4    4   12     22.05      0.00
    5    4   12      1.25      0.00
    6    4   12    -35.33      0.00
    7    4   12     27.86      0.00
    8    4   12     18.10      0.00
    9    4   12    -12.49      0.00
   10    4   12     31.82      0.00
   11    4   12     -2.00      0.00
   12    4   12     47.69      0.00
   13    4   12    -11.04      0.00
   14    4   12     17.95      0.00
   15    4   12      9.54      0.00
   16    4   12     15.86      0.00
   17    4   12    -14.62      0.00
   18    4   12     -0.90      0.00
   19    4   12      6.09      0.00
   20    4   12      5.54      0.00
   21    4   12     -2.19      0.00
   22    4   12      1.13      0.00
   23    4   12      3.03      0.00
  -24    5   12     -7.96      0.00
  -23    5   12      3.25      0.00
  -22    5   12     -1.31      0.00
  -21    5   12     15.19      0.00
  -20    5   12      0.00      0.00
  -19    5   12     20.22      0.00
  -18    5   12      3.24      0.00
  -17    5   12      6.83      0.00
  -16    5   12     -9.78      0.00
  -15    5   12     14.98      0.00
  -14    5   12    -15.34      0.00
  -13    5   12     19.71      0.00
  -12    5   12    -26.90      0.00
  -11    5   12     15.25      0.00
  -10    5   12    -14.81      0.00
   -9    5   12     -3.55      0.00
   -8    5   12     -1.95      0.00
   -7    5   12     22.96      0.00
   -6    5   12     15.97      0.00
   -5    5   12     29.96      0.00
   -4    5   12      9.31      0.00
   -3    5   12    -15.34      0.00
   -2    5   12     26.27      0.00
   -1    5   12     14.78      0.00
    0    5   12      7.05      0.00
    1    5   12     23.39      0.00
    2    5   12     15.28      0.00
    3    5   12    -28.20      0.00
    4    5   12     11.69      0.00
    5    5   12    -36.61      0.00
    6    5   12      2.80      0.00
    7    5   12     22.68      0.00
    8    5   12    -20.69      0.00
    9    5   12      1.35      0.00
   10    5   12      7.72      0.00
   11    5   12    -25.16      0.00
   12    5   12     10.07      0.00
   13    5   12     -4.26      0.00
   14    5   12      6.52      0.00
   15    5   12      2.68      0.00
   16    5   12      2.05      0.00
   17    5   12      2.51      0.00
   18    5   12     -5.10      0.00
   19    5   12     -8.82      0.00
   20    5   12    -11.72      0.00
   21    5   12     -1.37      0.00
   22    5   12     -1.72      0.00
   23    5   12     -9.77      0.00
  -24    6   12     -1.10      0.00
  -22    6   12     -4.64      0.00
  -20    6   12     -6.41      0.00
  -19    6   12     -6.25      0.00
  -18    6   12      9.78      0.00
  -17    6   12     -2.70      0.00
  -16    6   12     -1.68      0.00
  -15    6   12      2.54      0.00
  -14    6   12    -21.46      0.00
  -13    6   12     -3.11      0.00
  -12    6   12     -7.07      0.00
  -11    6   12     10.48      0.00
  -10    6   12     -2.87      0.00
   -9    6   12     -6.16      0.00
   -8    6   12    -21.21      0.00
   -7    6   12     -0.06      0.00
   -6    6   12    -12.19      0.00
   -5    6   12     -4.70      0.00
   -4    6   12     19.28      0.00
   -3    6   12      2.33      0.00
   -2    6   12     -5.82      0.00
   -1    6   12     -9.12      0.00
    0    6   12    -24.90      0.00
    1    6   12      3.31      0.00
    2    6   12     27.87      0.00
    3    6   12      6.44      0.00
    4    6   12      8.18      0.00
    5    6   12     -3.63      0.00
    6    6   12      9.06      0.00
    7    6   12     14.97      0.00
    8    6   12     -6.70      0.00
    9    6   12     -7.63      0.00
   10    6   12     27.95      0.00
   11    6   12    -13.85      0.00
   12    6   12     -5.21      0.00
   13    6   12     -4.50      0.00
   14    6   12      5.97      0.00
   15    6   12      1.57      0.00
   16    6   12     -6.47      0.00
   17    6   12     -0.97      0.00
   18    6   12      7.48      0.00
   19    6   12      6.65      0.00
   20    6   12     -4.49      0.00
   21    6   12      9.68      0.00
   22    6   12      3.76      0.00
   23    6   12      3.87      0.00
  -23    7   12     -1.71      0.00
  -22    7   12     -3.94      0.00
  -21    7   12      2.23      0.00
  -20    7   12     -1.02      0.00
  -19    7   12      3.01      0.00
  -18    7   12      4.83      0.00
  -17    7   12     -1.61      0.00
  -16    7   12     -6.45      0.00
  -15    7   12      7.75      0.00
  -14    7   12      1.38      0.00
  -13    7   12     12.87      0.00
  -12    7   12    -20.40      0.00
  -11    7   12     -2.48      0.00
  -10    7   12     -2.01      0.00
   -9    7   12    -14.43      0.00
   -8    7   12    -12.54      0.00
   -7    7   12     -0.53      0.00
   -6    7   12     11.52      0.00
   -5    7   12     12.87      0.00
   -4    7   12     -3.67      0.00
   -3    7   12    -10.48      0.00
   -2    7   12     30.90      0.00
   -1    7   12     16.40      0.00
    0    7   12      2.26      0.00
    1    7   12     23.37      0.00
    2    7   12      9.19      0.00
    3    7   12    -13.28      0.00
    4    7   12     -7.68      0.00
    5    7   12    -39.74      0.00
    6    7   12     -0.13      0.00
    7    7   12     12.54      0.00
    8    7   12    -19.33      0.00
    9    7   12    -19.90      0.00
   10    7   12     16.74      0.00
   11    7   12    -27.00      0.00
   12    7   12      2.92      0.00
   13    7   12    -13.78      0.00
   14    7   12     -5.44      0.00
   15    7   12      6.95      0.00
   16    7   12     -9.40      0.00
   17    7   12     -2.34      0.00
   18    7   12    -10.91      0.00
   19    7   12     -1.80      0.00
   20    7   12    -10.06      0.00
   21    7   12     -0.26      0.00
   22    7   12     -6.74      0.00
  -23    8   12      3.86      0.00
  -22    8   12     -2.20      0.00
  -21    8   12      3.64      0.00
  -20    8   12    -10.25      0.00
  -19    8   12     -2.41      0.00
  -18    8   12      7.03      0.00
  -17    8   12      7.58      0.00
  -16    8   12    -10.91      0.00
  -15    8   12      0.22      0.00
  -14    8   12     -6.24      0.00
  -13    8   12      5.73      0.00
  -12    8   12     -2.00      0.00
  -11    8   12      8.56      0.00
  -10    8   12     25.20      0.00
   -9    8   12     12.57      0.00
   -8    8   12     -7.35      0.00
   -7    8   12      0.11      0.00
   -6    8   12     15.46      0.00
   -5    8   12      4.74      0.00
   -4    8   12     18.84      0.00
   -3    8   12    -11.55      0.00
   -2    8   12      6.98      0.00
   -1    8   12     -8.65      0.00
    0    8   12     -7.30      0.00
    1    8   12     -0.01      0.00
    2    8   12      7.88      0.00
    3    8   12      8.87      0.00
    4    8   12     -0.27      0.00
    5    8   12      3.10      0.00
    6    8   12    -21.19      0.00
    7    8   12     22.50      0.00
    8    8   12    -11.52      0.00
    9    8   12     -1.99      0.00
   10    8   12      2.39      0.00
   11    8   12     -9.95      0.00
   12    8   12     -2.05      0.00
   13    8   12     -1.65      0.00
   14    8   12     -2.79      0.00
   15    8   12      7.26      0.00
   16    8   12      3.84      0.00
   17    8   12      0.95      0.00
   18    8   12      5.20      0.00
   19    8   12      2.41      0.00
   20    8   12     -0.36      0.00
   21    8   12      0.78      0.00
  -22    9   12     -1.18      0.00
  -21    9   12     -0.45      0.00
  -20    9   12      2.94      0.00
  -19    9   12     -2.38      0.00
  -18    9   12     -1.04      0.00
  -17    9   12     -6.40      0.00
  -16    9   12      0.23      0.00
  -15    9   12     11.90      0.00
  -14    9   12     -0.99      0.00
  -13    9   12     -3.66      0.00
  -12    9   12      1.64      0.00
  -11    9   12      6.83      0.00
  -10    9   12    -10.23      0.00
   -9    9   12    -19.93      0.00
   -8    9   12     -4.33      0.00
   -7    9   12     37.20      0.00
   -6    9   12    -13.48      0.00
   -5    9   12      7.93      0.00
   -4    9   12     -6.32      0.00
   -3    9   12     37.34      0.00
   -2    9   12     -2.02      0.00
   -1    9   12     -8.53      0.00
    0    9   12     -3.36      0.00
    1    9   12     51.82      0.00
    2    9   12    -19.41      0.00
    3    9   12    -13.14      0.00
    4    9   12     -5.98      0.00
    5    9   12      7.60      0.00
    6    9   12    -17.63      0.00
    7    9   12     13.02      0.00
    8    9   12     -4.76      0.00
    9    9   12      8.49      0.00
   10    9   12      3.47      0.00
   11    9   12    -15.65      0.00
   12    9   12      6.64      0.00
   13    9   12      1.43      0.00
   14    9   12    -13.37      0.00
   15    9   12     10.17      0.00
   16    9   12      0.29      0.00
   17    9   12      5.68      0.00
   18    9   12      3.90      0.00
   19    9   12      6.73      0.00
   20    9   12      3.68      0.00
   21    9   12      3.55      0.00
  -21   10   12     -3.14      0.00
  -20   10   12     -2.76      0.00
  -19   10   12     -1.71      0.00
  -18   10   12      4.14      0.00
  -17   10   12     -1.00      0.00
  -16   10   12     -6.62      0.00
  -15   10   12      1.92      0.00
  -14   10   12     -9.57      0.00
  -13   10   12     -1.20      0.00
  -12   10   12      9.91      0.00
  -11   10   12      5.44      0.00
  -10   10   12     11.87      0.00
   -9   10   12      2.43      0.00
   -8   10   12     -3.38      0.00
   -7   10   12     -1.51      0.00
   -6   10   12    -10.59      0.00
   -5   10   12      3.90      0.00
   -4   10   12      4.21      0.00
   -3   10   12     -2.23      0.00
   -2   10   12    -13.21      0.00
   -1   10   12     -6.21      0.00
    0   10   12     -2.08      0.00
    1   10   12     -1.87      0.00
    2   10   12     -8.46      0.00
    3   10   12    -10.80      0.00
    4   10   12     -7.15      0.00
    5   10   12    -10.89      0.00
    6   10   12    -28.87      0.00
    7   10   12      7.74      0.00
    8   10   12    -11.33      0.00
    9   10   12     -8.47      0.00
   10   10   12     -2.20      0.00
   11   10   12     -5.44      0.00
   12   10   12      0.53      0.00
   13   10   12     -3.28      0.00
   14   10   12     -5.01      0.00
   15   10   12      9.53      0.00
   16   10   12     -0.63      0.00
   17   10   12     -2.48      0.00
   18   10   12      1.05      0.00
   19   10   12      6.40      0.00
   20   10   12     -2.74      0.00
  -20   11   12      7.76      0.00
  -19   11   12      5.75      0.00
  -18   11   12      3.36      0.00
  -17   11   12      0.58      0.00
  -16   11   12     -1.83      0.00
  -15   11   12     17.30      0.00
  -14   11   12      0.29      0.00
  -13   11   12     -1.68      0.00
  -12   11   12      3.48      0.00
  -11   11   12      1.71      0.00
  -10   11   12      2.30      0.00
   -9   11   12    -14.06      0.00
   -8   11   12     -0.34      0.00
   -7   11   12     12.35      0.00
   -6   11   12     -5.60      0.00
   -5   11   12      0.79      0.00
   -4   11   12    -14.06      0.00
   -3   11   12      9.33      0.00
   -2   11   12     -6.71      0.00
   -1   11   12     -9.37      0.00
    0   11   12    -14.32      0.00
    1   11   12     19.82      0.00
    2   11   12    -12.83      0.00
    3   11   12     -4.42      0.00
    4   11   12     -2.22      0.00
    5   11   12     -5.08      0.00
    6   11   12     -6.18      0.00
    7   11   12      1.52      0.00
    8   11   12     -5.00      0.00
    9   11   12     -4.44      0.00
   10   11   12      1.34      0.00
   11   11   12    -17.22      0.00
   12   11   12      2.95      0.00
   13   11   12     -6.93      0.00
   14   11   12     -3.39      0.00
   15   11   12      1.11      0.00
   16   11   12      5.66      0.00
   17   11   12     -0.63      0.00
   18   11   12      7.29      0.00
   19   11   12      3.10      0.00
  -19   12   12     -8.75      0.00
  -18   12   12      2.99      0.00
  -17   12   12      3.41      0.00
  -16   12   12      0.27      0.00
  -15   12   12      0.53      0.00
  -14   12   12    -16.51      0.00
  -13   12   12      6.48      0.00
  -12   12   12      4.09      0.00
  -11   12   12      0.80      0.00
  -10   12   12     -7.81      0.00
   -9   12   12     -3.62      0.00
   -8   12   12     -9.35      0.00
   -7   12   12      0.35      0.00
   -6   12   12    -14.23      0.00
   -5   12   12      3.14      0.00
   -4   12   12     -0.08      0.00
   -3   12   12     12.08      0.00
   -2   12   12    -11.58      0.00
   -1   12   12     -5.96      0.00
    0   12   12     -3.21      0.00
    1   12   12      8.66      0.00
    2   12   12     -4.16      0.00
    3   12   12    -21.25      0.00
    4   12   12     -6.39      0.00
    5   12   12      3.58      0.00
    6   12   12     -0.97      0.00
    7   12   12     -0.91      0.00
    8   12   12      0.34      0.00
    9   12   12      9.07      0.00
   10   12   12     11.89      0.00
   11   12   12     -9.28      0.00
   12   12   12      2.98      0.00
   13   12   12      7.35      0.00
   14   12   12      6.55      0.00
   15   12   12     -7.80      0.00
   16   12   12      2.83      0.00
   17   12   12     -1.20      0.00
   18   12   12     10.06      0.00
  -18   13   12     -0.56      0.00
  -17   13   12      1.47      0.00
  -16   13   12     -6.88      0.00
  -15   13   12      8.71      0.00
  -14   13   12      2.47      0.00
  -13   13   12     10.38      0.00
  -12   13   12      1.81      0.00
  -11   13   12      3.45      0.00
  -10   13   12     11.30      0.00
   -9   13   12      7.83      0.00
   -8   13   12     -3.99      0.00
   -7   13   12      1.09      0.00
   -6   13   12      2.76      0.00
   -5   13   12     -0.69      0.00
   -4   13   12    -13.50      0.00
   -3   13   12     -0.58      0.00
   -2   13   12     11.49      0.00
   -1   13   12     -0.95      0.00
    0   13   12     -6.41      0.00
    1   13   12      7.87      0.00
    2   13   12     10.63      0.00
    3   13   12      0.47      0.00
    4   13   12      4.24      0.00
    5   13   12    -14.79      0.00
    6   13   12     11.67      0.00
    7   13   12     -3.66      0.00
    8   13   12      1.36      0.00
    9   13   12     -5.74      0.00
   10   13   12      3.94      0.00
   11   13   12     -1.49      0.00
   12   13   12     -3.63      0.00
   13   13   12     -1.21      0.00
   14   13   12     -7.05      0.00
   15   13   12      6.27      0.00
   16   13   12     -1.72      0.00
   17   13   12     -3.76      0.00
  -17   14   12      3.30      0.00
  -16   14   12     -1.40      0.00
  -15   14   12     -2.89      0.00
  -14   14   12     -7.18      0.00
  -13   14   12     -0.44      0.00
  -12   14   12     -1.56      0.00
  -11   14   12    -11.60      0.00
  -10   14   12      1.42      0.00
   -9   14   12    -10.01      0.00
   -8   14   12    -11.94      0.00
   -7   14   12     -6.83      0.00
   -6   14   12      0.99      0.00
   -5   14   12     -1.53      0.00
   -4   14   12     -2.81      0.00
   -3   14   12     -2.00      0.00
   -2   14   12     -2.09      0.00
   -1   14   12     -6.47      0.00
    0   14   12     -0.76      0.00
    1   14   12      4.04      0.00
    2   14   12     -1.48      0.00
    3   14   12    -13.82      0.00
    4   14   12     -0.13      0.00
    5   14   12      6.68      0.00
    6   14   12      6.59      0.00
    7   14   12     -2.46      0.00
    8   14   12     10.36      0.00
    9   14   12      4.62      0.00
   10   14   12      8.91      0.00
   11   14   12     -3.87      0.00
   12   14   12      8.44      0.00
   13   14   12      6.78      0.00
   14   14   12      2.23      0.00
   15   14   12     -0.31      0.00
  -15   15   12      1.92      0.00
  -14   15   12     -6.02      0.00
  -13   15   12      3.83      0.00
  -12   15   12      5.19      0.00
  -11   15   12     -1.28      0.00
  -10   15   12     -4.66      0.00
   -9   15   12      8.02      0.00
   -8   15   12      3.47      0.00
   -7   15   12     -0.68      0.00
   -6   15   12     -7.30      0.00
   -5   15   12     -2.93      0.00
   -4   15   12      8.03      0.00
   -3   15   12     -3.40      0.00
   -2   15   12      5.48      0.00
   -1   15   12     -3.32      0.00
    0   15   12     12.51      0.00
    1   15   12      3.24      0.00
    2   15   12      3.33      0.00
    3   15   12     -1.34      0.00
    4   15   12     11.15      0.00
    5   15   12     -9.44      0.00
    6   15   12     -1.19      0.00
    7   15   12    -10.93      0.00
    8   15   12      7.07      0.00
    9   15   12     -5.18      0.00
   10   15   12     -5.89      0.00
   11   15   12     -7.82      0.00
   12   15   12      1.35      0.00
   13   15   12     -3.85      0.00
   14   15   12     -7.79      0.00
  -13   16   12     -0.15      0.00
  -12   16   12      5.33      0.00
  -11   16   12     -2.84      0.00
  -10   16   12      0.08      0.00
   -9   16   12     -3.83      0.00
   -8   16   12     -2.20      0.00
   -7   16   12      2.44      0.00
   -6   16   12     -4.52      0.00
   -5   16   12      2.94      0.00
   -4   16   12      2.60      0.00
   -3   16   12     -1.52      0.00
   -2   16   12     -2.64      0.00
   -1   16   12      2.89      0.00
    0   16   12      1.63      0.00
    1   16   12      0.52      0.00
    2   16   12     -2.10      0.00
    3   16   12     -1.03      0.00
    4   16   12     -5.07      0.00
    5   16   12      5.48      0.00
    6   16   12     -0.34      0.00
    7   16   12      5.19      0.00
    8   16   12     -3.75      0.00
    9   16   12     -1.22      0.00
   10   16   12     -2.10      0.00
   11   16   12      3.03      0.00
   12   16   12      3.66      0.00
  -10   17   12     -1.93      0.00
   -9   17   12      2.39      0.00
   -8   17   12      2.69      0.00
   -7   17   12     -1.02      0.00
   -6   17   12     -5.70      0.00
   -5   17   12      3.20      0.00
   -4   17   12      1.89      0.00
   -3   17   12     -2.06      0.00
   -2   17   12     -6.13      0.00
   -1   17   12      5.77      0.00
    0   17   12      2.96      0.00
    1   17   12      0.24      0.00
    2   17   12     -3.38      0.00
    3   17   12      4.91      0.00
    4   17   12      2.94      0.00
    5   17   12     -1.29      0.00
    6   17   12     -0.62      0.00
    7   17   12     -0.14      0.00
    8   17   12      3.05      0.00
    9   17   12      3.69      0.00
   -6   18   12     -2.36      0.00
   -5   18   12     -1.55      0.00
   -4   18   12      6.68      0.00
   -3   18   12     -2.03      0.00
   -2   18   12      0.67      0.00
   -1   18   12      3.73      0.00
    0   18   12      4.15      0.00
    1   18   12      0.15      0.00
    2   18   12     -0.26      0.00
    3   18   12     -1.92      0.00
    4   18   12     -1.47      0.00
    5   18   12      3.38      0.00
  -25    0   13      7.37      0.00
  -23    0   13     -7.59      0.00
  -21    0   13     13.54      0.00
  -19    0   13      3.20      0.00
  -17    0   13     -0.23      0.00
  -15    0   13      7.15      0.00
  -13    0   13     25.52      0.00
  -11    0   13     -6.94      0.00
   -9    0   13      2.52      0.00
   -7    0   13    -18.44      0.00
   -5    0   13    -35.57      0.00
   -3    0   13    -49.87      0.00
   -1    0   13     23.40      0.00
    1    0   13     -8.22      0.00
    3    0   13    -12.57      0.00
    5    0   13      7.24      0.00
    7    0   13     -5.42      0.00
    9    0   13      5.98      0.00
   11    0   13     25.35      0.00
   13    0   13     15.54      0.00
   15    0   13    -10.57      0.00
   17    0   13      7.93      0.00
   19    0   13      7.45      0.00
   21    0   13     -3.52      0.00
   23    0   13     -4.63      0.00
  -25    1   13     -1.37      0.00
  -23    1   13     -1.26      0.00
  -22    1   13      9.78      0.00
  -21    1   13      3.59      0.00
  -20    1   13     -6.21      0.00
  -19    1   13      6.83      0.00
  -18    1   13      6.93      0.00
  -17    1   13      5.72      0.00
  -16    1   13     -7.55      0.00
  -15    1   13     -1.26      0.00
  -14    1   13      2.17      0.00
  -13    1   13     -5.97      0.00
  -12    1   13     -2.31      0.00
  -11    1   13     -1.11      0.00
  -10    1   13      8.89      0.00
   -9    1   13     -5.82      0.00
   -8    1   13     -6.00      0.00
   -7    1   13     -1.60      0.00
   -6    1   13      4.18      0.00
   -5    1   13      4.93      0.00
   -4    1   13    -15.48      0.00
   -3    1   13    -10.16      0.00
   -2    1   13    -23.68      0.00
   -1    1   13      3.73      0.00
    0    1   13    -42.45      0.00
    1    1   13    -30.60      0.00
    2    1   13    -31.28      0.00
    3    1   13      3.80      0.00
    4    1   13    -23.80      0.00
    5    1   13    -25.39      0.00
    6    1   13     -2.59      0.00
    7    1   13     22.68      0.00
    8    1   13     28.23      0.00
    9    1   13    -15.59      0.00
   10    1   13      8.54      0.00
   11    1   13     16.65      0.00
   12    1   13     -8.09      0.00
   13    1   13    -16.89      0.00
   14    1   13     -6.06      0.00
   15    1   13      3.70      0.00
   16    1   13      8.68      0.00
   17    1   13     -6.96      0.00
   18    1   13     -4.98      0.00
   19    1   13      4.03      0.00
   20    1   13     -5.28      0.00
   21    1   13     -9.29      0.00
   22    1   13     -1.51      0.00
   23    1   13     -3.86      0.00
  -25    2   13      5.87      0.00
  -24    2   13     -4.68      0.00
  -23    2   13     -5.23      0.00
  -22    2   13     -8.02      0.00
  -21    2   13      2.56      0.00
  -20    2   13     -6.00      0.00
  -19    2   13     -1.11      0.00
  -18    2   13    -11.73      0.00
  -17    2   13     -5.07      0.00
  -16    2   13     -5.52      0.00
  -15    2   13     -0.67      0.00
  -14    2   13    -12.20      0.00
  -13    2   13     19.08      0.00
  -12    2   13      1.12      0.00
  -11    2   13    -18.51      0.00
  -10    2   13     -3.49      0.00
   -9    2   13     -1.27      0.00
   -8    2   13     22.58      0.00
   -7    2   13    -12.12      0.00
   -6    2   13    -16.18      0.00
   -5    2   13     -9.07      0.00
   -4    2   13     24.41      0.00
   -3    2   13     -1.77      0.00
   -2    2   13    -11.58      0.00
   -1    2   13     62.17      0.00
    0    2   13     16.29      0.00
    1    2   13     14.52      0.00
    2    2   13     -2.27      0.00
    3    2   13     -8.69      0.00
    4    2   13     28.44      0.00
    5    2   13     -3.68      0.00
    6    2   13    -14.05      0.00
    7    2   13     -8.80      0.00
    8    2   13     20.36      0.00
    9    2   13      0.63      0.00
   10    2   13     14.23      0.00
   11    2   13     29.03      0.00
   12    2   13     15.79      0.00
   13    2   13     15.72      0.00
   14    2   13     -1.86      0.00
   15    2   13    -10.41      0.00
   16    2   13    -11.02      0.00
   17    2   13      9.78      0.00
   18    2   13    -16.38      0.00
   19    2   13      6.15      0.00
   20    2   13     -8.55      0.00
   21    2   13      2.21      0.00
   22    2   13      2.99      0.00
   23    2   13     -7.75      0.00
  -24    3   13      7.25      0.00
  -23    3   13     -2.80      0.00
  -22    3   13      6.21      0.00
  -21    3   13      8.97      0.00
  -20    3   13      8.78      0.00
  -19    3   13      6.79      0.00
  -18    3   13      0.08      0.00
  -17    3   13     15.68      0.00
  -16    3   13      8.10      0.00
  -15    3   13     -7.16      0.00
  -14    3   13    -11.52      0.00
  -13    3   13      6.40      0.00
  -12    3   13      9.01      0.00
  -11    3   13      3.14      0.00
  -10    3   13      1.19      0.00
   -9    3   13      8.39      0.00
   -8    3   13     21.99      0.00
   -7    3   13    -17.28      0.00
   -6    3   13      9.94      0.00
   -5    3   13      1.28      0.00
   -4    3   13     17.66      0.00
   -3    3   13    -15.48      0.00
   -2    3   13     -6.64      0.00
   -1    3   13     32.07      0.00
    0    3   13      9.66      0.00
    1    3   13     19.28      0.00
    2    3   13     -1.99      0.00
    3    3   13     36.08      0.00
    4    3   13      7.04      0.00
    5    3   13     14.16      0.00
    6    3   13     -7.23      0.00
    7    3   13     28.72      0.00
    8    3   13      8.68      0.00
    9    3   13     -0.21      0.00
   10    3   13     -9.68      0.00
   11    3   13     19.08      0.00
   12    3   13    -15.34      0.00
   13    3   13     -8.16      0.00
   14    3   13     -2.27      0.00
   15    3   13      1.34      0.00
   16    3   13      4.59      0.00
   17    3   13      1.30      0.00
   18    3   13     -7.21      0.00
   19    3   13     11.03      0.00
   20    3   13    -15.37      0.00
   21    3   13     -4.22      0.00
   22    3   13     -5.52      0.00
   23    3   13      0.48      0.00
  -24    4   13     -1.76      0.00
  -23    4   13     -5.93      0.00
  -22    4   13      0.60      0.00
  -21    4   13    -11.76      0.00
  -20    4   13     -5.37      0.00
  -19    4   13     -6.99      0.00
  -18    4   13      1.32      0.00
  -17    4   13    -23.71      0.00
  -16    4   13     -6.30      0.00
  -15    4   13    -12.06      0.00
  -14    4   13      4.92      0.00
  -13    4   13     -9.81      0.00
  -12    4   13    -26.12      0.00
  -11    4   13    -28.23      0.00
  -10    4   13     14.53      0.00
   -9    4   13    -26.47      0.00
   -8    4   13    -10.75      0.00
   -7    4   13    -14.92      0.00
   -6    4   13     29.88      0.00
   -5    4   13    -32.95      0.00
   -4    4   13     -8.82      0.00
   -3    4   13    -14.31      0.00
   -2    4   13     46.28      0.00
   -1    4   13     17.79      0.00
    0    4   13    -39.40      0.00
    1    4   13     -4.45      0.00
    2    4   13     46.57      0.00
    3    4   13    -14.02      0.00
    4    4   13      5.91      0.00
    5    4   13     13.42      0.00
    6    4   13     18.78      0.00
    7    4   13      5.24      0.00
    8    4   13      8.86      0.00
    9    4   13     13.61      0.00
   10    4   13     17.29      0.00
   11    4   13     27.67      0.00
   12    4   13     -5.39      0.00
   13    4   13     14.00      0.00
   14    4   13    -11.24      0.00
   15    4   13    -14.25      0.00
   16    4   13     -3.72      0.00
   17    4   13      0.36      0.00
   18    4   13     -8.72      0.00
   19    4   13      6.04      0.00
   20    4   13      1.44      0.00
   21    4   13      5.96      0.00
   22    4   13      0.03      0.00
   23    4   13      1.27      0.00
  -24    5   13      3.10      0.00
  -23    5   13    -10.12      0.00
  -22    5   13      3.80      0.00
  -21    5   13     -5.19      0.00
  -20    5   13     -2.09      0.00
  -19    5   13      0.42      0.00
  -18    5   13      3.60      0.00
  -17    5   13      8.36      0.00
  -16    5   13      3.73      0.00
  -15    5   13     -5.72      0.00
  -14    5   13      6.83      0.00
  -13    5   13     10.56      0.00
  -12    5   13     10.96      0.00
  -11    5   13     22.06      0.00
  -10    5   13     10.11      0.00
   -9    5   13     15.91      0.00
   -8    5   13     15.63      0.00
   -7    5   13     -8.46      0.00
   -6    5   13      4.82      0.00
   -5    5   13     -9.94      0.00
   -4    5   13      5.33      0.00
   -3    5   13     -6.97      0.00
   -2    5   13     -4.26      0.00
   -1    5   13     10.39      0.00
    0    5   13      7.87      0.00
    1    5   13     19.24      0.00
    2    5   13      4.63      0.00
    3    5   13    -20.82      0.00
    4    5   13      2.25      0.00
    5    5   13     -7.60      0.00
    6    5   13     -6.06      0.00
    7    5   13    -33.03      0.00
    8    5   13      2.37      0.00
    9    5   13    -10.03      0.00
   10    5   13     -8.75      0.00
   11    5   13     -5.74      0.00
   12    5   13     -6.46      0.00
   13    5   13      5.44      0.00
   14    5   13    -14.46      0.00
   15    5   13     -4.81      0.00
   16    5   13      2.40      0.00
   17    5   13      7.85      0.00
   18    5   13    -13.37      0.00
   19    5   13      1.96      0.00
   20    5   13    -11.22      0.00
   21    5   13     -0.88      0.00
   22    5   13     -4.98      0.00
  -23    6   13      5.04      0.00
  -22    6   13      7.12      0.00
  -21    6   13      0.38      0.00
  -20    6   13     -5.46      0.00
  -19    6   13      8.51      0.00
  -18    6   13     -0.12      0.00
  -17    6   13    -14.35      0.00
  -16    6   13     -5.13      0.00
  -15    6   13     -7.92      0.00
  -14    6   13      7.38      0.00
  -13    6   13    -16.05      0.00
  -12    6   13    -17.78      0.00
  -11    6   13    -18.37      0.00
  -10    6   13     18.54      0.00
   -9    6   13     -9.97      0.00
   -8    6   13      5.47      0.00
   -7    6   13     16.80      0.00
   -6    6   13     22.03      0.00
   -5    6   13     -8.29      0.00
   -4    6   13      0.73      0.00
   -3    6   13     -3.46      0.00
   -2    6   13     12.42      0.00
   -1    6   13      8.73      0.00
    0    6   13    -59.15      0.00
    1    6   13     -3.37      0.00
    2    6   13     -7.29      0.00
    3    6   13     -0.08      0.00
    4    6   13    -20.49      0.00
    5    6   13     22.39      0.00
    6    6   13    -14.89      0.00
    7    6   13      3.67      0.00
    8    6   13     -5.40      0.00
    9    6   13     -0.86      0.00
   10    6   13     11.11      0.00
   11    6   13     10.90      0.00
   12    6   13     -8.00      0.00
   13    6   13      6.18      0.00
   14    6   13    -10.15      0.00
   15    6   13     -4.65      0.00
   16    6   13      0.94      0.00
   17    6   13     -3.41      0.00
   18    6   13     -1.48      0.00
   19    6   13      9.57      0.00
   20    6   13      5.33      0.00
   21    6   13     -0.74      0.00
   22    6   13      5.28      0.00
  -23    7   13     -6.40      0.00
  -22    7   13     -1.24      0.00
  -21    7   13     -6.39      0.00
  -20    7   13     -1.57      0.00
  -19    7   13     10.60      0.00
  -18    7   13      0.00      0.00
  -17    7   13      4.36      0.00
  -16    7   13      2.97      0.00
  -15    7   13      0.10      0.00
  -14    7   13      7.54      0.00
  -13    7   13     -8.23      0.00
  -12    7   13      2.88      0.00
  -11    7   13     19.23      0.00
  -10    7   13      3.30      0.00
   -9    7   13     -2.01      0.00
   -8    7   13     -6.95      0.00
   -7    7   13      0.53      0.00
   -6    7   13     -2.03      0.00
   -5    7   13      0.72      0.00
   -4    7   13     -9.38      0.00
   -3    7   13     10.78      0.00
   -2    7   13     14.99      0.00
   -1    7   13     23.09      0.00
    0    7   13      4.78      0.00
    1    7   13      4.73      0.00
    2    7   13     14.29      0.00
    3    7   13      9.14      0.00
    4    7   13    -12.99      0.00
    5    7   13     -1.23      0.00
    6    7   13     -2.78      0.00
    7    7   13     15.53      0.00
    8    7   13    -13.73      0.00
    9    7   13    -11.99      0.00
   10    7   13      8.71      0.00
   11    7   13      5.86      0.00
   12    7   13     -0.74      0.00
   13    7   13    -11.45      0.00
   14    7   13      0.08      0.00
   15    7   13      0.08      0.00
   16    7   13     -0.03      0.00
   17    7   13     -1.70      0.00
   18    7   13      0.41      0.00
   19    7   13      5.80      0.00
   20    7   13     -6.99      0.00
   21    7   13     -3.94      0.00
   22    7   13      5.07      0.00
  -22    8   13      5.02      0.00
  -21    8   13      1.79      0.00
  -20    8   13     -6.62      0.00
  -19    8   13      8.44      0.00
  -18    8   13     -4.76      0.00
  -17    8   13      1.35      0.00
  -16    8   13      3.75      0.00
  -15    8   13     -2.56      0.00
  -14    8   13     -0.23      0.00
  -13    8   13      2.13      0.00
  -12    8   13     -2.92      0.00
  -11    8   13     -9.97      0.00
  -10    8   13     -1.19      0.00
   -9    8   13     11.94      0.00
   -8    8   13     11.17      0.00
   -7    8   13     18.61      0.00
   -6    8   13    -19.16      0.00
   -5    8   13      7.08      0.00
   -4    8   13     10.58      0.00
   -3    8   13     -5.29      0.00
   -2    8   13    -10.77      0.00
   -1    8   13     11.86      0.00
    0    8   13    -11.39      0.00
    1    8   13    -15.06      0.00
    2    8   13     -5.86      0.00
    3    8   13     -0.87      0.00
    4    8   13     17.08      0.00
    5    8   13      5.87      0.00
    6    8   13    -21.01      0.00
    7    8   13     14.84      0.00
    8    8   13      0.52      0.00
    9    8   13      0.72      0.00
   10    8   13      2.88      0.00
   11    8   13     20.52      0.00
   12    8   13      2.80      0.00
   13    8   13      8.10      0.00
   14    8   13     -5.73      0.00
   15    8   13      3.96      0.00
   16    8   13     11.98      0.00
   17    8   13     -4.22      0.00
   18    8   13     -3.40      0.00
   19    8   13      5.49      0.00
   20    8   13      7.50      0.00
   21    8   13     -4.19      0.00
  -22    9   13     -6.21      0.00
  -21    9   13     -0.32      0.00
  -20    9   13     -1.81      0.00
  -19    9   13      8.62      0.00
  -18    9   13     -2.55      0.00
  -17    9   13     12.10      0.00
  -16    9   13      6.62      0.00
  -15    9   13      0.63      0.00
  -14    9   13      1.73      0.00
  -13    9   13     -1.44      0.00
  -12    9   13      0.31      0.00
  -11    9   13      1.34      0.00
  -10    9   13     -8.16      0.00
   -9    9   13     -2.17      0.00
   -8    9   13    -11.06      0.00
   -7    9   13    -14.80      0.00
   -6    9   13    -22.75      0.00
   -5    9   13      1.64      0.00
   -4    9   13    -31.18      0.00
   -3    9   13      1.77      0.00
   -2    9   13    -16.05      0.00
   -1    9   13      4.89      0.00
    0    9   13    -16.19      0.00
    1    9   13    -15.36      0.00
    2    9   13     -4.37      0.00
    3    9   13    -12.88      0.00
    4    9   13     -8.50      0.00
    5    9   13     -2.77      0.00
    6    9   13      5.74      0.00
    7    9   13     10.28      0.00
    8    9   13    -11.92      0.00
    9    9   13     -1.90      0.00
   10    9   13     14.11      0.00
   11    9   13     -0.43      0.00
   12    9   13     -0.54      0.00
   13    9   13     -5.17      0.00
   14    9   13      6.57      0.00
   15    9   13     -3.23      0.00
   16    9   13      4.38      0.00
   17    9   13      4.13      0.00
   18    9   13      8.05      0.00
   19    9   13      3.34      0.00
   20    9   13     -4.83      0.00
  -21   10   13      0.63      0.00
  -20   10   13     -1.79      0.00
  -19   10   13      2.29      0.00
  -18   10   13     -2.74      0.00
  -17   10   13     -7.02      0.00
  -16   10   13      5.87      0.00
  -15   10   13      2.48      0.00
  -14   10   13      1.19      0.00
  -13   10   13     -1.65      0.00
  -12   10   13    -10.11      0.00
  -11   10   13      6.63      0.00
  -10   10   13     -0.61      0.00
   -9   10   13     -0.44      0.00
   -8   10   13     -5.59      0.00
   -7   10   13     25.28      0.00
   -6   10   13    -10.65      0.00
   -5   10   13     -0.70      0.00
   -4   10   13     -9.97      0.00
   -3   10   13     18.92      0.00
   -2   10   13     -0.77      0.00
   -1   10   13     12.51      0.00
    0   10   13    -25.30      0.00
    1   10   13      6.57      0.00
    2   10   13      7.25      0.00
    3   10   13    -10.61      0.00
    4   10   13      6.59      0.00
    5   10   13      6.37      0.00
    6   10   13     -5.58      0.00
    7   10   13      4.96      0.00
    8   10   13     -3.06      0.00
    9   10   13     10.84      0.00
   10   10   13      7.49      0.00
   11   10   13      9.68      0.00
   12   10   13     -1.69      0.00
   13   10   13      6.95      0.00
   14   10   13     -4.53      0.00
   15   10   13     -5.79      0.00
   16   10   13      6.41      0.00
   17   10   13     -5.40      0.00
   18   10   13     -7.97      0.00
   19   10   13      4.44      0.00
  -20   11   13     -4.75      0.00
  -19   11   13      1.67      0.00
  -18   11   13      2.49      0.00
  -17   11   13      3.65      0.00
  -16   11   13      1.92      0.00
  -15   11   13     -4.49      0.00
  -14   11   13      7.50      0.00
  -13   11   13     -7.68      0.00
  -12   11   13      1.43      0.00
  -11   11   13      0.89      0.00
  -10   11   13      6.85      0.00
   -9   11   13     -8.12      0.00
   -8   11   13     11.61      0.00
   -7   11   13    -10.28      0.00
   -6   11   13      0.06      0.00
   -5   11   13    -11.80      0.00
   -4   11   13     -5.50      0.00
   -3   11   13      7.61      0.00
   -2   11   13      1.91      0.00
   -1   11   13     -8.96      0.00
    0   11   13     10.37      0.00
    1   11   13     -4.01      0.00
    2   11   13      0.71      0.00
    3   11   13    -19.79      0.00
    4   11   13      8.75      0.00
    5   11   13      8.48      0.00
    6   11   13     -2.14      0.00
    7   11   13     -3.40      0.00
    8   11   13    -10.98      0.00
    9   11   13      5.66      0.00
   10   11   13     -3.74      0.00
   11   11   13     -3.96      0.00
   12   11   13     -0.90      0.00
   13   11   13      3.96      0.00
   14   11   13    -10.50      0.00
   15   11   13     -7.51      0.00
   16   11   13      4.67      0.00
   17   11   13      3.14      0.00
   18   11   13     -1.45      0.00
  -19   12   13      0.06      0.00
  -18   12   13      2.60      0.00
  -17   12   13     -8.71      0.00
  -16   12   13      6.60      0.00
  -15   12   13     -4.76      0.00
  -14   12   13      5.74      0.00
  -13   12   13    -13.84      0.00
  -12   12   13     -9.25      0.00
  -11   12   13     -4.95      0.00
  -10   12   13     -2.95      0.00
   -9   12   13    -15.98      0.00
   -8   12   13     -3.45      0.00
   -7   12   13     11.39      0.00
   -6   12   13     -7.15      0.00
   -5   12   13    -12.47      0.00
   -4   12   13      2.86      0.00
   -3   12   13     10.74      0.00
   -2   12   13      2.94      0.00
   -1   12   13     -4.86      0.00
    0   12   13     -3.59      0.00
    1   12   13      3.82      0.00
    2   12   13     15.66      0.00
    3   12   13    -13.72      0.00
    4   12   13     16.38      0.00
    5   12   13      7.42      0.00
    6   12   13      6.79      0.00
    7   12   13      4.85      0.00
    8   12   13      1.27      0.00
    9   12   13     10.13      0.00
   10   12   13      8.21      0.00
   11   12   13      5.73      0.00
   12   12   13     -6.54      0.00
   13   12   13      9.08      0.00
   14   12   13      0.45      0.00
   15   12   13      1.00      0.00
   16   12   13      4.78      0.00
   17   12   13      0.27      0.00
  -17   13   13     -1.70      0.00
  -16   13   13      0.72      0.00
  -15   13   13     -0.06      0.00
  -14   13   13      5.28      0.00
  -13   13   13    -11.73      0.00
  -12   13   13      0.92      0.00
  -11   13   13      3.32      0.00
  -10   13   13      7.98      0.00
   -9   13   13     -9.53      0.00
   -8   13   13      8.96      0.00
   -7   13   13      1.68      0.00
   -6   13   13      7.05      0.00
   -5   13   13     -4.23      0.00
   -4   13   13     -6.50      0.00
   -3   13   13     20.44      0.00
   -2   13   13     13.79      0.00
   -1   13   13     -3.64      0.00
    0   13   13      7.26      0.00
    1   13   13     -4.75      0.00
    2   13   13      3.00      0.00
    3   13   13    -10.84      0.00
    4   13   13      2.06      0.00
    5   13   13      7.26      0.00
    6   13   13      3.36      0.00
    7   13   13      2.57      0.00
    8   13   13    -11.87      0.00
    9   13   13      4.11      0.00
   10   13   13      5.02      0.00
   11   13   13      4.00      0.00
   12   13   13     -5.89      0.00
   13   13   13      1.83      0.00
   14   13   13     -8.55      0.00
   15   13   13     -1.49      0.00
   16   13   13     -6.70      0.00
  -16   14   13      8.62      0.00
  -15   14   13     -4.42      0.00
  -14   14   13      4.46      0.00
  -13   14   13     -0.81      0.00
  -12   14   13      3.74      0.00
  -11   14   13    -10.14      0.00
  -10   14   13     -0.74      0.00
   -9   14   13     -3.64      0.00
   -8   14   13      6.50      0.00
   -7   14   13     -7.64      0.00
   -6   14   13     -5.70      0.00
   -5   14   13     -4.51      0.00
   -4   14   13      4.79      0.00
   -3   14   13     -6.57      0.00
   -2   14   13     -5.51      0.00
   -1   14   13      0.67      0.00
    0   14   13      0.65      0.00
    1   14   13     -6.66      0.00
    2   14   13      0.09      0.00
    3   14   13     -5.50      0.00
    4   14   13      2.01      0.00
    5   14   13     -3.48      0.00
    6   14   13    -11.13      0.00
    7   14   13     10.30      0.00
    8   14   13     -6.61      0.00
    9   14   13      1.92      0.00
   10   14   13     -3.70      0.00
   11   14   13      6.26      0.00
   12   14   13     -3.79      0.00
   13   14   13      3.81      0.00
   14   14   13      1.45      0.00
   15   14   13      3.21      0.00
  -14   15   13      1.82      0.00
  -13   15   13     -2.81      0.00
  -12   15   13      1.04      0.00
  -11   15   13     -5.37      0.00
  -10   15   13      1.58      0.00
   -9   15   13      5.11      0.00
   -8   15   13     10.01      0.00
   -7   15   13     -4.31      0.00
   -6   15   13      2.08      0.00
   -5   15   13      6.08      0.00
   -4   15   13     -6.41      0.00
   -3   15   13     12.81      0.00
   -2   15   13      7.35      0.00
   -1   15   13      2.89      0.00
    0   15   13      1.17      0.00
    1   15   13     -5.38      0.00
    2   15   13     -1.53      0.00
    3   15   13     -4.31      0.00
    4   15   13     -0.14      0.00
    5   15   13      8.37      0.00
    6   15   13      2.19      0.00
    7   15   13      2.17      0.00
    8   15   13     -7.96      0.00
    9   15   13      7.35      0.00
   10   15   13      5.55      0.00
   11   15   13      2.45      0.00
   12   15   13     -2.53      0.00
   13   15   13     -2.93      0.00
  -12   16   13     -0.82      0.00
  -11   16   13      1.78      0.00
  -10   16   13     -6.86      0.00
   -9   16   13     -0.98      0.00
   -8   16   13      1.46      0.00
   -7   16   13      0.61      0.00
   -6   16   13     -0.77      0.00
   -5   16   13     -0.50      0.00
   -4   16   13      3.79      0.00
   -3   16   13      3.06      0.00
   -2   16   13     -1.07      0.00
   -1   16   13      0.67      0.00
    0   16   13      3.40      0.00
    1   16   13      1.60      0.00
    2   16   13      5.70      0.00
    3   16   13     -9.52      0.00
    4   16   13      1.94      0.00
    5   16   13     -1.98      0.00
    6   16   13     -3.60      0.00
    7   16   13      0.81      0.00
    8   16   13     -2.03      0.00
    9   16   13      2.34      0.00
   10   16   13     -0.44      0.00
   11   16   13      2.55      0.00
   -9   17   13      7.84      0.00
   -8   17   13      6.85      0.00
   -7   17   13     -2.04      0.00
   -6   17   13     -3.75      0.00
   -5   17   13      2.92      0.00
   -4   17   13     -6.61      0.00
   -3   17   13      8.57      0.00
   -2   17   13     -4.35      0.00
   -1   17   13      6.46      0.00
    0   17   13     -3.17      0.00
    1   17   13     -3.04      0.00
    2   17   13     -8.99      0.00
    3   17   13      1.15      0.00
    4   17   13      5.01      0.00
    5   17   13      3.65      0.00
    6   17   13     -3.58      0.00
    7   17   13     -1.25      0.00
    8   17   13      2.11      0.00
   -4   18   13      5.00      0.00
   -3   18   13      1.63      0.00
   -2   18   13     -3.59      0.00
   -1   18   13     -1.76      0.00
    0   18   13      2.14      0.00
    1   18   13      3.51      0.00
    2   18   13      0.19      0.00
    3   18   13     -5.90      0.00
  -24    0   14     15.35      0.00
  -20    0   14     -4.69      0.00
  -18    0   14     -1.84      0.00
  -16    0   14     -5.18      0.00
  -14    0   14    -23.24      0.00
  -12    0   14     33.77      0.00
  -10    0   14     22.96      0.00
   -8    0   14    -25.31      0.00
   -6    0   14     12.17      0.00
   -4    0   14     23.89      0.00
   -2    0   14    -19.87      0.00
    0    0   14      7.51      0.00
    2    0   14     80.00      0.00
    4    0   14     20.79      0.00
    6    0   14     26.50      0.00
    8    0   14     -2.87      0.00
   10    0   14      7.24      0.00
   12    0   14    -14.89      0.00
   14    0   14     -2.91      0.00
   16    0   14     -1.77      0.00
   18    0   14      6.40      0.00
   20    0   14      4.99      0.00
   22    0   14      1.22      0.00
  -24    1   14      2.75      0.00
  -23    1   14     -1.20      0.00
  -22    1   14      7.91      0.00
  -21    1   14      3.33      0.00
  -20    1   14     -0.68      0.00
  -19    1   14     -3.22      0.00
  -18    1   14     -0.98      0.00
  -17    1   14     15.91      0.00
  -16    1   14     -8.93      0.00
  -15    1   14     11.14      0.00
  -14    1   14      1.02      0.00
  -13    1   14     10.16      0.00
  -12    1   14     -0.10      0.00
  -11    1   14    -39.11      0.00
  -10    1   14     11.30      0.00
   -9    1   14      0.60      0.00
   -8    1   14      5.35      0.00
   -7    1   14    -28.01      0.00
   -6    1   14     11.90      0.00
   -5    1   14     12.22      0.00
   -4    1   14     -1.39      0.00
   -3    1   14    -19.48      0.00
   -2    1   14     -1.43      0.00
   -1    1   14     13.46      0.00
    0    1   14     -5.41      0.00
    1    1   14    -27.33      0.00
    2    1   14      8.78      0.00
    3    1   14    -11.72      0.00
    4    1   14      7.01      0.00
    5    1   14    -38.17      0.00
    6    1   14      9.02      0.00
    7    1   14     -9.16      0.00
    8    1   14     -0.46      0.00
    9    1   14      1.26      0.00
   10    1   14     -8.86      0.00
   11    1   14    -33.19      0.00
   12    1   14    -15.05      0.00
   13    1   14      2.07      0.00
   14    1   14    -10.81      0.00
   15    1   14     -1.80      0.00
   16    1   14     -3.76      0.00
   17    1   14    -12.71      0.00
   18    1   14     -9.25      0.00
   19    1   14    -17.27      0.00
   20    1   14     -0.40      0.00
   21    1   14      5.04      0.00
   22    1   14     -2.28      0.00
   23    1   14     -2.92      0.00
  -24    2   14      4.41      0.00
  -23    2   14     -3.61      0.00
  -22    2   14    -13.41      0.00
  -21    2   14     -0.81      0.00
  -20    2   14     -8.85      0.00
  -19    2   14    -13.83      0.00
  -18    2   14      3.64      0.00
  -17    2   14     -1.58      0.00
  -16    2   14     -9.04      0.00
  -15    2   14     -3.18      0.00
  -14    2   14    -17.36      0.00
  -13    2   14     14.33      0.00
  -12    2   14     26.03      0.00
  -11    2   14     -6.35      0.00
  -10    2   14     25.84      0.00
   -9    2   14     13.56      0.00
   -8    2   14    -21.59      0.00
   -7    2   14     -6.71      0.00
   -6    2   14     23.36      0.00
   -5    2   14     20.68      0.00
   -4    2   14     45.51      0.00
   -3    2   14     12.03      0.00
   -2    2   14    -28.44      0.00
   -1    2   14     48.18      0.00
    0    2   14      7.61      0.00
    1    2   14     12.55      0.00
    2    2   14     25.42      0.00
    3    2   14     23.68      0.00
    4    2   14     29.48      0.00
    5    2   14      3.55      0.00
    6    2   14     -3.62      0.00
    7    2   14     18.47      0.00
    8    2   14     38.70      0.00
    9    2   14      7.02      0.00
   10    2   14      8.26      0.00
   11    2   14      9.94      0.00
   12    2   14     17.33      0.00
   13    2   14      0.17      0.00
   14    2   14     -1.26      0.00
   15    2   14     -5.03      0.00
   16    2   14     18.78      0.00
   17    2   14      6.95      0.00
   18    2   14      9.18      0.00
   19    2   14      5.61      0.00
   20    2   14      7.66      0.00
   21    2   14      1.95      0.00
   22    2   14     -3.94      0.00
   23    2   14      2.46      0.00
  -24    3   14      2.63      0.00
  -23    3   14      6.69      0.00
  -22    3   14     11.72      0.00
  -21    3   14     10.67      0.00
  -20    3   14     -3.76      0.00
  -19    3   14      2.18      0.00
  -18    3   14     -5.85      0.00
  -17    3   14      4.27      0.00
  -16    3   14    -13.81      0.00
  -15    3   14     15.44      0.00
  -14    3   14    -13.32      0.00
  -13    3   14      1.15      0.00
  -12    3   14     -7.81      0.00
  -11    3   14      5.46      0.00
  -10    3   14     -5.79      0.00
   -9    3   14      3.68      0.00
   -8    3   14     -4.98      0.00
   -7    3   14     29.94      0.00
   -6    3   14     10.37      0.00
   -5    3   14    -12.14      0.00
   -4    3   14      8.51      0.00
   -3    3   14     14.99      0.00
   -2    3   14      8.76      0.00
   -1    3   14    -28.45      0.00
    0    3   14     -9.49      0.00
    1    3   14     13.08      0.00
    2    3   14     -4.89      0.00
    3    3   14    -38.23      0.00
    4    3   14    -15.68      0.00
    5    3   14    -20.30      0.00
    6    3   14    -13.66      0.00
    7    3   14    -22.70      0.00
    8    3   14     -6.45      0.00
    9    3   14      6.26      0.00
   10    3   14    -17.74      0.00
   11    3   14    -13.97      0.00
   12    3   14    -19.15      0.00
   13    3   14     15.65      0.00
   14    3   14     -7.36      0.00
   15    3   14      4.43      0.00
   16    3   14      4.21      0.00
   17    3   14    -16.75      0.00
   18    3   14     -3.17      0.00
   19    3   14    -11.86      0.00
   20    3   14      3.34      0.00
   21    3   14      6.36      0.00
   22    3   14     -0.45      0.00
   23    3   14      4.93      0.00
  -24    4   14      1.99      0.00
  -23    4   14      2.52      0.00
  -22    4   14    -14.57      0.00
  -21    4   14     -2.79      0.00
  -20    4   14     -2.74      0.00
  -19    4   14      0.95      0.00
  -18    4   14     12.16      0.00
  -17    4   14     -5.30      0.00
  -16    4   14      3.33      0.00
  -15    4   14      6.66      0.00
  -14    4   14     -5.53      0.00
  -13    4   14     -0.83      0.00
  -12    4   14     26.71      0.00
  -11    4   14     -6.43      0.00
  -10    4   14      8.33      0.00
   -9    4   14      5.23      0.00
   -8    4   14    -36.33      0.00
   -7    4   14      0.93      0.00
   -6    4   14     -8.86      0.00
   -5    4   14      9.93      0.00
   -4    4   14     28.75      0.00
   -3    4   14      9.89      0.00
   -2    4   14    -36.42      0.00
   -1    4   14     31.97      0.00
    0    4   14     -6.56      0.00
    1    4   14      0.47      0.00
    2    4   14     -2.99      0.00
    3    4   14     -2.90      0.00
    4    4   14     -3.84      0.00
    5    4   14    -10.33      0.00
    6    4   14    -45.36      0.00
    7    4   14     -3.73      0.00
    8    4   14     10.88      0.00
    9    4   14    -14.13      0.00
   10    4   14    -14.18      0.00
   11    4   14      6.07      0.00
   12    4   14     -8.05      0.00
   13    4   14      1.88      0.00
   14    4   14    -18.79      0.00
   15    4   14      4.80      0.00
   16    4   14      6.93      0.00
   17    4   14      8.75      0.00
   18    4   14     10.43      0.00
   19    4   14      3.02      0.00
   20    4   14      8.33      0.00
   21    4   14     -3.25      0.00
   22    4   14     -2.31      0.00
  -23    5   14      0.69      0.00
  -22    5   14      6.66      0.00
  -21    5   14      3.30      0.00
  -20    5   14     -2.37      0.00
  -19    5   14     -4.46      0.00
  -18    5   14     -2.58      0.00
  -17    5   14      2.38      0.00
  -16    5   14     -4.00      0.00
  -15    5   14      4.32      0.00
  -14    5   14      1.55      0.00
  -13    5   14      2.36      0.00
  -12    5   14      4.88      0.00
  -11    5   14     -9.13      0.00
  -10    5   14      4.94      0.00
   -9    5   14     11.01      0.00
   -8    5   14    -14.21      0.00
   -7    5   14      4.13      0.00
   -6    5   14      7.25      0.00
   -5    5   14      7.43      0.00
   -4    5   14      4.79      0.00
   -3    5   14    -19.44      0.00
   -2    5   14     15.37      0.00
   -1    5   14      7.22      0.00
    0    5   14     -8.66      0.00
    1    5   14      7.83      0.00
    2    5   14     10.89      0.00
    3    5   14      1.61      0.00
    4    5   14     -1.04      0.00
    5    5   14    -21.12      0.00
    6    5   14     13.58      0.00
    7    5   14     -3.92      0.00
    8    5   14     24.72      0.00
    9    5   14    -13.11      0.00
   10    5   14     12.91      0.00
   11    5   14    -16.34      0.00
   12    5   14     -2.74      0.00
   13    5   14     -1.44      0.00
   14    5   14      0.65      0.00
   15    5   14     -1.37      0.00
   16    5   14     -0.59      0.00
   17    5   14     -9.31      0.00
   18    5   14     -8.68      0.00
   19    5   14     -7.62      0.00
   20    5   14      2.38      0.00
   21    5   14      9.47      0.00
   22    5   14      0.30      0.00
  -23    6   14      4.36      0.00
  -22    6   14     -9.83      0.00
  -21    6   14      3.68      0.00
  -20    6   14     -5.16      0.00
  -19    6   14     -0.16      0.00
  -18    6   14      2.24      0.00
  -17    6   14      6.52      0.00
  -16    6   14     -5.51      0.00
  -15    6   14     10.15      0.00
  -14    6   14     -6.13      0.00
  -13    6   14     11.04      0.00
  -12    6   14     23.27      0.00
  -11    6   14     -0.85      0.00
  -10    6   14     14.30      0.00
   -9    6   14      9.54      0.00
   -8    6   14    -32.71      0.00
   -7    6   14      1.30      0.00
   -6    6   14     -5.05      0.00
   -5    6   14     -8.94      0.00
   -4    6   14     14.21      0.00
   -3    6   14    -10.84      0.00
   -2    6   14      6.63      0.00
   -1    6   14      4.66      0.00
    0    6   14    -10.85      0.00
    1    6   14     -7.48      0.00
    2    6   14     44.11      0.00
    3    6   14     -9.97      0.00
    4    6   14    -30.09      0.00
    5    6   14      5.72      0.00
    6    6   14    -16.52      0.00
    7    6   14     -4.57      0.00
    8    6   14    -11.34      0.00
    9    6   14     -5.08      0.00
   10    6   14     28.57      0.00
   11    6   14      1.06      0.00
   12    6   14     -6.17      0.00
   13    6   14      9.37      0.00
   14    6   14     16.45      0.00
   15    6   14     -5.41      0.00
   16    6   14     -1.64      0.00
   17    6   14      8.92      0.00
   18    6   14     17.22      0.00
   19    6   14     -6.25      0.00
   20    6   14     -6.12      0.00
   21    6   14     -4.08      0.00
  -22    7   14      3.54      0.00
  -21    7   14      3.85      0.00
  -20    7   14      3.78      0.00
  -19    7   14      0.57      0.00
  -18    7   14      3.75      0.00
  -17    7   14      0.12      0.00
  -16    7   14     -6.33      0.00
  -15    7   14     -1.69      0.00
  -14    7   14     -0.48      0.00
  -13    7   14      2.11      0.00
  -12    7   14     -4.57      0.00
  -11    7   14     -4.83      0.00
  -10    7   14     10.10      0.00
   -9    7   14     17.66      0.00
   -8    7   14    -16.89      0.00
   -7    7   14     11.24      0.00
   -6    7   14     10.69      0.00
   -5    7   14     14.65      0.00
   -4    7   14     -4.44      0.00
   -3    7   14    -27.44      0.00
   -2    7   14     -0.60      0.00
   -1    7   14      5.31      0.00
    0    7   14    -28.16      0.00
    1    7   14     -4.43      0.00
    2    7   14     10.45      0.00
    3    7   14      5.42      0.00
    4    7   14     -3.46      0.00
    5    7   14    -14.47      0.00
    6    7   14     14.91      0.00
    7    7   14     25.10      0.00
    8    7   14     13.90      0.00
    9    7   14     -2.39      0.00
   10    7   14      4.20      0.00
   11    7   14      2.01      0.00
   12    7   14     -4.23      0.00
   13    7   14     -8.76      0.00
   14    7   14      5.08      0.00
   15    7   14      3.69      0.00
   16    7   14      9.69      0.00
   17    7   14     -2.95      0.00
   18    7   14     -3.96      0.00
   19    7   14      5.09      0.00
   20    7   14      6.77      0.00
   21    7   14      6.18      0.00
  -22    8   14     -5.17      0.00
  -21    8   14      0.07      0.00
  -20    8   14     -5.93      0.00
  -19    8   14     -4.97      0.00
  -18    8   14      7.03      0.00
  -17    8   14     -2.40      0.00
  -16    8   14     -9.69      0.00
  -15    8   14     -4.21      0.00
  -14    8   14     -2.38      0.00
  -13    8   14      3.01      0.00
  -12    8   14      0.77      0.00
  -11    8   14    -14.86      0.00
  -10    8   14      7.26      0.00
   -9    8   14      5.36      0.00
   -8    8   14    -39.02      0.00
   -7    8   14    -12.11      0.00
   -6    8   14     -2.46      0.00
   -5    8   14     -2.29      0.00
   -4    8   14     22.68      0.00
   -3    8   14    -14.09      0.00
   -2    8   14     21.94      0.00
   -1    8   14     16.73      0.00
    0    8   14      8.96      0.00
    1    8   14    -13.95      0.00
    2    8   14     43.41      0.00
    3    8   14    -11.72      0.00
    4    8   14      3.82      0.00
    5    8   14    -10.33      0.00
    6    8   14     -9.51      0.00
    7    8   14    -10.41      0.00
    8    8   14      6.62      0.00
    9    8   14    -11.15      0.00
   10    8   14     17.21      0.00
   11    8   14      9.76      0.00
   12    8   14     -5.84      0.00
   13    8   14      4.69      0.00
   14    8   14      0.48      0.00
   15    8   14     -3.35      0.00
   16    8   14     -6.81      0.00
   17    8   14      2.22      0.00
   18    8   14     -1.51      0.00
   19    8   14      7.86      0.00
   20    8   14     -9.40      0.00
  -21    9   14      3.97      0.00
  -20    9   14      3.87      0.00
  -19    9   14      6.03      0.00
  -18    9   14      3.33      0.00
  -17    9   14     -3.65      0.00
  -16    9   14      5.14      0.00
  -15    9   14      3.04      0.00
  -14    9   14     -7.53      0.00
  -13    9   14    -10.67      0.00
  -12    9   14     10.18      0.00
  -11    9   14     10.00      0.00
  -10    9   14      4.86      0.00
   -9    9   14     -5.47      0.00
   -8    9   14      5.79      0.00
   -7    9   14     18.31      0.00
   -6    9   14      2.68      0.00
   -5    9   14    -22.08      0.00
   -4    9   14     13.31      0.00
   -3    9   14    -18.30      0.00
   -2    9   14    -10.13      0.00
   -1    9   14    -17.83      0.00
    0    9   14    -10.70      0.00
    1    9   14     13.19      0.00
    2    9   14     -0.12      0.00
    3    9   14    -15.15      0.00
    4    9   14      0.54      0.00
    5    9   14    -13.26      0.00
    6    9   14     -6.59      0.00
    7    9   14      2.54      0.00
    8    9   14      5.76      0.00
    9    9   14    -14.22      0.00
   10    9   14    -16.92      0.00
   11    9   14    -15.34      0.00
   12    9   14     -5.40      0.00
   13    9   14    -16.75      0.00
   14    9   14      0.25      0.00
   15    9   14     -5.59      0.00
   16    9   14      6.56      0.00
   17    9   14     -3.72      0.00
   18    9   14     -6.52      0.00
   19    9   14      5.88      0.00
   20    9   14     -4.32      0.00
  -20   10   14     -1.72      0.00
  -19   10   14      4.04      0.00
  -18   10   14      5.43      0.00
  -17   10   14     -5.79      0.00
  -16   10   14      2.66      0.00
  -15   10   14     -0.14      0.00
  -14   10   14     -3.93      0.00
  -13   10   14     -6.87      0.00
  -12   10   14      5.19      0.00
  -11   10   14     -6.41      0.00
  -10   10   14     -7.06      0.00
   -9   10   14      3.42      0.00
   -8   10   14    -17.64      0.00
   -7   10   14      1.68      0.00
   -6   10   14    -10.90      0.00
   -5   10   14     -0.87      0.00
   -4   10   14     33.70      0.00
   -3   10   14     -7.31      0.00
   -2   10   14     12.41      0.00
   -1   10   14     12.10      0.00
    0   10   14      7.43      0.00
    1   10   14     -9.45      0.00
    2   10   14     19.36      0.00
    3   10   14     -0.84      0.00
    4   10   14      9.85      0.00
    5   10   14      0.16      0.00
    6   10   14    -11.09      0.00
    7   10   14      4.15      0.00
    8   10   14      9.06      0.00
    9   10   14     -9.91      0.00
   10   10   14     12.05      0.00
   11   10   14     15.22      0.00
   12   10   14     -2.66      0.00
   13   10   14     -4.16      0.00
   14   10   14     -0.09      0.00
   15   10   14     -0.90      0.00
   16   10   14      0.80      0.00
   17   10   14     -6.21      0.00
   18   10   14     -4.37      0.00
   19   10   14     10.34      0.00
  -19   11   14      3.40      0.00
  -18   11   14     -0.98      0.00
  -17   11   14     -3.96      0.00
  -16   11   14     -1.25      0.00
  -15   11   14      4.00      0.00
  -14   11   14     -2.85      0.00
  -13   11   14     -6.77      0.00
  -12   11   14      7.84      0.00
  -11   11   14     11.08      0.00
  -10   11   14      3.14      0.00
   -9   11   14      3.99      0.00
   -8   11   14     -3.10      0.00
   -7   11   14     16.56      0.00
   -6   11   14     -3.61      0.00
   -5   11   14     -1.30      0.00
   -4   11   14      9.24      0.00
   -3   11   14    -15.62      0.00
   -2   11   14     -3.78      0.00
   -1   11   14      1.76      0.00
    0   11   14      1.53      0.00
    1   11   14      9.59      0.00
    2   11   14      3.05      0.00
    3   11   14     -7.73      0.00
    4   11   14     -4.94      0.00
    5   11   14     -9.42      0.00
    6   11   14    -10.11      0.00
    7   11   14     11.97      0.00
    8   11   14     -1.62      0.00
    9   11   14     -3.41      0.00
   10   11   14    -13.30      0.00
   11   11   14     -6.33      0.00
   12   11   14     -9.03      0.00
   13   11   14      0.45      0.00
   14   11   14     -1.43      0.00
   15   11   14      4.26      0.00
   16   11   14     -0.90      0.00
   17   11   14      8.62      0.00
   18   11   14     -4.23      0.00
  -18   12   14      2.12      0.00
  -17   12   14     -0.67      0.00
  -16   12   14      5.54      0.00
  -15   12   14     -3.47      0.00
  -14   12   14     -1.44      0.00
  -13   12   14    -12.91      0.00
  -12   12   14     12.20      0.00
  -11   12   14     -3.86      0.00
  -10   12   14      5.96      0.00
   -9   12   14     -4.49      0.00
   -8   12   14     -1.22      0.00
   -7   12   14     13.31      0.00
   -6   12   14     -8.66      0.00
   -5   12   14    -14.09      0.00
   -4   12   14     14.85      0.00
   -3   12   14      2.02      0.00
   -2   12   14      3.62      0.00
   -1   12   14     -7.87      0.00
    0   12   14    -10.11      0.00
    1   12   14      0.02      0.00
    2   12   14     11.79      0.00
    3   12   14    -12.12      0.00
    4   12   14     -1.28      0.00
    5   12   14     10.61      0.00
    6   12   14    -11.67      0.00
    7   12   14     -5.73      0.00
    8   12   14     -8.85      0.00
    9   12   14      2.23      0.00
   10   12   14      9.48      0.00
   11   12   14      2.78      0.00
   12   12   14     -6.97      0.00
   13   12   14      7.51      0.00
   14   12   14      2.46      0.00
   15   12   14     -5.16      0.00
   16   12   14     -0.37      0.00
   17   12   14      4.76      0.00
  -17   13   14      3.70      0.00
  -16   13   14     -6.26      0.00
  -15   13   14      4.15      0.00
  -14   13   14     -0.46      0.00
  -13   13   14      2.19      0.00
  -12   13   14     -4.53      0.00
  -11   13   14      4.53      0.00
  -10   13   14     -0.09      0.00
   -9   13   14      0.88      0.00
   -8   13   14    -12.85      0.00
   -7   13   14     10.36      0.00
   -6   13   14      2.54      0.00
   -5   13   14      1.89      0.00
   -4   13   14     -0.99      0.00
   -3   13   14     -5.85      0.00
   -2   13   14     -3.21      0.00
   -1   13   14      2.91      0.00
    0   13   14     -6.64      0.00
    1   13   14      7.91      0.00
    2   13   14      2.82      0.00
    3   13   14    -13.05      0.00
    4   13   14     -9.72      0.00
    5   13   14     -8.57      0.00
    6   13   14     -2.13      0.00
    7   13   14     11.98      0.00
    8   13   14     -2.72      0.00
    9   13   14     -5.61      0.00
   10   13   14     -2.28      0.00
   11   13   14     -8.16      0.00
   12   13   14     -2.03      0.00
   13   13   14     -4.93      0.00
   14   13   14      4.50      0.00
   15   13   14     -0.77      0.00
  -15   14   14      1.28      0.00
  -14   14   14     -0.88      0.00
  -13   14   14     -1.28      0.00
  -12   14   14     -4.37      0.00
  -11   14   14      5.33      0.00
  -10   14   14      9.06      0.00
   -9   14   14      2.84      0.00
   -8   14   14     -9.57      0.00
   -7   14   14     10.20      0.00
   -6   14   14     -3.25      0.00
   -5   14   14    -11.08      0.00
   -4   14   14      0.80      0.00
   -3   14   14      3.59      0.00
   -2   14   14      0.28      0.00
   -1   14   14     -0.38      0.00
    0   14   14    -12.44      0.00
    1   14   14      4.51      0.00
    2   14   14      4.97      0.00
    3   14   14     -3.96      0.00
    4   14   14      7.75      0.00
    5   14   14     10.21      0.00
    6   14   14    -12.71      0.00
    7   14   14      1.09      0.00
    8   14   14     -6.28      0.00
    9   14   14      4.69      0.00
   10   14   14      0.12      0.00
   11   14   14      3.12      0.00
   12   14   14     -0.95      0.00
   13   14   14      3.26      0.00
   14   14   14      2.19      0.00
  -13   15   14      2.94      0.00
  -12   15   14      4.02      0.00
  -11   15   14      2.90      0.00
  -10   15   14     -6.38      0.00
   -9   15   14     -0.55      0.00
   -8   15   14      0.77      0.00
   -7   15   14      7.62      0.00
   -6   15   14     -1.55      0.00
   -5   15   14     -2.66      0.00
   -4   15   14      6.37      0.00
   -3   15   14      1.23      0.00
   -2   15   14    -11.50      0.00
   -1   15   14      0.29      0.00
    0   15   14      1.21      0.00
    1   15   14     12.31      0.00
    2   15   14     -5.55      0.00
    3   15   14    -16.17      0.00
    4   15   14      2.61      0.00
    5   15   14     -1.85      0.00
    6   15   14      3.08      0.00
    7   15   14      7.49      0.00
    8   15   14      7.79      0.00
    9   15   14     -0.18      0.00
   10   15   14     -1.12      0.00
   11   15   14     -4.51      0.00
   12   15   14      1.46      0.00
  -11   16   14      2.45      0.00
  -10   16   14     -0.03      0.00
   -9   16   14     -2.19      0.00
   -8   16   14     -1.88      0.00
   -7   16   14     -1.70      0.00
   -6   16   14     -2.81      0.00
   -5   16   14    -11.96      0.00
   -4   16   14      7.08      0.00
   -3   16   14     -4.67      0.00
   -2   16   14      0.76      0.00
   -1   16   14     -0.25      0.00
    0   16   14     -2.86      0.00
    1   16   14     -1.48      0.00
    2   16   14      5.90      0.00
    3   16   14     -0.80      0.00
    4   16   14     14.86      0.00
    5   16   14     -0.96      0.00
    6   16   14     -0.65      0.00
    7   16   14      4.39      0.00
    8   16   14      6.06      0.00
    9   16   14     -0.30      0.00
   10   16   14      3.98      0.00
   -8   17   14      2.87      0.00
   -7   17   14      0.25      0.00
   -6   17   14      4.67      0.00
   -5   17   14     -4.39      0.00
   -4   17   14      8.69      0.00
   -3   17   14     -5.34      0.00
   -2   17   14      1.36      0.00
   -1   17   14      1.06      0.00
    0   17   14      7.98      0.00
    1   17   14      6.67      0.00
    2   17   14     -1.41      0.00
    3   17   14     -9.38      0.00
    4   17   14      1.02      0.00
    5   17   14     -2.89      0.00
    6   17   14      0.73      0.00
  -23    0   15     -4.54      0.00
  -21    0   15     -2.10      0.00
  -19    0   15     -3.21      0.00
  -17    0   15     -5.82      0.00
  -15    0   15     -5.26      0.00
  -13    0   15    -10.16      0.00
  -11    0   15     -4.45      0.00
   -9    0   15    -12.74      0.00
   -7    0   15     14.80      0.00
   -5    0   15     35.79      0.00
   -3    0   15     40.26      0.00
   -1    0   15     38.69      0.00
    1    0   15     16.92      0.00
    3    0   15     -3.93      0.00
    5    0   15    -10.88      0.00
    7    0   15     -5.25      0.00
    9    0   15     13.51      0.00
   11    0   15     21.15      0.00
   13    0   15     12.56      0.00
   15    0   15      3.41      0.00
   17    0   15     -5.85      0.00
   19    0   15      2.11      0.00
   21    0   15     -1.74      0.00
  -24    1   15      4.95      0.00
  -23    1   15     -0.27      0.00
  -21    1   15     -2.24      0.00
  -20    1   15     -0.49      0.00
  -19    1   15     -2.65      0.00
  -18    1   15      9.88      0.00
  -17    1   15      3.11      0.00
  -16    1   15      0.44      0.00
  -15    1   15      5.21      0.00
  -14    1   15      5.40      0.00
  -13    1   15      7.91      0.00
  -12    1   15      7.54      0.00
  -11    1   15      7.40      0.00
  -10    1   15      8.95      0.00
   -9    1   15     18.33      0.00
   -8    1   15     25.52      0.00
   -7    1   15      5.24      0.00
   -6    1   15     -5.89      0.00
   -5    1   15     12.67      0.00
   -4    1   15    -20.34      0.00
   -3    1   15      1.00      0.00
   -2    1   15    -19.82      0.00
   -1    1   15     29.50      0.00
    0    1   15     18.22      0.00
    1    1   15     -6.40      0.00
    2    1   15    -11.76      0.00
    3    1   15     38.10      0.00
    4    1   15     -3.05      0.00
    5    1   15    -10.69      0.00
    6    1   15    -23.66      0.00
    7    1   15     10.33      0.00
    8    1   15    -27.57      0.00
    9    1   15    -21.20      0.00
   10    1   15    -17.87      0.00
   11    1   15      8.13      0.00
   12    1   15      0.72      0.00
   13    1   15     -7.29      0.00
   14    1   15     -5.33      0.00
   15    1   15     12.12      0.00
   16    1   15     -3.21      0.00
   17    1   15     -6.08      0.00
   18    1   15      6.50      0.00
   19    1   15      1.34      0.00
   20    1   15     -3.07      0.00
   21    1   15     -1.95      0.00
   22    1   15      3.25      0.00
  -24    2   15     -5.65      0.00
  -23    2   15      0.18      0.00
  -22    2   15     -3.43      0.00
  -21    2   15      2.05      0.00
  -20    2   15     -0.36      0.00
  -19    2   15      1.07      0.00
  -18    2   15      4.23      0.00
  -17    2   15      1.04      0.00
  -16    2   15      9.65      0.00
  -15    2   15     -3.44      0.00
  -14    2   15     -7.72      0.00
  -13    2   15      1.89      0.00
  -12    2   15     -0.98      0.00
  -11    2   15    -10.61      0.00
  -10    2   15    -16.31      0.00
   -9    2   15    -11.47      0.00
   -8    2   15     -0.75      0.00
   -7    2   15     -3.81      0.00
   -6    2   15    -20.41      0.00
   -5    2   15      6.38      0.00
   -4    2   15     10.56      0.00
   -3    2   15     -8.13      0.00
   -2    2   15    -28.11      0.00
   -1    2   15     -3.62      0.00
    0    2   15     11.15      0.00
    1    2   15     -8.83      0.00
    2    2   15    -24.33      0.00
    3    2   15     -2.30      0.00
    4    2   15      9.26      0.00
    5    2   15     -2.56      0.00
    6    2   15      1.23      0.00
    7    2   15      8.43      0.00
    8    2   15     22.76      0.00
    9    2   15     10.33      0.00
   10    2   15     -0.87      0.00
   11    2   15     12.91      0.00
   12    2   15     16.44      0.00
   13    2   15      6.21      0.00
   14    2   15      5.40      0.00
   15    2   15      0.44      0.00
   16    2   15     14.54      0.00
   17    2   15      0.77      0.00
   18    2   15      9.10      0.00
   19    2   15      1.45      0.00
   20    2   15      3.63      0.00
   21    2   15      3.21      0.00
   22    2   15      0.95      0.00
  -23    3   15     -7.22      0.00
  -22    3   15     -6.05      0.00
  -21    3   15     -4.85      0.00
  -20    3   15     -2.01      0.00
  -19    3   15    -12.01      0.00
  -18    3   15     -3.01      0.00
  -17    3   15      7.44      0.00
  -16    3   15      3.55      0.00
  -15    3   15      1.91      0.00
  -14    3   15     -8.60      0.00
  -13    3   15     14.33      0.00
  -12    3   15      4.71      0.00
  -11    3   15      3.79      0.00
  -10    3   15    -14.84      0.00
   -9    3   15     31.65      0.00
   -8    3   15     11.40      0.00
   -7    3   15      6.70      0.00
   -6    3   15    -28.80      0.00
   -5    3   15     10.58      0.00
   -4    3   15    -22.98      0.00
   -3    3   15      6.26      0.00
   -2    3   15    -24.29      0.00
   -1    3   15      1.54      0.00
    0    3   15     25.76      0.00
    1    3   15    -33.71      0.00
    2    3   15    -13.92      0.00
    3    3   15      2.37      0.00
    4    3   15      5.22      0.00
    5    3   15     -9.48      0.00
    6    3   15     -8.51      0.00
    7    3   15    -16.20      0.00
    8    3   15      1.56      0.00
    9    3   15    -13.32      0.00
   10    3   15      9.48      0.00
   11    3   15     -5.86      0.00
   12    3   15      8.69      0.00
   13    3   15     -8.83      0.00
   14    3   15     -6.79      0.00
   15    3   15      0.89      0.00
   16    3   15     -9.93      0.00
   17    3   15    -13.60      0.00
   18    3   15      0.84      0.00
   19    3   15    -10.15      0.00
   20    3   15     -5.79      0.00
   21    3   15    -11.44      0.00
   22    3   15      0.36      0.00
  -23    4   15      8.57      0.00
  -22    4   15      0.10      0.00
  -21    4   15      9.03      0.00
  -20    4   15     -5.56      0.00
  -19    4   15     14.72      0.00
  -18    4   15      5.72      0.00
  -17    4   15      5.71      0.00
  -16    4   15     -9.66      0.00
  -15    4   15      9.70      0.00
  -14    4   15     -2.17      0.00
  -13    4   15      6.06      0.00
  -12    4   15    -16.58      0.00
  -11    4   15     -1.04      0.00
  -10    4   15     23.40      0.00
   -9    4   15     -5.44      0.00
   -8    4   15    -11.10      0.00
   -7    4   15     14.06      0.00
   -6    4   15     30.99      0.00
   -5    4   15     10.68      0.00
   -4    4   15    -17.98      0.00
   -3    4   15      4.64      0.00
   -2    4   15      6.63      0.00
   -1    4   15      4.20      0.00
    0    4   15    -16.30      0.00
    1    4   15      5.12      0.00
    2    4   15      8.89      0.00
    3    4   15      1.42      0.00
    4    4   15     -3.75      0.00
    5    4   15      1.58      0.00
    6    4   15      8.32      0.00
    7    4   15      4.86      0.00
    8    4   15     15.00      0.00
    9    4   15      4.55      0.00
   10    4   15    -10.02      0.00
   11    4   15      2.85      0.00
   12    4   15     20.69      0.00
   13    4   15      7.15      0.00
   14    4   15     -6.37      0.00
   15    4   15      3.80      0.00
   16    4   15     11.31      0.00
   17    4   15      9.08      0.00
   18    4   15     -8.97      0.00
   19    4   15      4.14      0.00
   20    4   15      6.10      0.00
   21    4   15     -2.06      0.00
   22    4   15     -4.91      0.00
  -23    5   15     -3.57      0.00
  -22    5   15      5.22      0.00
  -21    5   15     -1.05      0.00
  -20    5   15      0.12      0.00
  -19    5   15    -10.18      0.00
  -18    5   15     12.03      0.00
  -17    5   15      7.48      0.00
  -16    5   15     -2.22      0.00
  -15    5   15      2.42      0.00
  -14    5   15     -6.74      0.00
  -13    5   15     -0.57      0.00
  -12    5   15    -15.11      0.00
  -11    5   15    -10.19      0.00
  -10    5   15    -16.61      0.00
   -9    5   15      3.14      0.00
   -8    5   15      1.82      0.00
   -7    5   15     -3.06      0.00
   -6    5   15     -8.48      0.00
   -5    5   15    -11.22      0.00
   -4    5   15    -10.70      0.00
   -3    5   15     30.91      0.00
   -2    5   15     -2.68      0.00
   -1    5   15     -7.01      0.00
    0    5   15      9.63      0.00
    1    5   15      3.33      0.00
    2    5   15    -21.49      0.00
    3    5   15      3.13      0.00
    4    5   15    -13.58      0.00
    5    5   15     43.13      0.00
    6    5   15     -6.07      0.00
    7    5   15    -12.13      0.00
    8    5   15      8.00      0.00
    9    5   15     26.47      0.00
   10    5   15     12.01      0.00
   11    5   15     -5.33      0.00
   12    5   15     11.81      0.00
   13    5   15      5.26      0.00
   14    5   15     -6.15      0.00
   15    5   15     -4.24      0.00
   16    5   15      3.47      0.00
   17    5   15      5.84      0.00
   18    5   15     -3.89      0.00
   19    5   15     -2.47      0.00
   20    5   15     -3.84      0.00
   21    5   15      0.91      0.00
  -22    6   15     -1.63      0.00
  -21    6   15     -4.98      0.00
  -20    6   15     -2.64      0.00
  -19    6   15     -0.20      0.00
  -18    6   15     12.27      0.00
  -17    6   15     -9.02      0.00
  -16    6   15     -4.56      0.00
  -15    6   15      5.85      0.00
  -14    6   15     -3.59      0.00
  -13    6   15      5.38      0.00
  -12    6   15    -16.57      0.00
  -11    6   15     -0.36      0.00
  -10    6   15     13.24      0.00
   -9    6   15    -10.89      0.00
   -8    6   15     -5.85      0.00
   -7    6   15      3.10      0.00
   -6    6   15     26.09      0.00
   -5    6   15     -7.90      0.00
   -4    6   15      5.49      0.00
   -3    6   15     -1.70      0.00
   -2    6   15     17.58      0.00
   -1    6   15      8.02      0.00
    0    6   15     18.71      0.00
    1    6   15     14.80      0.00
    2    6   15     26.31      0.00
    3    6   15      3.61      0.00
    4    6   15     11.88      0.00
    5    6   15      9.59      0.00
    6    6   15      5.47      0.00
    7    6   15      5.41      0.00
    8    6   15      6.24      0.00
    9    6   15      6.46      0.00
   10    6   15    -20.13      0.00
   11    6   15      4.50      0.00
   12    6   15     -1.14      0.00
   13    6   15      9.58      0.00
   14    6   15    -17.06      0.00
   15    6   15      0.34      0.00
   16    6   15     -2.89      0.00
   17    6   15      6.09      0.00
   18    6   15     -7.39      0.00
   19    6   15      3.65      0.00
   20    6   15      3.73      0.00
   21    6   15     -1.57      0.00
  -22    7   15      1.87      0.00
  -21    7   15      0.19      0.00
  -20    7   15      5.04      0.00
  -19    7   15     -8.03      0.00
  -18    7   15     13.79      0.00
  -16    7   15      6.31      0.00
  -15    7   15      7.57      0.00
  -14    7   15      4.11      0.00
  -13    7   15     -2.60      0.00
  -12    7   15    -14.60      0.00
  -11    7   15     -3.96      0.00
  -10    7   15     -3.07      0.00
   -9    7   15      5.53      0.00
   -8    7   15     -9.43      0.00
   -7    7   15     -9.16      0.00
   -6    7   15     11.13      0.00
   -5    7   15    -12.55      0.00
   -4    7   15    -23.46      0.00
   -3    7   15      7.43      0.00
   -2    7   15      6.81      0.00
   -1    7   15      2.93      0.00
    0    7   15    -29.20      0.00
    1    7   15    -21.94      0.00
    2    7   15    -22.96      0.00
    3    7   15     20.15      0.00
    4    7   15    -41.38      0.00
    5    7   15      5.85      0.00
    6    7   15     -2.97      0.00
    7    7   15     -2.98      0.00
    8    7   15    -11.41      0.00
    9    7   15     -2.18      0.00
   10    7   15      7.54      0.00
   11    7   15     14.75      0.00
   12    7   15    -11.54      0.00
   13    7   15     -4.20      0.00
   14    7   15     -3.49      0.00
   15    7   15      8.54      0.00
   16    7   15     -1.13      0.00
   17    7   15      2.71      0.00
   18    7   15     -1.39      0.00
   19    7   15      1.14      0.00
   20    7   15     -4.33      0.00
  -21    8   15     -3.88      0.00
  -19    8   15    -11.38      0.00
  -18    8   15      9.91      0.00
  -17    8   15    -10.34      0.00
  -16    8   15      5.52      0.00
  -15    8   15     -7.55      0.00
  -14    8   15     -2.49      0.00
  -13    8   15     14.98      0.00
  -12    8   15      1.81      0.00
  -11    8   15    -11.18      0.00
  -10    8   15     -0.54      0.00
   -9    8   15      5.74      0.00
   -8    8   15     -1.44      0.00
   -7    8   15     -3.53      0.00
   -6    8   15     -1.76      0.00
   -5    8   15      5.35      0.00
   -4    8   15      5.14      0.00
   -3    8   15     -7.97      0.00
   -2    8   15    -15.51      0.00
   -1    8   15     22.65      0.00
    0    8   15     -0.57      0.00
    1    8   15     13.49      0.00
    2    8   15    -19.26      0.00
    3    8   15     16.16      0.00
    4    8   15    -15.59      0.00
    5    8   15     12.65      0.00
    6    8   15    -15.48      0.00
    7    8   15      7.15      0.00
    8    8   15      5.80      0.00
    9    8   15     -8.13      0.00
   10    8   15    -11.64      0.00
   11    8   15     -2.26      0.00
   12    8   15     -6.52      0.00
   13    8   15      2.75      0.00
   14    8   15    -17.22      0.00
   15    8   15     -1.79      0.00
   16    8   15     -8.48      0.00
   17    8   15      9.82      0.00
   18    8   15     -1.29      0.00
   19    8   15      7.45      0.00
   20    8   15      2.71      0.00
  -20    9   15      5.66      0.00
  -19    9   15     -4.07      0.00
  -18    9   15      4.62      0.00
  -17    9   15      2.67      0.00
  -16    9   15      5.19      0.00
  -15    9   15      0.10      0.00
  -14    9   15     -1.93      0.00
  -13    9   15      1.19      0.00
  -12    9   15     -1.60      0.00
  -11    9   15     -8.99      0.00
  -10    9   15      7.13      0.00
   -9    9   15     17.76      0.00
   -8    9   15      3.64      0.00
   -7    9   15    -11.37      0.00
   -6    9   15     21.99      0.00
   -5    9   15     -0.14      0.00
   -4    9   15      1.15      0.00
   -3    9   15      4.15      0.00
   -2    9   15     29.43      0.00
   -1    9   15      4.04      0.00
    0    9   15     -8.17      0.00
    1    9   15    -19.44      0.00
    2    9   15     -5.23      0.00
    3    9   15     19.22      0.00
    4    9   15    -36.12      0.00
    5    9   15      8.45      0.00
    6    9   15     -9.81      0.00
    7    9   15     -5.67      0.00
    8    9   15    -16.89      0.00
    9    9   15     -4.85      0.00
   10    9   15      6.53      0.00
   11    9   15     10.09      0.00
   12    9   15     -7.80      0.00
   13    9   15     -5.55      0.00
   14    9   15      0.24      0.00
   15    9   15      1.49      0.00
   16    9   15     -2.75      0.00
   17    9   15      1.09      0.00
   18    9   15     -5.27      0.00
   19    9   15     -5.89      0.00
  -20   10   15      1.51      0.00
  -19   10   15     -4.13      0.00
  -18   10   15      4.47      0.00
  -17   10   15     -7.89      0.00
  -16   10   15      5.95      0.00
  -15   10   15      0.36      0.00
  -14   10   15      3.31      0.00
  -13   10   15      4.16      0.00
  -12   10   15      4.05      0.00
  -11   10   15     -8.89      0.00
  -10   10   15      3.94      0.00
   -9   10   15     -1.02      0.00
   -8   10   15    -14.60      0.00
   -7   10   15      5.73      0.00
   -6   10   15     -3.04      0.00
   -5   10   15     -4.37      0.00
   -4   10   15    -14.89      0.00
   -3   10   15    -11.93      0.00
   -2   10   15      1.53      0.00
   -1   10   15      4.05      0.00
    0   10   15     -9.27      0.00
    1   10   15      4.33      0.00
    2   10   15      1.87      0.00
    3   10   15      3.31      0.00
    4   10   15    -20.25      0.00
    5   10   15     20.47      0.00
    6   10   15      1.51      0.00
    7   10   15      6.67      0.00
    8   10   15      7.07      0.00
    9   10   15     -2.77      0.00
   10   10   15      7.00      0.00
   11   10   15      0.24      0.00
   12   10   15      1.29      0.00
   13   10   15      6.24      0.00
   14   10   15      1.56      0.00
   15   10   15      1.68      0.00
   16   10   15      4.18      0.00
   17   10   15      5.19      0.00
   18   10   15     10.19      0.00
  -19   11   15      1.53      0.00
  -18   11   15      2.63      0.00
  -17   11   15      3.28      0.00
  -16   11   15     -3.90      0.00
  -15   11   15      7.98      0.00
  -14   11   15     -9.09      0.00
  -13   11   15     -3.02      0.00
  -12   11   15     -5.93      0.00
  -11   11   15     -0.99      0.00
  -10   11   15     -1.01      0.00
   -9   11   15      5.41      0.00
   -8   11   15     -6.51      0.00
   -7   11   15     -2.38      0.00
   -6   11   15     -2.80      0.00
   -5   11   15     -4.11      0.00
   -4   11   15     -4.15      0.00
   -3   11   15     12.18      0.00
   -2   11   15      8.34      0.00
   -1   11   15    -10.12      0.00
    0   11   15     -2.43      0.00
    1   11   15    -18.49      0.00
    2   11   15     -5.55      0.00
    3   11   15     -3.95      0.00
    4   11   15    -10.60      0.00
    5   11   15      8.93      0.00
    6   11   15     -8.16      0.00
    7   11   15    -13.62      0.00
    8   11   15      5.47      0.00
    9   11   15      3.03      0.00
   10   11   15      4.79      0.00
   11   11   15     -0.69      0.00
   12   11   15      7.95      0.00
   13   11   15     -3.58      0.00
   14   11   15     -3.37      0.00
   15   11   15     -8.35      0.00
   16   11   15      4.51      0.00
   17   11   15      2.84      0.00
  -17   12   15     -3.30      0.00
  -16   12   15      1.27      0.00
  -15   12   15      9.90      0.00
  -14   12   15      0.00      0.00
  -13   12   15      6.43      0.00
  -12   12   15      6.72      0.00
  -11   12   15     -0.49      0.00
  -10   12   15      0.90      0.00
   -9   12   15     -3.94      0.00
   -8   12   15     -1.78      0.00
   -7   12   15     10.48      0.00
   -6   12   15    -10.20      0.00
   -5   12   15    -10.80      0.00
   -4   12   15     -4.61      0.00
   -3   12   15     -4.56      0.00
   -2   12   15      0.49      0.00
   -1   12   15      6.29      0.00
    0   12   15     -2.71      0.00
    1   12   15      9.15      0.00
    2   12   15      2.56      0.00
    3   12   15     -3.06      0.00
    4   12   15    -16.63      0.00
    5   12   15     13.75      0.00
    6   12   15      7.57      0.00
    7   12   15      1.65      0.00
    8   12   15      0.99      0.00
    9   12   15     -4.40      0.00
   10   12   15     13.05      0.00
   11   12   15      5.58      0.00
   12   12   15      0.63      0.00
   13   12   15      4.53      0.00
   14   12   15     11.08      0.00
   15   12   15     -1.59      0.00
   16   12   15      5.27      0.00
  -16   13   15     -1.04      0.00
  -15   13   15      8.72      0.00
  -14   13   15     -9.13      0.00
  -13   13   15     -9.25      0.00
  -12   13   15     -6.70      0.00
  -11   13   15      4.96      0.00
  -10   13   15      3.35      0.00
   -9   13   15     -2.30      0.00
   -8   13   15     -3.99      0.00
   -7   13   15     -1.69      0.00
   -6   13   15      2.87      0.00
   -5   13   15     -9.46      0.00
   -4   13   15     -4.57      0.00
   -3   13   15      3.38      0.00
   -2   13   15      6.32      0.00
   -1   13   15     -7.27      0.00
    0   13   15     -7.79      0.00
    1   13   15    -14.42      0.00
    2   13   15      3.52      0.00
    3   13   15      4.14      0.00
    4   13   15     -7.52      0.00
    5   13   15      2.81      0.00
    6   13   15      0.92      0.00
    7   13   15     -6.23      0.00
    8   13   15      2.31      0.00
    9   13   15     -3.30      0.00
   10   13   15      9.73      0.00
   11   13   15     -2.63      0.00
   12   13   15     -0.85      0.00
   13   13   15     -8.27      0.00
   14   13   15      3.78      0.00
   15   13   15    -10.63      0.00
  -14   14   15     -6.29      0.00
  -13   14   15      7.31      0.00
  -12   14   15      2.21      0.00
  -11   14   15     -5.52      0.00
  -10   14   15     -8.51      0.00
   -9   14   15      3.14      0.00
   -8   14   15      1.71      0.00
   -7   14   15      8.15      0.00
   -6   14   15     -7.22      0.00
   -5   14   15     -0.97      0.00
   -4   14   15      8.70      0.00
   -3   14   15     -6.76      0.00
   -2   14   15      8.39      0.00
   -1   14   15     13.42      0.00
    0   14   15      7.91      0.00
    1   14   15      0.05      0.00
    2   14   15      6.54      0.00
    3   14   15     -0.78      0.00
    4   14   15     -1.16      0.00
    5   14   15      2.40      0.00
    6   14   15     11.46      0.00
    7   14   15      3.23      0.00
    8   14   15      4.08      0.00
    9   14   15     -7.06      0.00
   10   14   15     10.09      0.00
   11   14   15     10.52      0.00
   12   14   15     -1.79      0.00
   13   14   15      4.57      0.00
  -12   15   15     -0.84      0.00
  -11   15   15     -5.05      0.00
  -10   15   15      1.73      0.00
   -9   15   15      0.41      0.00
   -8   15   15      0.11      0.00
   -7   15   15     -8.67      0.00
   -6   15   15     -3.68      0.00
   -5   15   15     -0.43      0.00
   -4   15   15      0.03      0.00
   -3   15   15      2.86      0.00
   -2   15   15     -1.23      0.00
   -1   15   15      3.00      0.00
    0   15   15     -5.94      0.00
    1   15   15     -0.82      0.00
    2   15   15      0.19      0.00
    3   15   15     10.16      0.00
    4   15   15     -8.08      0.00
    5   15   15      7.78      0.00
    6   15   15     -3.11      0.00
    7   15   15     -2.65      0.00
    8   15   15     -2.70      0.00
    9   15   15     -2.42      0.00
   10   15   15      3.98      0.00
   11   15   15      0.04      0.00
  -10   16   15     -3.81      0.00
   -9   16   15     -3.69      0.00
   -8   16   15      2.88      0.00
   -7   16   15     10.74      0.00
   -6   16   15     -0.32      0.00
   -5   16   15     -6.16      0.00
   -4   16   15      5.49      0.00
   -3   16   15     -0.65      0.00
   -2   16   15      5.57      0.00
   -1   16   15      7.63      0.00
    0   16   15     -0.26      0.00
    1   16   15      0.94      0.00
    2   16   15     -1.72      0.00
    3   16   15     -2.00      0.00
    4   16   15     -4.48      0.00
    5   16   15      5.88      0.00
    6   16   15      2.30      0.00
    7   16   15      3.83      0.00
    8   16   15      0.63      0.00
   -6   17   15     -5.76      0.00
   -5   17   15     -2.08      0.00
   -4   17   15      7.46      0.00
   -3   17   15      3.05      0.00
   -2   17   15     -3.78      0.00
   -1   17   15      1.45      0.00
    0   17   15      4.80      0.00
    1   17   15      1.28      0.00
    2   17   15     -4.51      0.00
    3   17   15      5.21      0.00
    4   17   15      0.27      0.00
  -22    0   16    -30.97      0.00
  -20    0   16    -10.20      0.00
  -18    0   16     -9.49      0.00
  -16    0   16      3.18      0.00
  -14    0   16      1.92      0.00
  -12    0   16     33.34      0.00
  -10    0   16     -2.11      0.00
   -8    0   16    -18.35      0.00
   -6    0   16      4.05      0.00
   -4    0   16     22.82      0.00
   -2    0   16      1.89      0.00
    0    0   16    -32.35      0.00
    2    0   16     54.60      0.00
    4    0   16    -11.41      0.00
    6    0   16     -4.98      0.00
    8    0   16     -1.80      0.00
   10    0   16     72.03      0.00
   12    0   16     -9.26      0.00
   14    0   16     20.09      0.00
   16    0   16     11.39      0.00
   18    0   16     13.61      0.00
   20    0   16     -0.42      0.00
   22    0   16      0.57      0.00
  -23    1   16     10.18      0.00
  -21    1   16     11.76      0.00
  -20    1   16      3.21      0.00
  -19    1   16      4.39      0.00
  -18    1   16      1.33      0.00
  -17    1   16     11.02      0.00
  -16    1   16    -10.18      0.00
  -15    1   16     -3.02      0.00
  -14    1   16     -3.95      0.00
  -13    1   16     -2.42      0.00
  -12    1   16    -10.48      0.00
  -11    1   16     11.31      0.00
  -10    1   16     -3.87      0.00
   -9    1   16     38.89      0.00
   -8    1   16     -4.15      0.00
   -7    1   16     -6.99      0.00
   -6    1   16      3.29      0.00
   -5    1   16     25.16      0.00
   -4    1   16      4.75      0.00
   -3    1   16    -19.10      0.00
   -2    1   16      9.53      0.00
   -1    1   16      4.46      0.00
    0    1   16     11.77      0.00
    1    1   16    -12.16      0.00
    2    1   16      6.63      0.00
    3    1   16    -28.85      0.00
    4    1   16      3.01      0.00
    5    1   16    -19.52      0.00
    6    1   16     -0.37      0.00
    7    1   16     22.72      0.00
    8    1   16      0.14      0.00
    9    1   16     19.94      0.00
   10    1   16      5.30      0.00
   11    1   16    -17.47      0.00
   12    1   16      9.57      0.00
   13    1   16     13.83      0.00
   14    1   16      1.43      0.00
   15    1   16    -13.27      0.00
   16    1   16     -1.74      0.00
   17    1   16     -4.68      0.00
   18    1   16     -2.56      0.00
   19    1   16     -7.85      0.00
   20    1   16      1.18      0.00
   21    1   16      7.06      0.00
   22    1   16     -2.64      0.00
  -23    2   16     -2.64      0.00
  -22    2   16    -11.50      0.00
  -21    2   16      3.04      0.00
  -20    2   16      3.14      0.00
  -19    2   16     -1.30      0.00
  -18    2   16      0.75      0.00
  -17    2   16      8.42      0.00
  -16    2   16      3.40      0.00
  -15    2   16     -7.01      0.00
  -14    2   16      0.13      0.00
  -13    2   16     -1.30      0.00
  -12    2   16     28.70      0.00
  -11    2   16    -12.15      0.00
  -10    2   16     -3.02      0.00
   -9    2   16     -2.28      0.00
   -8    2   16    -10.17      0.00
   -7    2   16    -23.13      0.00
   -6    2   16     -2.98      0.00
   -5    2   16      2.52      0.00
   -4    2   16     40.65      0.00
   -3    2   16    -13.96      0.00
   -2    2   16    -14.34      0.00
   -1    2   16      5.18      0.00
    0    2   16      8.28      0.00
    1    2   16    -20.30      0.00
    2    2   16     36.71      0.00
    3    2   16      6.71      0.00
    4    2   16     24.15      0.00
    5    2   16    -13.73      0.00
    6    2   16    -42.33      0.00
    7    2   16      3.91      0.00
    8    2   16     -1.69      0.00
    9    2   16     -3.47      0.00
   10    2   16     16.76      0.00
   11    2   16      5.47      0.00
   12    2   16    -16.63      0.00
   13    2   16     -0.55      0.00
   14    2   16     -6.19      0.00
   15    2   16      5.29      0.00
   16    2   16      8.34      0.00
   17    2   16      1.92      0.00
   18    2   16      2.96      0.00
   19    2   16      2.66      0.00
   20    2   16     -0.41      0.00
   21    2   16      4.20      0.00
   22    2   16      3.45      0.00
  -23    3   16     -4.07      0.00
  -22    3   16     11.19      0.00
  -21    3   16    -11.66      0.00
  -20    3   16      7.96      0.00
  -19    3   16    -10.10      0.00
  -18    3   16     -0.22      0.00
  -17    3   16     -4.46      0.00
  -16    3   16     -6.39      0.00
  -15    3   16     -1.14      0.00
  -14    3   16     -4.52      0.00
  -13    3   16    -22.97      0.00
  -12    3   16      4.64      0.00
  -11    3   16      9.09      0.00
  -10    3   16     -4.17      0.00
   -9    3   16     -7.05      0.00
   -8    3   16     14.75      0.00
   -7    3   16     -7.89      0.00
   -6    3   16      4.50      0.00
   -5    3   16    -21.53      0.00
   -4    3   16      9.05      0.00
   -3    3   16     11.08      0.00
   -2    3   16      0.30      0.00
   -1    3   16     -5.61      0.00
    0    3   16     24.66      0.00
    1    3   16     14.74      0.00
    2    3   16     15.83      0.00
    3    3   16    -39.29      0.00
    4    3   16     30.30      0.00
    5    3   16    -21.54      0.00
    6    3   16     13.08      0.00
    7    3   16      5.18      0.00
    8    3   16     13.04      0.00
    9    3   16     -0.24      0.00
   10    3   16      4.48      0.00
   11    3   16    -23.01      0.00
   12    3   16     11.77      0.00
   13    3   16     -4.35      0.00
   14    3   16     -3.85      0.00
   15    3   16     -6.38      0.00
   16    3   16    -12.00      0.00
   17    3   16    -10.52      0.00
   18    3   16     -3.38      0.00
   19    3   16      0.68      0.00
   20    3   16     -3.56      0.00
   21    3   16      1.00      0.00
  -23    4   16      3.75      0.00
  -22    4   16     -4.44      0.00
  -21    4   16     -4.53      0.00
  -20    4   16      6.36      0.00
  -19    4   16      1.48      0.00
  -18    4   16      1.37      0.00
  -17    4   16     -1.23      0.00
  -16    4   16     -2.11      0.00
  -15    4   16      5.44      0.00
  -14    4   16     -8.29      0.00
  -13    4   16     -1.79      0.00
  -12    4   16     27.32      0.00
  -11    4   16      6.44      0.00
  -10    4   16      8.05      0.00
   -9    4   16     -0.75      0.00
   -8    4   16     11.10      0.00
   -7    4   16    -18.85      0.00
   -6    4   16     13.61      0.00
   -5    4   16     -0.38      0.00
   -4    4   16     53.97      0.00
   -3    4   16      2.03      0.00
   -2    4   16    -17.91      0.00
   -1    4   16     19.16      0.00
    0    4   16     13.22      0.00
    1    4   16      5.08      0.00
    2    4   16     32.51      0.00
    3    4   16     24.44      0.00
    4    4   16     42.55      0.00
    5    4   16     -3.10      0.00
    6    4   16    -24.04      0.00
    7    4   16     11.12      0.00
    8    4   16     22.47      0.00
    9    4   16      1.27      0.00
   10    4   16     12.93      0.00
   11    4   16     11.84      0.00
   12    4   16      1.45      0.00
   13    4   16     -7.93      0.00
   14    4   16     -3.27      0.00
   15    4   16      3.20      0.00
   16    4   16     12.44      0.00
   17    4   16     -6.14      0.00
   18    4   16     -1.70      0.00
   19    4   16      0.37      0.00
   20    4   16     -1.47      0.00
   21    4   16      2.89      0.00
  -21    5   16     -3.32      0.00
  -20    5   16      7.44      0.00
  -19    5   16    -10.12      0.00
  -18    5   16     -0.54      0.00
  -17    5   16     -3.64      0.00
  -16    5   16     -9.33      0.00
  -15    5   16     -7.90      0.00
  -14    5   16     -8.40      0.00
  -13    5   16     -8.94      0.00
  -12    5   16     -0.02      0.00
  -11    5   16      2.65      0.00
  -10    5   16     -6.07      0.00
   -9    5   16     14.16      0.00
   -8    5   16     20.65      0.00
   -7    5   16    -18.35      0.00
   -6    5   16      7.54      0.00
   -5    5   16     -8.23      0.00
   -4    5   16      0.58      0.00
   -3    5   16    -11.88      0.00
   -2    5   16    -25.61      0.00
   -1    5   16     10.66      0.00
    0    5   16     -4.20      0.00
    1    5   16     -2.08      0.00
    2    5   16    -24.74      0.00
    3    5   16    -16.76      0.00
    4    5   16     -3.99      0.00
    5    5   16    -20.72      0.00
    6    5   16    -16.22      0.00
    7    5   16      3.06      0.00
    8    5   16    -10.99      0.00
    9    5   16     -1.73      0.00
   10    5   16    -16.61      0.00
   11    5   16    -15.72      0.00
   12    5   16      1.63      0.00
   13    5   16      2.72      0.00
   14    5   16     -1.91      0.00
   15    5   16     -0.99      0.00
   16    5   16      0.15      0.00
   17    5   16     -7.87      0.00
   18    5   16      9.25      0.00
   19    5   16     -0.37      0.00
   20    5   16      4.46      0.00
   21    5   16      4.76      0.00
  -22    6   16     -3.23      0.00
  -21    6   16     -5.06      0.00
  -20    6   16      3.47      0.00
  -19    6   16     -2.69      0.00
  -18    6   16     14.47      0.00
  -17    6   16      1.69      0.00
  -16    6   16      1.71      0.00
  -15    6   16      1.65      0.00
  -14    6   16     -0.46      0.00
  -13    6   16     -5.11      0.00
  -12    6   16      7.18      0.00
  -11    6   16     10.26      0.00
  -10    6   16      8.14      0.00
   -9    6   16      3.91      0.00
   -8    6   16    -18.33      0.00
   -7    6   16     -2.63      0.00
   -6    6   16     22.82      0.00
   -5    6   16      6.65      0.00
   -4    6   16     20.48      0.00
   -3    6   16     23.51      0.00
   -2    6   16     -5.18      0.00
   -1    6   16     14.04      0.00
    0    6   16    -34.31      0.00
    1    6   16      2.77      0.00
    2    6   16     33.49      0.00
    3    6   16      1.17      0.00
    4    6   16     -8.13      0.00
    5    6   16    -12.75      0.00
    6    6   16     -2.38      0.00
    7    6   16     -8.36      0.00
    8    6   16      1.32      0.00
    9    6   16      1.81      0.00
   10    6   16     18.06      0.00
   11    6   16     -2.85      0.00
   12    6   16    -16.44      0.00
   13    6   16     -0.10      0.00
   14    6   16     -9.64      0.00
   15    6   16     -0.46      0.00
   16    6   16     -6.80      0.00
   17    6   16      3.71      0.00
   18    6   16     -1.07      0.00
   19    6   16     -4.31      0.00
   20    6   16     -4.87      0.00
  -21    7   16     -2.02      0.00
  -20    7   16      1.12      0.00
  -19    7   16     -6.93      0.00
  -18    7   16      0.87      0.00
  -17    7   16      0.91      0.00
  -16    7   16    -12.40      0.00
  -15    7   16     -4.09      0.00
  -14    7   16      4.37      0.00
  -13    7   16     -5.22      0.00
  -12    7   16     -2.01      0.00
  -11    7   16     -2.73      0.00
  -10    7   16      5.12      0.00
   -9    7   16      8.27      0.00
   -8    7   16      7.72      0.00
   -7    7   16    -16.93      0.00
   -6    7   16      9.53      0.00
   -5    7   16    -17.04      0.00
   -4    7   16    -10.77      0.00
   -3    7   16     -9.44      0.00
   -2    7   16    -12.77      0.00
   -1    7   16     14.81      0.00
    0    7   16     -0.47      0.00
    1    7   16      3.72      0.00
    2    7   16    -12.67      0.00
    3    7   16     -0.87      0.00
    4    7   16    -12.18      0.00
    5    7   16    -17.76      0.00
    6    7   16     -8.38      0.00
    7    7   16     -5.57      0.00
    8    7   16    -10.39      0.00
    9    7   16    -16.77      0.00
   10    7   16     -5.05      0.00
   11    7   16    -14.37      0.00
   12    7   16      8.89      0.00
   13    7   16     -3.03      0.00
   14    7   16      0.30      0.00
   15    7   16      6.89      0.00
   16    7   16     -0.06      0.00
   17    7   16     -9.36      0.00
   18    7   16     -0.16      0.00
   19    7   16      1.24      0.00
   20    7   16      6.13      0.00
  -21    8   16     -3.77      0.00
  -20    8   16     -1.83      0.00
  -19    8   16      0.96      0.00
  -18    8   16     19.21      0.00
  -17    8   16     11.60      0.00
  -16    8   16     -4.17      0.00
  -15    8   16      4.28      0.00
  -14    8   16      8.04      0.00
  -13    8   16      0.48      0.00
  -12    8   16     -3.01      0.00
  -11    8   16      2.20      0.00
  -10    8   16     18.34      0.00
   -9    8   16     14.32      0.00
   -8    8   16    -23.59      0.00
   -7    8   16     -8.15      0.00
   -6    8   16     19.63      0.00
   -5    8   16     12.14      0.00
   -4    8   16      8.37      0.00
   -3    8   16      6.58      0.00
   -2    8   16    -20.98      0.00
   -1    8   16      6.87      0.00
    0    8   16    -22.17      0.00
    1    8   16    -10.91      0.00
    2    8   16     13.48      0.00
    3    8   16      9.17      0.00
    4    8   16      2.76      0.00
    5    8   16     -1.97      0.00
    6    8   16    -14.33      0.00
    7    8   16      9.28      0.00
    8    8   16     20.53      0.00
    9    8   16      3.75      0.00
   10    8   16     14.00      0.00
   11    8   16     -7.30      0.00
   12    8   16      6.37      0.00
   13    8   16     -5.74      0.00
   14    8   16     -7.60      0.00
   15    8   16      2.10      0.00
   16    8   16      1.68      0.00
   17    8   16      5.59      0.00
   18    8   16     -1.55      0.00
   19    8   16     -3.93      0.00
  -20    9   16      5.13      0.00
  -19    9   16     -6.16      0.00
  -18    9   16     -3.59      0.00
  -17    9   16      1.63      0.00
  -16    9   16     -5.25      0.00
  -15    9   16     10.07      0.00
  -14    9   16     -2.34      0.00
  -13    9   16     -3.47      0.00
  -12    9   16      4.04      0.00
  -11    9   16      8.27      0.00
  -10    9   16     -8.28      0.00
   -9    9   16     -4.07      0.00
   -8    9   16      2.91      0.00
   -7    9   16      3.47      0.00
   -6    9   16     -0.93      0.00
   -5    9   16    -26.42      0.00
   -4    9   16     -7.88      0.00
   -3    9   16     13.78      0.00
   -2    9   16     -6.53      0.00
   -1    9   16      0.79      0.00
    0    9   16     10.87      0.00
    1    9   16      7.26      0.00
    2    9   16     -2.38      0.00
    3    9   16     -7.11      0.00
    4    9   16     -2.76      0.00
    5    9   16     -4.47      0.00
    6    9   16     -0.60      0.00
    7    9   16      4.27      0.00
    8    9   16     -2.46      0.00
    9    9   16     -4.58      0.00
   10    9   16     -2.89      0.00
   11    9   16      3.78      0.00
   12    9   16      8.55      0.00
   13    9   16      2.45      0.00
   14    9   16     -0.26      0.00
   15    9   16     18.99      0.00
   16    9   16     -3.38      0.00
   17    9   16      1.31      0.00
   18    9   16     -0.89      0.00
  -19   10   16     -1.74      0.00
  -18   10   16      7.27      0.00
  -17   10   16      2.07      0.00
  -16   10   16     -5.07      0.00
  -15   10   16     -3.04      0.00
  -14   10   16     -3.57      0.00
  -13   10   16    -11.91      0.00
  -12   10   16      7.04      0.00
  -11   10   16     -9.63      0.00
  -10   10   16     13.88      0.00
   -9   10   16      1.17      0.00
   -8   10   16     -4.00      0.00
   -7   10   16    -18.85      0.00
   -6   10   16     13.85      0.00
   -5   10   16     -1.51      0.00
   -4   10   16     16.88      0.00
   -3   10   16     -7.00      0.00
   -2   10   16    -20.91      0.00
   -1   10   16     -5.50      0.00
    0   10   16      1.76      0.00
    1   10   16    -17.50      0.00
    2   10   16     15.64      0.00
    3   10   16      1.88      0.00
    4   10   16     13.20      0.00
    5   10   16     -6.42      0.00
    6   10   16    -15.39      0.00
    7   10   16      9.63      0.00
    8   10   16     21.86      0.00
    9   10   16      1.75      0.00
   10   10   16      5.64      0.00
   11   10   16     -1.58      0.00
   12   10   16      4.23      0.00
   13   10   16     -5.09      0.00
   14   10   16     -9.19      0.00
   15   10   16      7.64      0.00
   16   10   16     -2.12      0.00
   17   10   16      4.48      0.00
  -18   11   16      2.69      0.00
  -17   11   16      2.62      0.00
  -16   11   16     -1.31      0.00
  -15   11   16      9.44      0.00
  -14   11   16      0.94      0.00
  -13   11   16     -1.63      0.00
  -12   11   16      0.12      0.00
  -11   11   16     -2.31      0.00
  -10   11   16     -3.93      0.00
   -9   11   16     -0.21      0.00
   -8   11   16      1.57      0.00
   -7   11   16     -6.15      0.00
   -6   11   16     11.94      0.00
   -5   11   16    -13.66      0.00
   -4   11   16     -3.27      0.00
   -3   11   16      7.09      0.00
   -2   11   16      4.35      0.00
   -1   11   16     11.91      0.00
    0   11   16      5.32      0.00
    1   11   16     -1.98      0.00
    2   11   16     -0.21      0.00
    3   11   16     -3.26      0.00
    4   11   16     -4.34      0.00
    5   11   16     -5.55      0.00
    6   11   16      5.42      0.00
    7   11   16     -2.19      0.00
    8   11   16     -0.95      0.00
    9   11   16     -9.56      0.00
   10   11   16     -3.39      0.00
   11   11   16     -4.62      0.00
   12   11   16      3.74      0.00
   13   11   16     -8.40      0.00
   14   11   16     -1.59      0.00
   15   11   16      2.34      0.00
   16   11   16     -3.35      0.00
  -17   12   16      4.34      0.00
  -16   12   16     -2.91      0.00
  -15   12   16     -1.84      0.00
  -14   12   16     -7.31      0.00
  -13   12   16     -5.59      0.00
  -12   12   16      6.84      0.00
  -11   12   16      0.40      0.00
  -10   12   16      7.78      0.00
   -9   12   16     -3.71      0.00
   -8   12   16     -5.00      0.00
   -7   12   16     -5.34      0.00
   -6   12   16     16.51      0.00
   -5   12   16    -10.21      0.00
   -4   12   16     14.47      0.00
   -3   12   16      6.19      0.00
   -2   12   16     -1.78      0.00
   -1   12   16    -16.69      0.00
    0   12   16      2.19      0.00
    1   12   16      2.49      0.00
    2   12   16     23.09      0.00
    3   12   16     -8.72      0.00
    4   12   16     -5.14      0.00
    5   12   16      9.11      0.00
    6   12   16     -6.79      0.00
    7   12   16     -3.43      0.00
    8   12   16      8.42      0.00
    9   12   16     11.63      0.00
   10   12   16      7.13      0.00
   11   12   16     -8.10      0.00
   12   12   16     -5.50      0.00
   13   12   16      5.32      0.00
   14   12   16     -1.29      0.00
   15   12   16     -2.79      0.00
  -15   13   16      0.64      0.00
  -14   13   16      6.16      0.00
  -13   13   16     -5.85      0.00
  -12   13   16     -3.48      0.00
  -11   13   16     -5.84      0.00
  -10   13   16      2.33      0.00
   -9   13   16      3.70      0.00
   -8   13   16     -8.56      0.00
   -7   13   16     -1.78      0.00
   -6   13   16     13.12      0.00
   -5   13   16    -11.52      0.00
   -4   13   16    -11.69      0.00
   -3   13   16      7.44      0.00
   -2   13   16     12.11      0.00
   -1   13   16      9.01      0.00
    0   13   16     -0.97      0.00
    1   13   16     -0.69      0.00
    2   13   16      3.75      0.00
    3   13   16      0.52      0.00
    4   13   16    -10.22      0.00
    5   13   16      6.04      0.00
    6   13   16      4.87      0.00
    7   13   16      2.31      0.00
    8   13   16     -1.78      0.00
    9   13   16     -3.49      0.00
   10   13   16     -2.75      0.00
   11   13   16     -0.42      0.00
   12   13   16     -0.31      0.00
   13   13   16     -3.48      0.00
   14   13   16     -2.18      0.00
  -13   14   16     -4.53      0.00
  -12   14   16      5.84      0.00
  -11   14   16     -3.20      0.00
  -10   14   16     11.98      0.00
   -9   14   16     -4.04      0.00
   -8   14   16     -6.19      0.00
   -7   14   16     -0.46      0.00
   -6   14   16     15.41      0.00
   -5   14   16     -0.35      0.00
   -4   14   16      6.98      0.00
   -3   14   16      4.36      0.00
   -2   14   16      3.18      0.00
   -1   14   16    -13.63      0.00
    0   14   16      5.38      0.00
    1   14   16     -0.23      0.00
    2   14   16     19.36      0.00
    3   14   16    -10.15      0.00
    4   14   16     -6.52      0.00
    5   14   16      3.11      0.00
    6   14   16     -5.08      0.00
    7   14   16     -4.72      0.00
    8   14   16     11.00      0.00
    9   14   16      4.10      0.00
   10   14   16      6.97      0.00
   11   14   16     -2.78      0.00
   12   14   16     -3.11      0.00
  -11   15   16     -2.79      0.00
  -10   15   16     -1.10      0.00
   -9   15   16      4.43      0.00
   -8   15   16      1.64      0.00
   -7   15   16     -1.16      0.00
   -6   15   16      2.10      0.00
   -5   15   16    -10.58      0.00
   -4   15   16     -5.55      0.00
   -3   15   16      3.64      0.00
   -2   15   16      2.05      0.00
   -1   15   16     -1.04      0.00
    0   15   16      2.25      0.00
    1   15   16     -4.34      0.00
    2   15   16     -0.18      0.00
    3   15   16     -6.55      0.00
    4   15   16     -6.85      0.00
    5   15   16      7.21      0.00
    6   15   16     -2.71      0.00
    7   15   16     -2.67      0.00
    8   15   16      0.16      0.00
    9   15   16     -2.41      0.00
   10   15   16     -0.50      0.00
   -8   16   16     -2.85      0.00
   -7   16   16      4.71      0.00
   -6   16   16      0.46      0.00
   -5   16   16      8.10      0.00
   -4   16   16      1.81      0.00
   -3   16   16      3.88      0.00
   -2   16   16     -3.84      0.00
   -1   16   16      0.87      0.00
    0   16   16      1.44      0.00
    1   16   16      1.86      0.00
    2   16   16     12.70      0.00
    3   16   16      2.10      0.00
    4   16   16     -5.09      0.00
    5   16   16      2.45      0.00
    6   16   16     -4.44      0.00
    7   16   16      4.83      0.00
   -3   17   16      0.27      0.00
   -2   17   16     -2.49      0.00
   -1   17   16      0.20      0.00
    0   17   16     -0.28      0.00
    1   17   16     -8.19      0.00
  -23    0   17     -3.33      0.00
  -21    0   17     -2.73      0.00
  -19    0   17      0.53      0.00
  -17    0   17     -3.00      0.00
  -15    0   17     12.77      0.00
  -13    0   17      9.24      0.00
  -11    0   17     -5.05      0.00
   -9    0   17    -12.19      0.00
   -7    0   17     26.51      0.00
   -5    0   17     -7.77      0.00
   -3    0   17    -16.65      0.00
   -1    0   17     -8.65      0.00
    1    0   17      9.96      0.00
    3    0   17    -15.06      0.00
    5    0   17     36.14      0.00
    7    0   17     14.94      0.00
    9    0   17      9.66      0.00
   11    0   17     -8.67      0.00
   13    0   17     -0.98      0.00
   15    0   17    -10.10      0.00
   17    0   17     10.58      0.00
   19    0   17     15.33      0.00
   21    0   17     -1.25      0.00
  -23    1   17    -10.47      0.00
  -22    1   17     12.67      0.00
  -21    1   17     -8.39      0.00
  -20    1   17     -3.11      0.00
  -19    1   17     -8.92      0.00
  -18    1   17      2.78      0.00
  -17    1   17     -1.93      0.00
  -16    1   17     -0.43      0.00
  -15    1   17     -4.24      0.00
  -14    1   17     -9.99      0.00
  -13    1   17      1.30      0.00
  -12    1   17     -9.80      0.00
  -11    1   17     -6.78      0.00
  -10    1   17     -5.58      0.00
   -9    1   17      5.54      0.00
   -8    1   17    -21.59      0.00
   -7    1   17    -13.63      0.00
   -6    1   17    -17.98      0.00
   -5    1   17     16.78      0.00
   -4    1   17      3.31      0.00
   -3    1   17    -12.33      0.00
   -2    1   17     13.63      0.00
   -1    1   17     18.26      0.00
    0    1   17      5.97      0.00
    1    1   17    -26.28      0.00
    2    1   17      7.91      0.00
    3    1   17      7.33      0.00
    4    1   17     -5.03      0.00
    5    1   17    -27.48      0.00
    6    1   17     -5.06      0.00
    7    1   17     18.40      0.00
    8    1   17     -3.54      0.00
    9    1   17     -2.07      0.00
   10    1   17     -1.15      0.00
   11    1   17     10.17      0.00
   12    1   17     -7.78      0.00
   13    1   17     -9.59      0.00
   14    1   17      4.65      0.00
   15    1   17     -4.54      0.00
   16    1   17      4.80      0.00
   17    1   17     -4.91      0.00
   18    1   17    -10.11      0.00
   19    1   17      1.00      0.00
   20    1   17     -7.03      0.00
   21    1   17     -0.98      0.00
  -23    2   17     -2.20      0.00
  -22    2   17     12.89      0.00
  -21    2   17      2.22      0.00
  -20    2   17      6.75      0.00
  -19    2   17      1.14      0.00
  -18    2   17    -11.10      0.00
  -17    2   17      2.07      0.00
  -16    2   17     -3.09      0.00
  -15    2   17      3.48      0.00
  -14    2   17    -10.82      0.00
  -13    2   17     17.15      0.00
  -12    2   17     10.31      0.00
  -11    2   17     -7.19      0.00
  -10    2   17     -2.72      0.00
   -9    2   17      8.27      0.00
   -8    2   17     30.09      0.00
   -7    2   17     34.40      0.00
   -6    2   17     -6.15      0.00
   -5    2   17     18.65      0.00
   -4    2   17      9.79      0.00
   -3    2   17      4.49      0.00
   -2    2   17    -16.13      0.00
   -1    2   17     21.41      0.00
    0    2   17      0.99      0.00
    1    2   17     18.37      0.00
    2    2   17    -14.91      0.00
    3    2   17    -11.58      0.00
    4    2   17      6.89      0.00
    5    2   17     14.56      0.00
    6    2   17     -8.20      0.00
    7    2   17      4.46      0.00
    8    2   17    -18.13      0.00
    9    2   17      5.54      0.00
   10    2   17    -10.75      0.00
   11    2   17      6.09      0.00
   12    2   17    -19.29      0.00
   13    2   17     10.51      0.00
   14    2   17     -8.58      0.00
   15    2   17    -10.31      0.00
   16    2   17     -7.39      0.00
   17    2   17      6.52      0.00
   18    2   17     -5.58      0.00
   19    2   17      5.34      0.00
   20    2   17     -8.71      0.00
   21    2   17     -2.79      0.00
  -22    3   17      6.10      0.00
  -21    3   17     -8.49      0.00
  -20    3   17      4.74      0.00
  -19    3   17    -12.43      0.00
  -18    3   17      7.83      0.00
  -17    3   17      5.64      0.00
  -16    3   17     15.41      0.00
  -15    3   17     -7.49      0.00
  -14    3   17     -5.56      0.00
  -13    3   17      0.01      0.00
  -12    3   17      7.13      0.00
  -11    3   17    -16.43      0.00
  -10    3   17     -5.77      0.00
   -9    3   17      5.48      0.00
   -8    3   17     -6.80      0.00
   -7    3   17    -16.74      0.00
   -6    3   17    -14.22      0.00
   -5    3   17     27.54      0.00
   -4    3   17     10.82      0.00
   -3    3   17     14.66      0.00
   -2    3   17     -7.44      0.00
   -1    3   17     36.31      0.00
    0    3   17    -11.93      0.00
    1    3   17     14.06      0.00
    2    3   17    -23.88      0.00
    3    3   17     14.75      0.00
    4    3   17    -19.32      0.00
    5    3   17     -4.15      0.00
    6    3   17    -21.01      0.00
    7    3   17     15.14      0.00
    8    3   17     -8.02      0.00
    9    3   17     14.27      0.00
   10    3   17     -4.59      0.00
   11    3   17      2.83      0.00
   12    3   17     -7.06      0.00
   13    3   17      4.47      0.00
   14    3   17     10.55      0.00
   15    3   17     -2.12      0.00
   16    3   17     12.12      0.00
   17    3   17      9.24      0.00
   18    3   17      1.44      0.00
   19    3   17      6.69      0.00
   20    3   17     -2.31      0.00
   21    3   17      2.93      0.00
  -22    4   17      6.75      0.00
  -21    4   17     -5.18      0.00
  -19    4   17      0.29      0.00
  -18    4   17     -5.71      0.00
  -17    4   17     -1.79      0.00
  -16    4   17     -0.58      0.00
  -15    4   17      7.74      0.00
  -14    4   17      4.45      0.00
  -13    4   17     14.78      0.00
  -12    4   17     -2.18      0.00
  -11    4   17     -4.60      0.00
  -10    4   17      5.34      0.00
   -9    4   17     -0.08      0.00
   -8    4   17      2.05      0.00
   -7    4   17     18.03      0.00
   -6    4   17      1.78      0.00
   -5    4   17     -1.21      0.00
   -4    4   17    -17.94      0.00
   -3    4   17    -13.14      0.00
   -2    4   17     12.08      0.00
   -1    4   17     12.43      0.00
    0    4   17    -10.26      0.00
    1    4   17      6.26      0.00
    2    4   17     -4.30      0.00
    3    4   17    -13.61      0.00
    4    4   17      7.31      0.00
    5    4   17     -3.40      0.00
    6    4   17     -2.42      0.00
    7    4   17     -4.12      0.00
    8    4   17     -0.78      0.00
    9    4   17     -0.88      0.00
   10    4   17     -2.24      0.00
   11    4   17     14.54      0.00
   12    4   17     -3.47      0.00
   13    4   17      7.51      0.00
   14    4   17    -13.15      0.00
   15    4   17    -10.75      0.00
   16    4   17      6.54      0.00
   17    4   17     -1.78      0.00
   18    4   17     -4.96      0.00
   19    4   17      4.84      0.00
   20    4   17      3.12      0.00
  -22    5   17      8.75      0.00
  -20    5   17     -0.35      0.00
  -19    5   17     -2.25      0.00
  -18    5   17     10.55      0.00
  -17    5   17     11.75      0.00
  -16    5   17      5.06      0.00
  -15    5   17      1.23      0.00
  -14    5   17      0.44      0.00
  -13    5   17     -2.41      0.00
  -12    5   17      8.76      0.00
  -11    5   17     -1.52      0.00
  -10    5   17     -3.73      0.00
   -9    5   17      4.39      0.00
   -8    5   17    -10.02      0.00
   -7    5   17     -4.47      0.00
   -6    5   17    -25.22      0.00
   -5    5   17      7.57      0.00
   -4    5   17     -8.72      0.00
   -3    5   17     16.57      0.00
   -2    5   17    -23.90      0.00
   -1    5   17     -6.55      0.00
    0    5   17    -13.45      0.00
    1    5   17     15.42      0.00
    2    5   17    -18.47      0.00
    3    5   17    -20.23      0.00
    4    5   17    -10.71      0.00
    5    5   17      7.75      0.00
    6    5   17    -22.61      0.00
    7    5   17    -15.58      0.00
    8    5   17     -4.60      0.00
    9    5   17     15.05      0.00
   10    5   17    -11.03      0.00
   11    5   17    -20.09      0.00
   12    5   17     -3.84      0.00
   13    5   17     10.60      0.00
   14    5   17     -1.72      0.00
   15    5   17    -12.11      0.00
   16    5   17      6.90      0.00
   17    5   17      6.59      0.00
   18    5   17     -0.06      0.00
   19    5   17     -8.30      0.00
   20    5   17      1.33      0.00
  -21    6   17     -5.09      0.00
  -20    6   17      3.46      0.00
  -19    6   17      5.75      0.00
  -18    6   17     -8.42      0.00
  -17    6   17     -3.73      0.00
  -16    6   17     -1.92      0.00
  -15    6   17     12.41      0.00
  -14    6   17      3.50      0.00
  -13    6   17      5.72      0.00
  -12    6   17      4.41      0.00
  -11    6   17     -0.45      0.00
  -10    6   17      0.96      0.00
   -9    6   17     -5.37      0.00
   -8    6   17      9.64      0.00
   -7    6   17     21.70      0.00
   -6    6   17    -14.85      0.00
   -5    6   17      2.06      0.00
   -4    6   17    -18.07      0.00
   -3    6   17     -0.80      0.00
   -2    6   17     -6.78      0.00
   -1    6   17     16.60      0.00
    0    6   17    -14.68      0.00
    1    6   17      8.46      0.00
    2    6   17    -10.65      0.00
    3    6   17     -9.47      0.00
    4    6   17     14.48      0.00
    5    6   17     -4.79      0.00
    6    6   17      9.83      0.00
    7    6   17     -4.05      0.00
    8    6   17     11.50      0.00
    9    6   17     -3.90      0.00
   10    6   17     16.16      0.00
   11    6   17     12.12      0.00
   12    6   17      9.09      0.00
   13    6   17      0.19      0.00
   14    6   17     -2.69      0.00
   15    6   17     -0.77      0.00
   16    6   17      6.61      0.00
   17    6   17      6.48      0.00
   18    6   17     -0.42      0.00
   19    6   17     12.34      0.00
   20    6   17     -0.21      0.00
  -21    7   17      1.12      0.00
  -20    7   17      3.68      0.00
  -19    7   17      5.98      0.00
  -18    7   17      5.84      0.00
  -17    7   17     14.09      0.00
  -16    7   17     -8.39      0.00
  -15    7   17      4.86      0.00
  -14    7   17     -6.60      0.00
  -13    7   17     -5.46      0.00
  -12    7   17     -2.50      0.00
  -11    7   17     -2.86      0.00
  -10    7   17      5.13      0.00
   -9    7   17      2.78      0.00
   -8    7   17     -9.67      0.00
   -7    7   17    -17.41      0.00
   -6    7   17     -3.15      0.00
   -5    7   17     14.86      0.00
   -4    7   17     -8.94      0.00
   -3    7   17     -0.60      0.00
   -2    7   17      2.84      0.00
   -1    7   17      9.37      0.00
    0    7   17     -2.57      0.00
    1    7   17    -16.08      0.00
    2    7   17      8.89      0.00
    3    7   17     -0.29      0.00
    4    7   17     -5.16      0.00
    5    7   17    -14.33      0.00
    6    7   17     -3.70      0.00
    7    7   17      6.13      0.00
    8    7   17     -8.76      0.00
    9    7   17      1.23      0.00
   10    7   17     -1.29      0.00
   11    7   17     -3.61      0.00
   12    7   17     -6.99      0.00
   13    7   17     -3.30      0.00
   14    7   17      1.96      0.00
   15    7   17     -7.05      0.00
   16    7   17     -4.02      0.00
   17    7   17     -4.50      0.00
   18    7   17     -1.36      0.00
   19    7   17     -1.99      0.00
  -20    8   17      2.39      0.00
  -19    8   17      2.30      0.00
  -18    8   17     -2.08      0.00
  -17    8   17      1.43      0.00
  -16    8   17      1.21      0.00
  -15    8   17      0.87      0.00
  -14    8   17      0.40      0.00
  -13    8   17      3.21      0.00
  -12    8   17      1.32      0.00
  -11    8   17    -15.83      0.00
  -10    8   17     -2.43      0.00
   -9    8   17     -2.95      0.00
   -8    8   17     17.88      0.00
   -7    8   17      0.53      0.00
   -6    8   17     -8.95      0.00
   -5    8   17      2.79      0.00
   -4    8   17      2.50      0.00
   -3    8   17    -11.15      0.00
   -2    8   17      5.12      0.00
   -1    8   17     21.34      0.00
    0    8   17      6.18      0.00
    1    8   17     -0.97      0.00
    2    8   17      6.02      0.00
    3    8   17      1.83      0.00
    4    8   17     27.89      0.00
    5    8   17     -8.46      0.00
    6    8   17     15.18      0.00
    7    8   17      5.49      0.00
    8    8   17      3.25      0.00
    9    8   17      1.14      0.00
   10    8   17      6.37      0.00
   11    8   17     17.05      0.00
   12    8   17      4.62      0.00
   13    8   17      2.53      0.00
   14    8   17     -0.30      0.00
   15    8   17     -0.46      0.00
   16    8   17     11.40      0.00
   17    8   17      5.72      0.00
   18    8   17      7.22      0.00
  -19    9   17      0.09      0.00
  -17    9   17     10.02      0.00
  -16    9   17     -4.53      0.00
  -15    9   17     -2.62      0.00
  -14    9   17     -7.48      0.00
  -13    9   17      0.65      0.00
  -12    9   17     -4.15      0.00
  -11    9   17     -2.68      0.00
  -10    9   17     -5.88      0.00
   -9    9   17      9.11      0.00
   -8    9   17    -11.87      0.00
   -7    9   17    -17.29      0.00
   -6    9   17     -8.86      0.00
   -5    9   17     10.70      0.00
   -4    9   17    -12.30      0.00
   -3    9   17     -1.12      0.00
   -2    9   17     -4.63      0.00
   -1    9   17      4.90      0.00
    0    9   17     -4.96      0.00
    1    9   17    -13.83      0.00
    2    9   17      2.91      0.00
    3    9   17     -4.12      0.00
    4    9   17     -3.40      0.00
    5    9   17    -13.03      0.00
    6    9   17      7.01      0.00
    7    9   17      1.03      0.00
    8    9   17     -6.04      0.00
    9    9   17      1.23      0.00
   10    9   17     -1.08      0.00
   11    9   17      0.64      0.00
   12    9   17    -11.72      0.00
   13    9   17     -1.78      0.00
   14    9   17     -4.14      0.00
   15    9   17     -4.66      0.00
   16    9   17     -7.84      0.00
   17    9   17     -5.69      0.00
  -18   10   17      2.89      0.00
  -17   10   17     -0.06      0.00
  -16   10   17      1.88      0.00
  -15   10   17      6.24      0.00
  -14   10   17      9.41      0.00
  -13   10   17     -1.66      0.00
  -12   10   17     -6.66      0.00
  -11   10   17     -7.02      0.00
  -10   10   17      8.29      0.00
   -9   10   17     -0.65      0.00
   -8   10   17      2.83      0.00
   -7   10   17      4.05      0.00
   -6   10   17      3.38      0.00
   -5   10   17      3.40      0.00
   -4   10   17     -8.49      0.00
   -3   10   17     -2.68      0.00
   -2   10   17     11.10      0.00
   -1   10   17     23.38      0.00
    0   10   17    -17.41      0.00
    1   10   17      2.58      0.00
    2   10   17     -9.43      0.00
    3   10   17      6.93      0.00
    4   10   17     -2.31      0.00
    5   10   17     -8.49      0.00
    6   10   17     -3.99      0.00
    7   10   17      1.03      0.00
    8   10   17    -11.82      0.00
    9   10   17     -0.56      0.00
   10   10   17     -6.50      0.00
   11   10   17     12.02      0.00
   12   10   17     -0.49      0.00
   13   10   17      2.01      0.00
   14   10   17     -5.51      0.00
   15   10   17      1.01      0.00
   16   10   17      6.94      0.00
   17   10   17      0.50      0.00
  -17   11   17     -2.69      0.00
  -16   11   17     -2.15      0.00
  -15   11   17     -5.49      0.00
  -14   11   17     -1.08      0.00
  -13   11   17     -8.71      0.00
  -12   11   17      2.30      0.00
  -11   11   17     10.08      0.00
  -10   11   17     -2.73      0.00
   -9   11   17      2.77      0.00
   -8   11   17      1.30      0.00
   -7   11   17      2.64      0.00
   -6   11   17     -2.86      0.00
   -5   11   17     -5.40      0.00
   -4   11   17     -0.50      0.00
   -3   11   17      7.93      0.00
   -2   11   17     -7.34      0.00
   -1   11   17     -4.98      0.00
    0   11   17      4.80      0.00
    1   11   17      6.75      0.00
    2   11   17     -9.60      0.00
    3   11   17      2.17      0.00
    4   11   17     -3.01      0.00
    5   11   17      9.01      0.00
    6   11   17     -4.27      0.00
    7   11   17     -0.55      0.00
    8   11   17     -1.17      0.00
    9   11   17      3.81      0.00
   10   11   17     -7.22      0.00
   11   11   17     -2.07      0.00
   12   11   17      2.16      0.00
   13   11   17      1.19      0.00
   14   11   17     -3.51      0.00
   15   11   17     -4.08      0.00
  -16   12   17      2.22      0.00
  -15   12   17      5.02      0.00
  -14   12   17      7.72      0.00
  -13   12   17     -4.22      0.00
  -12   12   17     -8.64      0.00
  -11   12   17     -1.42      0.00
  -10   12   17     -3.83      0.00
   -9   12   17      5.73      0.00
   -8   12   17     -1.21      0.00
   -7   12   17     15.44      0.00
   -6   12   17     -7.01      0.00
   -5   12   17      5.63      0.00
   -4   12   17      0.33      0.00
   -3   12   17      5.45      0.00
   -2   12   17      4.15      0.00
   -1   12   17      8.16      0.00
    0   12   17     -8.90      0.00
    1   12   17     -3.30      0.00
    2   12   17     -9.37      0.00
    3   12   17      0.89      0.00
    4   12   17     -2.32      0.00
    5   12   17     -2.06      0.00
    6   12   17     -0.20      0.00
    7   12   17      2.95      0.00
    8   12   17     -7.71      0.00
    9   12   17      2.29      0.00
   10   12   17      1.22      0.00
   11   12   17      6.41      0.00
   12   12   17     -1.60      0.00
   13   12   17      1.08      0.00
   14   12   17     -0.64      0.00
  -14   13   17      1.14      0.00
  -13   13   17    -10.60      0.00
  -12   13   17      0.86      0.00
  -11   13   17     12.50      0.00
  -10   13   17     -0.31      0.00
   -9   13   17     -2.10      0.00
   -8   13   17    -10.66      0.00
   -7   13   17      6.69      0.00
   -6   13   17     -1.33      0.00
   -5   13   17     -7.92      0.00
   -4   13   17    -16.05      0.00
   -3   13   17      6.42      0.00
   -2   13   17     -2.76      0.00
   -1   13   17     -1.50      0.00
    0   13   17     -3.73      0.00
    1   13   17     -1.50      0.00
    2   13   17     -2.99      0.00
    3   13   17      6.47      0.00
    4   13   17    -11.30      0.00
    5   13   17      4.19      0.00
    6   13   17      1.99      0.00
    7   13   17      6.83      0.00
    8   13   17     -7.21      0.00
    9   13   17     -0.86      0.00
   10   13   17     -0.40      0.00
   11   13   17      4.97      0.00
   12   13   17      0.71      0.00
   13   13   17      1.21      0.00
  -12   14   17     -4.42      0.00
  -11   14   17     -7.28      0.00
  -10   14   17     -3.54      0.00
   -9   14   17      6.49      0.00
   -8   14   17     -0.06      0.00
   -7   14   17      4.79      0.00
   -6   14   17     -6.18      0.00
   -5   14   17      4.72      0.00
   -4   14   17     -1.84      0.00
   -3   14   17      5.34      0.00
   -2   14   17     -2.54      0.00
   -1   14   17      7.72      0.00
    0   14   17     -5.27      0.00
    1   14   17     -2.26      0.00
    2   14   17     -4.77      0.00
    3   14   17      2.42      0.00
    4   14   17      1.57      0.00
    5   14   17      1.09      0.00
    6   14   17      4.55      0.00
    7   14   17      3.71      0.00
    8   14   17     -0.58      0.00
    9   14   17      2.47      0.00
   10   14   17      4.21      0.00
   11   14   17      1.74      0.00
  -10   15   17      0.27      0.00
   -9   15   17      3.10      0.00
   -8   15   17     -3.78      0.00
   -7   15   17     -2.38      0.00
   -6   15   17      6.82      0.00
   -5   15   17     -6.77      0.00
   -4   15   17     -6.20      0.00
   -3   15   17      0.76      0.00
   -2   15   17      4.60      0.00
   -1   15   17     -2.63      0.00
    0   15   17      1.92      0.00
    1   15   17     -6.86      0.00
    2   15   17      2.43      0.00
    3   15   17     -3.24      0.00
    4   15   17     -6.77      0.00
    5   15   17     -1.71      0.00
    6   15   17      3.95      0.00
    7   15   17      1.46      0.00
    8   15   17     -4.25      0.00
   -6   16   17     -2.15      0.00
   -5   16   17     -3.28      0.00
   -4   16   17     -4.21      0.00
   -3   16   17      5.33      0.00
   -2   16   17      1.27      0.00
   -1   16   17      0.03      0.00
    0   16   17      0.27      0.00
    1   16   17      0.84      0.00
    2   16   17      5.07      0.00
    3   16   17     -2.18      0.00
    4   16   17      5.17      0.00
    5   16   17      1.24      0.00
  -22    0   18     -6.85      0.00
  -18    0   18     11.24      0.00
  -16    0   18      2.13      0.00
  -14    0   18     -5.70      0.00
  -12    0   18      3.99      0.00
  -10    0   18     15.28      0.00
   -8    0   18     -4.97      0.00
   -6    0   18     42.82      0.00
   -4    0   18     28.92      0.00
   -2    0   18      5.24      0.00
    0    0   18    -10.10      0.00
    2    0   18     65.36      0.00
    4    0   18    -38.99      0.00
    6    0   18    -11.71      0.00
    8    0   18      0.73      0.00
   10    0   18     25.04      0.00
   12    0   18    -24.94      0.00
   14    0   18     11.79      0.00
   16    0   18     -0.67      0.00
   18    0   18     -2.50      0.00
   20    0   18     -3.88      0.00
  -22    1   18     -4.72      0.00
  -20    1   18     -6.93      0.00
  -19    1   18    -15.06      0.00
  -18    1   18      2.24      0.00
  -17    1   18     -3.82      0.00
  -16    1   18      1.90      0.00
  -15    1   18     -0.42      0.00
  -14    1   18     10.19      0.00
  -13    1   18     -8.81      0.00
  -12    1   18     -0.16      0.00
  -11    1   18     14.41      0.00
  -10    1   18      7.84      0.00
   -9    1   18     20.38      0.00
   -8    1   18     -2.99      0.00
   -7    1   18     -5.80      0.00
   -6    1   18     -0.97      0.00
   -5    1   18    -12.13      0.00
   -4    1   18     -8.24      0.00
   -3    1   18     20.16      0.00
   -2    1   18     -1.85      0.00
   -1    1   18     -3.68      0.00
    0    1   18     -3.97      0.00
    1    1   18    -16.50      0.00
    2    1   18      5.54      0.00
    3    1   18     -1.15      0.00
    4    1   18      6.73      0.00
    5    1   18     16.33      0.00
    6    1   18     12.60      0.00
    7    1   18    -36.66      0.00
    8    1   18      5.56      0.00
    9    1   18    -12.64      0.00
   10    1   18      1.54      0.00
   11    1   18     -6.40      0.00
   12    1   18     -0.63      0.00
   13    1   18      1.53      0.00
   14    1   18      1.85      0.00
   15    1   18    -10.54      0.00
   16    1   18      7.39      0.00
   17    1   18     -5.04      0.00
   18    1   18      1.31      0.00
   19    1   18     -3.76      0.00
   20    1   18      4.24      0.00
  -22    2   18    -20.22      0.00
  -21    2   18     13.14      0.00
  -20    2   18     -5.47      0.00
  -19    2   18      5.43      0.00
  -18    2   18      0.22      0.00
  -17    2   18     10.50      0.00
  -16    2   18     -1.33      0.00
  -15    2   18     -1.50      0.00
  -14    2   18     -4.59      0.00
  -13    2   18      9.40      0.00
  -12    2   18     13.51      0.00
  -11    2   18     -2.35      0.00
  -10    2   18     10.96      0.00
   -9    2   18     11.14      0.00
   -8    2   18      4.97      0.00
   -7    2   18      1.86      0.00
   -6    2   18     19.93      0.00
   -5    2   18     13.16      0.00
   -4    2   18     40.17      0.00
   -3    2   18     -4.89      0.00
   -2    2   18    -24.87      0.00
   -1    2   18      5.52      0.00
    0    2   18     17.39      0.00
    1    2   18     -8.45      0.00
    2    2   18     34.13      0.00
    3    2   18     -2.05      0.00
    4    2   18     -3.45      0.00
    5    2   18      0.07      0.00
    6    2   18    -21.42      0.00
    7    2   18     -0.02      0.00
    8    2   18     43.31      0.00
    9    2   18     -1.00      0.00
   10    2   18     31.95      0.00
   11    2   18     -4.25      0.00
   12    2   18     -0.54      0.00
   13    2   18      5.91      0.00
   14    2   18      8.36      0.00
   15    2   18     -3.82      0.00
   16    2   18      7.19      0.00
   17    2   18     -1.26      0.00
   18    2   18     -0.25      0.00
   19    2   18     -2.36      0.00
   20    2   18     -1.58      0.00
  -22    3   18      1.60      0.00
  -21    3   18      5.03      0.00
  -20    3   18     -4.38      0.00
  -19    3   18      4.46      0.00
  -18    3   18     -5.55      0.00
  -17    3   18      2.60      0.00
  -16    3   18     -0.51      0.00
  -15    3   18      4.10      0.00
  -14    3   18     -4.37      0.00
  -13    3   18    -20.13      0.00
  -12    3   18      0.66      0.00
  -11    3   18     14.94      0.00
  -10    3   18      2.30      0.00
   -9    3   18      4.35      0.00
   -8    3   18      1.53      0.00
   -7    3   18      6.10      0.00
   -6    3   18    -13.06      0.00
   -5    3   18    -25.07      0.00
   -4    3   18    -13.13      0.00
   -3    3   18     20.65      0.00
   -2    3   18    -13.13      0.00
   -1    3   18    -25.10      0.00
    0    3   18    -12.36      0.00
    1    3   18    -19.06      0.00
    2    3   18     -8.76      0.00
    3    3   18      5.90      0.00
    4    3   18     -3.50      0.00
    5    3   18     24.27      0.00
    6    3   18     -4.29      0.00
    7    3   18      0.13      0.00
    8    3   18     -5.47      0.00
    9    3   18     -4.16      0.00
   10    3   18     -5.88      0.00
   11    3   18     12.54      0.00
   12    3   18      0.81      0.00
   13    3   18     -2.22      0.00
   14    3   18      9.92      0.00
   15    3   18      1.91      0.00
   16    3   18     12.77      0.00
   17    3   18     -8.91      0.00
   18    3   18      3.45      0.00
   19    3   18      4.14      0.00
   20    3   18      3.04      0.00
  -21    4   18      1.02      0.00
  -20    4   18      2.45      0.00
  -19    4   18      4.75      0.00
  -18    4   18      3.86      0.00
  -17    4   18      3.03      0.00
  -16    4   18      5.04      0.00
  -15    4   18     -4.01      0.00
  -14    4   18     -6.40      0.00
  -13    4   18     -2.97      0.00
  -12    4   18     13.14      0.00
  -11    4   18    -12.05      0.00
  -10    4   18     -6.39      0.00
   -9    4   18      2.70      0.00
   -8    4   18     -2.67      0.00
   -7    4   18      8.05      0.00
   -6    4   18      0.31      0.00
   -5    4   18     22.96      0.00
   -4    4   18     32.28      0.00
   -3    4   18      4.82      0.00
   -2    4   18    -28.17      0.00
   -1    4   18      0.37      0.00
    0    4   18     25.42      0.00
    1    4   18    -15.59      0.00
    2    4   18     20.06      0.00
    3    4   18    -18.02      0.00
    4    4   18     -4.72      0.00
    5    4   18     -0.87      0.00
    6    4   18    -38.57      0.00
    7    4   18      2.45      0.00
    8    4   18     30.95      0.00
    9    4   18     -0.13      0.00
   10    4   18     10.48      0.00
   11    4   18     -2.96      0.00
   12    4   18    -15.57      0.00
   13    4   18      5.85      0.00
   14    4   18    -10.42      0.00
   15    4   18     -2.64      0.00
   16    4   18      2.07      0.00
   17    4   18      0.27      0.00
   18    4   18     -5.49      0.00
   19    4   18      0.45      0.00
   20    4   18     -4.61      0.00
  -21    5   18     -0.23      0.00
  -20    5   18     -1.67      0.00
  -19    5   18     -3.14      0.00
  -18    5   18     -4.67      0.00
  -17    5   18      8.85      0.00
  -16    5   18      2.99      0.00
  -15    5   18     -1.88      0.00
  -14    5   18     -2.54      0.00
  -13    5   18    -13.46      0.00
  -12    5   18      6.99      0.00
  -11    5   18    -13.30      0.00
  -10    5   18      4.72      0.00
   -9    5   18      4.85      0.00
   -8    5   18      6.50      0.00
   -7    5   18    -25.32      0.00
   -6    5   18    -14.94      0.00
   -5    5   18     -6.01      0.00
   -4    5   18      0.56      0.00
   -3    5   18      6.29      0.00
   -2    5   18      0.18      0.00
   -1    5   18     -1.50      0.00
    0    5   18     14.86      0.00
    1    5   18    -26.96      0.00
    2    5   18     11.15      0.00
    3    5   18      0.43      0.00
    4    5   18     19.16      0.00
    5    5   18      5.92      0.00
    6    5   18     -3.71      0.00
    7    5   18     -2.04      0.00
    8    5   18     -3.17      0.00
    9    5   18      1.98      0.00
   10    5   18    -11.53      0.00
   11    5   18      4.25      0.00
   12    5   18     -3.15      0.00
   13    5   18      3.06      0.00
   14    5   18     -1.46      0.00
   15    5   18     -4.82      0.00
   16    5   18      1.59      0.00
   17    5   18     -0.07      0.00
   18    5   18     -7.83      0.00
   19    5   18     -0.30      0.00
  -20    6   18      5.05      0.00
  -19    6   18     -2.87      0.00
  -18    6   18      3.79      0.00
  -17    6   18     -1.85      0.00
  -16    6   18     -0.21      0.00
  -15    6   18     -9.02      0.00
  -14    6   18      0.78      0.00
  -13    6   18     -7.23      0.00
  -12    6   18     10.45      0.00
  -11    6   18    -12.28      0.00
  -10    6   18      9.47      0.00
   -9    6   18     -8.00      0.00
   -8    6   18     -7.74      0.00
   -7    6   18      8.08      0.00
   -6    6   18     21.63      0.00
   -5    6   18      9.01      0.00
   -4    6   18      3.53      0.00
   -3    6   18      8.29      0.00
   -2    6   18     -2.32      0.00
   -1    6   18      0.71      0.00
    0    6   18     -3.64      0.00
    1    6   18     11.55      0.00
    2    6   18     46.19      0.00
    3    6   18     -3.83      0.00
    4    6   18    -16.24      0.00
    5    6   18     21.38      0.00
    6    6   18     -4.31      0.00
    7    6   18      8.01      0.00
    8    6   18     11.23      0.00
    9    6   18     11.21      0.00
   10    6   18     20.96      0.00
   11    6   18     -3.48      0.00
   12    6   18    -21.20      0.00
   13    6   18     10.61      0.00
   14    6   18      5.14      0.00
   15    6   18     -8.20      0.00
   16    6   18      6.31      0.00
   17    6   18      3.53      0.00
   18    6   18      1.12      0.00
   19    6   18      0.18      0.00
  -20    7   18     -3.26      0.00
  -19    7   18    -12.40      0.00
  -18    7   18      1.45      0.00
  -17    7   18      3.60      0.00
  -16    7   18      1.94      0.00
  -15    7   18     -1.61      0.00
  -14    7   18      7.47      0.00
  -13    7   18     -3.04      0.00
  -12    7   18     -0.60      0.00
  -11    7   18     -5.87      0.00
  -10    7   18     11.03      0.00
   -9    7   18     11.32      0.00
   -8    7   18      2.23      0.00
   -7    7   18    -22.42      0.00
   -6    7   18     -0.22      0.00
   -5    7   18     -0.94      0.00
   -4    7   18      4.94      0.00
   -3    7   18      4.80      0.00
   -2    7   18      8.26      0.00
   -1    7   18      0.43      0.00
    0    7   18      2.24      0.00
    1    7   18    -26.16      0.00
    2    7   18      2.69      0.00
    3    7   18     -4.32      0.00
    4    7   18      4.38      0.00
    5    7   18     -4.37      0.00
    6    7   18     -8.83      0.00
    7    7   18      0.51      0.00
    8    7   18     -6.21      0.00
    9    7   18      5.00      0.00
   10    7   18    -16.02      0.00
   11    7   18      5.61      0.00
   12    7   18    -12.83      0.00
   13    7   18      3.26      0.00
   14    7   18    -10.33      0.00
   15    7   18     -5.68      0.00
   16    7   18      0.82      0.00
   17    7   18     -1.26      0.00
   18    7   18     -5.06      0.00
  -18    8   18      5.05      0.00
  -17    8   18     -4.34      0.00
  -16    8   18     -2.52      0.00
  -15    8   18    -14.41      0.00
  -14    8   18     10.68      0.00
  -13    8   18     -5.65      0.00
  -12    8   18     10.14      0.00
  -11    8   18    -11.86      0.00
  -10    8   18     13.40      0.00
   -9    8   18     -2.41      0.00
   -8    8   18     -5.09      0.00
   -7    8   18     -5.02      0.00
   -6    8   18     18.97      0.00
   -5    8   18      5.60      0.00
   -4    8   18      8.63      0.00
   -3    8   18    -11.30      0.00
   -2    8   18     -6.40      0.00
   -1    8   18     -0.47      0.00
    0    8   18      3.58      0.00
    1    8   18     -1.23      0.00
    2    8   18     15.64      0.00
    3    8   18     -6.08      0.00
    4    8   18     -7.81      0.00
    5    8   18     -1.38      0.00
    6    8   18    -19.97      0.00
    7    8   18      0.43      0.00
    8    8   18     12.46      0.00
    9    8   18     -1.16      0.00
   10    8   18      5.50      0.00
   11    8   18      6.89      0.00
   12    8   18    -14.16      0.00
   13    8   18     10.17      0.00
   14    8   18     -3.38      0.00
   15    8   18     -0.51      0.00
   16    8   18     10.67      0.00
   17    8   18     -0.35      0.00
  -18    9   18     -1.78      0.00
  -17    9   18      0.00      0.00
  -16    9   18      6.85      0.00
  -15    9   18     -4.60      0.00
  -14    9   18     -0.13      0.00
  -13    9   18    -12.63      0.00
  -12    9   18      4.16      0.00
  -11    9   18     -0.34      0.00
  -10    9   18      3.05      0.00
   -9    9   18      7.12      0.00
   -8    9   18      9.62      0.00
   -7    9   18     -9.96      0.00
   -6    9   18     -1.97      0.00
   -5    9   18     -4.65      0.00
   -4    9   18      8.45      0.00
   -3    9   18      8.49      0.00
   -2    9   18      3.52      0.00
   -1    9   18     -3.12      0.00
    0    9   18     -3.67      0.00
    1    9   18    -11.66      0.00
    2    9   18     -6.96      0.00
    3    9   18      1.13      0.00
    4    9   18     -2.07      0.00
    5    9   18     -8.26      0.00
    6    9   18     -6.00      0.00
    7    9   18     -3.12      0.00
    8    9   18      6.51      0.00
    9    9   18     -9.61      0.00
   10    9   18      0.66      0.00
   11    9   18     -2.31      0.00
   12    9   18     -5.13      0.00
   13    9   18     -6.41      0.00
   14    9   18     -1.56      0.00
   15    9   18     -5.00      0.00
   16    9   18     -1.30      0.00
   17    9   18     -8.01      0.00
  -17   10   18      2.53      0.00
  -16   10   18      2.10      0.00
  -15   10   18      2.31      0.00
  -14   10   18      2.95      0.00
  -13   10   18      6.27      0.00
  -12   10   18     11.24      0.00
  -11   10   18      5.93      0.00
  -10   10   18     -1.38      0.00
   -9   10   18      6.08      0.00
   -8   10   18      0.38      0.00
   -7   10   18     -3.36      0.00
   -6   10   18      5.53      0.00
   -5   10   18      8.67      0.00
   -4   10   18     11.98      0.00
   -3   10   18    -13.13      0.00
   -2   10   18     -2.23      0.00
   -1   10   18      5.78      0.00
    0   10   18     13.53      0.00
    1   10   18     -3.41      0.00
    2   10   18      8.44      0.00
    3   10   18      2.66      0.00
    4   10   18      1.43      0.00
    5   10   18     -8.21      0.00
    6   10   18    -18.27      0.00
    7   10   18      4.59      0.00
    8   10   18     14.61      0.00
    9   10   18     -9.69      0.00
   10   10   18      4.77      0.00
   11   10   18      7.07      0.00
   12   10   18     -2.00      0.00
   13   10   18     -1.47      0.00
   14   10   18     -3.70      0.00
   15   10   18      0.09      0.00
   16   10   18     12.79      0.00
  -16   11   18      1.76      0.00
  -15   11   18     -5.63      0.00
  -14   11   18     -2.29      0.00
  -13   11   18     -8.59      0.00
  -12   11   18     -2.56      0.00
  -11   11   18      0.03      0.00
  -10   11   18     -5.44      0.00
   -9   11   18     14.31      0.00
   -8   11   18     -1.19      0.00
   -7   11   18    -14.94      0.00
   -6   11   18    -10.49      0.00
   -5   11   18      1.01      0.00
   -4   11   18     -0.84      0.00
   -3   11   18     -5.86      0.00
   -2   11   18     -3.39      0.00
   -1   11   18     -1.24      0.00
    0   11   18     -5.46      0.00
    1   11   18     -8.31      0.00
    2   11   18     -5.98      0.00
    3   11   18      7.09      0.00
    4   11   18     -3.41      0.00
    5   11   18      0.41      0.00
    6   11   18     -3.40      0.00
    7   11   18      3.76      0.00
    8   11   18      8.25      0.00
    9   11   18      4.44      0.00
   10   11   18      7.10      0.00
   11   11   18      2.73      0.00
   12   11   18      1.84      0.00
   13   11   18      5.08      0.00
   14   11   18      2.42      0.00
  -15   12   18      1.45      0.00
  -14   12   18      0.71      0.00
  -13   12   18     -1.23      0.00
  -12   12   18      4.81      0.00
  -11   12   18      7.57      0.00
  -10   12   18      2.19      0.00
   -9   12   18     -4.82      0.00
   -8   12   18      2.51      0.00
   -7   12   18      1.43      0.00
   -6   12   18     10.14      0.00
   -5   12   18     -5.18      0.00
   -4   12   18      2.13      0.00
   -3   12   18     -3.84      0.00
   -2   12   18      9.75      0.00
   -1   12   18     -3.27      0.00
    0   12   18      7.14      0.00
    1   12   18      5.15      0.00
    2   12   18     22.42      0.00
    3   12   18     -7.50      0.00
    4   12   18      5.11      0.00
    5   12   18     -2.93      0.00
    6   12   18      4.17      0.00
    7   12   18     -6.23      0.00
    8   12   18      9.40      0.00
    9   12   18     -0.54      0.00
   10   12   18     10.25      0.00
   11   12   18     -3.64      0.00
   12   12   18     -3.24      0.00
   13   12   18      2.59      0.00
  -13   13   18     -7.44      0.00
  -12   13   18     -6.87      0.00
  -11   13   18      2.68      0.00
  -10   13   18      0.32      0.00
   -9   13   18      1.50      0.00
   -8   13   18     -3.08      0.00
   -7   13   18     -8.80      0.00
   -6   13   18      6.23      0.00
   -5   13   18     -5.79      0.00
   -4   13   18      3.19      0.00
   -3   13   18      0.11      0.00
   -2   13   18      3.99      0.00
   -1   13   18     -4.55      0.00
    0   13   18     -9.30      0.00
    1   13   18      0.63      0.00
    2   13   18     -1.38      0.00
    3   13   18      1.46      0.00
    4   13   18     -6.17      0.00
    5   13   18     -3.22      0.00
    6   13   18      1.13      0.00
    7   13   18     -3.93      0.00
    8   13   18      2.53      0.00
    9   13   18      2.37      0.00
   10   13   18      4.76      0.00
   11   13   18      0.48      0.00
  -11   14   18      6.27      0.00
  -10   14   18      5.83      0.00
   -9   14   18     -0.79      0.00
   -8   14   18      1.42      0.00
   -7   14   18     -0.55      0.00
   -6   14   18     10.19      0.00
   -5   14   18     -5.09      0.00
   -4   14   18      0.07      0.00
   -3   14   18     -4.59      0.00
   -2   14   18      6.14      0.00
   -1   14   18      3.24      0.00
    0   14   18      0.42      0.00
    1   14   18      8.43      0.00
    2   14   18      7.24      0.00
    3   14   18      4.60      0.00
    4   14   18      1.23      0.00
    5   14   18      3.13      0.00
    6   14   18      0.27      0.00
    7   14   18      1.86      0.00
    8   14   18      2.08      0.00
    9   14   18      2.56      0.00
   -8   15   18     -5.73      0.00
   -7   15   18     -0.86      0.00
   -6   15   18      2.47      0.00
   -5   15   18     -4.05      0.00
   -4   15   18      8.66      0.00
   -3   15   18      5.99      0.00
   -2   15   18      4.87      0.00
   -1   15   18     -2.63      0.00
    0   15   18     -3.42      0.00
    1   15   18      6.51      0.00
    2   15   18     -0.35      0.00
    3   15   18      2.19      0.00
    4   15   18     -5.69      0.00
    5   15   18      0.83      0.00
    6   15   18      1.39      0.00
   -3   16   18     -6.14      0.00
   -2   16   18      3.61      0.00
   -1   16   18      3.28      0.00
    0   16   18      0.19      0.00
    1   16   18      0.33      0.00
  -21    0   19     10.90      0.00
  -19    0   19      7.33      0.00
  -17    0   19     -0.74      0.00
  -15    0   19     26.17      0.00
  -13    0   19      0.11      0.00
  -11    0   19     18.26      0.00
   -9    0   19      5.96      0.00
   -7    0   19     23.42      0.00
   -5    0   19    -11.90      0.00
   -3    0   19     17.87      0.00
   -1    0   19     11.28      0.00
    1    0   19     11.02      0.00
    3    0   19    -10.23      0.00
    5    0   19     -5.04      0.00
    7    0   19     -6.13      0.00
    9    0   19      6.61      0.00
   11    0   19     14.82      0.00
   13    0   19     -2.06      0.00
   15    0   19      9.60      0.00
   17    0   19      7.35      0.00
   19    0   19      0.92      0.00
  -20    1   19      2.68      0.00
  -19    1   19      2.38      0.00
  -18    1   19     14.55      0.00
  -17    1   19     -0.43      0.00
  -16    1   19     -3.12      0.00
  -15    1   19     -6.61      0.00
  -14    1   19     -3.60      0.00
  -13    1   19     -5.99      0.00
  -12    1   19      8.33      0.00
  -11    1   19    -13.20      0.00
  -10    1   19    -12.39      0.00
   -9    1   19      0.08      0.00
   -8    1   19    -11.41      0.00
   -7    1   19    -10.98      0.00
   -6    1   19      3.02      0.00
   -5    1   19      9.52      0.00
   -4    1   19      2.42      0.00
   -3    1   19    -10.09      0.00
   -2    1   19    -12.51      0.00
   -1    1   19     18.08      0.00
    0    1   19      3.97      0.00
    1    1   19    -12.96      0.00
    2    1   19     -5.03      0.00
    3    1   19     21.60      0.00
    4    1   19    -12.45      0.00
    5    1   19      1.66      0.00
    6    1   19      1.99      0.00
    7    1   19     11.32      0.00
    8    1   19      5.19      0.00
    9    1   19     -8.37      0.00
   10    1   19      8.59      0.00
   11    1   19      3.05      0.00
   12    1   19      2.81      0.00
   13    1   19     -2.53      0.00
   14    1   19      4.39      0.00
   15    1   19      4.25      0.00
   16    1   19     -3.98      0.00
   17    1   19      2.08      0.00
   18    1   19     10.92      0.00
   19    1   19      0.97      0.00
  -20    2   19     -1.67      0.00
  -19    2   19     -2.88      0.00
  -18    2   19     -1.96      0.00
  -17    2   19      4.52      0.00
  -16    2   19      6.39      0.00
  -15    2   19     18.74      0.00
  -14    2   19     -2.67      0.00
  -13    2   19      7.99      0.00
  -12    2   19      5.51      0.00
  -11    2   19      2.25      0.00
  -10    2   19     -8.72      0.00
   -9    2   19      4.06      0.00
   -8    2   19     -0.60      0.00
   -7    2   19      2.75      0.00
   -6    2   19    -20.16      0.00
   -5    2   19    -14.95      0.00
   -4    2   19      9.91      0.00
   -3    2   19      4.16      0.00
   -2    2   19      5.00      0.00
   -1    2   19     12.04      0.00
    0    2   19     23.66      0.00
    1    2   19      4.17      0.00
    2    2   19     16.77      0.00
    3    2   19     -1.80      0.00
    4    2   19      2.61      0.00
    5    2   19     -1.65      0.00
    6    2   19     -1.51      0.00
    7    2   19      0.37      0.00
    8    2   19     -0.01      0.00
    9    2   19      0.38      0.00
   10    2   19     11.87      0.00
   11    2   19      0.17      0.00
   12    2   19      5.44      0.00
   13    2   19    -12.07      0.00
   14    2   19      5.74      0.00
   15    2   19      0.83      0.00
   16    2   19     -7.06      0.00
   17    2   19     10.20      0.00
   18    2   19      0.35      0.00
   19    2   19      0.05      0.00
  -21    3   19      7.92      0.00
  -20    3   19      3.16      0.00
  -19    3   19     -0.02      0.00
  -18    3   19      5.31      0.00
  -17    3   19     -0.43      0.00
  -16    3   19     -6.87      0.00
  -15    3   19     -7.31      0.00
  -14    3   19    -12.51      0.00
  -13    3   19     -5.00      0.00
  -12    3   19      9.83      0.00
  -11    3   19     -8.28      0.00
  -10    3   19    -10.29      0.00
   -9    3   19      1.93      0.00
   -8    3   19     -5.43      0.00
   -7    3   19     -3.53      0.00
   -6    3   19     -5.37      0.00
   -5    3   19    -10.10      0.00
   -4    3   19     -8.47      0.00
   -3    3   19    -10.68      0.00
   -2    3   19    -20.67      0.00
   -1    3   19    -15.23      0.00
    0    3   19      8.73      0.00
    1    3   19    -21.52      0.00
    2    3   19     -0.76      0.00
    3    3   19    -10.41      0.00
    4    3   19    -10.74      0.00
    5    3   19     14.04      0.00
    6    3   19     -7.21      0.00
    7    3   19     -7.30      0.00
    8    3   19    -12.21      0.00
    9    3   19     -0.57      0.00
   10    3   19     -5.00      0.00
   11    3   19     -5.83      0.00
   12    3   19     -4.91      0.00
   13    3   19     -8.19      0.00
   14    3   19      0.86      0.00
   15    3   19    -10.38      0.00
   16    3   19     -8.83      0.00
   17    3   19     -4.98      0.00
   18    3   19      3.94      0.00
   19    3   19     -1.94      0.00
  -21    4   19     -0.41      0.00
  -20    4   19      4.47      0.00
  -19    4   19     -5.23      0.00
  -18    4   19      1.46      0.00
  -17    4   19      0.27      0.00
  -16    4   19      0.98      0.00
  -15    4   19     11.55      0.00
  -14    4   19      0.56      0.00
  -13    4   19      4.95      0.00
  -12    4   19     -6.25      0.00
  -11    4   19      2.57      0.00
  -10    4   19      3.18      0.00
   -9    4   19     13.63      0.00
   -8    4   19     -8.50      0.00
   -7    4   19     12.21      0.00
   -6    4   19     -7.29      0.00
   -5    4   19      4.28      0.00
   -4    4   19     -2.70      0.00
   -3    4   19     14.40      0.00
   -2    4   19      1.79      0.00
   -1    4   19     27.35      0.00
    0    4   19     10.01      0.00
    1    4   19      7.87      0.00
    2    4   19      9.38      0.00
    3    4   19      6.19      0.00
    4    4   19      7.60      0.00
    5    4   19      2.47      0.00
    6    4   19    -16.03      0.00
    7    4   19      2.28      0.00
    8    4   19      8.60      0.00
    9    4   19     -1.11      0.00
   10    4   19     -7.72      0.00
   11    4   19     -3.89      0.00
   12    4   19     11.66      0.00
   13    4   19    -10.95      0.00
   14    4   19     -4.96      0.00
   15    4   19     -0.86      0.00
   16    4   19      0.93      0.00
   17    4   19      4.39      0.00
   18    4   19     -8.19      0.00
   19    4   19     -1.32      0.00
  -20    5   19     -1.34      0.00
  -19    5   19     -2.10      0.00
  -18    5   19      9.80      0.00
  -17    5   19     -2.65      0.00
  -16    5   19     -8.11      0.00
  -15    5   19     -0.27      0.00
  -14    5   19     -9.37      0.00
  -13    5   19     -6.67      0.00
  -12    5   19      7.41      0.00
  -11    5   19      7.69      0.00
  -10    5   19     -3.70      0.00
   -9    5   19      3.37      0.00
   -8    5   19      4.49      0.00
   -7    5   19     20.98      0.00
   -6    5   19      4.17      0.00
   -5    5   19    -14.88      0.00
   -4    5   19      0.60      0.00
   -3    5   19     20.80      0.00
   -2    5   19    -13.71      0.00
   -1    5   19    -18.24      0.00
    0    5   19      6.04      0.00
    1    5   19      6.28      0.00
    2    5   19     -6.24      0.00
    3    5   19    -23.98      0.00
    4    5   19    -10.13      0.00
    5    5   19     32.20      0.00
    6    5   19     -9.52      0.00
    7    5   19    -18.57      0.00
    8    5   19     -6.74      0.00
    9    5   19     18.71      0.00
   10    5   19     -9.74      0.00
   11    5   19     -1.51      0.00
   12    5   19      3.79      0.00
   13    5   19      3.58      0.00
   14    5   19     -1.71      0.00
   15    5   19    -11.56      0.00
   16    5   19      0.48      0.00
   17    5   19      2.95      0.00
   18    5   19      0.02      0.00
  -20    6   19      6.86      0.00
  -19    6   19      4.56      0.00
  -18    6   19      7.12      0.00
  -17    6   19      5.85      0.00
  -16    6   19      9.87      0.00
  -15    6   19     13.72      0.00
  -14    6   19     -1.02      0.00
  -13    6   19     -1.08      0.00
  -12    6   19     -4.10      0.00
  -11    6   19     -1.84      0.00
  -10    6   19     -4.08      0.00
   -9    6   19      1.26      0.00
   -8    6   19      4.94      0.00
   -7    6   19      5.92      0.00
   -6    6   19     -9.90      0.00
   -5    6   19    -14.24      0.00
   -4    6   19     11.82      0.00
   -3    6   19     -2.27      0.00
   -2    6   19     -2.26      0.00
   -1    6   19      5.25      0.00
    0    6   19     10.51      0.00
    1    6   19      1.49      0.00
    2    6   19     -1.92      0.00
    3    6   19     -7.03      0.00
    4    6   19     -5.61      0.00
    5    6   19      3.28      0.00
    6    6   19    -20.41      0.00
    7    6   19     -8.93      0.00
    8    6   19     -0.50      0.00
    9    6   19     -0.99      0.00
   10    6   19     -7.17      0.00
   11    6   19     -3.74      0.00
   12    6   19      1.40      0.00
   13    6   19     -1.58      0.00
   14    6   19      0.73      0.00
   15    6   19     -3.19      0.00
   16    6   19      3.82      0.00
   17    6   19     -1.59      0.00
   18    6   19      3.05      0.00
  -19    7   19     -2.14      0.00
  -18    7   19     10.42      0.00
  -16    7   19     -4.14      0.00
  -15    7   19      2.48      0.00
  -14    7   19     -0.73      0.00
  -13    7   19      1.30      0.00
  -12    7   19     -3.38      0.00
  -11    7   19      5.99      0.00
  -10    7   19     -0.24      0.00
   -9    7   19     18.59      0.00
   -8    7   19    -15.99      0.00
   -7    7   19     12.28      0.00
   -6    7   19      2.48      0.00
   -5    7   19      4.73      0.00
   -4    7   19    -18.17      0.00
   -3    7   19     -0.77      0.00
   -2    7   19     -6.98      0.00
   -1    7   19      6.98      0.00
    0    7   19     -9.07      0.00
    1    7   19    -18.99      0.00
    2    7   19      0.88      0.00
    3    7   19      7.27      0.00
    4    7   19    -11.00      0.00
    5    7   19     10.80      0.00
    6    7   19      1.98      0.00
    7    7   19     -1.06      0.00
    8    7   19     -3.95      0.00
    9    7   19     -2.01      0.00
   10    7   19      0.71      0.00
   11    7   19      6.43      0.00
   12    7   19      2.03      0.00
   13    7   19     -0.46      0.00
   14    7   19     -1.56      0.00
   15    7   19     -1.83      0.00
   16    7   19     -1.02      0.00
   17    7   19      4.31      0.00
  -18    8   19      3.29      0.00
  -17    8   19     14.84      0.00
  -16    8   19      7.17      0.00
  -15    8   19      9.98      0.00
  -14    8   19     -1.06      0.00
  -13    8   19     11.96      0.00
  -12    8   19     -0.35      0.00
  -11    8   19    -12.53      0.00
  -10    8   19     -1.96      0.00
   -9    8   19      5.69      0.00
   -8    8   19      2.28      0.00
   -7    8   19     -0.90      0.00
   -6    8   19    -14.11      0.00
   -5    8   19     -3.83      0.00
   -4    8   19      1.81      0.00
   -3    8   19     -7.28      0.00
   -2    8   19     -8.18      0.00
   -1    8   19      8.81      0.00
    0    8   19     -1.64      0.00
    1    8   19     -2.37      0.00
    2    8   19     -7.07      0.00
    3    8   19     -7.13      0.00
    4    8   19    -17.71      0.00
    5    8   19      1.11      0.00
    6    8   19     -9.64      0.00
    7    8   19     -7.91      0.00
    8    8   19     -1.08      0.00
    9    8   19     -4.27      0.00
   10    8   19      5.91      0.00
   11    8   19     -4.91      0.00
   12    8   19     -4.19      0.00
   13    8   19      3.72      0.00
   14    8   19      1.35      0.00
   15    8   19     -3.14      0.00
   16    8   19     -3.39      0.00
   17    8   19      5.03      0.00
  -17    9   19      2.40      0.00
  -16    9   19     -2.65      0.00
  -15    9   19     -2.73      0.00
  -14    9   19     -2.17      0.00
  -13    9   19      6.88      0.00
  -12    9   19     -1.81      0.00
  -11    9   19     -9.21      0.00
  -10    9   19      3.33      0.00
   -9    9   19     15.03      0.00
   -8    9   19     -9.97      0.00
   -7    9   19     -4.11      0.00
   -6    9   19      3.62      0.00
   -5    9   19      2.50      0.00
   -4    9   19    -10.72      0.00
   -3    9   19     -2.46      0.00
   -2    9   19     -1.27      0.00
   -1    9   19     10.16      0.00
    0    9   19     -5.30      0.00
    1    9   19    -16.51      0.00
    2    9   19      2.59      0.00
    3    9   19     11.88      0.00
    4    9   19     -4.68      0.00
    5    9   19     12.36      0.00
    6    9   19      0.62      0.00
    7    9   19      3.85      0.00
    8    9   19     -2.64      0.00
    9    9   19     -3.96      0.00
   10    9   19      6.29      0.00
   11    9   19      3.69      0.00
   12    9   19      7.50      0.00
   13    9   19     -1.55      0.00
   14    9   19      5.46      0.00
   15    9   19     -2.36      0.00
   16    9   19      0.33      0.00
  -16   10   19     -0.77      0.00
  -15   10   19      7.37      0.00
  -14   10   19     -3.34      0.00
  -13   10   19      7.98      0.00
  -12   10   19     -9.40      0.00
  -11   10   19     -8.63      0.00
  -10   10   19      5.98      0.00
   -9   10   19      5.27      0.00
   -8   10   19     -3.87      0.00
   -7   10   19      1.81      0.00
   -6   10   19      6.51      0.00
   -5   10   19      2.47      0.00
   -4   10   19     -0.27      0.00
   -3   10   19     -5.82      0.00
   -2   10   19     10.04      0.00
   -1   10   19     13.13      0.00
    0   10   19      2.38      0.00
    1   10   19     -2.12      0.00
    2   10   19     10.22      0.00
    3   10   19     -3.20      0.00
    4   10   19      1.61      0.00
    5   10   19      0.57      0.00
    6   10   19     11.60      0.00
    7   10   19      3.29      0.00
    8   10   19     13.34      0.00
    9   10   19     -4.66      0.00
   10   10   19      6.51      0.00
   11   10   19      1.83      0.00
   12   10   19     -2.26      0.00
   13   10   19     -1.94      0.00
   14   10   19     -0.06      0.00
   15   10   19     -0.90      0.00
  -15   11   19      1.54      0.00
  -14   11   19     -4.13      0.00
  -13   11   19      0.28      0.00
  -12   11   19     -0.70      0.00
  -11   11   19     -7.66      0.00
  -10   11   19     -6.68      0.00
   -9   11   19     -1.43      0.00
   -8   11   19     -7.98      0.00
   -7   11   19     -6.63      0.00
   -6   11   19     -7.77      0.00
   -5   11   19     -9.41      0.00
   -4   11   19     -0.91      0.00
   -3   11   19      5.26      0.00
   -2   11   19     -5.59      0.00
   -1   11   19      2.50      0.00
    0   11   19      1.63      0.00
    1   11   19    -12.21      0.00
    2   11   19     -9.77      0.00
    3   11   19     -4.62      0.00
    4   11   19      2.30      0.00
    5   11   19      4.62      0.00
    6   11   19    -10.13      0.00
    7   11   19     -5.91      0.00
    8   11   19      4.36      0.00
    9   11   19     -1.80      0.00
   10   11   19     -2.21      0.00
   11   11   19      2.52      0.00
   12   11   19      6.03      0.00
   13   11   19      3.44      0.00
  -14   12   19     -2.28      0.00
  -13   12   19      2.91      0.00
  -12   12   19      1.12      0.00
  -11   12   19     -4.00      0.00
  -10   12   19      7.24      0.00
   -9   12   19      2.18      0.00
   -8   12   19      8.45      0.00
   -7   12   19      3.53      0.00
   -6   12   19      2.62      0.00
   -5   12   19      0.03      0.00
   -4   12   19      0.90      0.00
   -3   12   19      0.01      0.00
   -2   12   19     -1.20      0.00
   -1   12   19     16.21      0.00
    0   12   19     -3.87      0.00
    1   12   19      9.26      0.00
    2   12   19     -1.12      0.00
    3   12   19      1.15      0.00
    4   12   19     -2.92      0.00
    5   12   19      0.46      0.00
    6   12   19     11.54      0.00
    7   12   19      3.61      0.00
    8   12   19      8.44      0.00
    9   12   19     -5.32      0.00
   10   12   19      3.57      0.00
   11   12   19      3.17      0.00
   12   12   19     -5.73      0.00
  -12   13   19      0.13      0.00
  -11   13   19     -3.53      0.00
  -10   13   19     -0.53      0.00
   -9   13   19     -5.13      0.00
   -8   13   19     -1.94      0.00
   -7   13   19     -6.61      0.00
   -6   13   19      7.09      0.00
   -5   13   19     -7.32      0.00
   -4   13   19      4.24      0.00
   -3   13   19     -0.69      0.00
   -2   13   19     10.11      0.00
   -1   13   19      3.98      0.00
    0   13   19      0.45      0.00
    1   13   19    -11.93      0.00
    2   13   19     -2.09      0.00
    3   13   19      1.77      0.00
    4   13   19     -5.61      0.00
    5   13   19     -4.83      0.00
    6   13   19     -5.37      0.00
    7   13   19     -6.29      0.00
    8   13   19     -1.46      0.00
    9   13   19     -8.05      0.00
   10   13   19      2.80      0.00
  -10   14   19      3.08      0.00
   -9   14   19      8.60      0.00
   -8   14   19      3.47      0.00
   -7   14   19      4.32      0.00
   -6   14   19     -0.27      0.00
   -5   14   19      2.78      0.00
   -4   14   19     -4.69      0.00
   -3   14   19     -3.94      0.00
   -2   14   19     -1.21      0.00
   -1   14   19      9.40      0.00
    0   14   19     -4.98      0.00
    1   14   19      3.96      0.00
    2   14   19     -2.90      0.00
    3   14   19      1.97      0.00
    4   14   19     -6.74      0.00
    5   14   19      1.79      0.00
    6   14   19      5.26      0.00
    7   14   19      4.62      0.00
    8   14   19      1.70      0.00
   -6   15   19     -2.77      0.00
   -5   15   19      3.69      0.00
   -4   15   19     -5.92      0.00
   -3   15   19      3.04      0.00
   -2   15   19     -0.37      0.00
   -1   15   19      2.40      0.00
    0   15   19     -6.08      0.00
    1   15   19     -3.17      0.00
    2   15   19     -1.12      0.00
    3   15   19      4.25      0.00
    4   15   19     -5.68      0.00
  -20    0   20      2.76      0.00
  -18    0   20     -8.37      0.00
  -16    0   20     -7.08      0.00
  -14    0   20      3.47      0.00
  -12    0   20     -4.14      0.00
  -10    0   20      7.94      0.00
   -8    0   20      0.72      0.00
   -6    0   20     30.90      0.00
   -4    0   20    -17.12      0.00
   -2    0   20     16.80      0.00
    0    0   20    -22.36      0.00
    2    0   20     37.42      0.00
    4    0   20    -26.01      0.00
    6    0   20     25.18      0.00
    8    0   20    -12.80      0.00
   10    0   20     25.39      0.00
   12    0   20    -26.26      0.00
   14    0   20      0.77      0.00
   16    0   20     -4.93      0.00
   18    0   20     -6.36      0.00
  -21    1   20    -21.65      0.00
  -20    1   20      5.04      0.00
  -19    1   20     -7.98      0.00
  -18    1   20      3.36      0.00
  -17    1   20      0.91      0.00
  -16    1   20     -5.60      0.00
  -15    1   20     -7.94      0.00
  -14    1   20      0.75      0.00
  -13    1   20    -19.39      0.00
  -12    1   20     -2.15      0.00
  -11    1   20      4.94      0.00
  -10    1   20      3.49      0.00
   -9    1   20      7.13      0.00
   -8    1   20     -0.18      0.00
   -7    1   20    -23.57      0.00
   -6    1   20      2.33      0.00
   -5    1   20      7.40      0.00
   -4    1   20     -2.70      0.00
   -3    1   20     28.77      0.00
   -2    1   20     -5.89      0.00
   -1    1   20     -5.01      0.00
    0    1   20     -9.79      0.00
    1    1   20     -2.03      0.00
    2    1   20    -14.49      0.00
    3    1   20     24.62      0.00
    4    1   20    -21.19      0.00
    5    1   20     11.81      0.00
    6    1   20    -18.00      0.00
    7    1   20     -0.05      0.00
    8    1   20    -15.87      0.00
    9    1   20     24.95      0.00
   10    1   20     -4.85      0.00
   11    1   20      9.70      0.00
   12    1   20      0.40      0.00
   13    1   20      9.01      0.00
   14    1   20      1.84      0.00
   15    1   20     -0.75      0.00
   16    1   20     -1.92      0.00
   17    1   20      3.59      0.00
   18    1   20     -2.43      0.00
   19    1   20     -3.61      0.00
  -20    2   20     17.04      0.00
  -19    2   20    -11.21      0.00
  -18    2   20      3.67      0.00
  -17    2   20     -7.10      0.00
  -16    2   20      1.25      0.00
  -15    2   20     -5.78      0.00
  -14    2   20      0.63      0.00
  -13    2   20     -5.02      0.00
  -12    2   20     -1.97      0.00
  -11    2   20     -3.77      0.00
  -10    2   20     -7.80      0.00
   -9    2   20      4.02      0.00
   -8    2   20      7.74      0.00
   -7    2   20      4.94      0.00
   -6    2   20     12.00      0.00
   -5    2   20     11.19      0.00
   -4    2   20     11.09      0.00
   -3    2   20      5.70      0.00
   -2    2   20     -4.81      0.00
   -1    2   20      6.41      0.00
    0    2   20      2.85      0.00
    1    2   20     -2.35      0.00
    2    2   20      2.71      0.00
    3    2   20      6.79      0.00
    4    2   20    -10.43      0.00
    5    2   20      2.46      0.00
    6    2   20     -6.29      0.00
    7    2   20      9.80      0.00
    8    2   20     -6.18      0.00
    9    2   20      3.63      0.00
   10    2   20      2.68      0.00
   11    2   20     -2.95      0.00
   12    2   20    -22.17      0.00
   13    2   20     -9.07      0.00
   14    2   20     -2.72      0.00
   15    2   20     -2.55      0.00
   16    2   20     -0.67      0.00
   17    2   20      2.71      0.00
   18    2   20     -6.69      0.00
  -20    3   20      7.07      0.00
  -19    3   20     -7.85      0.00
  -18    3   20      3.02      0.00
  -17    3   20      3.59      0.00
  -16    3   20      5.95      0.00
  -15    3   20      2.86      0.00
  -14    3   20      1.27      0.00
  -13    3   20    -13.73      0.00
  -12    3   20     11.29      0.00
  -11    3   20     18.76      0.00
  -10    3   20     -5.90      0.00
   -9    3   20      3.13      0.00
   -8    3   20      5.51      0.00
   -7    3   20    -14.46      0.00
   -6    3   20     -0.16      0.00
   -5    3   20     -3.78      0.00
   -4    3   20     11.86      0.00
   -3    3   20     29.08      0.00
   -2    3   20      1.15      0.00
   -1    3   20     -7.21      0.00
    0    3   20     10.83      0.00
    1    3   20    -10.48      0.00
    2    3   20     -6.56      0.00
    3    3   20     13.36      0.00
    4    3   20    -11.42      0.00
    5    3   20    -20.63      0.00
    6    3   20    -10.34      0.00
    7    3   20    -14.30      0.00
    8    3   20     -8.72      0.00
    9    3   20     -3.67      0.00
   10    3   20      0.30      0.00
   11    3   20     15.38      0.00
   12    3   20     -3.03      0.00
   13    3   20     -5.43      0.00
   14    3   20      3.14      0.00
   15    3   20      3.58      0.00
   16    3   20    -10.39      0.00
   17    3   20     -4.18      0.00
   18    3   20      1.02      0.00
  -20    4   20     11.30      0.00
  -19    4   20     -2.77      0.00
  -18    4   20     -0.51      0.00
  -17    4   20     -7.46      0.00
  -16    4   20      4.88      0.00
  -15    4   20     -1.59      0.00
  -14    4   20      1.41      0.00
  -13    4   20     -4.61      0.00
  -12    4   20      9.69      0.00
  -11    4   20      2.11      0.00
  -10    4   20     -8.17      0.00
   -9    4   20      9.63      0.00
   -8    4   20     11.29      0.00
   -7    4   20     -1.17      0.00
   -6    4   20      0.94      0.00
   -5    4   20     -2.58      0.00
   -4    4   20     16.68      0.00
   -3    4   20     -6.71      0.00
   -2    4   20    -12.96      0.00
   -1    4   20     -0.92      0.00
    0    4   20     11.00      0.00
    1    4   20     -1.28      0.00
    2    4   20     -2.21      0.00
    3    4   20     15.76      0.00
    4    4   20      8.00      0.00
    5    4   20      5.85      0.00
    6    4   20     -3.89      0.00
    7    4   20     10.59      0.00
    8    4   20     22.78      0.00
    9    4   20     -5.15      0.00
   10    4   20     12.60      0.00
   11    4   20     -5.81      0.00
   12    4   20      4.61      0.00
   13    4   20    -13.05      0.00
   14    4   20      9.64      0.00
   15    4   20      2.14      0.00
   16    4   20     14.27      0.00
   17    4   20      6.02      0.00
   18    4   20      1.19      0.00
  -19    5   20     -2.54      0.00
  -18    5   20     -3.94      0.00
  -17    5   20      5.63      0.00
  -16    5   20      1.23      0.00
  -15    5   20     -3.93      0.00
  -14    5   20     -6.69      0.00
  -13    5   20     -5.67      0.00
  -12    5   20     11.53      0.00
  -11    5   20     10.31      0.00
  -10    5   20    -15.73      0.00
   -9    5   20     12.47      0.00
   -8    5   20      6.92      0.00
   -7    5   20    -21.81      0.00
   -6    5   20     -6.37      0.00
   -5    5   20     -0.12      0.00
   -4    5   20     17.45      0.00
   -3    5   20      9.42      0.00
   -2    5   20     -6.82      0.00
   -1    5   20    -15.83      0.00
    0    5   20     15.90      0.00
    1    5   20    -16.55      0.00
    2    5   20    -13.32      0.00
    3    5   20      3.49      0.00
    4    5   20     -5.87      0.00
    5    5   20     -4.25      0.00
    6    5   20     -3.72      0.00
    7    5   20    -18.65      0.00
    8    5   20      7.19      0.00
    9    5   20      7.49      0.00
   10    5   20      6.48      0.00
   11    5   20      7.38      0.00
   12    5   20      3.87      0.00
   13    5   20     -3.57      0.00
   14    5   20      5.76      0.00
   15    5   20     -5.45      0.00
   16    5   20     -7.47      0.00
   17    5   20      0.05      0.00
  -19    6   20      4.77      0.00
  -18    6   20      0.03      0.00
  -17    6   20      1.15      0.00
  -16    6   20      1.28      0.00
  -15    6   20      2.95      0.00
  -14    6   20      7.93      0.00
  -13    6   20     -6.54      0.00
  -12    6   20      6.05      0.00
  -11    6   20      5.35      0.00
  -10    6   20      6.00      0.00
   -9    6   20      2.38      0.00
   -8    6   20     -3.18      0.00
   -7    6   20     -2.55      0.00
   -6    6   20      9.61      0.00
   -5    6   20    -16.33      0.00
   -4    6   20     -2.34      0.00
   -3    6   20     -4.41      0.00
   -2    6   20     10.34      0.00
   -1    6   20    -16.10      0.00
    0    6   20     -1.69      0.00
    1    6   20    -10.54      0.00
    2    6   20     17.78      0.00
    3    6   20     -7.05      0.00
    4    6   20    -12.77      0.00
    5    6   20      0.61      0.00
    6    6   20     -6.01      0.00
    7    6   20     -4.79      0.00
    8    6   20      8.24      0.00
    9    6   20      0.50      0.00
   10    6   20      7.90      0.00
   11    6   20    -10.58      0.00
   12    6   20     -6.51      0.00
   13    6   20     -6.13      0.00
   14    6   20     -0.82      0.00
   15    6   20     -1.97      0.00
   16    6   20      2.04      0.00
   17    6   20      4.56      0.00
  -18    7   20      1.83      0.00
  -17    7   20      1.47      0.00
  -16    7   20     -7.50      0.00
  -15    7   20    -10.64      0.00
  -14    7   20     -4.78      0.00
  -13    7   20    -19.23      0.00
  -12    7   20     -0.47      0.00
  -11    7   20     -2.54      0.00
  -10    7   20     -5.44      0.00
   -9    7   20     -2.52      0.00
   -8    7   20      1.27      0.00
   -7    7   20    -16.19      0.00
   -6    7   20      2.28      0.00
   -5    7   20     -3.99      0.00
   -4    7   20      7.59      0.00
   -3    7   20     14.10      0.00
   -2    7   20     -0.52      0.00
   -1    7   20    -13.11      0.00
    0    7   20     13.97      0.00
    1    7   20     -7.75      0.00
    2    7   20      4.47      0.00
    3    7   20      1.25      0.00
    4    7   20      0.91      0.00
    5    7   20      3.99      0.00
    6    7   20      8.01      0.00
    7    7   20    -17.74      0.00
    8    7   20     10.63      0.00
    9    7   20      7.02      0.00
   10    7   20      5.88      0.00
   11    7   20      7.15      0.00
   12    7   20     10.87      0.00
   13    7   20     -3.21      0.00
   14    7   20      5.63      0.00
   15    7   20     -0.17      0.00
   16    7   20     -1.59      0.00
  -17    8   20      5.09      0.00
  -16    8   20     -5.60      0.00
  -15    8   20      5.87      0.00
  -14    8   20      4.22      0.00
  -13    8   20      1.68      0.00
  -12    8   20     -2.50      0.00
  -11    8   20      3.28      0.00
  -10    8   20      5.88      0.00
   -9    8   20      7.86      0.00
   -8    8   20      1.53      0.00
   -7    8   20     -4.44      0.00
   -6    8   20      2.12      0.00
   -5    8   20     -1.45      0.00
   -4    8   20      6.52      0.00
   -3    8   20      6.47      0.00
   -2    8   20     -4.16      0.00
   -1    8   20      6.47      0.00
    0    8   20     16.71      0.00
    1    8   20      0.41      0.00
    2    8   20     10.52      0.00
    3    8   20      3.38      0.00
    4    8   20      9.05      0.00
    5    8   20      6.34      0.00
    6    8   20    -14.72      0.00
    7    8   20      1.36      0.00
    8    8   20     17.23      0.00
    9    8   20      8.38      0.00
   11    8   20     -6.03      0.00
   12    8   20     -4.15      0.00
   13    8   20     -8.46      0.00
   14    8   20     -7.12      0.00
   15    8   20     -6.49      0.00
  -17    9   20     -1.88      0.00
  -16    9   20      0.59      0.00
  -15    9   20     -6.31      0.00
  -14    9   20     -2.66      0.00
  -13    9   20    -15.42      0.00
  -12    9   20      2.14      0.00
  -11    9   20     -0.04      0.00
  -10    9   20     -2.32      0.00
   -9    9   20     -4.91      0.00
   -8    9   20      1.68      0.00
   -7    9   20     -8.74      0.00
   -6    9   20      2.26      0.00
   -5    9   20     -6.31      0.00
   -4    9   20     -0.79      0.00
   -3    9   20     13.01      0.00
   -2    9   20     -5.57      0.00
   -1    9   20     -4.28      0.00
    0    9   20     -0.41      0.00
    1    9   20     -5.62      0.00
    2    9   20      1.19      0.00
    3    9   20      9.39      0.00
    4    9   20     -6.52      0.00
    5    9   20      3.81      0.00
    6    9   20      1.18      0.00
    7    9   20     -1.53      0.00
    8    9   20     -3.60      0.00
    9    9   20      7.84      0.00
   10    9   20     -6.36      0.00
   11    9   20     19.89      0.00
   12    9   20      1.24      0.00
   13    9   20     -1.21      0.00
   14    9   20      4.99      0.00
   15    9   20      3.70      0.00
  -15   10   20     -1.97      0.00
  -14   10   20      0.21      0.00
  -13   10   20     -3.50      0.00
  -12   10   20      4.19      0.00
  -11   10   20     -2.28      0.00
  -10   10   20      4.00      0.00
   -9   10   20      7.11      0.00
   -8   10   20     11.69      0.00
   -7   10   20     -3.96      0.00
   -6   10   20      0.43      0.00
   -5   10   20      5.06      0.00
   -4   10   20      8.64      0.00
   -3   10   20      3.39      0.00
   -2   10   20    -14.62      0.00
   -1   10   20      8.52      0.00
    0   10   20      9.75      0.00
    1   10   20     -4.56      0.00
    2   10   20      2.96      0.00
    3   10   20      2.62      0.00
    4   10   20      8.24      0.00
    5   10   20     -3.18      0.00
    6   10   20    -13.02      0.00
    7   10   20     -0.59      0.00
    8   10   20     17.99      0.00
    9   10   20      3.34      0.00
   10   10   20      0.54      0.00
   11   10   20      2.52      0.00
   12   10   20     -2.46      0.00
   13   10   20     -4.64      0.00
  -14   11   20      2.39      0.00
  -13   11   20     -6.53      0.00
  -12   11   20      2.45      0.00
  -11   11   20     -8.63      0.00
  -10   11   20      6.85      0.00
   -9   11   20      4.08      0.00
   -8   11   20      5.40      0.00
   -7   11   20    -10.19      0.00
   -6   11   20      7.68      0.00
   -5   11   20      5.74      0.00
   -4   11   20      1.20      0.00
   -3   11   20      6.34      0.00
   -2   11   20     -4.78      0.00
   -1   11   20      6.73      0.00
    0   11   20     -1.95      0.00
    1   11   20     -8.59      0.00
    2   11   20     -2.83      0.00
    3   11   20      5.77      0.00
    4   11   20     -4.27      0.00
    5   11   20      0.42      0.00
    6   11   20     -2.10      0.00
    7   11   20    -10.52      0.00
    8   11   20     -1.53      0.00
    9   11   20     -2.69      0.00
   10   11   20     -8.10      0.00
   11   11   20      3.95      0.00
   12   11   20      1.40      0.00
  -12   12   20     -0.38      0.00
  -11   12   20      2.41      0.00
  -10   12   20      5.11      0.00
   -9   12   20     -0.74      0.00
   -8   12   20      1.36      0.00
   -7   12   20      2.11      0.00
   -6   12   20      4.95      0.00
   -5   12   20     -1.15      0.00
   -4   12   20     -1.85      0.00
   -3   12   20     10.31      0.00
   -2   12   20     -5.89      0.00
   -1   12   20     -2.69      0.00
    0   12   20     -6.59      0.00
    1   12   20      3.10      0.00
    2   12   20      7.12      0.00
    3   12   20     -2.53      0.00
    4   12   20     -8.68      0.00
    5   12   20      7.29      0.00
    6   12   20     -6.22      0.00
    7   12   20     -3.61      0.00
    8   12   20      6.62      0.00
    9   12   20      6.95      0.00
   10   12   20      6.41      0.00
  -10   13   20      5.47      0.00
   -9   13   20      4.45      0.00
   -8   13   20     -5.54      0.00
   -7   13   20      0.44      0.00
   -6   13   20      3.77      0.00
   -5   13   20      0.31      0.00
   -4   13   20     -8.78      0.00
   -3   13   20      8.16      0.00
   -2   13   20     -1.49      0.00
   -1   13   20      3.98      0.00
    0   13   20     -0.17      0.00
    1   13   20     -5.88      0.00
    2   13   20      3.66      0.00
    3   13   20      1.67      0.00
    4   13   20      0.42      0.00
    5   13   20      7.86      0.00
    6   13   20      1.57      0.00
    7   13   20     -1.63      0.00
    8   13   20      2.85      0.00
   -8   14   20     -3.08      0.00
   -7   14   20     -6.71      0.00
   -6   14   20      7.32      0.00
   -5   14   20     -1.43      0.00
   -4   14   20      0.45      0.00
   -3   14   20      4.34      0.00
   -2   14   20      0.78      0.00
   -1   14   20     -2.45      0.00
    0   14   20     -0.71      0.00
    1   14   20     -3.97      0.00
    2   14   20     11.88      0.00
    3   14   20     -6.84      0.00
    4   14   20     -2.92      0.00
    5   14   20     -3.22      0.00
    6   14   20     -1.13      0.00
  -19    0   21      0.41      0.00
  -17    0   21      8.65      0.00
  -15    0   21     20.47      0.00
  -13    0   21      3.80      0.00
  -11    0   21     18.63      0.00
   -9    0   21     -4.79      0.00
   -7    0   21     11.37      0.00
   -5    0   21    -12.71      0.00
   -3    0   21      9.40      0.00
   -1    0   21      6.01      0.00
    1    0   21     19.27      0.00
    3    0   21    -12.06      0.00
    5    0   21      8.78      0.00
    7    0   21    -13.44      0.00
    9    0   21    -16.89      0.00
   11    0   21    -14.18      0.00
   13    0   21     -8.17      0.00
   15    0   21     -2.94      0.00
   17    0   21     -0.77      0.00
  -20    1   21     -4.89      0.00
  -19    1   21      1.02      0.00
  -18    1   21      0.47      0.00
  -17    1   21      4.70      0.00
  -16    1   21     -9.74      0.00
  -15    1   21      3.37      0.00
  -14    1   21      0.97      0.00
  -13    1   21      7.54      0.00
  -12    1   21     -4.57      0.00
  -11    1   21      2.37      0.00
  -10    1   21      2.14      0.00
   -9    1   21     13.91      0.00
   -8    1   21     -0.53      0.00
   -7    1   21     -8.68      0.00
   -6    1   21     10.63      0.00
   -5    1   21      4.76      0.00
   -4    1   21     -7.08      0.00
   -3    1   21    -22.04      0.00
   -2    1   21     -0.31      0.00
   -1    1   21      2.65      0.00
    0    1   21     -8.30      0.00
    1    1   21    -19.38      0.00
    2    1   21      2.32      0.00
    3    1   21      9.87      0.00
    4    1   21     -6.87      0.00
    5    1   21    -12.53      0.00
    6    1   21     -6.47      0.00
    7    1   21      1.34      0.00
    8    1   21     -3.06      0.00
    9    1   21     -5.18      0.00
   10    1   21      1.80      0.00
   11    1   21     -3.05      0.00
   12    1   21      5.03      0.00
   13    1   21     -2.11      0.00
   14    1   21     -2.19      0.00
   15    1   21     -2.93      0.00
   16    1   21      6.98      0.00
   17    1   21      1.85      0.00
   18    1   21      4.82      0.00
  -20    2   21      7.68      0.00
  -19    2   21     -1.46      0.00
  -18    2   21     -0.48      0.00
  -17    2   21     11.36      0.00
  -16    2   21      3.52      0.00
  -15    2   21      7.67      0.00
  -14    2   21     -1.25      0.00
  -13    2   21      6.45      0.00
  -12    2   21     -1.35      0.00
  -11    2   21     10.45      0.00
  -10    2   21    -11.33      0.00
   -9    2   21      8.83      0.00
   -8    2   21      0.61      0.00
   -7    2   21     13.61      0.00
   -6    2   21     -6.83      0.00
   -5    2   21     -1.58      0.00
   -4    2   21     -8.01      0.00
   -3    2   21      1.60      0.00
   -2    2   21     -1.06      0.00
   -1    2   21      6.73      0.00
    0    2   21    -15.03      0.00
    1    2   21     10.03      0.00
    2    2   21     -8.80      0.00
    3    2   21     -6.54      0.00
    4    2   21    -19.88      0.00
    5    2   21      5.85      0.00
    6    2   21     20.94      0.00
    7    2   21     -4.13      0.00
    8    2   21    -11.57      0.00
    9    2   21     -8.28      0.00
   10    2   21     12.87      0.00
   11    2   21     -1.97      0.00
   12    2   21    -10.30      0.00
   13    2   21      1.06      0.00
   14    2   21      5.18      0.00
   15    2   21     -4.48      0.00
   16    2   21     -5.65      0.00
   17    2   21     -2.99      0.00
  -19    3   21      0.89      0.00
  -18    3   21     -1.61      0.00
  -17    3   21      5.43      0.00
  -16    3   21     -5.04      0.00
  -15    3   21      0.32      0.00
  -14    3   21      1.31      0.00
  -13    3   21      0.40      0.00
  -12    3   21     -0.45      0.00
  -11    3   21     -1.34      0.00
  -10    3   21     -1.95      0.00
   -9    3   21      7.65      0.00
   -8    3   21      0.81      0.00
   -7    3   21     -3.99      0.00
   -6    3   21     11.43      0.00
   -5    3   21     -0.23      0.00
   -4    3   21      3.92      0.00
   -3    3   21     -1.14      0.00
   -2    3   21      5.45      0.00
   -1    3   21     -2.31      0.00
    0    3   21      4.14      0.00
    1    3   21      2.01      0.00
    2    3   21      5.79      0.00
    3    3   21      9.73      0.00
    4    3   21     -0.72      0.00
    5    3   21      4.89      0.00
    6    3   21      4.26      0.00
    7    3   21     -6.01      0.00
    8    3   21      6.88      0.00
    9    3   21      4.54      0.00
   10    3   21     12.78      0.00
   11    3   21     -8.59      0.00
   12    3   21      1.76      0.00
   13    3   21      7.79      0.00
   14    3   21     -2.92      0.00
   15    3   21      1.67      0.00
   16    3   21      1.86      0.00
   17    3   21      8.22      0.00
  -18    4   21     -1.36      0.00
  -17    4   21     15.92      0.00
  -16    4   21      4.08      0.00
  -15    4   21      7.30      0.00
  -14    4   21      4.31      0.00
  -13    4   21     -1.00      0.00
  -12    4   21     -6.48      0.00
  -11    4   21     -5.18      0.00
  -10    4   21     -4.61      0.00
   -9    4   21     -2.65      0.00
   -8    4   21      0.99      0.00
   -7    4   21     -2.94      0.00
   -6    4   21      2.23      0.00
   -5    4   21    -10.61      0.00
   -4    4   21     -8.21      0.00
   -3    4   21    -18.30      0.00
   -2    4   21      9.34      0.00
   -1    4   21      0.61      0.00
    0    4   21     -0.41      0.00
    1    4   21     -5.05      0.00
    2    4   21    -14.01      0.00
    3    4   21     -3.20      0.00
    4    4   21     -9.73      0.00
    5    4   21     -1.21      0.00
    6    4   21      5.46      0.00
    7    4   21      3.08      0.00
    8    4   21     -5.38      0.00
    9    4   21     -7.73      0.00
   10    4   21      1.07      0.00
   11    4   21      3.01      0.00
   12    4   21      3.38      0.00
   13    4   21     -1.33      0.00
   14    4   21     -3.15      0.00
   15    4   21     -2.94      0.00
   16    4   21      1.69      0.00
   17    4   21     -3.35      0.00
  -19    5   21      0.31      0.00
  -18    5   21     -2.26      0.00
  -16    5   21     -2.40      0.00
  -15    5   21      3.22      0.00
  -14    5   21      2.33      0.00
  -13    5   21     -7.90      0.00
  -12    5   21      5.76      0.00
  -11    5   21      0.65      0.00
  -10    5   21    -11.95      0.00
   -9    5   21     -7.83      0.00
   -8    5   21     -1.14      0.00
   -7    5   21      1.98      0.00
   -6    5   21     -3.88      0.00
   -5    5   21    -13.95      0.00
   -4    5   21      0.78      0.00
   -3    5   21     14.11      0.00
   -2    5   21     -7.53      0.00
   -1    5   21    -21.63      0.00
    0    5   21     11.47      0.00
    1    5   21     13.02      0.00
    2    5   21      2.84      0.00
    3    5   21     -6.01      0.00
    4    5   21      2.68      0.00
    5    5   21     14.94      0.00
    6    5   21     -3.03      0.00
    7    5   21    -20.17      0.00
    8    5   21      2.77      0.00
    9    5   21      5.05      0.00
   10    5   21      0.95      0.00
   11    5   21    -20.09      0.00
   12    5   21     -3.48      0.00
   13    5   21      5.26      0.00
   14    5   21     -7.09      0.00
   15    5   21     -5.29      0.00
   16    5   21     -1.60      0.00
  -18    6   21     -7.77      0.00
  -17    6   21      9.20      0.00
  -16    6   21      1.58      0.00
  -15    6   21      9.51      0.00
  -14    6   21      0.13      0.00
  -13    6   21     -2.92      0.00
  -12    6   21      2.73      0.00
  -11    6   21      1.52      0.00
  -10    6   21     -7.35      0.00
   -9    6   21      0.58      0.00
   -8    6   21     14.82      0.00
   -7    6   21      8.85      0.00
   -6    6   21     -4.03      0.00
   -5    6   21     -3.58      0.00
   -4    6   21     -1.49      0.00
   -3    6   21     -0.96      0.00
   -2    6   21      4.32      0.00
   -1    6   21      6.26      0.00
    0    6   21      5.90      0.00
    1    6   21     -0.94      0.00
    2    6   21     -8.78      0.00
    3    6   21     -6.10      0.00
    4    6   21      1.41      0.00
    5    6   21      1.20      0.00
    6    6   21     13.00      0.00
    7    6   21      4.50      0.00
    8    6   21     -5.69      0.00
    9    6   21     -1.71      0.00
   10    6   21      2.13      0.00
   11    6   21      1.84      0.00
   12    6   21     -2.67      0.00
   13    6   21     -3.44      0.00
   14    6   21     -5.84      0.00
   15    6   21     -4.29      0.00
   16    6   21     -5.23      0.00
  -17    7   21     -1.02      0.00
  -16    7   21     -1.36      0.00
  -15    7   21      0.07      0.00
  -14    7   21      8.12      0.00
  -13    7   21     -4.84      0.00
  -12    7   21     10.60      0.00
  -11    7   21     -2.49      0.00
  -10    7   21     -2.80      0.00
   -9    7   21      3.22      0.00
   -8    7   21     -3.34      0.00
   -7    7   21     -9.29      0.00
   -6    7   21      4.49      0.00
   -5    7   21      4.78      0.00
   -4    7   21     -2.51      0.00
   -3    7   21      1.12      0.00
   -2    7   21     -5.46      0.00
   -1    7   21      3.34      0.00
    0    7   21      4.77      0.00
    1    7   21     -4.32      0.00
    2    7   21      1.08      0.00
    3    7   21     10.84      0.00
    4    7   21     -7.52      0.00
    5    7   21     -4.63      0.00
    6    7   21     -1.72      0.00
    7    7   21     -5.07      0.00
    8    7   21     -5.24      0.00
    9    7   21      1.52      0.00
   10    7   21      2.08      0.00
   11    7   21     -1.94      0.00
   12    7   21     -2.87      0.00
   13    7   21      2.21      0.00
   14    7   21      3.42      0.00
   15    7   21     -2.86      0.00
  -16    8   21     -1.66      0.00
  -15    8   21      1.41      0.00
  -14    8   21     -2.33      0.00
  -13    8   21      2.76      0.00
  -12    8   21     -2.15      0.00
  -11    8   21     -0.21      0.00
  -10    8   21     -6.89      0.00
   -9    8   21     16.74      0.00
   -8    8   21     14.49      0.00
   -7    8   21      7.72      0.00
   -6    8   21      3.97      0.00
   -5    8   21      0.96      0.00
   -4    8   21      2.78      0.00
   -3    8   21     -4.82      0.00
   -2    8   21     12.76      0.00
   -1    8   21      6.34      0.00
    0    8   21      5.50      0.00
    1    8   21     -9.59      0.00
    2    8   21     -4.17      0.00
    3    8   21     -8.95      0.00
    4    8   21      2.35      0.00
    5    8   21     -4.14      0.00
    6    8   21     17.35      0.00
    7    8   21     -1.95      0.00
    8    8   21     -5.32      0.00
    9    8   21     -2.25      0.00
   10    8   21      5.51      0.00
   11    8   21     -2.68      0.00
   12    8   21     -1.38      0.00
   13    8   21     -1.11      0.00
   14    8   21      2.63      0.00
  -15    9   21     -2.04      0.00
  -14    9   21      7.29      0.00
  -13    9   21      2.99      0.00
  -12    9   21     10.51      0.00
  -11    9   21      0.71      0.00
  -10    9   21    -10.33      0.00
   -9    9   21     12.85      0.00
   -8    9   21    -14.20      0.00
   -7    9   21     -6.12      0.00
   -6    9   21     -7.10      0.00
   -5    9   21      6.79      0.00
   -4    9   21     -7.38      0.00
   -3    9   21      2.81      0.00
   -2    9   21     -5.28      0.00
   -1    9   21     -1.58      0.00
    0    9   21      7.59      0.00
    1    9   21     -7.15      0.00
    2    9   21      2.48      0.00
    3    9   21      1.71      0.00
    4    9   21     -9.85      0.00
    5    9   21     -9.64      0.00
    6    9   21      0.09      0.00
    7    9   21     -3.34      0.00
    8    9   21     -4.87      0.00
    9    9   21      2.87      0.00
   10    9   21      0.99      0.00
   11    9   21      6.94      0.00
   12    9   21     -4.20      0.00
   13    9   21      1.79      0.00
  -14   10   21      4.59      0.00
  -13   10   21     -1.00      0.00
  -12   10   21     -3.17      0.00
  -11   10   21     -0.35      0.00
  -10   10   21      0.07      0.00
   -9   10   21     17.81      0.00
   -8   10   21      1.64      0.00
   -7   10   21      5.18      0.00
   -6   10   21     -3.43      0.00
   -5   10   21      3.18      0.00
   -4   10   21    -14.52      0.00
   -3   10   21     -5.88      0.00
   -2   10   21      2.81      0.00
   -1   10   21     11.41      0.00
    0   10   21      0.70      0.00
    1   10   21    -10.64      0.00
    2   10   21    -13.36      0.00
    3   10   21     -2.50      0.00
    4   10   21      1.99      0.00
    5   10   21     -5.23      0.00
    6   10   21      0.49      0.00
    7   10   21     -2.10      0.00
    8   10   21     -0.67      0.00
    9   10   21     -6.03      0.00
   10   10   21     -2.69      0.00
   11   10   21      0.86      0.00
   12   10   21      3.09      0.00
  -13   11   21     -0.80      0.00
  -12   11   21      9.48      0.00
  -11   11   21      6.88      0.00
  -10   11   21     -9.13      0.00
   -9   11   21      4.20      0.00
   -8   11   21     -0.80      0.00
   -7   11   21     -0.21      0.00
   -6   11   21     -4.45      0.00
   -5   11   21     -1.14      0.00
   -4   11   21      2.77      0.00
   -3   11   21      5.56      0.00
   -2   11   21     -6.18      0.00
   -1   11   21     -7.73      0.00
    0   11   21     18.34      0.00
    1   11   21     -2.98      0.00
    2   11   21      4.32      0.00
    3   11   21     -1.01      0.00
    4   11   21      4.04      0.00
    5   11   21     -3.43      0.00
    6   11   21     -0.95      0.00
    7   11   21     -1.71      0.00
    8   11   21      6.30      0.00
    9   11   21      2.32      0.00
   10   11   21     -2.44      0.00
   11   11   21      4.16      0.00
  -11   12   21      0.78      0.00
  -10   12   21     -7.98      0.00
   -9   12   21     10.05      0.00
   -8   12   21      3.56      0.00
   -7   12   21      3.98      0.00
   -6   12   21    -10.25      0.00
   -5   12   21     -2.03      0.00
   -4   12   21     -3.97      0.00
   -3   12   21     -2.45      0.00
   -2   12   21     -0.84      0.00
   -1   12   21      5.05      0.00
    0   12   21      8.33      0.00
    1   12   21     -7.13      0.00
    2   12   21     -7.26      0.00
    3   12   21     -2.13      0.00
    4   12   21      5.91      0.00
    5   12   21      1.94      0.00
    6   12   21     -0.49      0.00
    7   12   21      0.43      0.00
    8   12   21     -2.52      0.00
    9   12   21      0.82      0.00
   -9   13   21      3.06      0.00
   -8   13   21     -5.49      0.00
   -7   13   21      2.87      0.00
   -6   13   21     -0.22      0.00
   -5   13   21      4.17      0.00
   -4   13   21     -7.60      0.00
   -3   13   21      3.88      0.00
   -2   13   21     -5.77      0.00
   -1   13   21      1.72      0.00
    0   13   21      4.58      0.00
    1   13   21     -7.52      0.00
    2   13   21      5.88      0.00
    3   13   21      3.11      0.00
    4   13   21      1.30      0.00
    5   13   21     -4.59      0.00
    6   13   21      3.92      0.00
   -4   14   21      0.26      0.00
   -3   14   21      2.64      0.00
   -2   14   21      0.78      0.00
   -1   14   21      5.95      0.00
    0   14   21      0.45      0.00
    1   14   21     -1.12      0.00
    2   14   21     -3.95      0.00
  -18    0   22      4.11      0.00
  -16    0   22      2.54      0.00
  -14    0   22      2.88      0.00
  -12    0   22    -14.39      0.00
  -10    0   22     13.41      0.00
   -8    0   22    -13.55      0.00
   -6    0   22     10.24      0.00
   -4    0   22    -10.47      0.00
   -2    0   22     19.86      0.00
    0    0   22    -18.48      0.00
    2    0   22     18.00      0.00
    4    0   22    -19.54      0.00
    6    0   22      0.09      0.00
    8    0   22      6.59      0.00
   10    0   22     12.99      0.00
   12    0   22    -13.29      0.00
   14    0   22      1.00      0.00
   16    0   22     -0.26      0.00
  -19    1   22     16.45      0.00
  -18    1   22     -0.33      0.00
  -17    1   22      5.86      0.00
  -16    1   22     -2.10      0.00
  -15    1   22     -3.43      0.00
  -14    1   22      5.04      0.00
  -13    1   22     -8.90      0.00
  -12    1   22     -3.32      0.00
  -11    1   22      1.61      0.00
  -10    1   22      2.20      0.00
   -9    1   22     -6.16      0.00
   -8    1   22     -4.66      0.00
   -7    1   22    -14.47      0.00
   -6    1   22      3.03      0.00
   -5    1   22     -5.10      0.00
   -4    1   22      3.16      0.00
   -3    1   22     16.72      0.00
   -2    1   22     14.93      0.00
   -1    1   22     -5.94      0.00
    0    1   22      8.34      0.00
    1    1   22     -6.34      0.00
    2    1   22     14.75      0.00
    3    1   22      8.94      0.00
    4    1   22      9.58      0.00
    5    1   22      0.30      0.00
    6    1   22     11.79      0.00
    7    1   22    -18.79      0.00
    8    1   22      7.50      0.00
    9    1   22     -2.17      0.00
   10    1   22      5.55      0.00
   11    1   22     20.96      0.00
   12    1   22      1.23      0.00
   13    1   22     -1.28      0.00
   14    1   22     -4.78      0.00
   15    1   22     -1.14      0.00
   16    1   22     -1.24      0.00
   17    1   22      3.86      0.00
  -19    2   22      5.57      0.00
  -18    2   22     -2.70      0.00
  -17    2   22      0.90      0.00
  -16    2   22      1.07      0.00
  -15    2   22     -2.66      0.00
  -14    2   22     -0.87      0.00
  -13    2   22     -4.42      0.00
  -12    2   22     -4.15      0.00
  -11    2   22      0.67      0.00
  -10    2   22      8.41      0.00
   -9    2   22     -3.83      0.00
   -8    2   22      2.24      0.00
   -7    2   22     -4.64      0.00
   -6    2   22     -9.79      0.00
   -5    2   22     -9.19      0.00
   -4    2   22      1.02      0.00
   -3    2   22     -6.62      0.00
   -2    2   22     -5.62      0.00
   -1    2   22     -6.10      0.00
    0    2   22      6.01      0.00
    1    2   22      5.60      0.00
    2    2   22      6.31      0.00
    3    2   22     -1.12      0.00
    4    2   22      2.47      0.00
    5    2   22      4.04      0.00
    6    2   22     -6.06      0.00
    7    2   22     -7.83      0.00
    8    2   22     14.97      0.00
    9    2   22     -5.87      0.00
   10    2   22     10.69      0.00
   11    2   22     -6.14      0.00
   12    2   22     -7.46      0.00
   13    2   22      4.72      0.00
   14    2   22      4.06      0.00
   15    2   22      0.97      0.00
   16    2   22      1.35      0.00
  -17    3   22     -0.02      0.00
  -16    3   22     -2.34      0.00
  -15    3   22     -7.14      0.00
  -14    3   22     -3.36      0.00
  -13    3   22    -14.17      0.00
  -12    3   22     -2.51      0.00
  -11    3   22      4.25      0.00
   -9    3   22     -4.96      0.00
   -8    3   22      2.71      0.00
   -7    3   22     -7.78      0.00
   -6    3   22      0.37      0.00
   -5    3   22      1.00      0.00
   -4    3   22     -0.41      0.00
   -3    3   22     19.54      0.00
   -2    3   22      6.62      0.00
   -1    3   22      5.16      0.00
    0    3   22     -5.88      0.00
    1    3   22    -12.44      0.00
    2    3   22      0.63      0.00
    3    3   22     26.56      0.00
    4    3   22      0.38      0.00
    5    3   22     -0.31      0.00
    6    3   22      2.00      0.00
    7    3   22      7.22      0.00
    8    3   22      0.95      0.00
    9    3   22     -3.80      0.00
   10    3   22      5.79      0.00
   11    3   22     26.09      0.00
   12    3   22      0.24      0.00
   13    3   22     -9.92      0.00
   14    3   22     -3.60      0.00
   15    3   22      4.69      0.00
   16    3   22     -4.30      0.00
  -17    4   22      0.08      0.00
  -16    4   22      4.26      0.00
  -15    4   22     -4.01      0.00
  -14    4   22     -6.51      0.00
  -13    4   22     -3.63      0.00
  -12    4   22      0.87      0.00
  -11    4   22      1.27      0.00
  -10    4   22      4.65      0.00
   -9    4   22     -0.91      0.00
   -8    4   22     11.31      0.00
   -7    4   22     -4.21      0.00
   -6    4   22    -11.68      0.00
   -5    4   22     -3.32      0.00
   -4    4   22      3.81      0.00
   -3    4   22     -4.01      0.00
   -2    4   22     -9.73      0.00
   -1    4   22     -5.94      0.00
    0    4   22      7.41      0.00
    1    4   22      2.45      0.00
    2    4   22     -4.60      0.00
    3    4   22     -8.77      0.00
    4    4   22     -8.39      0.00
    5    4   22     -5.68      0.00
    6    4   22    -19.57      0.00
    7    4   22     -3.70      0.00
    8    4   22     -2.71      0.00
    9    4   22     -4.37      0.00
   10    4   22     -9.19      0.00
   11    4   22      1.66      0.00
   12    4   22    -17.17      0.00
   13    4   22      2.73      0.00
   14    4   22     -7.19      0.00
   15    4   22      0.75      0.00
   16    4   22     -3.11      0.00
  -18    5   22      3.27      0.00
  -17    5   22      0.70      0.00
  -16    5   22      6.68      0.00
  -15    5   22     -9.52      0.00
  -14    5   22     -4.76      0.00
  -13    5   22     -8.81      0.00
  -12    5   22     -1.72      0.00
  -11    5   22     -1.45      0.00
  -10    5   22     -3.03      0.00
   -9    5   22      7.26      0.00
   -8    5   22     14.00      0.00
   -7    5   22     -8.71      0.00
   -6    5   22     -2.84      0.00
   -5    5   22      8.23      0.00
   -4    5   22      6.10      0.00
   -3    5   22     19.06      0.00
   -2    5   22     -0.27      0.00
   -1    5   22      6.57      0.00
    0    5   22     -1.22      0.00
    1    5   22      0.00      0.00
    2    5   22     -7.64      0.00
    3    5   22     17.62      0.00
    4    5   22      4.52      0.00
    5    5   22     12.02      0.00
    6    5   22     -6.13      0.00
    7    5   22    -11.20      0.00
    8    5   22     -0.41      0.00
    9    5   22      9.15      0.00
   10    5   22      0.69      0.00
   11    5   22     10.22      0.00
   12    5   22      0.13      0.00
   13    5   22      4.14      0.00
   14    5   22     -3.35      0.00
   15    5   22      0.69      0.00
  -17    6   22      0.24      0.00
  -16    6   22      4.41      0.00
  -15    6   22      0.07      0.00
  -14    6   22     -3.02      0.00
  -13    6   22     -1.29      0.00
  -12    6   22     -9.54      0.00
  -11    6   22     10.93      0.00
  -10    6   22      2.00      0.00
   -9    6   22      0.88      0.00
   -8    6   22     -4.11      0.00
   -7    6   22     10.10      0.00
   -6    6   22      2.06      0.00
   -5    6   22      1.69      0.00
   -4    6   22    -10.26      0.00
   -3    6   22      8.49      0.00
   -2    6   22      7.99      0.00
   -1    6   22     -2.25      0.00
    0    6   22    -10.85      0.00
    1    6   22     15.54      0.00
    2    6   22      8.09      0.00
    3    6   22     -4.59      0.00
    4    6   22    -18.52      0.00
    5    6   22      2.38      0.00
    6    6   22      1.59      0.00
    7    6   22     -1.22      0.00
    8    6   22     -1.01      0.00
    9    6   22      3.18      0.00
   10    6   22      2.96      0.00
   11    6   22     -1.65      0.00
   12    6   22     -4.64      0.00
   13    6   22      3.84      0.00
   14    6   22      1.82      0.00
   15    6   22      1.13      0.00
  -16    7   22      6.77      0.00
  -15    7   22     -3.07      0.00
  -14    7   22      5.71      0.00
  -13    7   22     -6.54      0.00
  -12    7   22     -4.34      0.00
  -11    7   22      3.61      0.00
  -10    7   22      0.43      0.00
   -9    7   22      3.73      0.00
   -8    7   22      4.19      0.00
   -7    7   22     -5.41      0.00
   -6    7   22     -6.65      0.00
   -5    7   22     -5.71      0.00
   -4    7   22     -3.68      0.00
   -3    7   22      9.14      0.00
   -2    7   22     -0.82      0.00
   -1    7   22    -12.04      0.00
    0    7   22     -6.53      0.00
    1    7   22     -0.04      0.00
    2    7   22     -8.83      0.00
    3    7   22     11.65      0.00
    4    7   22     -3.11      0.00
    5    7   22     20.57      0.00
    6    7   22     -5.66      0.00
    7    7   22    -10.93      0.00
    8    7   22     -0.88      0.00
    9    7   22     18.74      0.00
   10    7   22      1.13      0.00
   11    7   22      6.11      0.00
   12    7   22     -0.60      0.00
   13    7   22      4.49      0.00
   14    7   22     -6.77      0.00
  -15    8   22     -2.44      0.00
  -14    8   22      4.76      0.00
  -13    8   22     -0.82      0.00
  -12    8   22     -5.52      0.00
  -11    8   22      4.62      0.00
  -10    8   22     -4.39      0.00
   -9    8   22      1.48      0.00
   -8    8   22     -2.75      0.00
   -7    8   22      5.72      0.00
   -6    8   22     -4.23      0.00
   -5    8   22      5.27      0.00
   -4    8   22      3.23      0.00
   -3    8   22     -0.69      0.00
   -2    8   22      3.02      0.00
   -1    8   22     -7.25      0.00
    0    8   22      8.44      0.00
    1    8   22      1.57      0.00
    2    8   22     -1.88      0.00
    3    8   22     -5.18      0.00
    4    8   22     -6.15      0.00
    5    8   22     -0.44      0.00
    6    8   22     -3.61      0.00
    7    8   22      1.23      0.00
    8    8   22      4.09      0.00
    9    8   22      1.50      0.00
   10    8   22      3.37      0.00
   11    8   22     -5.53      0.00
   12    8   22      5.17      0.00
   13    8   22      1.17      0.00
  -14    9   22      0.82      0.00
  -13    9   22     -8.83      0.00
  -12    9   22     -0.72      0.00
  -11    9   22     -2.03      0.00
  -10    9   22      2.30      0.00
   -9    9   22      0.84      0.00
   -8    9   22      5.88      0.00
   -7    9   22     -6.69      0.00
   -6    9   22     -3.21      0.00
   -5    9   22     -4.03      0.00
   -4    9   22      0.46      0.00
   -3    9   22      1.64      0.00
   -2    9   22      8.06      0.00
   -1    9   22    -16.63      0.00
    0    9   22      3.31      0.00
    1    9   22    -15.37      0.00
    2    9   22      4.03      0.00
    3    9   22      8.08      0.00
    4    9   22      1.72      0.00
    5    9   22      2.62      0.00
    6    9   22      6.07      0.00
    7    9   22     -8.43      0.00
    8    9   22      2.84      0.00
    9    9   22      5.22      0.00
   10    9   22     11.21      0.00
   11    9   22      3.80      0.00
   12    9   22     -1.21      0.00
  -13   10   22      1.86      0.00
  -12   10   22     -1.31      0.00
  -11   10   22     -0.86      0.00
  -10   10   22    -11.90      0.00
   -9   10   22     -0.39      0.00
   -8   10   22     -1.91      0.00
   -7   10   22     -2.67      0.00
   -6   10   22     -6.66      0.00
   -5   10   22      9.44      0.00
   -4   10   22      4.47      0.00
   -3   10   22     -2.15      0.00
   -2   10   22      5.64      0.00
   -1   10   22      2.81      0.00
    0   10   22     16.12      0.00
    1   10   22     -1.93      0.00
    2   10   22     -2.05      0.00
    3   10   22      5.03      0.00
    4   10   22     -1.86      0.00
    5   10   22     -0.24      0.00
    6   10   22     -5.21      0.00
    7   10   22     11.31      0.00
    8   10   22      0.31      0.00
    9   10   22      1.01      0.00
   10   10   22     -0.36      0.00
   11   10   22     -2.11      0.00
  -11   11   22     -3.97      0.00
  -10   11   22      0.78      0.00
   -9   11   22     10.63      0.00
   -8   11   22      4.52      0.00
   -7   11   22    -11.11      0.00
   -6   11   22     -3.57      0.00
   -5   11   22      5.03      0.00
   -4   11   22      3.03      0.00
   -3   11   22      1.57      0.00
   -2   11   22      4.05      0.00
   -1   11   22     -6.77      0.00
    0   11   22      5.59      0.00
    1   11   22     -8.66      0.00
    2   11   22      1.25      0.00
    3   11   22      9.05      0.00
    4   11   22      4.23      0.00
    5   11   22      4.17      0.00
    6   11   22      3.83      0.00
    7   11   22     -3.87      0.00
    8   11   22      3.61      0.00
    9   11   22     11.52      0.00
   -9   12   22     -3.66      0.00
   -8   12   22     -0.34      0.00
   -7   12   22     -0.78      0.00
   -6   12   22      3.55      0.00
   -5   12   22      0.99      0.00
   -4   12   22     -3.20      0.00
   -3   12   22     -2.10      0.00
   -2   12   22      9.74      0.00
   -1   12   22     -3.92      0.00
    0   12   22      7.50      0.00
    1   12   22      0.82      0.00
    2   12   22      1.72      0.00
    3   12   22     -3.65      0.00
    4   12   22     -5.66      0.00
    5   12   22     -1.66      0.00
    6   12   22      0.04      0.00
    7   12   22      0.22      0.00
   -6   13   22     -0.95      0.00
   -5   13   22      3.72      0.00
   -4   13   22     -0.52      0.00
   -3   13   22     10.72      0.00
   -2   13   22      1.27      0.00
   -1   13   22     -0.72      0.00
    0   13   22     -2.37      0.00
    1   13   22      1.56      0.00
    2   13   22     -3.23      0.00
    3   13   22      8.55      0.00
  -17    0   23     -4.69      0.00
  -15    0   23      1.98      0.00
  -13    0   23    -17.02      0.00
  -11    0   23     -3.72      0.00
   -9    0   23     -5.62      0.00
   -7    0   23     12.29      0.00
   -5    0   23      0.55      0.00
   -3    0   23     17.33      0.00
   -1    0   23     11.93      0.00
    1    0   23     -7.92      0.00
    3    0   23     -4.07      0.00
    5    0   23      4.05      0.00
    7    0   23      4.65      0.00
    9    0   23      2.83      0.00
   11    0   23     13.75      0.00
   13    0   23     -2.71      0.00
   15    0   23     -1.74      0.00
  -18    1   23     -2.30      0.00
  -17    1   23     -0.92      0.00
  -16    1   23     -8.39      0.00
  -15    1   23     -1.42      0.00
  -14    1   23      5.75      0.00
  -13    1   23      2.01      0.00
  -12    1   23      9.69      0.00
  -11    1   23     -5.79      0.00
  -10    1   23      2.19      0.00
   -9    1   23      0.43      0.00
   -8    1   23      1.27      0.00
   -7    1   23     -5.99      0.00
   -6    1   23     12.85      0.00
   -5    1   23     11.52      0.00
   -4    1   23     -3.73      0.00
   -3    1   23     -2.71      0.00
   -2    1   23    -10.96      0.00
   -1    1   23     14.88      0.00
    0    1   23     16.66      0.00
    1    1   23     -7.35      0.00
    2    1   23     13.27      0.00
    3    1   23      2.83      0.00
    4    1   23     -3.14      0.00
    5    1   23    -10.06      0.00
    6    1   23      6.64      0.00
    7    1   23      1.32      0.00
    8    1   23      3.51      0.00
    9    1   23     -5.15      0.00
   10    1   23     -8.27      0.00
   11    1   23      0.34      0.00
   12    1   23     -4.45      0.00
   13    1   23     -0.81      0.00
   14    1   23     -0.74      0.00
   15    1   23     -0.74      0.00
  -18    2   23      0.55      0.00
  -17    2   23      4.72      0.00
  -16    2   23      0.95      0.00
  -15    2   23      3.56      0.00
  -14    2   23     -0.05      0.00
  -13    2   23     -4.52      0.00
  -12    2   23     -4.14      0.00
  -11    2   23     -6.71      0.00
  -10    2   23      2.63      0.00
   -9    2   23     -4.73      0.00
   -8    2   23      2.73      0.00
   -7    2   23     -2.18      0.00
   -6    2   23      4.93      0.00
   -5    2   23     -4.58      0.00
   -4    2   23     -0.02      0.00
   -3    2   23      7.75      0.00
   -2    2   23      9.40      0.00
   -1    2   23     11.21      0.00
    0    2   23     -9.36      0.00
    1    2   23    -14.14      0.00
    2    2   23      7.53      0.00
    3    2   23     -8.35      0.00
    4    2   23    -10.35      0.00
    5    2   23     -6.90      0.00
    6    2   23      5.06      0.00
    7    2   23     -7.46      0.00
    8    2   23    -14.02      0.00
    9    2   23     -7.26      0.00
   10    2   23      8.18      0.00
   11    2   23      2.09      0.00
   12    2   23     -8.07      0.00
   13    2   23     -4.31      0.00
   14    2   23      6.78      0.00
   15    2   23     -4.29      0.00
  -17    3   23     -1.62      0.00
  -16    3   23     -6.13      0.00
  -15    3   23      2.18      0.00
  -14    3   23      5.63      0.00
  -13    3   23      6.37      0.00
  -12    3   23      7.38      0.00
  -11    3   23      1.99      0.00
  -10    3   23     -0.09      0.00
   -9    3   23     -5.84      0.00
   -8    3   23     -3.72      0.00
   -7    3   23      1.06      0.00
   -6    3   23     11.55      0.00
   -5    3   23     -6.30      0.00
   -4    3   23     -7.94      0.00
   -3    3   23     -1.84      0.00
   -2    3   23    -10.86      0.00
   -1    3   23     -2.85      0.00
    0    3   23     10.90      0.00
    1    3   23     -1.38      0.00
    2    3   23     13.24      0.00
    3    3   23     -9.81      0.00
    4    3   23     -4.96      0.00
    5    3   23     -6.87      0.00
    6    3   23     11.17      0.00
    7    3   23     -4.87      0.00
    8    3   23      2.04      0.00
    9    3   23    -10.26      0.00
   10    3   23     -1.39      0.00
   11    3   23     -4.93      0.00
   12    3   23      0.20      0.00
   13    3   23     -8.68      0.00
   14    3   23      4.97      0.00
   15    3   23     -6.24      0.00
  -17    4   23      5.01      0.00
  -16    4   23     -0.86      0.00
  -15    4   23      6.00      0.00
  -14    4   23      2.40      0.00
  -13    4   23      6.31      0.00
  -12    4   23     -5.93      0.00
  -11    4   23      4.52      0.00
  -10    4   23      6.94      0.00
   -9    4   23      8.75      0.00
   -8    4   23      0.47      0.00
   -7    4   23      0.40      0.00
   -6    4   23      1.13      0.00
   -5    4   23      1.23      0.00
   -4    4   23      2.20      0.00
   -3    4   23      3.33      0.00
   -2    4   23      3.78      0.00
   -1    4   23      7.93      0.00
    0    4   23     -3.43      0.00
    1    4   23    -17.82      0.00
    2    4   23     -7.94      0.00
    3    4   23    -10.63      0.00
    4    4   23      6.72      0.00
    5    4   23    -10.92      0.00
    6    4   23     -1.65      0.00
    7    4   23    -10.96      0.00
    8    4   23      6.21      0.00
    9    4   23     -9.84      0.00
   10    4   23      0.11      0.00
   11    4   23      0.61      0.00
   12    4   23     -4.96      0.00
   13    4   23     -6.72      0.00
   14    4   23     -4.12      0.00
   15    4   23     -7.05      0.00
  -16    5   23     -2.69      0.00
  -15    5   23      1.12      0.00
  -14    5   23      1.19      0.00
  -13    5   23     -1.32      0.00
  -12    5   23     10.42      0.00
  -11    5   23      7.38      0.00
  -10    5   23     -2.52      0.00
   -9    5   23    -13.25      0.00
   -8    5   23      3.04      0.00
   -7    5   23      8.73      0.00
   -6    5   23     10.17      0.00
   -5    5   23    -21.74      0.00
   -4    5   23      0.64      0.00
   -3    5   23      2.68      0.00
   -2    5   23     -4.73      0.00
   -1    5   23    -12.45      0.00
    0    5   23     16.40      0.00
    1    5   23     12.41      0.00
    2    5   23      7.07      0.00
    3    5   23    -10.21      0.00
    4    5   23     -0.35      0.00
    5    5   23     10.36      0.00
    6    5   23      9.13      0.00
    7    5   23      0.18      0.00
    8    5   23     15.56      0.00
    9    5   23      0.35      0.00
   10    5   23      7.75      0.00
   11    5   23      2.71      0.00
   12    5   23     12.65      0.00
   13    5   23     -0.74      0.00
   14    5   23      6.32      0.00
  -16    6   23      0.83      0.00
  -15    6   23      3.46      0.00
  -14    6   23     -5.61      0.00
  -13    6   23     -0.44      0.00
  -12    6   23     -4.04      0.00
  -11    6   23      5.28      0.00
  -10    6   23     -2.46      0.00
   -9    6   23      3.20      0.00
   -8    6   23      8.33      0.00
   -7    6   23      0.28      0.00
   -6    6   23     -6.65      0.00
   -5    6   23    -10.52      0.00
   -4    6   23     10.76      0.00
   -3    6   23     -0.71      0.00
   -2    6   23      8.10      0.00
   -1    6   23     -7.79      0.00
    0    6   23      3.05      0.00
    1    6   23     -7.73      0.00
    2    6   23     -3.34      0.00
    3    6   23    -12.32      0.00
    4    6   23      1.38      0.00
    5    6   23     -1.31      0.00
    6    6   23     -0.87      0.00
    7    6   23    -12.62      0.00
    8    6   23      0.71      0.00
    9    6   23     -9.56      0.00
   10    6   23      6.20      0.00
   11    6   23     -3.58      0.00
   12    6   23     -2.00      0.00
   13    6   23     -7.80      0.00
  -15    7   23      0.79      0.00
  -14    7   23      1.40      0.00
  -13    7   23      1.43      0.00
  -12    7   23      2.08      0.00
  -11    7   23     -0.24      0.00
  -10    7   23     -3.36      0.00
   -9    7   23     -3.01      0.00
   -8    7   23     -3.63      0.00
   -7    7   23     -1.31      0.00
   -6    7   23      7.62      0.00
   -5    7   23     -3.36      0.00
   -4    7   23     -7.28      0.00
   -3    7   23    -12.64      0.00
   -2    7   23      0.89      0.00
   -1    7   23      3.97      0.00
    0    7   23     13.61      0.00
    1    7   23     -7.26      0.00
    2    7   23      4.91      0.00
    3    7   23     -0.34      0.00
    4    7   23     -6.63      0.00
    5    7   23      3.31      0.00
    6    7   23      0.33      0.00
    7    7   23      5.09      0.00
    8    7   23      5.23      0.00
    9    7   23     -4.89      0.00
   10    7   23      3.17      0.00
   11    7   23      1.83      0.00
   12    7   23      4.68      0.00
   13    7   23     -2.32      0.00
  -14    8   23     -3.11      0.00
  -13    8   23      0.75      0.00
  -12    8   23     -2.57      0.00
  -11    8   23      0.10      0.00
  -10    8   23      2.35      0.00
   -9    8   23      5.59      0.00
   -8    8   23      5.98      0.00
   -7    8   23     -1.87      0.00
   -6    8   23     -9.04      0.00
   -5    8   23     -5.72      0.00
   -4    8   23     -3.45      0.00
   -3    8   23      1.60      0.00
   -2    8   23      7.20      0.00
   -1    8   23     -0.12      0.00
    0    8   23     -4.71      0.00
    1    8   23      6.42      0.00
    2    8   23      5.85      0.00
    3    8   23      0.02      0.00
    4    8   23     -6.35      0.00
    5    8   23     10.26      0.00
    6    8   23      1.40      0.00
    7    8   23     -3.44      0.00
    8    8   23     -8.38      0.00
    9    8   23     -0.65      0.00
   10    8   23      4.53      0.00
   11    8   23     -4.81      0.00
   12    8   23     -4.42      0.00
  -13    9   23      5.84      0.00
  -12    9   23     -0.05      0.00
  -11    9   23     -3.45      0.00
  -10    9   23      1.59      0.00
   -9    9   23      1.48      0.00
   -8    9   23      9.94      0.00
   -7    9   23      1.52      0.00
   -6    9   23     16.03      0.00
   -5    9   23      3.51      0.00
   -4    9   23     -1.88      0.00
   -3    9   23     -4.04      0.00
   -2    9   23     -0.29      0.00
   -1    9   23      6.82      0.00
    0    9   23      6.10      0.00
    1    9   23     -2.13      0.00
    2    9   23      0.80      0.00
    3    9   23     -2.37      0.00
    4    9   23     -6.93      0.00
    5    9   23      4.10      0.00
    6    9   23      1.82      0.00
    7    9   23     -2.74      0.00
    8    9   23      0.08      0.00
    9    9   23     -7.98      0.00
   10    9   23      3.96      0.00
  -11   10   23      1.18      0.00
  -10   10   23      4.29      0.00
   -9   10   23      4.21      0.00
   -8   10   23      3.83      0.00
   -7   10   23     -4.56      0.00
   -6   10   23     -2.66      0.00
   -5   10   23     -3.29      0.00
   -4   10   23     -0.52      0.00
   -3   10   23     -5.54      0.00
   -2   10   23      5.80      0.00
   -1   10   23      1.40      0.00
    0   10   23     -3.01      0.00
    1   10   23     -0.61      0.00
    2   10   23     -2.89      0.00
    3   10   23      3.00      0.00
    4   10   23      0.29      0.00
    5   10   23      3.40      0.00
    6   10   23     -2.86      0.00
    7   10   23      3.80      0.00
    8   10   23     -0.18      0.00
    9   10   23     -0.61      0.00
   -9   11   23      2.42      0.00
   -8   11   23      8.67      0.00
   -7   11   23      8.78      0.00
   -6   11   23      2.53      0.00
   -5   11   23      4.54      0.00
   -4   11   23      1.08      0.00
   -3   11   23      4.48      0.00
   -2   11   23     -7.67      0.00
   -1   11   23      5.19      0.00
    0   11   23      7.25      0.00
    1   11   23      2.27      0.00
    2   11   23     -8.42      0.00
    3   11   23     -3.26      0.00
    4   11   23     -0.84      0.00
    5   11   23      4.60      0.00
    6   11   23     -2.25      0.00
    7   11   23     -3.56      0.00
   -6   12   23     -6.23      0.00
   -5   12   23     -1.87      0.00
   -4   12   23      2.86      0.00
   -3   12   23     -2.21      0.00
   -2   12   23     -0.67      0.00
   -1   12   23     -1.06      0.00
    0   12   23     -1.35      0.00
    1   12   23     -2.41      0.00
    2   12   23     -8.66      0.00
    3   12   23     -1.73      0.00
    4   12   23      0.35      0.00
  -16    0   24      2.91      0.00
  -14    0   24      3.32      0.00
  -12    0   24     -9.14      0.00
  -10    0   24      2.26      0.00
   -8    0   24    -12.84      0.00
   -6    0   24     -4.25      0.00
   -4    0   24    -34.36      0.00
   -2    0   24     12.07      0.00
    0    0   24    -11.16      0.00
    2    0   24      8.92      0.00
    4    0   24    -12.24      0.00
    6    0   24      3.39      0.00
    8    0   24    -18.54      0.00
   10    0   24     -9.96      0.00
   12    0   24      3.01      0.00
   14    0   24      1.95      0.00
  -17    1   24      5.06      0.00
  -16    1   24     -3.41      0.00
  -15    1   24     -1.59      0.00
  -14    1   24     -0.29      0.00
  -13    1   24     -7.78      0.00
  -12    1   24     -2.91      0.00
  -11    1   24      1.18      0.00
  -10    1   24      2.83      0.00
   -9    1   24     14.03      0.00
   -8    1   24      2.04      0.00
   -7    1   24    -10.50      0.00
   -6    1   24      1.77      0.00
   -5    1   24     12.56      0.00
   -4    1   24     -5.03      0.00
   -3    1   24     20.62      0.00
   -2    1   24     -7.87      0.00
   -1    1   24     -0.66      0.00
    0    1   24    -11.25      0.00
    1    1   24     -7.30      0.00
    2    1   24     -5.60      0.00
    3    1   24     13.65      0.00
    4    1   24     -8.18      0.00
    5    1   24      2.85      0.00
    6    1   24     -0.70      0.00
    7    1   24     -7.39      0.00
    8    1   24     -2.40      0.00
    9    1   24     17.89      0.00
   10    1   24     -0.32      0.00
   11    1   24      8.90      0.00
   12    1   24      0.13      0.00
   13    1   24     -6.72      0.00
   14    1   24      2.15      0.00
  -16    2   24      3.80      0.00
  -15    2   24      8.50      0.00
  -14    2   24     -0.62      0.00
  -13    2   24      0.44      0.00
  -12    2   24     -4.97      0.00
  -11    2   24      4.14      0.00
  -10    2   24     -3.97      0.00
   -9    2   24     -2.39      0.00
   -8    2   24      1.81      0.00
   -7    2   24      0.66      0.00
   -6    2   24    -10.08      0.00
   -5    2   24     -5.67      0.00
   -4    2   24    -10.49      0.00
   -3    2   24     -2.72      0.00
   -2    2   24      1.11      0.00
   -1    2   24      0.07      0.00
    0    2   24      4.15      0.00
    1    2   24     -6.78      0.00
    2    2   24     -9.44      0.00
    3    2   24     -3.35      0.00
    4    2   24     -7.07      0.00
    5    2   24     -2.82      0.00
    6    2   24     -5.20      0.00
    7    2   24      1.22      0.00
    8    2   24    -13.92      0.00
    9    2   24      1.96      0.00
   10    2   24    -11.65      0.00
   11    2   24      3.91      0.00
   12    2   24     -2.02      0.00
   13    2   24      0.17      0.00
   14    2   24     -0.81      0.00
  -16    3   24     -0.52      0.00
  -15    3   24     -1.66      0.00
  -14    3   24     -4.93      0.00
  -13    3   24    -13.67      0.00
  -12    3   24     -2.16      0.00
  -11    3   24     -2.93      0.00
  -10    3   24     -2.54      0.00
   -9    3   24      5.06      0.00
   -8    3   24      5.42      0.00
   -7    3   24    -12.57      0.00
   -6    3   24      2.61      0.00
   -5    3   24      6.52      0.00
   -4    3   24      1.98      0.00
   -3    3   24      8.22      0.00
   -2    3   24     -3.67      0.00
   -1    3   24      2.76      0.00
    0    3   24     -2.81      0.00
    1    3   24    -12.43      0.00
    2    3   24      3.12      0.00
    3    3   24     29.89      0.00
    4    3   24     -4.36      0.00
    5    3   24     -8.51      0.00
    6    3   24      6.57      0.00
    7    3   24      4.83      0.00
    8    3   24      0.03      0.00
    9    3   24      5.73      0.00
   10    3   24      3.80      0.00
   11    3   24     20.72      0.00
   12    3   24     -2.92      0.00
   13    3   24     -8.60      0.00
   14    3   24      6.90      0.00
  -16    4   24      4.18      0.00
  -15    4   24     12.53      0.00
  -14    4   24     -1.63      0.00
  -13    4   24      2.27      0.00
  -12    4   24     -3.01      0.00
  -11    4   24     -2.27      0.00
  -10    4   24     -8.63      0.00
   -9    4   24     -2.16      0.00
   -8    4   24      1.21      0.00
   -7    4   24     -1.16      0.00
   -6    4   24    -12.18      0.00
   -5    4   24      0.04      0.00
   -4    4   24     -3.28      0.00
   -3    4   24      0.64      0.00
   -2    4   24      2.55      0.00
   -1    4   24     10.86      0.00
    0    4   24     13.13      0.00
    1    4   24     -4.76      0.00
    2    4   24     -5.29      0.00
    3    4   24      7.74      0.00
    4    4   24      6.16      0.00
    5    4   24     -1.60      0.00
    6    4   24      6.10      0.00
    7    4   24      3.25      0.00
    8    4   24      3.50      0.00
    9    4   24     -9.28      0.00
   10    4   24     -0.61      0.00
   11    4   24      1.31      0.00
   12    4   24      4.54      0.00
   13    4   24     -2.58      0.00
  -15    5   24     -0.49      0.00
  -14    5   24     -6.31      0.00
  -13    5   24     -7.67      0.00
  -12    5   24      3.83      0.00
  -11    5   24     -2.57      0.00
  -10    5   24     -5.54      0.00
   -9    5   24      1.17      0.00
   -8    5   24      7.18      0.00
   -7    5   24    -11.76      0.00
   -6    5   24     -4.60      0.00
   -5    5   24     -2.18      0.00
   -4    5   24      5.13      0.00
   -3    5   24      7.04      0.00
   -2    5   24    -11.42      0.00
   -1    5   24    -10.94      0.00
    0    5   24     -0.21      0.00
    1    5   24     -2.31      0.00
    2    5   24     -3.69      0.00
    3    5   24     14.20      0.00
    4    5   24     -5.83      0.00
    5    5   24      5.47      0.00
    6    5   24     -1.04      0.00
    7    5   24     -1.66      0.00
    8    5   24      0.42      0.00
    9    5   24     16.07      0.00
   10    5   24     -1.13      0.00
   11    5   24      9.36      0.00
   12    5   24     -5.74      0.00
   13    5   24     -3.72      0.00
  -14    6   24      1.71      0.00
  -13    6   24     -3.14      0.00
  -12    6   24     -6.16      0.00
  -11    6   24     -2.03      0.00
  -10    6   24      0.96      0.00
   -9    6   24     -7.00      0.00
   -8    6   24     -4.88      0.00
   -7    6   24      1.33      0.00
   -6    6   24     -0.17      0.00
   -5    6   24     -6.76      0.00
   -4    6   24    -10.31      0.00
   -3    6   24      3.17      0.00
   -2    6   24     11.25      0.00
   -1    6   24      1.59      0.00
    0    6   24     -0.99      0.00
    1    6   24     -4.93      0.00
    2    6   24     -1.98      0.00
    3    6   24     -0.80      0.00
    4    6   24     -4.85      0.00
    5    6   24      2.62      0.00
    6    6   24      5.07      0.00
    7    6   24     -2.07      0.00
    8    6   24     -1.59      0.00
    9    6   24     -4.58      0.00
   10    6   24     -0.99      0.00
   11    6   24     -1.57      0.00
   12    6   24      0.27      0.00
  -14    7   24     -2.12      0.00
  -13    7   24     -3.72      0.00
  -12    7   24      1.68      0.00
  -11    7   24      9.74      0.00
  -10    7   24      3.81      0.00
   -9    7   24     -3.83      0.00
   -8    7   24      6.33      0.00
   -7    7   24      1.51      0.00
   -6    7   24      7.22      0.00
   -5    7   24     -5.04      0.00
   -4    7   24      8.44      0.00
   -3    7   24     19.02      0.00
   -2    7   24      0.85      0.00
   -1    7   24    -10.17      0.00
    0    7   24      2.47      0.00
    1    7   24      5.94      0.00
    2    7   24      3.91      0.00
    3    7   24      1.02      0.00
    4    7   24     -2.82      0.00
    5    7   24      1.43      0.00
    6    7   24      1.97      0.00
    7    7   24    -10.89      0.00
    8    7   24      6.06      0.00
    9    7   24      9.25      0.00
   10    7   24     -0.64      0.00
   11    7   24      2.93      0.00
  -12    8   24     -8.46      0.00
  -11    8   24     -0.86      0.00
  -10    8   24     -4.68      0.00
   -9    8   24     -0.77      0.00
   -8    8   24     -0.88      0.00
   -7    8   24      2.14      0.00
   -6    8   24     -9.11      0.00
   -5    8   24     -4.05      0.00
   -4    8   24     -3.43      0.00
   -3    8   24      7.75      0.00
   -2    8   24     -6.38      0.00
   -1    8   24      4.42      0.00
    0    8   24     -3.54      0.00
    1    8   24      3.75      0.00
    2    8   24    -18.38      0.00
    3    8   24     -2.44      0.00
    4    8   24     -3.61      0.00
    5    8   24      4.45      0.00
    6    8   24     -1.80      0.00
    7    8   24     -2.87      0.00
    8    8   24      0.53      0.00
    9    8   24      5.28      0.00
   10    8   24      0.97      0.00
  -11    9   24     12.03      0.00
  -10    9   24      2.55      0.00
   -9    9   24     -0.35      0.00
   -8    9   24     -2.17      0.00
   -7    9   24     -3.03      0.00
   -6    9   24      4.22      0.00
   -5    9   24     -2.80      0.00
   -4    9   24      0.28      0.00
   -3    9   24     11.77      0.00
   -2    9   24      2.05      0.00
   -1    9   24      7.50      0.00
    0    9   24     -2.88      0.00
    1    9   24     11.68      0.00
    2    9   24      4.07      0.00
    3    9   24     15.20      0.00
    4    9   24     -3.88      0.00
    5    9   24     -0.81      0.00
    6    9   24      4.64      0.00
    7    9   24     -2.11      0.00
    8    9   24      4.19      0.00
    9    9   24      1.10      0.00
   -9   10   24      6.82      0.00
   -8   10   24      3.76      0.00
   -7   10   24      2.09      0.00
   -6   10   24     -8.04      0.00
   -5   10   24     -1.90      0.00
   -4   10   24     -2.76      0.00
   -3   10   24     -2.71      0.00
   -2   10   24     -4.88      0.00
   -1   10   24     -1.30      0.00
    0   10   24     -5.26      0.00
    1   10   24     -2.96      0.00
    2   10   24    -12.24      0.00
    3   10   24     -2.24      0.00
    4   10   24     -1.72      0.00
    5   10   24     -2.28      0.00
    6   10   24     -1.32      0.00
    7   10   24     -1.21      0.00
   -7   11   24     -7.57      0.00
   -6   11   24     -2.00      0.00
   -5   11   24      3.82      0.00
   -4   11   24      0.24      0.00
   -3   11   24      0.95      0.00
   -2   11   24     -2.18      0.00
   -1   11   24      5.08      0.00
    0   11   24      0.60      0.00
    1   11   24      6.59      0.00
    2   11   24      1.38      0.00
    3   11   24      8.05      0.00
    4   11   24      1.14      0.00
  -15    0   25     -4.60      0.00
  -13    0   25     -4.49      0.00
  -11    0   25      6.00      0.00
   -9    0   25    -10.05      0.00
   -7    0   25     -7.55      0.00
   -5    0   25     -8.84      0.00
   -3    0   25     -5.36      0.00
   -1    0   25    -24.64      0.00
    1    0   25     -2.52      0.00
    3    0   25    -11.70      0.00
    5    0   25     -6.28      0.00
    7    0   25     -9.13      0.00
    9    0   25     -7.66      0.00
   11    0   25     -8.61      0.00
   13    0   25     -8.59      0.00
  -15    1   25     -1.35      0.00
  -14    1   25      6.11      0.00
  -13    1   25      1.13      0.00
  -12    1   25     -4.47      0.00
  -11    1   25     -7.08      0.00
  -10    1   25     -2.71      0.00
   -9    1   25      3.78      0.00
   -8    1   25     -2.42      0.00
   -7    1   25     -9.19      0.00
   -6    1   25     11.01      0.00
   -5    1   25      6.02      0.00
   -4    1   25     -2.96      0.00
   -3    1   25     -8.34      0.00
   -2    1   25     12.54      0.00
   -1    1   25      8.45      0.00
    0    1   25     24.26      0.00
    1    1   25     -4.54      0.00
    2    1   25      1.46      0.00
    3    1   25      9.49      0.00
    4    1   25      2.14      0.00
    5    1   25      2.66      0.00
    6    1   25      0.44      0.00
    7    1   25      2.71      0.00
    8    1   25      9.09      0.00
    9    1   25      2.77      0.00
   10    1   25      1.37      0.00
   11    1   25     -1.82      0.00
   12    1   25     15.44      0.00
   13    1   25     -0.08      0.00
  -15    2   25    -10.51      0.00
  -14    2   25      0.25      0.00
  -13    2   25     -3.54      0.00
  -12    2   25      1.17      0.00
  -11    2   25      4.99      0.00
  -10    2   25      6.74      0.00
   -9    2   25     -1.17      0.00
   -8    2   25     -4.17      0.00
   -7    2   25     -1.78      0.00
   -6    2   25      3.09      0.00
   -5    2   25      3.75      0.00
   -4    2   25    -14.62      0.00
   -3    2   25     -0.34      0.00
   -2    2   25     10.20      0.00
   -1    2   25    -12.64      0.00
    0    2   25    -12.27      0.00
    1    2   25     -0.95      0.00
    2    2   25     11.90      0.00
    3    2   25     -2.50      0.00
    4    2   25    -13.24      0.00
    5    2   25     -1.61      0.00
    6    2   25     15.36      0.00
    7    2   25      0.36      0.00
    8    2   25    -12.24      0.00
    9    2   25      0.68      0.00
   10    2   25      2.64      0.00
   11    2   25     -5.03      0.00
   12    2   25     -7.15      0.00
   13    2   25     -4.03      0.00
  -15    3   25     -1.42      0.00
  -14    3   25      6.73      0.00
  -13    3   25     -1.95      0.00
  -12    3   25     -1.27      0.00
  -11    3   25    -10.63      0.00
  -10    3   25      3.00      0.00
   -9    3   25      0.04      0.00
   -8    3   25      2.48      0.00
   -7    3   25     -5.07      0.00
   -6    3   25     12.11      0.00
   -5    3   25      2.63      0.00
   -4    3   25     -6.22      0.00
   -3    3   25      3.48      0.00
   -2    3   25      9.40      0.00
   -1    3   25      7.43      0.00
    0    3   25     14.87      0.00
    1    3   25      1.87      0.00
    2    3   25     -0.04      0.00
    3    3   25      5.42      0.00
    4    3   25    -10.22      0.00
    5    3   25      3.59      0.00
    6    3   25      1.72      0.00
    7    3   25     -0.71      0.00
    8    3   25     -3.53      0.00
    9    3   25      6.19      0.00
   10    3   25      1.46      0.00
   11    3   25      3.49      0.00
   12    3   25      5.35      0.00
  -14    4   25     -3.76      0.00
  -13    4   25     -7.76      0.00
  -12    4   25     -3.11      0.00
  -11    4   25      0.88      0.00
  -10    4   25      8.68      0.00
   -9    4   25      0.84      0.00
   -8    4   25      2.46      0.00
   -7    4   25     -5.35      0.00
   -6    4   25      5.55      0.00
   -5    4   25      7.56      0.00
   -4    4   25    -10.72      0.00
   -3    4   25     -3.86      0.00
   -2    4   25      0.30      0.00
   -1    4   25     -0.20      0.00
    0    4   25     -3.50      0.00
    1    4   25     -1.86      0.00
    2    4   25     -2.93      0.00
    3    4   25      5.33      0.00
    4    4   25     -1.29      0.00
    5    4   25     -4.42      0.00
    6    4   25      2.47      0.00
    7    4   25      3.14      0.00
    8    4   25     -3.62      0.00
    9    4   25     -3.34      0.00
   10    4   25     -5.10      0.00
   11    4   25     -3.56      0.00
   12    4   25      5.61      0.00
  -14    5   25      3.05      0.00
  -13    5   25     -1.65      0.00
  -12    5   25      2.35      0.00
  -11    5   25     -4.16      0.00
  -10    5   25     -7.96      0.00
   -9    5   25     -3.79      0.00
   -8    5   25      8.37      0.00
   -7    5   25      2.86      0.00
   -6    5   25      6.18      0.00
   -5    5   25     -4.90      0.00
   -4    5   25     -2.43      0.00
   -3    5   25      9.82      0.00
   -2    5   25     -0.90      0.00
   -1    5   25     -0.84      0.00
    0    5   25      9.62      0.00
    1    5   25      2.02      0.00
    2    5   25     -5.36      0.00
    3    5   25     -5.36      0.00
    4    5   25     -9.13      0.00
    5    5   25     -4.36      0.00
    6    5   25      0.91      0.00
    7    5   25    -10.25      0.00
    8    5   25     -5.30      0.00
    9    5   25     -1.35      0.00
   10    5   25     -5.12      0.00
   11    5   25      0.17      0.00
  -13    6   25     -6.32      0.00
  -12    6   25      3.93      0.00
  -11    6   25      5.61      0.00
  -10    6   25      3.84      0.00
   -9    6   25      0.79      0.00
   -8    6   25     11.05      0.00
   -7    6   25     -2.38      0.00
   -6    6   25      0.54      0.00
   -5    6   25      2.14      0.00
   -4    6   25     -7.03      0.00
   -3    6   25     -2.24      0.00
   -2    6   25     -6.18      0.00
   -1    6   25      1.08      0.00
    0    6   25     -4.08      0.00
    1    6   25      3.47      0.00
    2    6   25     -5.02      0.00
    3    6   25      4.79      0.00
    4    6   25     -2.23      0.00
    5    6   25     -0.54      0.00
    6    6   25      8.79      0.00
    7    6   25      1.72      0.00
    8    6   25     -3.27      0.00
    9    6   25     -2.46      0.00
   10    6   25     -2.72      0.00
  -12    7   25      0.69      0.00
  -11    7   25     -5.31      0.00
  -10    7   25     -7.12      0.00
   -9    7   25      0.93      0.00
   -8    7   25     12.53      0.00
   -7    7   25     -3.19      0.00
   -6    7   25     13.24      0.00
   -5    7   25      0.33      0.00
   -4    7   25      2.84      0.00
   -3    7   25     -2.93      0.00
   -2    7   25     -0.04      0.00
   -1    7   25      7.48      0.00
    0    7   25      8.28      0.00
    1    7   25     -4.93      0.00
    2    7   25      2.73      0.00
    3    7   25      4.83      0.00
    4    7   25      0.91      0.00
    5    7   25     -8.00      0.00
    6    7   25     15.82      0.00
    7    7   25     -8.19      0.00
    8    7   25      7.50      0.00
    9    7   25     -4.01      0.00
  -10    8   25      1.35      0.00
   -9    8   25     -0.65      0.00
   -8    8   25      4.28      0.00
   -7    8   25     -5.85      0.00
   -6    8   25      4.01      0.00
   -5    8   25     -3.87      0.00
   -4    8   25     -0.59      0.00
   -3    8   25     -9.23      0.00
   -2    8   25      5.66      0.00
   -1    8   25     -6.68      0.00
    0    8   25     -1.17      0.00
    1    8   25     -5.30      0.00
    2    8   25     -1.46      0.00
    3    8   25     -3.88      0.00
    4    8   25     -6.93      0.00
    5    8   25     -3.02      0.00
    6    8   25     13.67      0.00
    7    8   25     -5.94      0.00
    8    8   25     -3.80      0.00
   -9    9   25      0.52      0.00
   -8    9   25      1.70      0.00
   -7    9   25      2.71      0.00
   -6    9   25      4.53      0.00
   -5    9   25     -4.06      0.00
   -4    9   25     -2.13      0.00
   -3    9   25      0.04      0.00
   -2    9   25      1.31      0.00
   -1    9   25     -0.25      0.00
    0    9   25      8.12      0.00
    1    9   25     -2.00      0.00
    2    9   25      5.26      0.00
    3    9   25      4.21      0.00
    4    9   25     -4.64      0.00
    5    9   25      0.29      0.00
    6    9   25     11.51      0.00
   -6   10   25      1.04      0.00
   -5   10   25      1.75      0.00
   -4   10   25      4.66      0.00
   -3   10   25     -4.42      0.00
   -2   10   25      5.09      0.00
   -1   10   25     -0.81      0.00
    0   10   25      9.65      0.00
    1   10   25     -4.99      0.00
    2   10   25     -7.17      0.00
    3   10   25     -0.90      0.00
    4   10   25     -1.65      0.00
  -14    0   26      4.23      0.00
  -12    0   26     -9.67      0.00
  -10    0   26      4.44      0.00
   -8    0   26      3.13      0.00
   -6    0   26     -6.92      0.00
   -4    0   26     -3.28      0.00
   -2    0   26     11.90      0.00
    0    0   26     -3.38      0.00
    2    0   26    -12.58      0.00
    4    0   26     -4.82      0.00
    6    0   26    -13.28      0.00
    8    0   26     -4.31      0.00
   10    0   26      0.14      0.00
  -14    1   26      3.89      0.00
  -13    1   26     -6.49      0.00
  -12    1   26     -0.98      0.00
  -11    1   26     -2.05      0.00
  -10    1   26      1.99      0.00
   -9    1   26     -4.58      0.00
   -8    1   26     -2.68      0.00
   -7    1   26     -2.45      0.00
   -6    1   26      0.67      0.00
   -5    1   26      4.30      0.00
   -4    1   26     -2.13      0.00
   -3    1   26      7.32      0.00
   -2    1   26      3.50      0.00
   -1    1   26      5.07      0.00
    0    1   26      3.11      0.00
    1    1   26      6.57      0.00
    2    1   26      3.70      0.00
    3    1   26     10.32      0.00
    4    1   26      3.46      0.00
    5    1   26      3.27      0.00
    6    1   26     -1.21      0.00
    7    1   26      2.27      0.00
    8    1   26      1.03      0.00
    9    1   26     -0.52      0.00
   10    1   26     -2.27      0.00
   11    1   26     -0.41      0.00
  -13    2   26     -2.07      0.00
  -12    2   26     -6.45      0.00
  -11    2   26      2.59      0.00
  -10    2   26     -3.61      0.00
   -9    2   26     -3.70      0.00
   -8    2   26      4.17      0.00
   -7    2   26      9.06      0.00
   -6    2   26    -20.31      0.00
   -5    2   26      6.02      0.00
   -4    2   26     -0.99      0.00
   -3    2   26     12.24      0.00
   -2    2   26     -0.61      0.00
   -1    2   26     -2.55      0.00
    0    2   26      2.37      0.00
    1    2   26      1.68      0.00
    2    2   26    -12.39      0.00
    3    2   26     -7.66      0.00
    4    2   26      6.46      0.00
    5    2   26     -3.51      0.00
    6    2   26     -2.95      0.00
    7    2   26     -4.74      0.00
    8    2   26      1.18      0.00
    9    2   26     -3.46      0.00
   10    2   26      5.13      0.00
   11    2   26     -4.44      0.00
  -13    3   26      3.03      0.00
  -12    3   26      1.50      0.00
  -11    3   26      6.44      0.00
  -10    3   26      3.89      0.00
   -9    3   26      2.05      0.00
   -8    3   26     -4.45      0.00
   -7    3   26     -6.47      0.00
   -6    3   26     -3.34      0.00
   -5    3   26      6.64      0.00
   -4    3   26     -8.91      0.00
   -3    3   26     -1.49      0.00
   -2    3   26     -1.30      0.00
   -1    3   26     10.82      0.00
    0    3   26     -0.82      0.00
    1    3   26     -6.09      0.00
    2    3   26     -3.06      0.00
    3    3   26     15.44      0.00
    4    3   26      1.76      0.00
    5    3   26    -10.20      0.00
    6    3   26     -2.77      0.00
    7    3   26      8.04      0.00
    8    3   26     -0.48      0.00
    9    3   26     -3.46      0.00
   10    3   26     -2.63      0.00
  -13    4   26     -2.78      0.00
  -12    4   26     -6.09      0.00
  -11    4   26      0.91      0.00
  -10    4   26     -0.89      0.00
   -9    4   26     -2.39      0.00
   -8    4   26      4.79      0.00
   -7    4   26      2.36      0.00
   -6    4   26    -13.90      0.00
   -5    4   26      2.02      0.00
   -4    4   26     -6.09      0.00
   -3    4   26      2.05      0.00
   -2    4   26     -1.43      0.00
   -1    4   26     -7.88      0.00
    0    4   26     -7.15      0.00
    1    4   26     -7.32      0.00
    2    4   26    -12.47      0.00
    3    4   26     -6.09      0.00
    4    4   26      0.91      0.00
    5    4   26    -10.13      0.00
    6    4   26     -0.25      0.00
    7    4   26      3.97      0.00
    8    4   26     -1.00      0.00
    9    4   26     -0.27      0.00
   10    4   26      2.55      0.00
  -12    5   26      0.71      0.00
  -11    5   26      5.46      0.00
  -10    5   26      0.18      0.00
   -9    5   26      3.77      0.00
   -8    5   26      0.71      0.00
   -7    5   26     -5.87      0.00
   -6    5   26     -4.91      0.00
   -5    5   26      2.22      0.00
   -4    5   26     -0.83      0.00
   -3    5   26      7.03      0.00
   -2    5   26      2.91      0.00
   -1    5   26      3.48      0.00
    0    5   26      9.95      0.00
    1    5   26      6.84      0.00
    2    5   26     -0.69      0.00
    3    5   26      0.63      0.00
    4    5   26      9.80      0.00
    5    5   26     -3.12      0.00
    6    5   26      4.52      0.00
    7    5   26     -8.06      0.00
    8    5   26      4.12      0.00
    9    5   26      6.37      0.00
  -11    6   26      3.29      0.00
  -10    6   26      6.40      0.00
   -9    6   26     -5.10      0.00
   -8    6   26     -3.75      0.00
   -7    6   26      0.97      0.00
   -6    6   26     -3.32      0.00
   -5    6   26     -0.04      0.00
   -4    6   26    -17.80      0.00
   -3    6   26      5.20      0.00
   -2    6   26      6.98      0.00
   -1    6   26     -2.91      0.00
    0    6   26    -13.77      0.00
    1    6   26      2.93      0.00
    2    6   26     -2.51      0.00
    3    6   26     -0.10      0.00
    4    6   26     -2.63      0.00
    5    6   26     -3.81      0.00
    6    6   26      4.04      0.00
    7    6   26      4.11      0.00
    8    6   26      0.10      0.00
  -10    7   26     -1.30      0.00
   -9    7   26     -3.10      0.00
   -8    7   26     -1.88      0.00
   -7    7   26     -0.98      0.00
   -6    7   26     -6.25      0.00
   -5    7   26     -5.46      0.00
   -4    7   26     -7.78      0.00
   -3    7   26     11.73      0.00
   -2    7   26      2.00      0.00
   -1    7   26     -0.52      0.00
    0    7   26      1.38      0.00
    1    7   26     14.50      0.00
    2    7   26     -1.49      0.00
    3    7   26      0.55      0.00
    4    7   26      2.10      0.00
    5    7   26      3.68      0.00
    6    7   26      1.39      0.00
    7    7   26     -8.33      0.00
   -8    8   26      2.73      0.00
   -7    8   26      0.75      0.00
   -6    8   26     -5.63      0.00
   -5    8   26      0.95      0.00
   -4    8   26     -8.90      0.00
   -3    8   26     -0.30      0.00
   -2    8   26      2.19      0.00
   -1    8   26     -6.52      0.00
    0    8   26     -1.83      0.00
    1    8   26      1.92      0.00
    2    8   26     -1.98      0.00
    3    8   26     -1.22      0.00
    4    8   26     -0.63      0.00
    5    8   26      0.51      0.00
   -5    9   26      1.98      0.00
   -4    9   26     -4.91      0.00
   -3    9   26      3.13      0.00
   -2    9   26      5.15      0.00
   -1    9   26      0.09      0.00
    0    9   26     -2.81      0.00
    1    9   26     -2.38      0.00
    2    9   26      2.58      0.00
    3    9   26      3.98      0.00
  -11    0   27      1.23      0.00
   -9    0   27      1.11      0.00
   -7    0   27      2.17      0.00
   -5    0   27      9.17      0.00
   -3    0   27      0.84      0.00
   -1    0   27      1.14      0.00
    1    0   27      0.91      0.00
    3    0   27     -3.69      0.00
    5    0   27      4.39      0.00
    7    0   27      3.71      0.00
    9    0   27      3.21      0.00
  -12    1   27     -1.39      0.00
  -11    1   27     -2.47      0.00
  -10    1   27      0.06      0.00
   -9    1   27      4.52      0.00
   -8    1   27      1.24      0.00
   -7    1   27     -3.14      0.00
   -6    1   27      3.03      0.00
   -5    1   27      3.92      0.00
   -4    1   27      0.66      0.00
   -3    1   27     -9.90      0.00
   -2    1   27      0.17      0.00
   -1    1   27      3.34      0.00
    0    1   27      5.75      0.00
    1    1   27     -6.11      0.00
    2    1   27      0.79      0.00
    3    1   27      0.31      0.00
    4    1   27     -9.43      0.00
    5    1   27     -5.35      0.00
    6    1   27     -5.84      0.00
    7    1   27      1.49      0.00
    8    1   27      0.21      0.00
    9    1   27      0.70      0.00
  -12    2   27     -5.07      0.00
  -11    2   27     -3.39      0.00
  -10    2   27      0.64      0.00
   -9    2   27     -3.37      0.00
   -8    2   27     -1.62      0.00
   -7    2   27     -3.72      0.00
   -6    2   27      2.93      0.00
   -5    2   27      2.70      0.00
   -4    2   27     -3.75      0.00
   -3    2   27     -6.73      0.00
   -2    2   27      8.46      0.00
   -1    2   27     -2.88      0.00
    0    2   27     -6.44      0.00
    1    2   27     -2.04      0.00
    2    2   27      6.84      0.00
    3    2   27     -3.86      0.00
    4    2   27     -2.74      0.00
    5    2   27      0.36      0.00
    6    2   27      8.87      0.00
    7    2   27     -2.68      0.00
    8    2   27     -6.14      0.00
    9    2   27     -2.71      0.00
  -11    3   27     -2.94      0.00
  -10    3   27     -1.61      0.00
   -9    3   27      1.42      0.00
   -8    3   27     -1.84      0.00
   -7    3   27      2.06      0.00
   -6    3   27      8.90      0.00
   -5    3   27      0.32      0.00
   -4    3   27      3.09      0.00
   -3    3   27    -12.18      0.00
   -2    3   27      7.13      0.00
   -1    3   27     -2.14      0.00
    0    3   27      7.54      0.00
    1    3   27     -6.36      0.00
    2    3   27      7.77      0.00
    3    3   27     -0.57      0.00
    4    3   27     -5.42      0.00
    5    3   27     -5.30      0.00
    6    3   27      4.90      0.00
    7    3   27      6.86      0.00
    8    3   27      2.94      0.00
  -10    4   27     -1.49      0.00
   -9    4   27     -8.44      0.00
   -8    4   27     -1.05      0.00
   -7    4   27     -7.83      0.00
   -6    4   27     -4.65      0.00
   -5    4   27      1.34      0.00
   -4    4   27      3.73      0.00
   -3    4   27     -8.12      0.00
   -2    4   27      3.67      0.00
   -1    4   27     -2.88      0.00
    0    4   27      5.98      0.00
    1    4   27     -3.55      0.00
    2    4   27     -4.86      0.00
    3    4   27     -0.32      0.00
    4    4   27      7.74      0.00
    5    4   27     -1.09      0.00
    6    4   27     -4.59      0.00
    7    4   27      2.95      0.00
    8    4   27     -4.03      0.00
  -10    5   27      2.24      0.00
   -9    5   27     -1.61      0.00
   -8    5   27      7.70      0.00
   -7    5   27     10.20      0.00
   -6    5   27      6.95      0.00
   -5    5   27      2.46      0.00
   -4    5   27      4.32      0.00
   -3    5   27     -4.75      0.00
   -2    5   27      1.84      0.00
   -1    5   27     -2.49      0.00
    0    5   27     12.50      0.00
    1    5   27     -1.61      0.00
    2    5   27      5.47      0.00
    3    5   27     -0.02      0.00
    4    5   27      4.79      0.00
    5    5   27     -1.30      0.00
    6    5   27      8.38      0.00
    7    5   27     10.53      0.00
   -8    6   27      2.94      0.00
   -7    6   27     -4.06      0.00
   -6    6   27     -5.06      0.00
   -5    6   27      1.21      0.00
   -4    6   27      5.75      0.00
   -3    6   27      0.23      0.00
   -2    6   27      4.37      0.00
   -1    6   27     -6.61      0.00
    0    6   27      2.00      0.00
    1    6   27     -3.42      0.00
    2    6   27     -5.60      0.00
    3    6   27     -5.59      0.00
    4    6   27      1.31      0.00
    5    6   27     -5.17      0.00
    6    6   27     -4.86      0.00
   -7    7   27      4.66      0.00
   -6    7   27     -1.26      0.00
   -5    7   27      7.25      0.00
   -4    7   27     -3.33      0.00
   -3    7   27     -3.76      0.00
   -2    7   27     -3.98      0.00
   -1    7   27      6.92      0.00
    0    7   27      6.91      0.00
    1    7   27      1.67      0.00
    2    7   27     -4.85      0.00
    3    7   27      2.08      0.00
    4    7   27     -2.40      0.00
   -3    8   27      5.45      0.00
   -2    8   27      6.13      0.00
   -1    8   27     -2.04      0.00
    0    8   27     -6.44      0.00
   -8    0   28     -4.92      0.00
   -6    0   28     -4.41      0.00
   -4    0   28     -5.79      0.00
   -2    0   28      6.14      0.00
    0    0   28      1.70      0.00
    2    0   28     -5.27      0.00
    4    0   28      3.44      0.00
    6    0   28      3.27      0.00
   -9    1   28      2.08      0.00
   -8    1   28     -3.33      0.00
   -7    1   28     -2.12      0.00
   -6    1   28     -1.30      0.00
   -5    1   28     -5.81      0.00
   -4    1   28     -0.09      0.00
   -3    1   28      5.15      0.00
   -2    1   28      2.68      0.00
   -1    1   28     -5.01      0.00
    0    1   28     -2.12      0.00
    1    1   28      2.49      0.00
    2    1   28     -1.91      0.00
    3    1   28      1.01      0.00
    4    1   28     -4.12      0.00
    5    1   28      5.17      0.00
    6    1   28     -2.99      0.00
    7    1   28     -8.84      0.00
   -9    2   28      1.55      0.00
   -8    2   28      4.11      0.00
   -7    2   28      2.28      0.00
   -6    2   28     -7.64      0.00
   -5    2   28     -3.00      0.00
   -4    2   28      0.46      0.00
   -3    2   28     -3.40      0.00
   -2    2   28      1.80      0.00
   -1    2   28     -3.38      0.00
    0    2   28      4.88      0.00
    1    2   28      0.87      0.00
    2    2   28     -9.32      0.00
    3    2   28     -0.46      0.00
    4    2   28     -2.85      0.00
    5    2   28      7.36      0.00
    6    2   28     -3.39      0.00
   -8    3   28     -4.75      0.00
   -7    3   28     -0.28      0.00
   -6    3   28     -0.31      0.00
   -5    3   28      5.56      0.00
   -4    3   28      2.02      0.00
   -3    3   28     -0.32      0.00
   -2    3   28      7.90      0.00
   -1    3   28      5.21      0.00
    0    3   28      1.55      0.00
    1    3   28     -8.78      0.00
    2    3   28      3.52      0.00
    3    3   28      9.72      0.00
    4    3   28     -2.36      0.00
    5    3   28     -5.68      0.00
    6    3   28     -2.52      0.00
   -8    4   28      1.98      0.00
   -7    4   28      2.02      0.00
   -6    4   28    -11.07      0.00
   -5    4   28      1.09      0.00
   -4    4   28     -6.24      0.00
   -3    4   28     -4.49      0.00
   -2    4   28      1.76      0.00
   -1    4   28      2.87      0.00
    0    4   28      3.32      0.00
    1    4   28     -1.36      0.00
    2    4   28     -3.76      0.00
    3    4   28      2.92      0.00
    4    4   28     -2.73      0.00
    5    4   28      3.07      0.00
   -6    5   28     -5.82      0.00
   -5    5   28      6.08      0.00
   -4    5   28     -0.76      0.00
   -3    5   28      3.90      0.00
   -2    5   28     -0.98      0.00
   -1    5   28     -0.33      0.00
    0    5   28     -0.80      0.00
    1    5   28     -1.37      0.00
    2    5   28     -0.31      0.00
    3    5   28      3.88      0.00
   -4    6   28    -11.28      0.00
   -3    6   28     -7.75      0.00
   -2    6   28      4.40      0.00
   -1    6   28     -2.30      0.00
    0    6   28     -1.83      0.00
    1    6   28     -3.50      0.00
   -5    0   29     -1.75      0.00
   -3    0   29     -3.27      0.00
   -1    0   29     -7.36      0.00
    1    0   29      5.66      0.00
    3    0   29      5.31      0.00
   -6    1   29      6.46      0.00
   -5    1   29      3.97      0.00
   -4    1   29      7.31      0.00
   -3    1   29     -2.72      0.00
   -2    1   29      3.45      0.00
   -1    1   29      2.34      0.00
    0    1   29      8.75      0.00
    1    1   29     -0.54      0.00
    2    1   29     -4.38      0.00
    3    1   29      1.80      0.00
   -5    2   29      1.49      0.00
   -4    2   29     -5.51      0.00
   -3    2   29     -1.50      0.00
   -2    2   29      3.10      0.00
   -1    2   29     -5.62      0.00
    0    2   29     -6.18      0.00
    1    2   29      3.20      0.00
    2    2   29      2.77      0.00
   -4    3   29     -3.21      0.00
   -3    3   29      0.54      0.00
   -2    3   29      0.51      0.00
   -1    3   29      3.63      0.00
    0    3   29      1.00      0.00
    1    3   29      0.66      0.00
    2    0    0    310.63      0.00
    6    0    0    -39.52      0.00
    8    0    0    118.63      0.00
   10    0    0    -16.11      0.00
    0    2    0    463.19      0.00
   26    2    0     -0.82      0.00
   25    3    0      2.73      0.00
    0    4    0    144.03      0.00
   27    4    0      0.17      0.00
   27    5    0     -0.83      0.00
    0    6    0     87.08      0.00
   27    6    0      2.00      0.00
   26    7    0     -4.93      0.00
   27    7    0     -1.47      0.00
   26    8    0     -1.00      0.00
   20    9    0      1.39      0.00
   25    9    0      4.88      0.00
   26    9    0     -0.63      0.00
   24   10    0     -0.72      0.00
   25   10    0      3.44      0.00
   24   11    0      0.11      0.00
   11   12    0      7.43      0.00
   23   12    0     -2.76      0.00
   14   13    0      4.25      0.00
   22   13    0      5.38      0.00
   23   13    0     -0.99      0.00
   20   14    0     -0.84      0.00
   21   14    0      2.63      0.00
   19   15    0      6.95      0.00
   20   15    0     -0.81      0.00
   17   16    0     -1.37      0.00
   18   16    0     -1.64      0.00
   19   16    0      0.05      0.00
   16   17    0      1.87      0.00
   17   17    0     -4.26      0.00
   13   18    0      2.99      0.00
   14   18    0      2.07      0.00
   15   18    0      2.85      0.00
   10   19    0     -2.47      0.00
   11   19    0      0.74      0.00
   12   19    0     -2.48      0.00
   13   19    0     -1.08      0.00
    5   20    0      2.01      0.00
    6   20    0     -2.17      0.00
    7   20    0      1.85      0.00
    8   20    0     -0.35      0.00
    9   20    0      2.37      0.00
   10   20    0     -2.70      0.00
   -1    1    1     15.43      0.00
    1    1    1     56.73      0.00
    5    1    1    -55.32      0.00
   26    2    1     -1.34      0.00
   27    3    1     -2.35      0.00
  -27    4    1     -1.11      0.00
   27    4    1     -2.16      0.00
  -27    5    1     -1.40      0.00
   27    5    1     -3.23      0.00
  -27    6    1      1.22      0.00
   27    6    1     -2.55      0.00
  -27    7    1     -1.78      0.00
  -26    7    1     -0.90      0.00
   26    7    1      3.54      0.00
   27    7    1     -2.96      0.00
  -26    8    1      4.01      0.00
  -21    8    1    -13.95      0.00
   26    8    1      1.51      0.00
  -26    9    1      4.15      0.00
  -25    9    1     -2.29      0.00
   25    9    1     -0.14      0.00
   26    9    1      2.90      0.00
  -25   10    1     -0.40      0.00
  -24   10    1      2.44      0.00
   24   10    1      0.28      0.00
   25   10    1     -2.14      0.00
  -24   11    1      1.41      0.00
   10   11    1      3.67      0.00
   23   11    1     -0.14      0.00
   24   11    1      4.48      0.00
  -24   12    1     -1.49      0.00
  -23   12    1      1.04      0.00
   23   12    1     -0.83      0.00
  -23   13    1     -1.26      0.00
  -22   13    1     -0.11      0.00
  -16   13    1     -9.49      0.00
   13   13    1     -3.19      0.00
   14   13    1      9.38      0.00
   21   13    1     -1.29      0.00
   22   13    1     -1.72      0.00
  -21   14    1     -3.65      0.00
  -20   14    1      0.34      0.00
   20   14    1      3.49      0.00
   21   14    1     -2.53      0.00
  -20   15    1      0.48      0.00
  -19   15    1      0.80      0.00
    7   15    1    -15.86      0.00
   19   15    1     -4.90      0.00
   20   15    1     -3.18      0.00
  -19   16    1     -0.14      0.00
  -18   16    1     -0.42      0.00
  -17   16    1      3.75      0.00
   17   16    1      6.02      0.00
   18   16    1     -0.49      0.00
   19   16    1     -2.81      0.00
  -17   17    1      0.29      0.00
  -16   17    1     -1.30      0.00
   15   17    1     -1.79      0.00
   16   17    1     -1.01      0.00
   17   17    1      0.78      0.00
  -15   18    1     -3.49      0.00
  -14   18    1      1.00      0.00
  -13   18    1     -2.82      0.00
   13   18    1      5.49      0.00
   14   18    1      2.04      0.00
   15   18    1     -1.05      0.00
  -13   19    1      3.75      0.00
  -12   19    1      3.39      0.00
  -11   19    1      2.50      0.00
  -10   19    1     -0.52      0.00
   10   19    1     -0.14      0.00
   11   19    1      2.02      0.00
   12   19    1     -1.42      0.00
   13   19    1     -1.72      0.00
  -10   20    1      0.93      0.00
   -9   20    1      3.50      0.00
   -8   20    1      0.13      0.00
   -7   20    1     -0.35      0.00
   -6   20    1     -4.38      0.00
   -5   20    1     -0.49      0.00
    5   20    1      1.96      0.00
    6   20    1     -1.44      0.00
    7   20    1     -2.49      0.00
    8   20    1      0.57      0.00
    9   20    1      0.04      0.00
   10   20    1      0.75      0.00
   -6    0    2    -41.84      0.00
    0    0    2     13.67      0.00
    2    0    2   -243.38      0.00
  -27    1    2      2.73      0.00
   -7    1    2     -4.32      0.00
   -5    1    2    -37.08      0.00
    1    1    2    334.96      0.00
    5    1    2    -22.11      0.00
    7    1    2    -47.13      0.00
   -2    2    2    165.48      0.00
    2    2    2     45.89      0.00
   -3    3    2    -85.16      0.00
   27    3    2      1.68      0.00
  -27    4    2     -5.24      0.00
   23    4    2     -0.01      0.00
   27    4    2      2.68      0.00
  -27    5    2      1.12      0.00
   27    5    2     -0.51      0.00
  -27    6    2     -1.16      0.00
   26    6    2      2.43      0.00
   27    6    2     -4.57      0.00
  -27    7    2      2.02      0.00
  -26    7    2     -1.79      0.00
   26    7    2      6.64      0.00
   27    7    2      0.78      0.00
  -26    8    2     -2.36      0.00
   25    8    2     -0.02      0.00
   26    8    2     -2.68      0.00
  -26    9    2      2.65      0.00
  -25    9    2      0.64      0.00
   25    9    2      3.25      0.00
   26    9    2      0.34      0.00
  -25   10    2      0.67      0.00
  -24   10    2     -0.42      0.00
   24   10    2     -4.15      0.00
   25   10    2     -4.60      0.00
  -24   11    2     -3.25      0.00
   23   11    2      5.63      0.00
   24   11    2      0.91      0.00
  -24   12    2     -0.86      0.00
  -23   12    2     -0.71      0.00
   10   12    2    -22.08      0.00
   22   12    2      0.64      0.00
   23   12    2      2.19      0.00
  -23   13    2     -0.32      0.00
  -22   13    2     -1.83      0.00
   21   13    2     -3.72      0.00
   22   13    2      3.58      0.00
  -21   14    2     -2.92      0.00
  -20   14    2     -0.44      0.00
   20   14    2      6.03      0.00
   21   14    2     -1.50      0.00
  -20   15    2     -0.39      0.00
  -19   15    2     -4.10      0.00
   19   15    2     -1.06      0.00
   20   15    2      2.41      0.00
  -19   16    2      0.34      0.00
  -18   16    2      4.61      0.00
  -17   16    2     -6.48      0.00
   17   16    2      2.01      0.00
   18   16    2     -3.88      0.00
   19   16    2      2.13      0.00
  -17   17    2     -0.47      0.00
  -16   17    2      0.42      0.00
  -15   17    2      5.09      0.00
   15   17    2      0.88      0.00
   16   17    2      0.77      0.00
   17   17    2      5.95      0.00
  -15   18    2     -1.25      0.00
  -14   18    2     -4.75      0.00
  -13   18    2      3.57      0.00
   13   18    2     -6.39      0.00
   14   18    2     -0.63      0.00
   15   18    2     -5.11      0.00
  -13   19    2     -0.28      0.00
  -12   19    2      0.98      0.00
  -11   19    2     -0.47      0.00
  -10   19    2      1.99      0.00
   10   19    2      3.52      0.00
   11   19    2     -2.06      0.00
   12   19    2     -2.33      0.00
   13   19    2     -3.52      0.00
  -10   20    2      0.89      0.00
   -9   20    2     -2.53      0.00
   -8   20    2      4.91      0.00
   -7   20    2      0.70      0.00
   -6   20    2      2.75      0.00
   -5   20    2     -0.01      0.00
    5   20    2      0.48      0.00
    6   20    2      1.24      0.00
    7   20    2     -0.94      0.00
    8   20    2      2.60      0.00
    9   20    2     -0.64      0.00
   10   20    2     -0.49      0.00
  -19    1    3     -0.05      0.00
   -1    1    3    -69.83      0.00
    1    1    3     49.96      0.00
  -10    2    3     -1.43      0.00
   27    2    3     -5.93      0.00
   27    3    3     -2.84      0.00
  -27    4    3     -1.92      0.00
   27    4    3     -8.41      0.00
  -27    5    3      2.87      0.00
   27    5    3     -0.96      0.00
  -27    6    3     -1.47      0.00
   26    6    3     -4.57      0.00
   27    6    3     -4.59      0.00
  -27    7    3      0.75      0.00
  -26    7    3     -0.51      0.00
    1    7    3     29.45      0.00
   26    7    3      0.49      0.00
   27    7    3      1.82      0.00
  -26    8    3      0.62      0.00
   25    8    3     -0.37      0.00
   26    8    3     -6.72      0.00
  -26    9    3      0.50      0.00
  -25    9    3      0.33      0.00
   17    9    3      5.76      0.00
   25    9    3      0.28      0.00
  -25   10    3      1.76      0.00
  -24   10    3     -2.21      0.00
   24   10    3      1.77      0.00
   25   10    3      2.88      0.00
  -24   11    3     -2.42      0.00
  -23   11    3     -2.91      0.00
   23   11    3      4.43      0.00
   24   11    3      3.02      0.00
  -23   12    3      0.09      0.00
  -14   12    3      1.99      0.00
   22   12    3      2.66      0.00
   23   12    3     -1.78      0.00
  -23   13    3     -1.27      0.00
  -22   13    3      1.66      0.00
   21   13    3     -2.45      0.00
   22   13    3      2.35      0.00
  -21   14    3     -4.13      0.00
  -20   14    3     -3.47      0.00
   20   14    3     -1.65      0.00
   21   14    3     -4.80      0.00
  -20   15    3      3.13      0.00
  -19   15    3      6.96      0.00
   19   15    3      1.26      0.00
   20   15    3      2.09      0.00
  -19   16    3     -3.06      0.00
  -18   16    3     -1.67      0.00
  -17   16    3      1.60      0.00
   17   16    3     -0.36      0.00
   18   16    3      1.43      0.00
  -17   17    3      0.49      0.00
  -16   17    3     -0.26      0.00
  -15   17    3      2.22      0.00
   15   17    3      0.74      0.00
   16   17    3     -4.29      0.00
   17   17    3      2.08      0.00
  -15   18    3     -2.98      0.00
  -14   18    3     -0.88      0.00
  -13   18    3      0.96      0.00
   13   18    3      1.11      0.00
   14   18    3      2.87      0.00
   15   18    3      0.53      0.00
  -13   19    3      2.93      0.00
  -12   19    3     -4.01      0.00
  -11   19    3     -0.43      0.00
  -10   19    3     -5.07      0.00
   10   19    3     -2.12      0.00
   11   19    3      0.59      0.00
   12   19    3      0.50      0.00
   13   19    3     -2.99      0.00
  -10   20    3      2.74      0.00
   -9   20    3      0.09      0.00
   -8   20    3     -2.98      0.00
   -7   20    3     -3.21      0.00
   -6   20    3      0.22      0.00
   -5   20    3      0.47      0.00
    4   20    3     -3.41      0.00
    5   20    3     -2.38      0.00
    6   20    3     -0.52      0.00
    7   20    3     -2.44      0.00
    8   20    3      0.10      0.00
    9   20    3      3.05      0.00
   10   20    3     -2.67      0.00
   -2    0    4    -61.92      0.00
    0    0    4    238.64      0.00
    2    0    4    -15.92      0.00
    8    0    4     21.61      0.00
   27    1    4      4.86      0.00
   25    2    4      0.28      0.00
   27    2    4     -5.69      0.00
  -27    3    4      3.57      0.00
    7    3    4    -23.86      0.00
   27    3    4      2.61      0.00
  -27    4    4     -4.48      0.00
    0    4    4     95.52      0.00
   22    4    4    -10.93      0.00
   27    4    4     -2.11      0.00
  -27    5    4      4.36      0.00
   27    5    4      4.15      0.00
  -27    6    4     -5.73      0.00
   26    6    4      0.08      0.00
   27    6    4      0.96      0.00
  -27    7    4      0.18      0.00
  -26    7    4     -0.94      0.00
   26    7    4     -2.23      0.00
  -26    8    4      0.82      0.00
  -22    8    4      3.93      0.00
   25    8    4      4.51      0.00
   26    8    4      0.17      0.00
  -26    9    4      0.17      0.00
  -25    9    4     -0.44      0.00
   25    9    4      2.21      0.00
  -25   10    4     -2.70      0.00
  -24   10    4      3.35      0.00
   24   10    4     -0.93      0.00
   25   10    4     -1.25      0.00
  -24   11    4     -0.65      0.00
  -23   11    4     -3.46      0.00
   23   11    4      0.71      0.00
   24   11    4     -1.92      0.00
  -23   12    4      0.30      0.00
  -22   12    4      4.11      0.00
  -19   12    4      4.15      0.00
  -16   12    4      1.99      0.00
  -15   12    4      1.84      0.00
   22   12    4     -3.00      0.00
   23   12    4     -4.66      0.00
  -22   13    4     -3.30      0.00
  -21   13    4     -4.94      0.00
   21   13    4      0.04      0.00
   22   13    4      2.42      0.00
  -21   14    4     -2.13      0.00
  -20   14    4      2.76      0.00
   20   14    4     -1.54      0.00
   21   14    4     -2.10      0.00
  -20   15    4     -2.97      0.00
  -19   15    4     -2.17      0.00
   18   15    4      0.26      0.00
   19   15    4      2.32      0.00
   20   15    4      1.53      0.00
  -19   16    4      1.23      0.00
  -18   16    4      1.35      0.00
  -17   16    4     -4.78      0.00
   17   16    4     -2.40      0.00
   18   16    4      1.19      0.00
  -17   17    4     -5.02      0.00
  -16   17    4     -1.27      0.00
  -15   17    4     -2.22      0.00
   15   17    4     -0.63      0.00
   16   17    4     -2.14      0.00
   17   17    4      1.25      0.00
  -15   18    4     -2.21      0.00
  -14   18    4      7.56      0.00
  -13   18    4      0.30      0.00
   12   18    4     -3.07      0.00
   13   18    4      1.33      0.00
   14   18    4     -0.83      0.00
   15   18    4      0.23      0.00
  -13   19    4     -3.99      0.00
  -12   19    4     -1.65      0.00
  -11   19    4      3.86      0.00
  -10   19    4     -0.45      0.00
    9   19    4      5.11      0.00
   10   19    4      5.48      0.00
   11   19    4      5.85      0.00
   12   19    4      1.60      0.00
  -10   20    4     -2.15      0.00
   -9   20    4      1.89      0.00
   -8   20    4     -2.94      0.00
   -7   20    4      4.52      0.00
   -6   20    4     -4.12      0.00
   -5   20    4      0.94      0.00
   -4   20    4     -3.04      0.00
    3   20    4     -0.98      0.00
    4   20    4      1.26      0.00
    5   20    4      2.81      0.00
    6   20    4      3.40      0.00
    7   20    4      1.07      0.00
    8   20    4      1.71      0.00
    9   20    4     -0.92      0.00
  -21    0    5     -7.62      0.00
   27    0    5      0.46      0.00
   27    1    5      0.74      0.00
   -6    2    5     16.54      0.00
   -4    2    5    170.41      0.00
   24    2    5     -5.96      0.00
   27    2    5     -4.23      0.00
  -27    3    5     -0.15      0.00
   22    3    5      9.07      0.00
   23    3    5      4.45      0.00
   27    3    5      2.84      0.00
  -27    4    5     -0.15      0.00
   27    4    5     -5.66      0.00
  -27    5    5     -0.47      0.00
   26    5    5      4.49      0.00
   27    5    5     -1.41      0.00
  -27    6    5     -3.24      0.00
  -26    6    5      4.58      0.00
   26    6    5      1.82      0.00
   27    6    5     -1.06      0.00
  -27    7    5     -1.06      0.00
  -26    7    5      0.79      0.00
   26    7    5      0.74      0.00
  -26    8    5      1.45      0.00
  -25    8    5      0.70      0.00
   25    8    5     -4.35      0.00
   26    8    5      1.02      0.00
  -26    9    5     -0.10      0.00
  -25    9    5     -1.83      0.00
   24    9    5      3.30      0.00
   25    9    5     -0.28      0.00
  -25   10    5     -0.80      0.00
  -24   10    5      3.18      0.00
   24   10    5     -2.62      0.00
  -24   11    5     -4.06      0.00
  -23   11    5     -0.72      0.00
   23   11    5     -1.05      0.00
   24   11    5      5.83      0.00
  -23   12    5     -4.47      0.00
  -22   12    5     -5.81      0.00
  -18   12    5     10.82      0.00
  -17   12    5     -0.25      0.00
   22   12    5     -3.52      0.00
   23   12    5      2.24      0.00
  -22   13    5     -0.97      0.00
  -21   13    5      3.79      0.00
   21   13    5      1.83      0.00
   22   13    5      2.08      0.00
  -21   14    5     -5.41      0.00
  -20   14    5     -5.17      0.00
   20   14    5      5.88      0.00
   21   14    5     -1.10      0.00
  -20   15    5      1.27      0.00
  -19   15    5      0.23      0.00
   18   15    5     -0.76      0.00
   19   15    5      0.25      0.00
  -18   16    5      4.14      0.00
  -17   16    5      2.44      0.00
   16   16    5     -0.64      0.00
   17   16    5      3.08      0.00
   18   16    5      0.11      0.00
  -17   17    5     -1.57      0.00
  -16   17    5      1.22      0.00
  -15   17    5      3.76      0.00
   15   17    5      2.63      0.00
   16   17    5      5.35      0.00
  -15   18    5      0.69      0.00
  -14   18    5     -0.71      0.00
  -13   18    5      4.27      0.00
   12   18    5     -1.93      0.00
   13   18    5     -0.58      0.00
   14   18    5     -2.45      0.00
  -12   19    5     -2.48      0.00
  -11   19    5     -2.18      0.00
  -10   19    5      0.29      0.00
   -9   19    5     -7.82      0.00
    9   19    5      1.52      0.00
   10   19    5      6.72      0.00
   11   19    5     -0.04      0.00
   12   19    5     -1.51      0.00
   -9   20    5     -0.53      0.00
   -8   20    5     -1.80      0.00
   -7   20    5      0.93      0.00
   -6   20    5     -4.37      0.00
   -5   20    5      3.00      0.00
   -4   20    5     -0.21      0.00
   -3   20    5     -0.01      0.00
   -2   20    5      2.95      0.00
    2   20    5      4.14      0.00
    3   20    5      4.73      0.00
    4   20    5      5.15      0.00
    5   20    5     -1.40      0.00
    6   20    5     -1.31      0.00
    7   20    5     -1.73      0.00
    8   20    5     -2.88      0.00
    9   20    5     -2.96      0.00
   -2    0    6    -41.00      0.00
    2    0    6    -92.09      0.00
  -21    1    6      0.15      0.00
    1    1    6    188.70      0.00
   27    1    6      1.23      0.00
  -27    2    6     -2.88      0.00
   22    2    6      1.14      0.00
   24    2    6     -1.65      0.00
   27    2    6     -1.19      0.00
  -27    3    6      0.57      0.00
   20    3    6     12.05      0.00
   22    3    6     11.34      0.00
   27    3    6      3.16      0.00
  -27    4    6     -4.03      0.00
   17    4    6      9.82      0.00
   18    4    6      3.45      0.00
   26    4    6     -4.95      0.00
   27    4    6     -2.33      0.00
  -27    5    6      1.27      0.00
   26    5    6      4.44      0.00
   27    5    6     -0.20      0.00
  -27    6    6     -0.76      0.00
  -26    6    6      3.49      0.00
   26    6    6     -2.40      0.00
  -27    7    6     -2.51      0.00
  -26    7    6     -4.93      0.00
   25    7    6      1.05      0.00
   26    7    6      3.13      0.00
  -26    8    6      3.14      0.00
  -25    8    6     -2.30      0.00
   25    8    6      1.43      0.00
  -25    9    6      0.85      0.00
   24    9    6      4.89      0.00
   25    9    6      2.02      0.00
  -25   10    6     -3.31      0.00
  -24   10    6      0.78      0.00
   23   10    6      4.41      0.00
   24   10    6     -1.67      0.00
  -24   11    6     -2.49      0.00
  -23   11    6      3.03      0.00
  -21   11    6     -0.25      0.00
   23   11    6      0.59      0.00
  -23   12    6     -0.95      0.00
  -22   12    6      2.58      0.00
   22   12    6      0.08      0.00
   23   12    6      2.69      0.00
  -22   13    6      0.66      0.00
  -21   13    6      1.32      0.00
   20   13    6     -5.61      0.00
   21   13    6     -3.52      0.00
   22   13    6     -2.39      0.00
  -21   14    6     -0.97      0.00
  -20   14    6      0.86      0.00
   19   14    6      1.84      0.00
   20   14    6      6.63      0.00
  -20   15    6     -0.62      0.00
  -19   15    6     -5.20      0.00
  -18   15    6      1.42      0.00
   18   15    6     -2.92      0.00
   19   15    6     -0.73      0.00
  -18   16    6      3.97      0.00
  -17   16    6     -3.70      0.00
   16   16    6     -6.98      0.00
   17   16    6     -4.75      0.00
   18   16    6     -3.17      0.00
  -17   17    6     -2.66      0.00
  -16   17    6      1.62      0.00
  -15   17    6      1.10      0.00
   14   17    6      5.35      0.00
   15   17    6      2.95      0.00
   16   17    6      3.80      0.00
  -15   18    6     -4.48      0.00
  -14   18    6     -0.88      0.00
  -13   18    6      2.53      0.00
  -12   18    6     -0.75      0.00
   12   18    6     -0.82      0.00
   13   18    6      0.27      0.00
   14   18    6     -1.59      0.00
  -12   19    6      1.13      0.00
  -11   19    6      1.48      0.00
  -10   19    6      2.97      0.00
   -9   19    6     -1.77      0.00
    8   19    6     -6.18      0.00
    9   19    6      5.69      0.00
   10   19    6      1.07      0.00
   11   19    6     -0.52      0.00
   -9   20    6      0.58      0.00
   -8   20    6      0.45      0.00
   -7   20    6      0.10      0.00
   -6   20    6      1.94      0.00
   -5   20    6     -0.10      0.00
   -4   20    6     -6.41      0.00
   -3   20    6     -5.94      0.00
   -2   20    6     -1.06      0.00
   -1   20    6      1.26      0.00
    0   20    6     -3.75      0.00
    1   20    6     -4.08      0.00
    2   20    6      3.21      0.00
    3   20    6     -3.78      0.00
    4   20    6     -2.46      0.00
    5   20    6      0.70      0.00
    6   20    6     -0.48      0.00
    7   20    6      1.85      0.00
    8   20    6     -0.53      0.00
  -27    0    7     -5.98      0.00
   27    0    7      8.48      0.00
  -27    1    7      1.62      0.00
  -26    1    7     -6.38      0.00
  -23    1    7      3.60      0.00
   -1    1    7     -2.67      0.00
   27    1    7     -2.10      0.00
  -27    2    7     -0.29      0.00
   27    2    7      7.72      0.00
  -27    3    7     -0.02      0.00
   21    3    7      4.55      0.00
   26    3    7     -2.14      0.00
   27    3    7     -2.35      0.00
  -27    4    7     -0.49      0.00
   26    4    7     -2.92      0.00
   27    4    7      3.58      0.00
  -27    5    7     -6.02      0.00
   26    5    7     -0.89      0.00
   27    5    7      1.71      0.00
  -27    6    7      0.82      0.00
  -26    6    7      4.94      0.00
   25    6    7     -0.17      0.00
   26    6    7      0.56      0.00
  -26    7    7     -7.70      0.00
   12    7    7     27.09      0.00
   25    7    7     -2.48      0.00
   26    7    7      4.13      0.00
  -26    8    7      3.02      0.00
  -25    8    7      2.46      0.00
   24    8    7     -2.81      0.00
   25    8    7      0.94      0.00
  -25    9    7      4.47      0.00
   24    9    7      2.12      0.00
   25    9    7     -2.78      0.00
  -25   10    7      3.06      0.00
  -24   10    7      0.48      0.00
   23   10    7     -2.39      0.00
   24   10    7     -0.99      0.00
  -24   11    7     -5.27      0.00
  -23   11    7      1.84      0.00
   22   11    7     -4.74      0.00
   23   11    7     -3.98      0.00
  -23   12    7     -1.66      0.00
  -22   12    7     -1.94      0.00
   21   12    7     -0.50      0.00
   22   12    7      1.07      0.00
  -22   13    7      1.17      0.00
  -21   13    7     -1.38      0.00
   20   13    7     -2.02      0.00
   21   13    7     -1.79      0.00
  -21   14    7     -3.04      0.00
  -20   14    7     -1.92      0.00
   19   14    7      0.34      0.00
   20   14    7     -0.63      0.00
  -20   15    7      0.32      0.00
  -19   15    7     -4.56      0.00
  -18   15    7     -2.15      0.00
   17   15    7      1.22      0.00
   18   15    7      7.34      0.00
   19   15    7      2.31      0.00
  -18   16    7     -0.97      0.00
  -17   16    7      0.25      0.00
  -16   16    7      0.86      0.00
   16   16    7     -0.36      0.00
   17   16    7      0.79      0.00
  -16   17    7     -0.45      0.00
  -15   17    7     -3.54      0.00
  -14   17    7      6.49      0.00
   14   17    7     -2.27      0.00
   15   17    7      1.51      0.00
   16   17    7      1.43      0.00
  -14   18    7      1.45      0.00
  -13   18    7     -2.29      0.00
  -12   18    7     -1.63      0.00
   11   18    7      3.42      0.00
   12   18    7      3.11      0.00
   13   18    7     -0.60      0.00
   14   18    7     -1.29      0.00
  -12   19    7     -0.89      0.00
  -11   19    7      3.32      0.00
  -10   19    7      0.60      0.00
   -9   19    7      3.72      0.00
   -8   19    7      1.50      0.00
    7   19    7      1.60      0.00
    8   19    7     -2.21      0.00
    9   19    7     -0.19      0.00
   10   19    7     -0.58      0.00
   11   19    7     -0.67      0.00
   -8   20    7     -7.59      0.00
   -7   20    7     -2.07      0.00
   -6   20    7      0.54      0.00
   -5   20    7      0.20      0.00
   -4   20    7      2.80      0.00
   -3   20    7     -0.77      0.00
   -2   20    7      1.56      0.00
   -1   20    7      0.08      0.00
    0   20    7     -6.10      0.00
    1   20    7     -2.53      0.00
    2   20    7      2.41      0.00
    3   20    7      2.67      0.00
    4   20    7     -0.30      0.00
    5   20    7     -4.16      0.00
    6   20    7     -1.05      0.00
    7   20    7     -0.37      0.00
  -22    0    8     -8.80      0.00
   24    0    8    -11.69      0.00
   26    0    8     -0.80      0.00
  -27    1    8      1.20      0.00
   26    1    8     -0.70      0.00
   27    1    8      3.04      0.00
  -27    2    8     -2.29      0.00
   -1    2    8     20.53      0.00
   20    2    8     -0.20      0.00
   26    2    8      2.04      0.00
   27    2    8      2.46      0.00
  -27    3    8     -2.95      0.00
  -26    3    8     -2.63      0.00
  -21    3    8     -0.90      0.00
   20    3    8     -5.58      0.00
   26    3    8      1.78      0.00
   27    3    8     -0.74      0.00
  -27    4    8     -2.46      0.00
   26    4    8      3.24      0.00
   27    4    8      4.15      0.00
  -27    5    8     -0.45      0.00
  -26    5    8     -6.02      0.00
   26    5    8      3.87      0.00
  -27    6    8     -4.29      0.00
  -26    6    8     -2.49      0.00
   25    6    8      2.01      0.00
   26    6    8      3.80      0.00
  -26    7    8     -2.90      0.00
  -25    7    8      8.42      0.00
   25    7    8     -2.85      0.00
  -26    8    8     -2.66      0.00
  -25    8    8     -4.30      0.00
   24    8    8     -0.40      0.00
   25    8    8      1.86      0.00
  -25    9    8      3.28      0.00
  -24    9    8     -1.80      0.00
   23    9    8     -1.12      0.00
   24    9    8     -0.45      0.00
  -24   10    8      0.96      0.00
   23   10    8      3.46      0.00
   24   10    8      1.77      0.00
  -24   11    8     -0.22      0.00
  -23   11    8     -2.20      0.00
   22   11    8     -1.04      0.00
   23   11    8      1.86      0.00
  -23   12    8     -1.59      0.00
  -22   12    8      0.68      0.00
   21   12    8      1.37      0.00
   22   12    8      4.27      0.00
  -22   13    8     -0.40      0.00
  -21   13    8     -6.17      0.00
   20   13    8     -1.21      0.00
   21   13    8      2.92      0.00
  -21   14    8      0.58      0.00
  -20   14    8      2.33      0.00
  -19   14    8      1.03      0.00
   19   14    8     -0.67      0.00
   20   14    8      0.61      0.00
  -19   15    8      0.04      0.00
  -18   15    8      5.26      0.00
   17   15    8     -3.17      0.00
   18   15    8      1.02      0.00
  -18   16    8     -0.42      0.00
  -17   16    8     -3.59      0.00
  -16   16    8     -2.20      0.00
   15   16    8      3.96      0.00
   16   16    8      0.36      0.00
   17   16    8     -2.66      0.00
  -16   17    8      0.17      0.00
  -15   17    8      1.04      0.00
  -14   17    8     -3.20      0.00
   13   17    8      0.97      0.00
   14   17    8     -1.78      0.00
   15   17    8      0.97      0.00
  -14   18    8      3.41      0.00
  -13   18    8      2.78      0.00
  -12   18    8     -0.07      0.00
  -11   18    8     -6.31      0.00
   10   18    8      3.55      0.00
   11   18    8      2.20      0.00
   12   18    8      1.98      0.00
   13   18    8     -2.20      0.00
  -11   19    8      3.28      0.00
  -10   19    8      0.32      0.00
   -9   19    8     -1.35      0.00
   -8   19    8     -2.96      0.00
   -7   19    8      3.02      0.00
    6   19    8      4.90      0.00
    7   19    8      3.44      0.00
    8   19    8     -2.64      0.00
    9   19    8      2.60      0.00
   10   19    8      1.24      0.00
   -7   20    8     -0.45      0.00
   -6   20    8     -0.02      0.00
   -5   20    8      2.58      0.00
   -4   20    8     -3.80      0.00
   -3   20    8      1.20      0.00
   -2   20    8      4.64      0.00
   -1   20    8      1.96      0.00
    0   20    8     -1.94      0.00
    1   20    8     -2.55      0.00
    2   20    8     -2.49      0.00
    3   20    8     -0.16      0.00
    4   20    8     -0.76      0.00
    5   20    8      0.80      0.00
    6   20    8     -0.61      0.00
    7   20    8     -0.07      0.00
  -27    0    9      7.03      0.00
   27    0    9      2.55      0.00
  -27    1    9     -1.33      0.00
   26    1    9     -2.38      0.00
   27    1    9     -1.30      0.00
  -27    2    9      7.41      0.00
   -6    2    9    -34.03      0.00
   12    2    9     18.47      0.00
   26    2    9      3.06      0.00
   27    2    9     -2.39      0.00
  -27    3    9     -4.50      0.00
   19    3    9     -5.73      0.00
   21    3    9    -11.04      0.00
   26    3    9      0.36      0.00
  -27    4    9      4.64      0.00
  -26    4    9      4.98      0.00
   26    4    9      0.56      0.00
  -27    5    9      3.06      0.00
  -26    5    9     -2.54      0.00
   25    5    9      2.37      0.00
   26    5    9      1.28      0.00
  -26    6    9      1.11      0.00
  -21    6    9     -1.70      0.00
   25    6    9     -2.79      0.00
   26    6    9     -0.99      0.00
  -26    7    9     -3.21      0.00
  -25    7    9      1.24      0.00
   24    7    9      0.14      0.00
   25    7    9      2.36      0.00
  -25    8    9      0.03      0.00
   24    8    9     -0.99      0.00
   25    8    9      2.24      0.00
  -25    9    9      1.05      0.00
  -24    9    9     -1.73      0.00
   23    9    9      0.43      0.00
   24    9    9     -0.98      0.00
  -24   10    9      5.62      0.00
  -23   10    9     -3.85      0.00
  -21   10    9      0.57      0.00
   22   10    9      2.10      0.00
   23   10    9      0.98      0.00
  -23   11    9     -0.49      0.00
  -22   11    9      7.43      0.00
   21   11    9     -0.24      0.00
   22   11    9     -0.72      0.00
  -22   12    9     -2.39      0.00
  -21   12    9      1.97      0.00
   20   12    9      1.59      0.00
   21   12    9     -3.28      0.00
   22   12    9      1.24      0.00
  -21   13    9      0.97      0.00
  -20   13    9     -2.94      0.00
   19   13    9      1.13      0.00
   20   13    9     -0.79      0.00
   21   13    9      0.66      0.00
  -20   14    9     -0.93      0.00
  -19   14    9      4.49      0.00
   18   14    9     -4.62      0.00
   19   14    9     -0.07      0.00
  -19   15    9     -1.37      0.00
  -18   15    9     -6.55      0.00
  -17   15    9      1.59      0.00
   17   15    9     -1.24      0.00
   18   15    9      1.26      0.00
  -17   16    9     -1.56      0.00
  -16   16    9     -0.97      0.00
   15   16    9     -0.40      0.00
   16   16    9      2.05      0.00
  -16   17    9      2.33      0.00
  -15   17    9      1.30      0.00
  -14   17    9      1.41      0.00
  -13   17    9      2.59      0.00
   13   17    9      3.26      0.00
   14   17    9     -4.33      0.00
   15   17    9     -0.01      0.00
  -13   18    9      0.05      0.00
  -12   18    9      2.93      0.00
  -11   18    9     -2.54      0.00
   10   18    9      0.41      0.00
   11   18    9     -4.50      0.00
   12   18    9     -3.55      0.00
  -11   19    9     -2.05      0.00
  -10   19    9      3.33      0.00
   -9   19    9     -0.55      0.00
   -8   19    9      5.30      0.00
   -7   19    9     -1.58      0.00
   -6   19    9     -3.81      0.00
    5   19    9     -4.99      0.00
    6   19    9      1.14      0.00
    7   19    9      2.15      0.00
    8   19    9     -4.50      0.00
    9   19    9      0.81      0.00
   10   19    9      3.82      0.00
   -6   20    9      2.48      0.00
   -5   20    9      3.59      0.00
   -4   20    9     -2.31      0.00
   -3   20    9     -3.56      0.00
   -2   20    9     -1.74      0.00
   -1   20    9      5.72      0.00
    0   20    9     -1.30      0.00
    1   20    9     -1.86      0.00
    2   20    9      0.96      0.00
    3   20    9      2.68      0.00
    4   20    9     -0.26      0.00
    5   20    9     -3.42      0.00
  -26    0   10     -7.52      0.00
   -2    0   10    -33.88      0.00
    0    0   10    -71.59      0.00
   26    0   10      7.78      0.00
  -27    1   10     -2.42      0.00
   -1    1   10    -11.37      0.00
   26    1   10     -2.08      0.00
  -27    2   10      1.93      0.00
  -26    2   10     -3.50      0.00
   26    2   10      4.67      0.00
  -27    3   10      0.07      0.00
  -26    3   10     -7.79      0.00
   25    3   10      0.53      0.00
   26    3   10     -0.09      0.00
  -27    4   10     -1.69      0.00
  -26    4   10     -5.88      0.00
   25    4   10     -2.44      0.00
   26    4   10      1.07      0.00
  -27    5   10      0.85      0.00
  -26    5   10     -3.90      0.00
  -22    5   10     -9.81      0.00
   25    5   10      4.85      0.00
   26    5   10      2.11      0.00
  -26    6   10      0.44      0.00
  -25    6   10     -5.80      0.00
   24    6   10     -5.36      0.00
   25    6   10      4.40      0.00
  -26    7   10     -4.27      0.00
  -25    7   10     -2.31      0.00
   24    7   10     -1.72      0.00
   25    7   10      0.04      0.00
  -25    8   10     -0.61      0.00
  -24    8   10     -0.17      0.00
   23    8   10      6.90      0.00
   24    8   10      1.54      0.00
  -25    9   10      2.55      0.00
  -24    9   10      1.09      0.00
   23    9   10     -3.03      0.00
   24    9   10     -1.97      0.00
  -24   10   10     -2.43      0.00
  -23   10   10      3.55      0.00
   22   10   10      3.73      0.00
   23   10   10      2.28      0.00
  -23   11   10      0.15      0.00
  -22   11   10     -2.06      0.00
   21   11   10     -2.16      0.00
   22   11   10     -0.36      0.00
  -22   12   10     -3.05      0.00
  -21   12   10      7.42      0.00
   20   12   10     -0.10      0.00
   21   12   10      1.71      0.00
  -21   13   10      3.91      0.00
  -20   13   10     -4.79      0.00
   19   13   10      0.55      0.00
   20   13   10     -2.12      0.00
  -20   14   10     -5.65      0.00
  -19   14   10     -7.56      0.00
   18   14   10     -0.79      0.00
   19   14   10      2.96      0.00
  -19   15   10     -0.57      0.00
  -18   15   10      2.80      0.00
  -17   15   10     -0.48      0.00
   16   15   10     -0.85      0.00
   17   15   10      2.96      0.00
   18   15   10     -3.32      0.00
  -17   16   10     -1.86      0.00
  -16   16   10      3.41      0.00
  -15   16   10      3.40      0.00
   14   16   10     -3.31      0.00
   15   16   10      2.00      0.00
   16   16   10      1.30      0.00
  -15   17   10     -1.16      0.00
  -14   17   10      1.11      0.00
  -13   17   10      8.15      0.00
   12   17   10      5.70      0.00
   13   17   10      2.73      0.00
   14   17   10     -1.75      0.00
  -13   18   10      2.71      0.00
  -12   18   10     -5.24      0.00
  -11   18   10     -3.02      0.00
  -10   18   10      2.76      0.00
    9   18   10      0.85      0.00
   10   18   10      2.37      0.00
   11   18   10     -0.71      0.00
   12   18   10      2.51      0.00
  -10   19   10     -1.96      0.00
   -9   19   10     -0.16      0.00
   -8   19   10     -6.92      0.00
   -7   19   10      4.06      0.00
   -6   19   10     -2.36      0.00
   -5   19   10      1.98      0.00
   -4   19   10     -4.66      0.00
    3   19   10     -1.88      0.00
    4   19   10     -3.28      0.00
    5   19   10      2.73      0.00
    6   19   10      5.90      0.00
    7   19   10      0.96      0.00
    8   19   10     -1.14      0.00
    9   19   10     -1.42      0.00
   -5   20   10      1.07      0.00
   -4   20   10     -1.21      0.00
   -3   20   10     -6.62      0.00
   -2   20   10      4.49      0.00
   -1   20   10      0.40      0.00
    0   20   10     -3.39      0.00
    1   20   10     -1.95      0.00
    2   20   10      3.18      0.00
    3   20   10     -1.66      0.00
    4   20   10      2.31      0.00
  -27    0   11     -0.13      0.00
   25    0   11     -2.30      0.00
  -27    1   11     -3.78      0.00
  -26    1   11      8.56      0.00
  -21    1   11     -4.64      0.00
   13    1   11    -14.81      0.00
   25    1   11      0.74      0.00
   26    1   11     -3.17      0.00
  -27    2   11     -1.83      0.00
  -26    2   11      2.26      0.00
  -22    2   11      0.32      0.00
   25    2   11      2.77      0.00
   26    2   11      3.53      0.00
  -27    3   11     -6.70      0.00
  -26    3   11      3.50      0.00
  -23    3   11     -4.36      0.00
  -21    3   11     -4.70      0.00
  -19    3   11    -16.40      0.00
   17    3   11    -13.60      0.00
   25    3   11     -3.39      0.00
   26    3   11     -1.47      0.00
  -27    4   11     -0.71      0.00
  -26    4   11     -0.37      0.00
  -20    4   11     -9.39      0.00
   25    4   11      0.09      0.00
  -26    5   11      1.24      0.00
  -21    5   11      4.14      0.00
   24    5   11      4.57      0.00
   25    5   11     -0.91      0.00
  -26    6   11     -2.46      0.00
  -25    6   11      0.46      0.00
   24    6   11      1.48      0.00
   25    6   11     -0.96      0.00
  -25    7   11      3.66      0.00
   24    7   11     -1.09      0.00
  -25    8   11      0.67      0.00
  -24    8   11     -2.46      0.00
   23    8   11      0.63      0.00
   24    8   11      0.86      0.00
  -24    9   11      7.55      0.00
  -23    9   11      2.22      0.00
   22    9   11     -4.99      0.00
   23    9   11      1.40      0.00
  -24   10   11      0.62      0.00
  -23   10   11     -5.36      0.00
   21   10   11      1.31      0.00
   22   10   11      0.59      0.00
  -23   11   11      1.14      0.00
  -22   11   11      0.09      0.00
  -16   11   11      3.45      0.00
   21   11   11      5.44      0.00
   22   11   11     -3.23      0.00
  -22   12   11      0.91      0.00
  -21   12   11     -1.72      0.00
   20   12   11     -3.90      0.00
   21   12   11      1.63      0.00
  -21   13   11     -3.38      0.00
  -20   13   11      2.33      0.00
  -19   13   11      1.80      0.00
   18   13   11      5.35      0.00
   19   13   11     -3.19      0.00
   20   13   11     -0.40      0.00
  -19   14   11     -3.45      0.00
  -18   14   11      0.69      0.00
   17   14   11      1.18      0.00
   18   14   11     -0.18      0.00
  -18   15   11     -0.15      0.00
  -17   15   11      4.44      0.00
  -16   15   11      5.15      0.00
   15   15   11      1.88      0.00
   16   15   11     -2.40      0.00
   17   15   11      2.33      0.00
  -16   16   11      4.42      0.00
  -15   16   11      6.24      0.00
   13   16   11      2.05      0.00
   14   16   11     -3.15      0.00
   15   16   11      0.96      0.00
  -14   17   11      1.39      0.00
  -13   17   11     -8.06      0.00
  -12   17   11     -2.72      0.00
   11   17   11     -0.96      0.00
   12   17   11      1.06      0.00
   13   17   11      0.20      0.00
  -12   18   11      2.26      0.00
  -11   18   11     -0.32      0.00
  -10   18   11      1.29      0.00
   -9   18   11      0.97      0.00
    8   18   11      2.08      0.00
    9   18   11     -1.67      0.00
   10   18   11      4.64      0.00
   11   18   11      3.96      0.00
   -9   19   11      0.62      0.00
   -8   19   11      1.28      0.00
   -7   19   11      3.82      0.00
   -6   19   11      0.17      0.00
   -5   19   11      0.09      0.00
   -4   19   11      4.08      0.00
   -3   19   11      1.47      0.00
   -2   19   11      0.78      0.00
   -1   19   11     -1.65      0.00
    0   19   11      3.96      0.00
    1   19   11     -0.34      0.00
    2   19   11     -1.17      0.00
    3   19   11      0.00      0.00
    4   19   11      5.73      0.00
    5   19   11      4.39      0.00
    6   19   11      0.90      0.00
    7   19   11      3.17      0.00
    8   19   11      0.33      0.00
   -3   20   11     -1.70      0.00
   -2   20   11      3.65      0.00
   -1   20   11      3.38      0.00
    0   20   11     -0.54      0.00
    1   20   11     -2.87      0.00
    2   20   11      1.67      0.00
  -26    0   12     -4.41      0.00
   26    0   12     -1.22      0.00
  -27    1   12      3.55      0.00
  -26    1   12      0.90      0.00
   25    1   12      0.69      0.00
   26    1   12     -1.44      0.00
  -27    2   12     -1.47      0.00
  -26    2   12     -3.41      0.00
   25    2   12     -3.30      0.00
  -26    3   12     -0.07      0.00
  -23    3   12     -0.99      0.00
  -22    3   12      1.47      0.00
   25    3   12     -4.43      0.00
  -26    4   12     -2.35      0.00
  -25    4   12     -1.26      0.00
   24    4   12      6.28      0.00
   25    4   12     -3.21      0.00
  -26    5   12     -2.14      0.00
  -25    5   12      1.50      0.00
   24    5   12     -0.56      0.00
   25    5   12     -1.29      0.00
  -26    6   12     -0.40      0.00
  -25    6   12      1.61      0.00
  -23    6   12      7.50      0.00
  -21    6   12     -2.54      0.00
   24    6   12      2.64      0.00
  -25    7   12     -3.27      0.00
  -24    7   12      0.44      0.00
   23    7   12      0.11      0.00
   24    7   12      0.73      0.00
  -25    8   12      0.52      0.00
  -24    8   12     -0.85      0.00
   22    8   12     -2.38      0.00
   23    8   12     -1.31      0.00
  -24    9   12      0.33      0.00
  -23    9   12     -2.24      0.00
   22    9   12      0.88      0.00
   23    9   12      4.85      0.00
  -23   10   12      3.03      0.00
  -22   10   12     -2.55      0.00
   21   10   12      0.52      0.00
   22   10   12     -2.73      0.00
  -22   11   12      1.49      0.00
  -21   11   12      3.92      0.00
   20   11   12      1.69      0.00
   21   11   12      4.17      0.00
  -21   12   12     -1.90      0.00
  -20   12   12      1.07      0.00
   19   12   12     -4.84      0.00
   20   12   12     -2.88      0.00
  -20   13   12      2.00      0.00
  -19   13   12     -0.56      0.00
   18   13   12      2.24      0.00
   19   13   12     -1.59      0.00
  -19   14   12     -1.82      0.00
  -18   14   12      5.23      0.00
   16   14   12      3.64      0.00
   17   14   12      0.30      0.00
   18   14   12      5.52      0.00
  -18   15   12     -5.56      0.00
  -17   15   12      0.43      0.00
  -16   15   12     -4.77      0.00
   15   15   12     -0.33      0.00
   16   15   12     -0.66      0.00
  -16   16   12     -0.47      0.00
  -15   16   12      2.28      0.00
  -14   16   12     -6.44      0.00
   13   16   12      1.64      0.00
   14   16   12     -0.26      0.00
   15   16   12      2.32      0.00
  -14   17   12     -0.87      0.00
  -13   17   12     -3.50      0.00
  -12   17   12      3.92      0.00
  -11   17   12     -4.68      0.00
   10   17   12     -3.73      0.00
   11   17   12     -3.59      0.00
   12   17   12     -1.20      0.00
   13   17   12      1.13      0.00
  -11   18   12     -1.87      0.00
  -10   18   12     -0.33      0.00
   -9   18   12     -0.03      0.00
   -8   18   12      0.57      0.00
   -7   18   12     -0.97      0.00
    6   18   12      0.69      0.00
    7   18   12      1.98      0.00
    8   18   12     -2.25      0.00
    9   18   12     -0.25      0.00
   10   18   12     -0.59      0.00
   -8   19   12      0.91      0.00
   -7   19   12      1.59      0.00
   -6   19   12      2.54      0.00
   -5   19   12      0.78      0.00
   -4   19   12     -0.67      0.00
   -3   19   12     -2.80      0.00
   -2   19   12     -0.37      0.00
   -1   19   12      0.23      0.00
    0   19   12      0.53      0.00
    1   19   12     -1.43      0.00
    2   19   12      0.36      0.00
    3   19   12     -0.18      0.00
    4   19   12     -5.20      0.00
    5   19   12     -2.55      0.00
    6   19   12     -0.37      0.00
   25    0   13     -3.95      0.00
  -26    1   13     -8.28      0.00
  -24    1   13      0.70      0.00
   24    1   13      6.03      0.00
   25    1   13     -2.13      0.00
  -26    2   13     -5.77      0.00
   24    2   13     -1.81      0.00
   25    2   13     -2.92      0.00
  -26    3   13     -2.42      0.00
  -25    3   13      0.40      0.00
   24    3   13      4.45      0.00
   25    3   13     -1.72      0.00
  -26    4   13     -2.54      0.00
  -25    4   13     -1.01      0.00
   24    4   13      0.79      0.00
   25    4   13      0.74      0.00
  -26    5   13      2.28      0.00
  -25    5   13     -5.83      0.00
   23    5   13     -2.87      0.00
   24    5   13      3.31      0.00
  -25    6   13      2.65      0.00
  -24    6   13      2.16      0.00
   23    6   13      0.99      0.00
   24    6   13      2.88      0.00
  -25    7   13     -3.28      0.00
  -24    7   13      5.19      0.00
   23    7   13      1.46      0.00
  -24    8   13     -0.64      0.00
  -23    8   13      2.05      0.00
   22    8   13      4.85      0.00
   23    8   13     -4.92      0.00
  -23    9   13     -1.98      0.00
   21    9   13     -1.63      0.00
   22    9   13      4.24      0.00
  -23   10   13      0.22      0.00
  -22   10   13      2.68      0.00
   20   10   13      1.57      0.00
   21   10   13     -1.45      0.00
  -22   11   13     -0.60      0.00
  -21   11   13     -0.73      0.00
   19   11   13     -3.60      0.00
   20   11   13     -1.32      0.00
   21   11   13     -1.63      0.00
  -21   12   13     -0.51      0.00
  -20   12   13     -1.67      0.00
   18   12   13      1.38      0.00
   19   12   13      2.08      0.00
   20   12   13      1.05      0.00
  -20   13   13     -3.18      0.00
  -19   13   13      2.35      0.00
  -18   13   13     -5.39      0.00
   17   13   13      1.27      0.00
   18   13   13      1.58      0.00
  -18   14   13      1.39      0.00
  -17   14   13      1.36      0.00
   16   14   13      5.21      0.00
   17   14   13      0.94      0.00
  -17   15   13     -0.47      0.00
  -16   15   13      2.35      0.00
  -15   15   13     -5.58      0.00
   14   15   13     -4.90      0.00
   15   15   13     -5.83      0.00
   16   15   13     -2.46      0.00
  -15   16   13      0.77      0.00
  -14   16   13     -2.79      0.00
  -13   16   13      2.16      0.00
   12   16   13      1.36      0.00
   13   16   13      5.27      0.00
   14   16   13      0.84      0.00
  -13   17   13      1.92      0.00
  -12   17   13     -1.51      0.00
  -11   17   13      1.78      0.00
  -10   17   13      0.53      0.00
    9   17   13      3.35      0.00
   10   17   13      0.98      0.00
   11   17   13      3.13      0.00
   12   17   13      5.12      0.00
  -10   18   13     -6.57      0.00
   -9   18   13     -0.43      0.00
   -8   18   13     -2.13      0.00
   -7   18   13      1.84      0.00
   -6   18   13     -1.06      0.00
   -5   18   13     -0.64      0.00
    4   18   13      1.17      0.00
    5   18   13      4.33      0.00
    6   18   13      1.93      0.00
    7   18   13      1.92      0.00
    8   18   13      1.28      0.00
    9   18   13      1.37      0.00
   -6   19   13     -2.75      0.00
   -5   19   13     -2.28      0.00
   -4   19   13     -1.91      0.00
   -3   19   13      5.24      0.00
   -2   19   13      2.29      0.00
   -1   19   13      3.72      0.00
    0   19   13      0.88      0.00
    1   19   13     -1.70      0.00
    2   19   13      0.37      0.00
    3   19   13      0.80      0.00
    4   19   13      3.80      0.00
    5   19   13      1.46      0.00
  -26    0   14      9.94      0.00
  -22    0   14     -6.14      0.00
   24    0   14      7.27      0.00
  -26    1   14     -0.23      0.00
  -25    1   14     -3.63      0.00
   24    1   14      3.47      0.00
   25    1   14     -2.00      0.00
  -26    2   14      4.57      0.00
  -25    2   14     -0.90      0.00
   24    2   14      2.94      0.00
   25    2   14     -0.78      0.00
  -26    3   14      2.02      0.00
  -25    3   14     -0.58      0.00
   24    3   14      1.18      0.00
  -25    4   14     -3.92      0.00
   23    4   14      1.62      0.00
   24    4   14      1.07      0.00
  -25    5   14     -2.05      0.00
  -24    5   14      1.43      0.00
   23    5   14     -1.53      0.00
   24    5   14      1.35      0.00
  -25    6   14      0.72      0.00
  -24    6   14     -0.20      0.00
   22    6   14      1.02      0.00
   23    6   14     -4.10      0.00
  -24    7   14      0.10      0.00
  -23    7   14      6.62      0.00
   22    7   14     -0.18      0.00
   23    7   14     -3.07      0.00
  -24    8   14     -4.25      0.00
  -23    8   14      3.70      0.00
   21    8   14      3.36      0.00
   22    8   14     -2.01      0.00
  -23    9   14      4.80      0.00
  -22    9   14     -1.98      0.00
   21    9   14      0.06      0.00
   22    9   14     -0.32      0.00
  -22   10   14     -3.08      0.00
  -21   10   14     -1.14      0.00
   20   10   14     -4.83      0.00
   21   10   14     -1.42      0.00
  -21   11   14     -1.82      0.00
  -20   11   14     -3.13      0.00
   19   11   14      7.81      0.00
   20   11   14     -2.41      0.00
  -20   12   14      1.50      0.00
  -19   12   14      1.64      0.00
   18   12   14     -1.44      0.00
   19   12   14      3.70      0.00
  -19   13   14      0.47      0.00
  -18   13   14      1.49      0.00
   16   13   14     -0.70      0.00
   17   13   14      1.44      0.00
   18   13   14     -2.07      0.00
  -18   14   14      2.08      0.00
  -17   14   14      1.18      0.00
  -16   14   14     -4.00      0.00
   15   14   14     -3.18      0.00
   16   14   14      5.84      0.00
  -16   15   14      0.61      0.00
  -15   15   14      1.88      0.00
  -14   15   14     -1.84      0.00
   13   15   14      1.41      0.00
   14   15   14      0.20      0.00
   15   15   14      0.56      0.00
  -14   16   14     -5.10      0.00
  -13   16   14     -1.66      0.00
  -12   16   14     -3.35      0.00
   11   16   14      2.87      0.00
   12   16   14      1.53      0.00
   13   16   14     -0.49      0.00
  -12   17   14      3.02      0.00
  -11   17   14      0.37      0.00
  -10   17   14     -2.67      0.00
   -9   17   14      0.81      0.00
    7   17   14     -0.32      0.00
    8   17   14      1.21      0.00
    9   17   14     -2.60      0.00
   10   17   14     -1.38      0.00
   11   17   14     -5.77      0.00
   -9   18   14      0.90      0.00
   -8   18   14     -1.49      0.00
   -7   18   14      0.55      0.00
   -6   18   14     -4.51      0.00
   -5   18   14     -1.91      0.00
   -4   18   14      3.55      0.00
   -3   18   14     -0.58      0.00
   -2   18   14     -3.41      0.00
   -1   18   14     -2.90      0.00
    0   18   14     -1.75      0.00
    1   18   14      3.53      0.00
    2   18   14      0.58      0.00
    3   18   14     -1.57      0.00
    4   18   14      6.74      0.00
    5   18   14      3.07      0.00
    6   18   14     -2.58      0.00
    7   18   14      1.35      0.00
    8   18   14      2.01      0.00
   -4   19   14     -1.89      0.00
   -3   19   14      1.04      0.00
   -2   19   14      2.11      0.00
   -1   19   14      3.25      0.00
    0   19   14     -0.55      0.00
    1   19   14      5.79      0.00
    2   19   14     -0.02      0.00
  -25    0   15     -2.32      0.00
   23    0   15     -5.48      0.00
  -26    1   15      5.33      0.00
  -25    1   15      0.95      0.00
  -22    1   15     -1.19      0.00
   23    1   15      2.67      0.00
   24    1   15      2.04      0.00
  -25    2   15     -0.65      0.00
   23    2   15     -3.82      0.00
   24    2   15     -0.70      0.00
  -25    3   15      0.68      0.00
  -24    3   15      1.48      0.00
   23    3   15      1.23      0.00
   24    3   15      1.13      0.00
  -25    4   15      6.24      0.00
  -24    4   15     -4.60      0.00
   23    4   15     -4.17      0.00
   24    4   15      3.76      0.00
  -25    5   15      1.64      0.00
  -24    5   15      0.44      0.00
   22    5   15     -5.58      0.00
   23    5   15      2.78      0.00
  -24    6   15     -2.99      0.00
  -23    6   15      0.53      0.00
   22    6   15     -3.36      0.00
   23    6   15      0.96      0.00
  -24    7   15      4.09      0.00
  -23    7   15      1.37      0.00
  -17    7   15      0.70      0.00
   21    7   15     -0.87      0.00
   22    7   15     -3.80      0.00
  -23    8   15      0.68      0.00
  -22    8   15      0.69      0.00
  -20    8   15      0.44      0.00
   21    8   15      5.98      0.00
   22    8   15     -2.62      0.00
  -23    9   15      0.66      0.00
  -22    9   15     -0.85      0.00
  -21    9   15      3.60      0.00
   20    9   15     -4.12      0.00
   21    9   15     -1.37      0.00
  -22   10   15     -1.94      0.00
  -21   10   15     -3.36      0.00
   19   10   15      8.10      0.00
   20   10   15      8.87      0.00
  -21   11   15      1.13      0.00
  -20   11   15     -0.33      0.00
   18   11   15     -7.54      0.00
   19   11   15     -5.78      0.00
  -20   12   15     -0.35      0.00
  -19   12   15      1.88      0.00
  -18   12   15      0.69      0.00
   17   12   15     -1.37      0.00
   18   12   15      7.24      0.00
  -19   13   15      2.20      0.00
  -18   13   15      0.21      0.00
  -17   13   15     -3.59      0.00
   16   13   15     -0.55      0.00
   17   13   15     -2.82      0.00
  -17   14   15     -2.00      0.00
  -16   14   15     -0.22      0.00
  -15   14   15      2.26      0.00
   14   14   15      2.33      0.00
   15   14   15     -1.41      0.00
   16   14   15      0.71      0.00
  -16   15   15      2.16      0.00
  -15   15   15      1.26      0.00
  -14   15   15     -4.41      0.00
  -13   15   15     -2.54      0.00
   12   15   15     -3.47      0.00
   13   15   15      2.39      0.00
   14   15   15      2.12      0.00
  -14   16   15     -2.15      0.00
  -13   16   15     -0.87      0.00
  -12   16   15      1.98      0.00
  -11   16   15     -2.26      0.00
    9   16   15     -2.44      0.00
   10   16   15      3.71      0.00
   11   16   15      4.97      0.00
   12   16   15     -0.81      0.00
  -11   17   15     -3.03      0.00
  -10   17   15      1.79      0.00
   -9   17   15     -2.49      0.00
   -8   17   15      1.87      0.00
   -7   17   15     -4.95      0.00
    5   17   15      5.77      0.00
    6   17   15     -8.09      0.00
    7   17   15      0.78      0.00
    8   17   15      0.33      0.00
    9   17   15     -1.01      0.00
   10   17   15     -3.94      0.00
   -8   18   15      2.45      0.00
   -7   18   15      9.40      0.00
   -6   18   15     -2.39      0.00
   -5   18   15     -4.39      0.00
   -4   18   15      2.90      0.00
   -3   18   15      2.50      0.00
   -2   18   15     -1.09      0.00
   -1   18   15      2.95      0.00
    0   18   15      3.48      0.00
    1   18   15      0.25      0.00
    2   18   15     -2.90      0.00
    3   18   15     -5.22      0.00
    4   18   15      0.16      0.00
    5   18   15      1.21      0.00
    6   18   15     -0.62      0.00
  -24    0   16    -10.41      0.00
   24    0   16      1.88      0.00
  -25    1   16      0.97      0.00
  -24    1   16      2.97      0.00
  -22    1   16      6.73      0.00
   23    1   16     -8.19      0.00
  -25    2   16     -3.40      0.00
  -24    2   16      2.59      0.00
   23    2   16      1.74      0.00
  -25    3   16     -3.05      0.00
  -24    3   16      1.84      0.00
   22    3   16     -0.17      0.00
   23    3   16     -5.20      0.00
  -25    4   16     -3.75      0.00
  -24    4   16      4.12      0.00
   22    4   16      4.73      0.00
   23    4   16     -0.57      0.00
  -24    5   16     -0.75      0.00
  -23    5   16      3.57      0.00
  -22    5   16      9.45      0.00
   22    5   16      2.22      0.00
   23    5   16     -3.37      0.00
  -24    6   16     -2.02      0.00
  -23    6   16     -0.79      0.00
   21    6   16      3.81      0.00
   22    6   16      5.02      0.00
  -23    7   16      3.57      0.00
  -22    7   16      3.66      0.00
   21    7   16     -1.41      0.00
   22    7   16      0.31      0.00
  -23    8   16      1.36      0.00
  -22    8   16      1.58      0.00
   20    8   16      0.35      0.00
   21    8   16     -1.85      0.00
  -22    9   16      1.84      0.00
  -21    9   16     -2.98      0.00
   19    9   16      7.00      0.00
   20    9   16      4.23      0.00
  -21   10   16     -5.12      0.00
  -20   10   16     -1.06      0.00
   18   10   16     -0.61      0.00
   19   10   16      3.03      0.00
   20   10   16      2.81      0.00
  -20   11   16      6.09      0.00
  -19   11   16     -0.97      0.00
   17   11   16     -1.59      0.00
   18   11   16     -5.52      0.00
   19   11   16     -1.21      0.00
  -19   12   16     -2.51      0.00
  -18   12   16     -1.59      0.00
   16   12   16     -3.19      0.00
   17   12   16      2.12      0.00
   18   12   16      4.42      0.00
  -18   13   16      2.69      0.00
  -17   13   16      1.38      0.00
  -16   13   16     -1.54      0.00
   15   13   16      3.24      0.00
   16   13   16     -0.59      0.00
  -16   14   16     -2.39      0.00
  -15   14   16     -3.72      0.00
  -14   14   16      1.41      0.00
   13   14   16      3.72      0.00
   14   14   16     -1.90      0.00
   15   14   16      1.02      0.00
  -15   15   16     -0.39      0.00
  -14   15   16     -1.35      0.00
  -13   15   16     -4.58      0.00
  -12   15   16      3.21      0.00
   11   15   16     -3.20      0.00
   12   15   16      1.05      0.00
   13   15   16     -2.12      0.00
  -13   16   16     -0.79      0.00
  -12   16   16      6.49      0.00
  -11   16   16      1.32      0.00
  -10   16   16     -1.32      0.00
   -9   16   16      0.06      0.00
    8   16   16      3.89      0.00
    9   16   16     -0.31      0.00
   10   16   16      1.72      0.00
   11   16   16      2.72      0.00
  -10   17   16     -1.90      0.00
   -9   17   16      6.47      0.00
   -8   17   16      0.48      0.00
   -7   17   16     -0.57      0.00
   -6   17   16     -2.14      0.00
   -5   17   16      0.73      0.00
   -4   17   16     -2.73      0.00
    2   17   16     -0.67      0.00
    3   17   16     -6.51      0.00
    4   17   16     -2.57      0.00
    5   17   16      4.21      0.00
    6   17   16     -0.93      0.00
    7   17   16     -1.89      0.00
    8   17   16      0.31      0.00
   -6   18   16     -2.22      0.00
   -5   18   16     -0.25      0.00
   -4   18   16      2.98      0.00
   -3   18   16      1.56      0.00
   -2   18   16     -2.29      0.00
   -1   18   16      0.30      0.00
    0   18   16      3.82      0.00
    1   18   16      3.06      0.00
    2   18   16      9.03      0.00
    3   18   16     -2.68      0.00
    4   18   16      0.41      0.00
  -25    0   17      6.26      0.00
   23    0   17     -0.11      0.00
  -25    1   17     -3.49      0.00
  -24    1   17     11.56      0.00
   22    1   17      2.42      0.00
   23    1   17     -0.94      0.00
  -24    2   17      9.92      0.00
   22    2   17     -1.56      0.00
   23    2   17     -4.78      0.00
  -24    3   17      7.63      0.00
  -23    3   17    -15.97      0.00
   22    3   17      0.27      0.00
   23    3   17      1.32      0.00
  -24    4   17      5.82      0.00
  -23    4   17     -6.70      0.00
  -20    4   17      3.58      0.00
   21    4   17     -2.23      0.00
   22    4   17     -4.60      0.00
  -24    5   17      4.12      0.00
  -23    5   17     -4.77      0.00
  -21    5   17     -0.49      0.00
   21    5   17     -0.20      0.00
   22    5   17      1.41      0.00
  -23    6   17     -1.04      0.00
  -22    6   17      4.72      0.00
   21    6   17     -0.22      0.00
   22    6   17     -3.45      0.00
  -23    7   17     -1.60      0.00
  -22    7   17      5.60      0.00
   20    7   17     -3.99      0.00
   21    7   17      0.71      0.00
  -22    8   17      3.84      0.00
  -21    8   17     -2.82      0.00
   19    8   17      3.58      0.00
   20    8   17      2.41      0.00
  -21    9   17      0.00      0.00
  -20    9   17      3.09      0.00
  -18    9   17      3.30      0.00
   18    9   17     -3.03      0.00
   19    9   17      1.55      0.00
   20    9   17     -0.83      0.00
  -21   10   17     -1.52      0.00
  -20   10   17      0.26      0.00
  -19   10   17      3.55      0.00
   18   10   17      0.85      0.00
   19   10   17      1.44      0.00
  -20   11   17     -1.19      0.00
  -19   11   17     -1.63      0.00
  -18   11   17      4.08      0.00
   16   11   17      2.55      0.00
   17   11   17     -2.54      0.00
   18   11   17     -5.03      0.00
  -18   12   17      4.48      0.00
  -17   12   17     -0.56      0.00
   15   12   17      0.81      0.00
   16   12   17     -0.03      0.00
   17   12   17      0.75      0.00
  -17   13   17     -3.97      0.00
  -16   13   17     -1.01      0.00
  -15   13   17      0.28      0.00
   14   13   17      4.40      0.00
   15   13   17      3.37      0.00
  -16   14   17      1.23      0.00
  -15   14   17      0.48      0.00
  -14   14   17      3.28      0.00
  -13   14   17      1.45      0.00
   12   14   17      0.41      0.00
   13   14   17      0.23      0.00
   14   14   17      3.25      0.00
  -14   15   17     -0.11      0.00
  -13   15   17     -0.44      0.00
  -12   15   17      1.67      0.00
  -11   15   17      2.82      0.00
    9   15   17     -1.60      0.00
   10   15   17     -1.27      0.00
   11   15   17      2.60      0.00
   12   15   17     -0.24      0.00
  -11   16   17     -0.80      0.00
  -10   16   17     -1.96      0.00
   -9   16   17      1.97      0.00
   -8   16   17     -3.20      0.00
   -7   16   17      5.71      0.00
    6   16   17      5.40      0.00
    7   16   17     -0.25      0.00
    8   16   17      1.91      0.00
    9   16   17      1.97      0.00
   10   16   17     -0.49      0.00
   -8   17   17     -1.99      0.00
   -7   17   17      0.69      0.00
   -6   17   17      1.16      0.00
   -5   17   17     -0.30      0.00
   -4   17   17     -2.42      0.00
   -3   17   17      5.74      0.00
   -2   17   17     -3.18      0.00
   -1   17   17      1.65      0.00
    0   17   17      3.96      0.00
    1   17   17     -0.88      0.00
    2   17   17     -3.69      0.00
    3   17   17     -1.99      0.00
    4   17   17      0.55      0.00
    5   17   17      0.65      0.00
    6   17   17     -2.54      0.00
    7   17   17     -0.91      0.00
  -24    0   18      4.40      0.00
  -20    0   18     10.12      0.00
   22    0   18      0.70      0.00
  -24    1   18     -5.13      0.00
  -23    1   18     -3.81      0.00
  -21    1   18    -20.39      0.00
   21    1   18      4.09      0.00
   22    1   18      1.83      0.00
  -24    2   18     -5.71      0.00
  -23    2   18      6.63      0.00
   21    2   18     -2.25      0.00
   22    2   18      4.11      0.00
  -24    3   18     -1.40      0.00
  -23    3   18     13.09      0.00
   21    3   18      0.75      0.00
   22    3   18      4.44      0.00
  -23    4   18     -0.93      0.00
  -22    4   18    -12.04      0.00
   21    4   18     -0.51      0.00
   22    4   18     -1.25      0.00
  -23    5   18      4.96      0.00
  -22    5   18      4.96      0.00
   20    5   18     -1.05      0.00
   21    5   18      2.52      0.00
  -23    6   18     -4.05      0.00
  -22    6   18     -1.84      0.00
  -21    6   18     -1.90      0.00
   20    6   18     -5.33      0.00
   21    6   18      3.15      0.00
  -22    7   18      4.55      0.00
  -21    7   18     -7.31      0.00
   19    7   18      0.13      0.00
   20    7   18      0.83      0.00
  -21    8   18      0.17      0.00
  -20    8   18      1.33      0.00
  -19    8   18      1.94      0.00
   18    8   18      1.73      0.00
   19    8   18     -0.71      0.00
   20    8   18      1.37      0.00
  -21    9   18     -2.82      0.00
  -20    9   18      0.62      0.00
  -19    9   18     -7.87      0.00
   18    9   18      1.71      0.00
   19    9   18      1.06      0.00
  -20   10   18      0.16      0.00
  -19   10   18      9.69      0.00
  -18   10   18     -0.11      0.00
   17   10   18     -5.70      0.00
   18   10   18      2.27      0.00
  -19   11   18     -2.03      0.00
  -18   11   18     -1.75      0.00
  -17   11   18      0.37      0.00
   15   11   18      1.73      0.00
   16   11   18      2.70      0.00
   17   11   18     -1.47      0.00
  -18   12   18     -1.59      0.00
  -17   12   18      0.10      0.00
  -16   12   18      0.92      0.00
   14   12   18     -5.29      0.00
   15   12   18     -4.10      0.00
   16   12   18      2.27      0.00
  -16   13   18     -2.93      0.00
  -15   13   18     -2.07      0.00
  -14   13   18     -0.82      0.00
   12   13   18      0.75      0.00
   13   13   18      2.73      0.00
   14   13   18      0.79      0.00
  -15   14   18      1.38      0.00
  -14   14   18      3.44      0.00
  -13   14   18      0.54      0.00
  -12   14   18     -4.56      0.00
   10   14   18      1.67      0.00
   11   14   18      0.42      0.00
   12   14   18     -3.66      0.00
   13   14   18      0.86      0.00
  -13   15   18     -6.51      0.00
  -12   15   18     -2.33      0.00
  -11   15   18      1.94      0.00
  -10   15   18     -7.46      0.00
   -9   15   18     -3.23      0.00
    7   15   18     -0.74      0.00
    8   15   18     -2.54      0.00
    9   15   18      3.20      0.00
   10   15   18     -1.04      0.00
   11   15   18      1.91      0.00
  -10   16   18      3.06      0.00
   -9   16   18     -1.34      0.00
   -8   16   18      6.47      0.00
   -7   16   18     -2.53      0.00
   -6   16   18      3.23      0.00
   -5   16   18     -3.66      0.00
   -4   16   18      3.33      0.00
    2   16   18     -0.24      0.00
    3   16   18      4.22      0.00
    4   16   18     -2.61      0.00
    5   16   18     -3.41      0.00
    6   16   18     -1.36      0.00
    7   16   18      1.58      0.00
    8   16   18      1.06      0.00
   -6   17   18      1.25      0.00
   -5   17   18     -1.55      0.00
   -4   17   18      2.98      0.00
   -3   17   18      0.90      0.00
   -2   17   18      0.79      0.00
   -1   17   18      0.99      0.00
    0   17   18     -0.58      0.00
    1   17   18      3.57      0.00
    2   17   18      0.27      0.00
    3   17   18      2.81      0.00
    4   17   18     -2.91      0.00
  -23    0   19      7.46      0.00
   21    0   19     -5.03      0.00
  -23    1   19      2.04      0.00
  -22    1   19      0.49      0.00
  -21    1   19      6.54      0.00
   20    1   19      5.13      0.00
   21    1   19      0.99      0.00
  -23    2   19     -0.23      0.00
  -22    2   19     -3.45      0.00
  -21    2   19      3.25      0.00
   20    2   19     -1.53      0.00
   21    2   19     -1.20      0.00
  -23    3   19      0.74      0.00
  -22    3   19      1.16      0.00
   20    3   19      2.92      0.00
   21    3   19     -1.42      0.00
  -23    4   19     -1.27      0.00
  -22    4   19      3.57      0.00
   20    4   19     -0.96      0.00
   21    4   19     -4.02      0.00
  -22    5   19      0.39      0.00
  -21    5   19      0.15      0.00
   19    5   19      0.87      0.00
   20    5   19      3.03      0.00
  -22    6   19      1.29      0.00
  -21    6   19      2.65      0.00
   19    6   19     -2.59      0.00
   20    6   19      1.41      0.00
  -21    7   19     -0.55      0.00
  -20    7   19     -0.09      0.00
  -17    7   19     -1.49      0.00
   18    7   19     -1.23      0.00
   19    7   19      0.89      0.00
  -21    8   19      3.10      0.00
  -20    8   19      1.33      0.00
  -19    8   19      2.43      0.00
   18    8   19      0.40      0.00
   19    8   19     -2.04      0.00
  -20    9   19      1.56      0.00
  -19    9   19     -4.29      0.00
  -18    9   19      6.20      0.00
   17    9   19      4.72      0.00
   18    9   19     -3.06      0.00
  -19   10   19      1.15      0.00
  -18   10   19      1.06      0.00
  -17   10   19      4.43      0.00
   16   10   19      1.77      0.00
   17   10   19      0.03      0.00
  -18   11   19      2.83      0.00
  -17   11   19      1.18      0.00
  -16   11   19     -1.81      0.00
   14   11   19     -3.28      0.00
   15   11   19     -1.52      0.00
   16   11   19     -0.26      0.00
  -17   12   19      0.27      0.00
  -16   12   19      0.57      0.00
  -15   12   19      5.29      0.00
   13   12   19     -1.14      0.00
   14   12   19     -0.31      0.00
   15   12   19      0.43      0.00
  -15   13   19      2.96      0.00
  -14   13   19     -2.77      0.00
  -13   13   19     -3.79      0.00
   11   13   19      0.84      0.00
   12   13   19     -1.73      0.00
   13   13   19      0.80      0.00
  -13   14   19      3.20      0.00
  -12   14   19      1.07      0.00
  -11   14   19     -0.96      0.00
    9   14   19     -1.98      0.00
   10   14   19      2.25      0.00
   11   14   19      0.86      0.00
   12   14   19     -3.72      0.00
  -11   15   19     -2.54      0.00
  -10   15   19     -4.19      0.00
   -9   15   19      3.76      0.00
   -8   15   19     -5.31      0.00
   -7   15   19      0.61      0.00
    5   15   19      1.15      0.00
    6   15   19     -1.43      0.00
    7   15   19     -1.31      0.00
    8   15   19     -2.71      0.00
    9   15   19     -2.94      0.00
   -8   16   19      0.00      0.00
   -7   16   19      4.01      0.00
   -6   16   19      2.12      0.00
   -5   16   19      1.17      0.00
   -4   16   19     -5.18      0.00
   -3   16   19      1.47      0.00
   -2   16   19      1.62      0.00
   -1   16   19      5.61      0.00
    0   16   19     -3.92      0.00
    1   16   19      0.84      0.00
    2   16   19     -2.04      0.00
    3   16   19      0.32      0.00
    4   16   19     -4.26      0.00
    5   16   19      0.53      0.00
    6   16   19      0.38      0.00
   -1   17   19     -0.96      0.00
    0   17   19      0.34      0.00
  -22    0   20     -1.99      0.00
   20    0   20     -3.96      0.00
  -23    1   20      2.12      0.00
  -22    1   20      7.63      0.00
   20    1   20      0.06      0.00
   21    1   20      1.00      0.00
  -23    2   20     -5.31      0.00
  -22    2   20      9.17      0.00
  -21    2   20     -9.01      0.00
   19    2   20     -0.66      0.00
   20    2   20     -7.59      0.00
   21    2   20      0.08      0.00
  -22    3   20      3.67      0.00
  -21    3   20    -22.22      0.00
   19    3   20      3.91      0.00
   20    3   20     -0.64      0.00
  -22    4   20      3.75      0.00
  -21    4   20     -2.27      0.00
   19    4   20     -0.28      0.00
   20    4   20     -0.23      0.00
  -22    5   20      0.54      0.00
  -21    5   20     -8.34      0.00
  -20    5   20      0.47      0.00
   18    5   20      1.35      0.00
   19    5   20      1.37      0.00
   20    5   20     -0.73      0.00
  -21    6   20      5.10      0.00
  -20    6   20      5.04      0.00
   18    6   20      0.27      0.00
   19    6   20     -4.54      0.00
  -21    7   20     -3.65      0.00
  -20    7   20     -1.58      0.00
  -19    7   20     -0.31      0.00
   17    7   20      3.87      0.00
   18    7   20     -2.14      0.00
   19    7   20      2.37      0.00
  -20    8   20     -1.80      0.00
  -19    8   20      2.86      0.00
  -18    8   20      0.33      0.00
   10    8   20     -1.96      0.00
   16    8   20     -0.24      0.00
   17    8   20     -0.06      0.00
   18    8   20     -2.84      0.00
  -19    9   20     -4.17      0.00
  -18    9   20      2.91      0.00
   16    9   20     -0.94      0.00
   17    9   20      3.05      0.00
  -18   10   20      0.10      0.00
  -17   10   20     -0.56      0.00
  -16   10   20      2.73      0.00
   14   10   20     -5.43      0.00
   15   10   20     -1.01      0.00
   16   10   20     -0.18      0.00
  -17   11   20      0.12      0.00
  -16   11   20     -0.90      0.00
  -15   11   20     -5.43      0.00
   13   11   20     -3.03      0.00
   14   11   20      0.46      0.00
   15   11   20     -3.77      0.00
  -16   12   20      4.52      0.00
  -15   12   20     -0.03      0.00
  -14   12   20     -0.35      0.00
  -13   12   20     -1.99      0.00
   11   12   20     -1.11      0.00
   12   12   20     -2.06      0.00
   13   12   20      1.76      0.00
   14   12   20      2.89      0.00
  -14   13   20      4.03      0.00
  -13   13   20     -1.68      0.00
  -12   13   20     -3.69      0.00
  -11   13   20     -1.58      0.00
    9   13   20      1.83      0.00
   10   13   20     -3.67      0.00
   11   13   20      1.12      0.00
   12   13   20      0.53      0.00
  -12   14   20     -3.41      0.00
  -11   14   20     -2.64      0.00
  -10   14   20      5.93      0.00
   -9   14   20     -4.62      0.00
    7   14   20     -3.40      0.00
    8   14   20      4.34      0.00
    9   14   20      0.65      0.00
   10   14   20      6.14      0.00
  -10   15   20      3.00      0.00
   -9   15   20      2.44      0.00
   -8   15   20      0.04      0.00
   -7   15   20      0.35      0.00
   -6   15   20      1.45      0.00
   -5   15   20     -3.84      0.00
   -4   15   20     -7.31      0.00
   -3   15   20      5.18      0.00
   -2   15   20     -3.41      0.00
   -1   15   20      4.63      0.00
    0   15   20     -1.35      0.00
    1   15   20     -1.51      0.00
    2   15   20      4.14      0.00
    3   15   20     -0.25      0.00
    4   15   20      0.63      0.00
    5   15   20      3.28      0.00
    6   15   20      4.29      0.00
    7   15   20     -1.45      0.00
    8   15   20      3.30      0.00
   -6   16   20      5.02      0.00
   -5   16   20      0.15      0.00
   -4   16   20      2.04      0.00
   -3   16   20     -1.35      0.00
   -2   16   20      0.67      0.00
   -1   16   20      1.46      0.00
    0   16   20     -0.99      0.00
    1   16   20     -4.08      0.00
    2   16   20      8.70      0.00
    3   16   20      0.90      0.00
    4   16   20     -0.82      0.00
  -21    0   21     -4.31      0.00
   19    0   21      8.14      0.00
  -22    1   21     -0.32      0.00
  -21    1   21      1.12      0.00
   19    1   21      0.52      0.00
   20    1   21      2.16      0.00
  -22    2   21      4.28      0.00
  -21    2   21      0.33      0.00
   18    2   21      0.60      0.00
   19    2   21      1.79      0.00
   20    2   21     -3.51      0.00
  -22    3   21     -2.35      0.00
  -21    3   21      1.75      0.00
  -20    3   21     -2.61      0.00
   18    3   21      2.69      0.00
   19    3   21      3.90      0.00
  -21    4   21      2.51      0.00
  -20    4   21      6.57      0.00
  -19    4   21      6.34      0.00
   18    4   21     -4.61      0.00
   19    4   21      3.03      0.00
  -21    5   21     -1.33      0.00
  -20    5   21     -3.31      0.00
  -17    5   21      1.54      0.00
   17    5   21      5.45      0.00
   18    5   21     -1.58      0.00
   19    5   21     -0.05      0.00
  -20    6   21      2.69      0.00
  -19    6   21      5.28      0.00
   17    6   21     -1.40      0.00
   18    6   21     -3.47      0.00
  -20    7   21     -0.50      0.00
  -19    7   21     -0.95      0.00
  -18    7   21     -1.00      0.00
   16    7   21      1.26      0.00
   17    7   21      0.98      0.00
   18    7   21      1.17      0.00
  -19    8   21      2.21      0.00
  -18    8   21     -3.20      0.00
  -17    8   21      8.87      0.00
   15    8   21     -7.16      0.00
   16    8   21      0.89      0.00
   17    8   21      1.60      0.00
  -18    9   21      1.14      0.00
  -17    9   21      3.96      0.00
  -16    9   21      0.73      0.00
   14    9   21      1.43      0.00
   15    9   21      0.55      0.00
   16    9   21     -1.26      0.00
  -17   10   21      4.69      0.00
  -16   10   21     -1.80      0.00
  -15   10   21      3.57      0.00
   13   10   21     -2.64      0.00
   14   10   21     -1.48      0.00
   15   10   21      0.70      0.00
  -16   11   21     -2.62      0.00
  -15   11   21      1.97      0.00
  -14   11   21      0.59      0.00
   12   11   21      4.53      0.00
   13   11   21     -1.60      0.00
   14   11   21     -1.03      0.00
  -15   12   21      0.77      0.00
  -14   12   21      0.34      0.00
  -13   12   21     -4.01      0.00
  -12   12   21     -2.43      0.00
   10   12   21     -3.48      0.00
   11   12   21      3.30      0.00
   12   12   21      0.97      0.00
  -13   13   21     -3.93      0.00
  -12   13   21      1.67      0.00
  -11   13   21      6.19      0.00
  -10   13   21     -5.51      0.00
    7   13   21      4.42      0.00
    8   13   21      1.93      0.00
    9   13   21      2.92      0.00
   10   13   21     -2.38      0.00
   11   13   21      6.13      0.00
  -11   14   21     -3.66      0.00
  -10   14   21     -1.95      0.00
   -9   14   21      2.77      0.00
   -8   14   21      2.76      0.00
   -7   14   21     -1.26      0.00
   -6   14   21     -0.08      0.00
   -5   14   21     -1.89      0.00
    3   14   21     -1.99      0.00
    4   14   21      1.89      0.00
    5   14   21      1.61      0.00
    6   14   21      2.68      0.00
    7   14   21     -3.62      0.00
    8   14   21     -2.89      0.00
   -7   15   21     -3.61      0.00
   -6   15   21      7.59      0.00
   -5   15   21     -1.81      0.00
   -4   15   21      0.12      0.00
   -3   15   21      0.28      0.00
   -2   15   21      2.72      0.00
   -1   15   21      1.53      0.00
    0   15   21      2.51      0.00
    1   15   21     -3.38      0.00
    2   15   21      0.98      0.00
    3   15   21      0.59      0.00
    4   15   21     -4.74      0.00
    5   15   21     -3.48      0.00
  -20    0   22     -3.39      0.00
   18    0   22     -5.83      0.00
  -21    1   22     -2.94      0.00
  -20    1   22     -5.73      0.00
   18    1   22     -2.17      0.00
   19    1   22      0.85      0.00
  -21    2   22      4.90      0.00
  -20    2   22     -8.96      0.00
   17    2   22     -2.48      0.00
   18    2   22     -0.39      0.00
   19    2   22     -2.32      0.00
  -21    3   22      0.72      0.00
  -20    3   22     -5.77      0.00
  -19    3   22     11.29      0.00
  -18    3   22     -5.95      0.00
  -10    3   22      0.42      0.00
   17    3   22      0.62      0.00
   18    3   22     -0.78      0.00
  -20    4   22     -1.56      0.00
  -19    4   22      4.86      0.00
  -18    4   22     -1.53      0.00
   17    4   22     -6.32      0.00
   18    4   22     -4.22      0.00
  -20    5   22      1.86      0.00
  -19    5   22      4.02      0.00
   16    5   22     -0.66      0.00
   17    5   22      6.73      0.00
   18    5   22      2.01      0.00
  -19    6   22     -0.12      0.00
  -18    6   22      0.95      0.00
   16    6   22      4.23      0.00
   17    6   22     -1.21      0.00
  -19    7   22      1.00      0.00
  -18    7   22      7.07      0.00
  -17    7   22      0.27      0.00
   15    7   22     -4.33      0.00
   16    7   22      0.25      0.00
   17    7   22      3.27      0.00
  -18    8   22      2.12      0.00
  -17    8   22      0.54      0.00
  -16    8   22      4.87      0.00
   14    8   22      2.15      0.00
   15    8   22     -0.07      0.00
   16    8   22      4.30      0.00
  -17    9   22      0.88      0.00
  -16    9   22      3.51      0.00
  -15    9   22     -2.83      0.00
   13    9   22     -2.98      0.00
   14    9   22     -1.23      0.00
   15    9   22     -2.97      0.00
  -16   10   22      3.93      0.00
  -15   10   22     -0.31      0.00
  -14   10   22     -1.07      0.00
   12   10   22      3.97      0.00
   13   10   22     -3.64      0.00
   14   10   22     -0.43      0.00
  -15   11   22     -1.81      0.00
  -14   11   22     -1.38      0.00
  -13   11   22     -0.26      0.00
  -12   11   22     -2.58      0.00
   10   11   22      4.37      0.00
   11   11   22      6.04      0.00
   12   11   22     -0.47      0.00
   13   11   22      1.29      0.00
  -13   12   22     -0.91      0.00
  -12   12   22      0.17      0.00
  -11   12   22     -0.46      0.00
  -10   12   22     -3.71      0.00
    8   12   22     -2.22      0.00
    9   12   22      4.30      0.00
   10   12   22     -0.49      0.00
   11   12   22     -1.45      0.00
  -11   13   22      0.58      0.00
  -10   13   22      3.47      0.00
   -9   13   22      4.30      0.00
   -8   13   22      0.53      0.00
   -7   13   22     -2.96      0.00
    4   13   22     -2.16      0.00
    5   13   22      1.36      0.00
    6   13   22     -1.44      0.00
    7   13   22     -6.69      0.00
    8   13   22      0.55      0.00
    9   13   22      4.17      0.00
   -9   14   22      1.65      0.00
   -8   14   22      2.45      0.00
   -7   14   22     -0.89      0.00
   -6   14   22      3.05      0.00
   -5   14   22      2.06      0.00
   -4   14   22     -4.99      0.00
   -3   14   22     -6.13      0.00
   -2   14   22      0.31      0.00
   -1   14   22     -2.53      0.00
    0   14   22      2.08      0.00
    1   14   22      1.14      0.00
    2   14   22     -3.30      0.00
    3   14   22      1.63      0.00
    4   14   22     -4.47      0.00
    5   14   22     -0.28      0.00
    6   14   22      1.25      0.00
   -4   15   22      0.87      0.00
   -3   15   22      6.05      0.00
   -2   15   22      2.11      0.00
   -1   15   22     -1.69      0.00
    0   15   22     -1.99      0.00
    1   15   22     -2.85      0.00
    2   15   22     -0.30      0.00
  -19    0   23     -4.57      0.00
   17    0   23     -1.31      0.00
  -20    1   23     -3.25      0.00
  -19    1   23      1.12      0.00
   16    1   23     -2.62      0.00
   17    1   23      1.38      0.00
   18    1   23      0.11      0.00
  -20    2   23     -0.13      0.00
  -19    2   23     -3.21      0.00
   16    2   23     -1.99      0.00
   17    2   23      4.13      0.00
   18    2   23      5.86      0.00
  -20    3   23     -4.35      0.00
  -19    3   23      2.74      0.00
  -18    3   23     -3.64      0.00
   16    3   23      0.07      0.00
   17    3   23     -2.23      0.00
  -19    4   23     -1.27      0.00
  -18    4   23     -0.49      0.00
   16    4   23     -1.60      0.00
   17    4   23     -1.38      0.00
  -19    5   23      2.46      0.00
  -18    5   23     -1.10      0.00
  -17    5   23     -6.53      0.00
   15    5   23     -3.57      0.00
   16    5   23      3.04      0.00
   17    5   23      1.01      0.00
  -18    6   23     -0.61      0.00
  -17    6   23      3.37      0.00
   14    6   23      5.82      0.00
   15    6   23     -6.43      0.00
   16    6   23     -1.03      0.00
  -18    7   23      1.40      0.00
  -17    7   23     -2.35      0.00
  -16    7   23     -0.49      0.00
   14    7   23     -1.17      0.00
   15    7   23     -3.39      0.00
  -17    8   23      3.76      0.00
  -16    8   23     -0.49      0.00
  -15    8   23     -4.24      0.00
   13    8   23     -2.14      0.00
   14    8   23      4.13      0.00
   15    8   23     -6.22      0.00
  -16    9   23     -1.50      0.00
  -15    9   23     -1.41      0.00
  -14    9   23     -0.64      0.00
   11    9   23     -1.66      0.00
   12    9   23      1.81      0.00
   13    9   23     -2.56      0.00
   14    9   23     -0.27      0.00
  -15   10   23     -3.04      0.00
  -14   10   23     -1.00      0.00
  -13   10   23     -0.18      0.00
  -12   10   23     -5.26      0.00
   10   10   23     -2.36      0.00
   11   10   23      1.92      0.00
   12   10   23      1.50      0.00
  -13   11   23      3.13      0.00
  -12   11   23      0.87      0.00
  -11   11   23      2.12      0.00
  -10   11   23     -5.03      0.00
    8   11   23      2.51      0.00
    9   11   23     -3.70      0.00
   10   11   23     -1.15      0.00
   11   11   23      0.74      0.00
  -12   12   23      1.47      0.00
  -11   12   23      0.78      0.00
  -10   12   23      0.89      0.00
   -9   12   23     -0.19      0.00
   -8   12   23      8.32      0.00
   -7   12   23     -0.98      0.00
    5   12   23     -1.39      0.00
    6   12   23     -0.02      0.00
    7   12   23      0.02      0.00
    8   12   23      1.79      0.00
    9   12   23     -2.91      0.00
   -9   13   23     -1.76      0.00
   -8   13   23      4.74      0.00
   -7   13   23     -1.73      0.00
   -6   13   23      5.62      0.00
   -5   13   23     -0.75      0.00
   -4   13   23      1.49      0.00
   -3   13   23     -3.22      0.00
   -2   13   23      2.54      0.00
   -1   13   23      2.57      0.00
    0   13   23      6.44      0.00
    1   13   23     -3.13      0.00
    2   13   23     -3.04      0.00
    3   13   23     -0.06      0.00
    4   13   23     -2.75      0.00
    5   13   23      0.09      0.00
    6   13   23      0.42      0.00
    7   13   23     -2.50      0.00
   -6   14   23     -2.51      0.00
   -5   14   23     -0.81      0.00
   -4   14   23     -1.77      0.00
   -3   14   23     -2.51      0.00
   -2   14   23      3.12      0.00
   -1   14   23     -2.09      0.00
    0   14   23      1.69      0.00
    1   14   23     -1.36      0.00
    2   14   23     -2.27      0.00
    3   14   23     -2.05      0.00
  -18    0   24      6.41      0.00
   16    0   24      2.83      0.00
  -19    1   24      1.45      0.00
  -18    1   24      2.68      0.00
   15    1   24     -3.92      0.00
   16    1   24      0.68      0.00
   17    1   24      3.13      0.00
  -19    2   24      0.02      0.00
  -18    2   24      7.31      0.00
  -17    2   24     -0.26      0.00
   15    2   24     -2.38      0.00
   16    2   24     -2.54      0.00
   17    2   24     -0.94      0.00
  -19    3   24      1.62      0.00
  -18    3   24      3.56      0.00
  -17    3   24      4.71      0.00
   15    3   24      3.33      0.00
   16    3   24     -1.44      0.00
  -18    4   24      2.91      0.00
  -17    4   24      4.03      0.00
   14    4   24      2.93      0.00
   15    4   24      1.46      0.00
   16    4   24      2.28      0.00
  -18    5   24     -2.09      0.00
  -17    5   24      3.44      0.00
  -16    5   24     -1.71      0.00
   14    5   24      1.58      0.00
   15    5   24     -1.79      0.00
  -17    6   24      1.77      0.00
  -16    6   24     -1.68      0.00
  -15    6   24      8.95      0.00
   13    6   24     -2.95      0.00
   14    6   24     -0.73      0.00
   15    6   24     -1.71      0.00
  -17    7   24     -0.13      0.00
  -16    7   24     -3.83      0.00
  -15    7   24      4.45      0.00
   12    7   24     -1.29      0.00
   13    7   24     -0.89      0.00
   14    7   24     -2.05      0.00
  -16    8   24     -2.18      0.00
  -15    8   24      5.18      0.00
  -14    8   24      0.51      0.00
  -13    8   24      1.11      0.00
   11    8   24      4.88      0.00
   12    8   24     -0.15      0.00
   13    8   24      2.78      0.00
  -15    9   24      4.22      0.00
  -14    9   24     -1.78      0.00
  -13    9   24      3.57      0.00
  -12    9   24     -0.11      0.00
   10    9   24      2.75      0.00
   11    9   24      6.05      0.00
   12    9   24     -3.71      0.00
  -13   10   24      2.54      0.00
  -12   10   24     -2.33      0.00
  -11   10   24     -0.85      0.00
  -10   10   24     -5.59      0.00
    8   10   24     -0.21      0.00
    9   10   24      2.50      0.00
   10   10   24      3.27      0.00
   11   10   24      7.19      0.00
  -12   11   24     -0.54      0.00
  -11   11   24      0.89      0.00
  -10   11   24      0.40      0.00
   -9   11   24      4.47      0.00
   -8   11   24     -4.59      0.00
    5   11   24      2.53      0.00
    6   11   24     -0.60      0.00
    7   11   24     -4.00      0.00
    8   11   24      3.18      0.00
    9   11   24     -0.41      0.00
  -10   12   24     -1.65      0.00
   -9   12   24      2.23      0.00
   -8   12   24      1.95      0.00
   -7   12   24      2.97      0.00
   -6   12   24     -1.93      0.00
   -5   12   24     -2.93      0.00
   -4   12   24     -4.57      0.00
   -3   12   24      1.57      0.00
   -2   12   24      3.70      0.00
   -1   12   24     -2.22      0.00
    0   12   24     -5.08      0.00
    1   12   24      2.06      0.00
    2   12   24     -0.54      0.00
    3   12   24     -1.77      0.00
    4   12   24      0.17      0.00
    5   12   24      2.19      0.00
    6   12   24      1.48      0.00
    7   12   24     -3.14      0.00
   -6   13   24      1.89      0.00
   -5   13   24     -0.49      0.00
   -4   13   24      3.57      0.00
   -3   13   24     -1.35      0.00
   -2   13   24     -0.55      0.00
   -1   13   24     -3.29      0.00
    0   13   24      1.28      0.00
    1   13   24      0.22      0.00
    2   13   24      1.53      0.00
    3   13   24     -0.01      0.00
    4   13   24      2.52      0.00
  -17    0   25      4.72      0.00
   15    0   25      1.01      0.00
  -18    1   25     -4.03      0.00
  -17    1   25      0.57      0.00
  -16    1   25     -5.22      0.00
   14    1   25     -0.83      0.00
   15    1   25     -4.21      0.00
  -18    2   25     -0.47      0.00
  -17    2   25      3.04      0.00
  -16    2   25     -3.74      0.00
   14    2   25      1.23      0.00
   15    2   25     -3.63      0.00
  -18    3   25     -2.14      0.00
  -17    3   25      1.90      0.00
  -16    3   25     -4.32      0.00
   13    3   25      2.00      0.00
   14    3   25      0.40      0.00
   15    3   25     -1.03      0.00
  -17    4   25     -0.31      0.00
  -16    4   25     -4.56      0.00
  -15    4   25    -11.87      0.00
   13    4   25     -3.63      0.00
   14    4   25      2.18      0.00
   15    4   25     -2.78      0.00
  -17    5   25      3.21      0.00
  -16    5   25      2.79      0.00
  -15    5   25      5.62      0.00
   12    5   25     -1.25      0.00
   13    5   25     -3.01      0.00
   14    5   25     -1.33      0.00
  -16    6   25      0.79      0.00
  -15    6   25     -3.88      0.00
  -14    6   25     -4.18      0.00
   11    6   25      0.60      0.00
   12    6   25      0.17      0.00
   13    6   25     -1.07      0.00
  -15    7   25      3.55      0.00
  -14    7   25     -0.04      0.00
  -13    7   25     -0.05      0.00
   10    7   25      4.29      0.00
   11    7   25      0.41      0.00
   12    7   25      3.14      0.00
   13    7   25     -1.31      0.00
  -14    8   25     -0.42      0.00
  -13    8   25     -1.28      0.00
  -12    8   25      0.42      0.00
  -11    8   25      1.38      0.00
    9    8   25     -2.07      0.00
   10    8   25     -1.06      0.00
   11    8   25     -1.96      0.00
   12    8   25     -2.66      0.00
  -13    9   25      0.20      0.00
  -12    9   25     -1.40      0.00
  -11    9   25     -1.75      0.00
  -10    9   25     -9.73      0.00
    7    9   25     -1.41      0.00
    8    9   25      2.88      0.00
    9    9   25      0.21      0.00
   10    9   25      4.37      0.00
   11    9   25      1.51      0.00
  -12   10   25     -0.28      0.00
  -11   10   25     -0.42      0.00
  -10   10   25      1.61      0.00
   -9   10   25      1.83      0.00
   -8   10   25      1.86      0.00
   -7   10   25     -0.91      0.00
    5   10   25     -3.36      0.00
    6   10   25      1.29      0.00
    7   10   25     -2.40      0.00
    8   10   25     -1.02      0.00
    9   10   25     -4.57      0.00
  -10   11   25     -6.21      0.00
   -9   11   25     -2.85      0.00
   -8   11   25      3.07      0.00
   -7   11   25      3.13      0.00
   -6   11   25      1.78      0.00
   -5   11   25     -6.88      0.00
   -4   11   25      1.87      0.00
   -3   11   25      0.09      0.00
   -2   11   25     -1.18      0.00
   -1   11   25     -4.09      0.00
    0   11   25     10.97      0.00
    1   11   25     -1.68      0.00
    2   11   25     -1.68      0.00
    3   11   25      0.70      0.00
    4   11   25     -3.32      0.00
    5   11   25      1.07      0.00
    6   11   25     -0.83      0.00
    7   11   25      0.51      0.00
   -7   12   25      1.06      0.00
   -6   12   25     -3.46      0.00
   -5   12   25     -1.44      0.00
   -4   12   25      5.67      0.00
   -3   12   25      0.78      0.00
   -2   12   25      0.35      0.00
   -1   12   25     -0.20      0.00
    0   12   25      7.24      0.00
    1   12   25      2.24      0.00
    2   12   25     -6.30      0.00
    3   12   25      0.20      0.00
    4   12   25     -0.65      0.00
  -16    0   26      4.51      0.00
   12    0   26      3.17      0.00
   14    0   26     -3.75      0.00
  -17    1   26      0.69      0.00
  -16    1   26     -1.86      0.00
  -15    1   26     -5.08      0.00
   12    1   26      3.58      0.00
   13    1   26     -4.38      0.00
   14    1   26     -0.85      0.00
  -17    2   26      2.44      0.00
  -16    2   26      5.02      0.00
  -15    2   26      4.36      0.00
  -14    2   26      3.25      0.00
   12    2   26      4.06      0.00
   13    2   26     -4.22      0.00
   14    2   26      1.10      0.00
  -16    3   26     -2.92      0.00
  -15    3   26     -0.58      0.00
  -14    3   26      6.37      0.00
   11    3   26      4.94      0.00
   12    3   26      1.55      0.00
   13    3   26     -7.06      0.00
   14    3   26     -0.69      0.00
  -16    4   26      2.55      0.00
  -15    4   26     -2.70      0.00
  -14    4   26     -0.71      0.00
   11    4   26      1.32      0.00
   12    4   26      3.16      0.00
   13    4   26     -6.33      0.00
  -15    5   26     -1.91      0.00
  -14    5   26      3.21      0.00
  -13    5   26      4.95      0.00
   10    5   26      0.20      0.00
   11    5   26      1.66      0.00
   12    5   26      1.35      0.00
   13    5   26      1.54      0.00
  -15    6   26     -0.35      0.00
  -14    6   26      1.27      0.00
  -13    6   26     -3.02      0.00
  -12    6   26     -8.44      0.00
    9    6   26      5.86      0.00
   10    6   26      1.93      0.00
   11    6   26      3.87      0.00
   12    6   26      3.48      0.00
  -14    7   26      1.69      0.00
  -13    7   26     -0.57      0.00
  -12    7   26     -2.44      0.00
  -11    7   26      4.63      0.00
    8    7   26     -1.49      0.00
    9    7   26      7.93      0.00
   10    7   26     -4.35      0.00
   11    7   26      1.45      0.00
  -13    8   26     -1.45      0.00
  -12    8   26     -2.71      0.00
  -11    8   26      2.45      0.00
  -10    8   26      6.29      0.00
   -9    8   26      0.45      0.00
    6    8   26      1.20      0.00
    7    8   26     -0.19      0.00
    8    8   26     -2.33      0.00
    9    8   26      5.59      0.00
   10    8   26      0.77      0.00
  -11    9   26      0.37      0.00
  -10    9   26     -0.58      0.00
   -9    9   26      0.89      0.00
   -8    9   26      1.27      0.00
   -7    9   26      0.12      0.00
   -6    9   26      0.35      0.00
    4    9   26     -3.84      0.00
    5    9   26     -1.25      0.00
    6    9   26      1.78      0.00
    7    9   26     -0.21      0.00
    8    9   26     -7.69      0.00
    9    9   26      2.35      0.00
   -9   10   26      3.20      0.00
   -8   10   26      4.28      0.00
   -7   10   26     -1.95      0.00
   -6   10   26     -3.00      0.00
   -5   10   26      5.80      0.00
   -4   10   26     -3.87      0.00
   -3   10   26     -0.96      0.00
   -2   10   26      1.73      0.00
   -1   10   26      1.85      0.00
    0   10   26     -0.87      0.00
    1   10   26     -0.05      0.00
    2   10   26     -1.66      0.00
    3   10   26      3.86      0.00
    4   10   26     -2.08      0.00
    5   10   26     -1.45      0.00
    6   10   26      3.72      0.00
    7   10   26      1.45      0.00
   -7   11   26     -4.29      0.00
   -6   11   26      2.72      0.00
   -5   11   26      1.23      0.00
   -4   11   26      2.70      0.00
   -3   11   26     -1.42      0.00
   -2   11   26      2.65      0.00
   -1   11   26     -0.74      0.00
    0   11   26      0.45      0.00
    1   11   26     -4.02      0.00
    2   11   26      0.65      0.00
    3   11   26      1.70      0.00
    4   11   26     -0.51      0.00
  -15    0   27     -2.34      0.00
  -13    0   27      0.50      0.00
   11    0   27      0.45      0.00
   13    0   27      0.81      0.00
  -15    1   27     -0.39      0.00
  -14    1   27     -3.65      0.00
  -13    1   27      2.07      0.00
   10    1   27     -2.41      0.00
   11    1   27      1.14      0.00
   12    1   27      1.58      0.00
   13    1   27      3.79      0.00
  -15    2   27     -4.22      0.00
  -14    2   27     -0.40      0.00
  -13    2   27     -1.41      0.00
   10    2   27      8.76      0.00
   11    2   27     -4.64      0.00
   12    2   27      0.56      0.00
  -15    3   27      1.36      0.00
  -14    3   27     -2.36      0.00
  -13    3   27      1.38      0.00
  -12    3   27     -7.44      0.00
    9    3   27     -3.90      0.00
   10    3   27      1.09      0.00
   11    3   27     -0.67      0.00
   12    3   27     -0.01      0.00
  -14    4   27      3.88      0.00
  -13    4   27     -1.24      0.00
  -12    4   27     -0.58      0.00
  -11    4   27     -4.98      0.00
    9    4   27     -2.95      0.00
   10    4   27     -2.91      0.00
   11    4   27     -0.69      0.00
   12    4   27      0.31      0.00
  -14    5   27     -2.54      0.00
  -13    5   27     -3.80      0.00
  -12    5   27      0.00      0.00
  -11    5   27     -2.34      0.00
    8    5   27     10.30      0.00
    9    5   27     -3.21      0.00
   10    5   27      1.81      0.00
   11    5   27      0.66      0.00
  -13    6   27     -2.52      0.00
  -12    6   27      3.09      0.00
  -11    6   27     -3.03      0.00
  -10    6   27     -4.07      0.00
   -9    6   27    -14.57      0.00
    7    6   27      3.85      0.00
    8    6   27     -8.46      0.00
    9    6   27     -2.02      0.00
   10    6   27     -3.16      0.00
  -12    7   27      0.23      0.00
  -11    7   27     -3.37      0.00
  -10    7   27      1.17      0.00
   -9    7   27      1.29      0.00
   -8    7   27      2.66      0.00
    5    7   27     -0.50      0.00
    6    7   27      0.97      0.00
    7    7   27      7.70      0.00
    8    7   27      3.19      0.00
    9    7   27     -0.51      0.00
  -10    8   27      2.03      0.00
   -9    8   27     -7.14      0.00
   -8    8   27     -0.10      0.00
   -7    8   27      2.52      0.00
   -6    8   27      1.75      0.00
   -5    8   27      5.82      0.00
   -4    8   27     -2.19      0.00
    1    8   27      4.96      0.00
    2    8   27     -1.89      0.00
    3    8   27     -0.54      0.00
    4    8   27     -4.78      0.00
    5    8   27     -1.44      0.00
    6    8   27     -1.24      0.00
    7    8   27      0.93      0.00
    8    8   27     -7.27      0.00
   -9    9   27     -2.44      0.00
   -8    9   27      1.49      0.00
   -7    9   27      2.51      0.00
   -6    9   27      0.60      0.00
   -5    9   27     -2.69      0.00
   -4    9   27     -5.03      0.00
   -3    9   27      1.41      0.00
   -2    9   27      0.05      0.00
   -1    9   27      3.80      0.00
    0    9   27      2.82      0.00
    1    9   27      9.20      0.00
    2    9   27     -0.82      0.00
    3    9   27     -1.56      0.00
    4    9   27     -2.77      0.00
    5    9   27      0.01      0.00
    6    9   27      5.60      0.00
   -6   10   27      1.55      0.00
   -5   10   27      2.55      0.00
   -4   10   27     -1.13      0.00
   -3   10   27     -2.06      0.00
   -2   10   27      0.64      0.00
   -1   10   27     -1.11      0.00
    0   10   27     -3.26      0.00
    1   10   27      5.22      0.00
    2   10   27     -5.22      0.00
    3   10   27      4.52      0.00
  -14    0   28     -2.36      0.00
  -12    0   28     -6.46      0.00
  -10    0   28     -1.17      0.00
    8    0   28     12.60      0.00
   10    0   28     -0.30      0.00
  -14    1   28      0.58      0.00
  -13    1   28      1.81      0.00
  -12    1   28     -0.92      0.00
  -11    1   28      0.13      0.00
  -10    1   28     -1.31      0.00
    8    1   28      0.83      0.00
    9    1   28      3.55      0.00
   10    1   28     -1.85      0.00
   11    1   28      0.14      0.00
  -13    2   28     -2.54      0.00
  -12    2   28     -0.99      0.00
  -11    2   28      2.65      0.00
  -10    2   28      1.49      0.00
    7    2   28      1.63      0.00
    8    2   28      1.73      0.00
    9    2   28      3.34      0.00
   10    2   28      0.21      0.00
  -13    3   28     -1.14      0.00
  -12    3   28     -3.18      0.00
  -11    3   28     -3.45      0.00
  -10    3   28     -1.78      0.00
   -9    3   28      5.49      0.00
    7    3   28      1.15      0.00
    8    3   28      0.23      0.00
    9    3   28     -1.13      0.00
   10    3   28      0.52      0.00
  -12    4   28      2.18      0.00
  -11    4   28     -0.90      0.00
  -10    4   28      4.70      0.00
   -9    4   28      4.65      0.00
    6    4   28     -2.86      0.00
    7    4   28      4.92      0.00
    8    4   28     -4.61      0.00
    9    4   28     -0.71      0.00
   10    4   28     -0.08      0.00
  -12    5   28     -1.28      0.00
  -11    5   28     -4.32      0.00
  -10    5   28     -1.91      0.00
   -9    5   28      4.17      0.00
   -8    5   28     -3.40      0.00
   -7    5   28      4.40      0.00
    4    5   28     -2.12      0.00
    5    5   28      1.92      0.00
    6    5   28     -5.68      0.00
    7    5   28      0.22      0.00
    8    5   28     -2.01      0.00
    9    5   28      4.34      0.00
  -11    6   28      0.52      0.00
  -10    6   28      6.23      0.00
   -9    6   28      2.75      0.00
   -8    6   28     -1.82      0.00
   -7    6   28      2.97      0.00
   -6    6   28     -5.75      0.00
   -5    6   28     -4.16      0.00
    2    6   28     -0.46      0.00
    3    6   28     -2.58      0.00
    4    6   28     -1.43      0.00
    5    6   28      0.19      0.00
    6    6   28     -1.98      0.00
    7    6   28      1.50      0.00
    8    6   28     -4.53      0.00
   -9    7   28      0.19      0.00
   -8    7   28     -1.38      0.00
   -7    7   28      7.62      0.00
   -6    7   28     -2.37      0.00
   -5    7   28      0.73      0.00
   -4    7   28      1.33      0.00
   -3    7   28      2.75      0.00
   -2    7   28      1.68      0.00
   -1    7   28     -5.82      0.00
    0    7   28      0.24      0.00
    1    7   28     -0.37      0.00
    2    7   28      2.42      0.00
    3    7   28      0.87      0.00
    4    7   28      1.05      0.00
    5    7   28      1.56      0.00
    6    7   28     -2.56      0.00
    7    7   28      0.68      0.00
   -8    8   28      0.78      0.00
   -7    8   28      2.97      0.00
   -6    8   28     -5.81      0.00
   -5    8   28     -3.10      0.00
   -4    8   28     -3.13      0.00
   -3    8   28     -0.82      0.00
   -2    8   28      0.97      0.00
   -1    8   28      0.49      0.00
    0    8   28      1.09      0.00
    1    8   28      2.50      0.00
    2    8   28     -2.28      0.00
    3    8   28     -2.64      0.00
    4    8   28      1.46      0.00
    5    8   28      2.51      0.00
   -5    9   28      0.73      0.00
   -4    9   28      1.73      0.00
   -3    9   28     -3.64      0.00
   -2    9   28      2.75      0.00
   -1    9   28     -0.50      0.00
    0    9   28     -1.46      0.00
    1    9   28     -3.55      0.00
    2    9   28      2.49      0.00
  -11    0   29     -1.63      0.00
   -9    0   29     -5.94      0.00
   -7    0   29     -5.29      0.00
    5    0   29     -3.69      0.00
    7    0   29     -5.69      0.00
    9    0   29     -4.17      0.00
  -11    1   29     -1.40      0.00
  -10    1   29     -0.42      0.00
   -9    1   29      5.39      0.00
   -8    1   29      3.71      0.00
   -7    1   29      0.45      0.00
    4    1   29     -4.18      0.00
    5    1   29      4.32      0.00
    6    1   29      1.87      0.00
    7    1   29      0.09      0.00
    8    1   29      4.34      0.00
    9    1   29     -0.73      0.00
  -11    2   29     -0.58      0.00
  -10    2   29     -0.08      0.00
   -9    2   29     -6.02      0.00
   -8    2   29     -7.54      0.00
   -7    2   29     -4.85      0.00
   -6    2   29      1.38      0.00
    3    2   29      3.77      0.00
    4    2   29     -7.60      0.00
    5    2   29     -0.29      0.00
    6    2   29     -1.96      0.00
    7    2   29     -1.00      0.00
    8    2   29     -4.21      0.00
  -11    3   29     -1.58      0.00
  -10    3   29      3.14      0.00
   -9    3   29      5.44      0.00
   -8    3   29     -0.11      0.00
   -7    3   29      4.27      0.00
   -6    3   29      2.76      0.00
   -5    3   29      2.46      0.00
    2    3   29      0.73      0.00
    3    3   29      0.75      0.00
    4    3   29     -5.40      0.00
    5    3   29      4.69      0.00
    6    3   29      7.42      0.00
    7    3   29      2.44      0.00
    8    3   29      2.85      0.00
  -10    4   29     -0.93      0.00
   -9    4   29     -3.69      0.00
   -8    4   29     -1.48      0.00
   -7    4   29     -4.38      0.00
   -6    4   29      0.10      0.00
   -5    4   29      5.31      0.00
   -4    4   29      2.71      0.00
   -3    4   29     -1.86      0.00
   -2    4   29     -5.08      0.00
   -1    4   29     -2.90      0.00
    0    4   29      0.11      0.00
    1    4   29      0.33      0.00
    2    4   29     -7.34      0.00
    3    4   29      2.13      0.00
    4    4   29     -0.37      0.00
    5    4   29     -3.26      0.00
    6    4   29     -6.50      0.00
    7    4   29     -0.17      0.00
   -9    5   29     -0.40      0.00
   -8    5   29     -3.58      0.00
   -7    5   29      0.57      0.00
   -6    5   29     -3.55      0.00
   -5    5   29     -2.99      0.00
   -4    5   29     -3.90      0.00
   -3    5   29      1.28      0.00
   -2    5   29     -1.87      0.00
   -1    5   29      6.45      0.00
    0    5   29      0.99      0.00
    1    5   29      1.43      0.00
    2    5   29     -3.55      0.00
    3    5   29      1.22      0.00
    4    5   29     -5.70      0.00
    5    5   29      1.64      0.00
    6    5   29      0.63      0.00
   -8    6   29      1.41      0.00
   -7    6   29      0.23      0.00
   -6    6   29      0.08      0.00
   -5    6   29      3.61      0.00
   -4    6   29      4.94      0.00
   -3    6   29     -0.90      0.00
   -2    6   29     -1.56      0.00
   -1    6   29     -1.69      0.00
    0    6   29      1.21      0.00
    1    6   29      4.04      0.00
    2    6   29     -1.72      0.00
    3    6   29      3.03      0.00
    4    6   29     -0.24      0.00
    5    6   29     -3.10      0.00
   -6    7   29     -0.87      0.00
   -5    7   29     -0.71      0.00
   -4    7   29      0.45      0.00
   -3    7   29     -1.97      0.00
   -2    7   29      0.74      0.00
   -1    7   29      5.88      0.00
    0    7   29      5.48      0.00
    1    7   29     -1.90      0.00
    2    7   29      0.62      0.00
    3    7   29      0.21      0.00
    0    0    0      0.00      0.00
# SQUEEZE RESULTS (Version =  11015)
# Note: Data are Listed for all Voids in the P1 Unit Cell
# i.e. Centre of Gravity, Solvent Accessible Volume,
# Recovered number of Electrons in the Void and
# Details about the Squeezed Material
loop_
  _platon_squeeze_void_nr
  _platon_squeeze_void_average_x
  _platon_squeeze_void_average_y
  _platon_squeeze_void_average_z
  _platon_squeeze_void_volume
  _platon_squeeze_void_count_electrons
  _platon_squeeze_void_content
   1  0.000  0.000  0.000       160        65 ' '
   2  0.013 -0.032  0.482      2344       800 ' '
   3  0.726  0.166  0.980        10        10 ' '
   4  0.278  0.184  0.508         9         7 ' '
   5  0.778  0.315  0.008         9         7 ' '
   6  0.226  0.334  0.480         9        10 ' '
   7  0.500  0.500  0.500       155        61 ' '
   8  0.774  0.666  0.520         9        10 ' '
   9  0.222  0.684  0.992         9         7 ' '
  10  0.722  0.815  0.492         9         7 ' '
  11  0.274  0.834  0.020         9         9 ' '
# Missing Reflections Below sin(th)/lambda = 0.25
loop_
  _platon_missing_refln_index_h
  _platon_missing_refln_index_k
  _platon_missing_refln_index_l
  _platon_missing_refln_theta
    2    0    0     3.995
    6    0    0    12.063
    8    0    0    16.180
   10    0    0    20.384
    0    2    0     5.385
    0    4    0    10.818
    0    6    0    16.352
   -1    1    1     3.779
    1    1    1     3.883
    5    1    1    10.655
   -6    0    2    12.442
    0    0    2     3.715
    2    0    2     5.604
   -7    1    2    14.672
   -5    1    2    10.863
    1    1    2     5.085
    5    1    2    11.232
    7    1    2    15.064
   -2    2    2     7.574
    2    2    2     7.784
   -3    3    2    10.658
   -1    1    3     6.419
    1    1    3     6.604
  -10    2    3    21.635
    1    7    3    20.172
   -2    0    4     8.267
    0    0    4     7.446
    2    0    4     8.650
    8    0    4    18.274
    7    3    4    18.383
    0    4    4    13.184
   -6    2    5    15.903
   -4    2    5    13.186
   -2    0    6    11.709
    2    0    6    12.122
    1    1    6    11.816
   -1    1    7    13.437
   -1    2    8    16.027
   -6    2    9    21.215
   -2    0   10    19.130
    0    0   10    18.904
   -1    1   10    19.109
_platon_squeeze_void_probe_radius                  1.20
_platon_squeeze_details
)
TITL cu_Zn_0131_0m_a.res in P2(1)/n
CELL   22.1643   16.4288   23.8287     90.00     93.08     90.00
SPGR P21/n
# Solvent Accessible Volume =    2735.1
# Electrons Found in S.A.V. =     989.8
# Note: Atoms in Void as Cxxx and Qxxx all others
C101 0.735 0.829 0.477 !      12.85 eA-3
C102 0.244 0.365 0.467 !      11.96 eA-3
Q103 0.857 0.496 0.465 !      11.67 eA-3
C104 0.490 1.004 0.437 !      11.15 eA-3
C105 0.842 0.472 0.289 !      11.11 eA-3
C106 0.982 0.611 0.144 !      10.08 eA-3
Q107 0.740 0.457 0.427 !       9.86 eA-3
Q108 0.155 0.018 0.471 !       9.66 eA-3
C109 0.032 0.130 0.340 !       9.24 eA-3
C110 0.571 0.941 0.122 !       8.67 eA-3
C111 0.990 0.235 0.253 !       8.45 eA-3
C112 0.085 0.641 0.205 !       8.22 eA-3
C113 0.992 0.390 0.230 !       7.94 eA-3
Q114 0.272 0.934 0.275 !       7.91 eA-3
C115 0.268 0.939 0.467 !       7.24 eA-3
C116 0.561 0.050 0.252 !       7.22 eA-3
C117 0.392 0.967 0.286 !       7.15 eA-3
C118 0.892 0.529 0.776 !       7.15 eA-3
Q119 0.448 0.284 0.217 !       6.87 eA-3
Q120 0.368 0.019 0.449 !       6.85 eA-3
Q121 0.367 1.000 0.393 !       5.98 eA-3
C122 0.642 0.517 0.478 !       5.76 eA-3
C123 0.398 0.433 0.178 !       5.58 eA-3
C124 0.026 0.997 0.446 !       5.07 eA-3
C125 0.055 0.996 0.420 !       4.48 eA-3
C126 0.983 0.078 0.052 !       4.24 eA-3
C127 0.016 0.568 0.420 !       4.22 eA-3
C128 0.976 0.656 0.336 !       4.12 eA-3
Q129 0.727 0.379 0.019 !       4.12 eA-3
C130 0.882 0.997 0.005 !       4.11 eA-3
C131 0.565 1.003 0.282 !       3.80 eA-3
C132 0.484 0.892 0.238 !       3.37 eA-3
C133 0.422 0.517 0.488 !       3.11 eA-3
Q134 0.213 0.418 0.195 !       2.95 eA-3
Q135 0.759 0.457 0.263 !       2.68 eA-3
C136 0.577 0.099 0.186 !       2.59 eA-3
Q137 0.180 0.348 0.341 !       2.57 eA-3
Q138 0.331 0.348 0.333 !       2.28 eA-3
Q139 0.850 0.329 0.149 !       2.18 eA-3
Q140 0.258 0.153 0.363 !       2.13 eA-3
C141 0.187 0.435 0.150 !       2.10 eA-3
Q142 0.800 0.844 0.333 !       2.07 eA-3
C143 0.657 0.505 0.418 !       2.06 eA-3
Q144 0.906 0.550 0.457 !       1.96 eA-3
C145 0.187 0.449 0.212 !       1.96 eA-3
Q146 0.052 0.974 0.291 !       1.91 eA-3
C147 0.948 0.037 0.465 !       1.90 eA-3
Q148 0.983 0.990 0.050 !       1.75 eA-3
Q149 0.961 0.768 0.219 !       1.73 eA-3
C150 0.986 0.496 0.429 !       1.66 eA-3
C151 0.471 0.192 0.175 !       1.64 eA-3
C152 0.072 0.519 0.262 !       1.60 eA-3
C153 0.609 0.970 0.220 !       1.55 eA-3
Q154 0.045 0.093 0.302 !       1.54 eA-3
Q155 0.554 0.418 0.359 !       1.42 eA-3
Q156 0.773 0.157 0.141 !       1.41 eA-3
Q157 0.721 0.891 0.470 !       1.39 eA-3
Q158 0.014 0.110 0.123 !       1.32 eA-3
Q159 0.533 0.519 0.190 !       1.32 eA-3
Q160 0.738 0.795 0.366 !       1.26 eA-3
Q161 0.095 0.792 0.110 !       1.21 eA-3
C162 0.415 1.000 0.478 !       1.20 eA-3
Q163 0.874 0.504 0.415 !       1.19 eA-3
Q164 0.512 0.624 0.144 !       1.18 eA-3
C165 0.474 0.119 0.362 !       1.15 eA-3
Q166 0.614 0.532 0.313 !       1.15 eA-3
Q167 0.549 0.440 0.235 !       1.15 eA-3
C168 0.954 0.610 0.220 !       1.14 eA-3
Q169 0.540 0.344 0.267 !       1.11 eA-3
Q170 0.174 0.668 0.093 !       1.10 eA-3
Q171 0.632 0.474 0.289 !       1.09 eA-3
Q172 0.632 0.452 0.312 !       1.09 eA-3
Q173 0.544 0.373 0.273 !       1.09 eA-3
C174 0.523 0.009 0.486 !       1.08 eA-3
Q175 0.366 0.988 0.069 !       1.04 eA-3
Q176 0.759 0.795 0.400 !       1.04 eA-3
C177 0.057 0.685 0.222 !       1.04 eA-3
Q178 0.906 0.803 0.388 !       1.03 eA-3
C179 0.899 0.500 0.392 !       1.03 eA-3
Q180 0.695 0.848 0.326 !       1.02 eA-3
Q181 0.118 0.844 0.154 !       1.01 eA-3
C182 0.641 0.977 0.098 !       1.01 eA-3
C183 0.100 0.545 0.224 !       1.00 eA-3
C184 0.498 0.126 0.275 !       1.00 eA-3
Q185 0.094 0.294 0.413 !       1.00 eA-3
C186 0.391 0.500 0.071 !       1.00 eA-3
Q187 0.248 0.018 0.330 !       0.99 eA-3
C188 0.500 0.500 0.000 !       0.98 eA-3
Q189 0.938 0.841 0.352 !       0.98 eA-3
Q190 0.626 0.469 0.083 !       0.96 eA-3
C191 0.465 0.019 0.361 !       0.96 eA-3
C192 0.978 0.515 0.228 !       0.96 eA-3
Q193 0.218 0.827 0.145 !       0.96 eA-3
C194 0.503 0.705 0.208 !       0.96 eA-3
Q195 0.235 0.273 0.409 !       0.96 eA-3
C196 0.487 0.093 0.326 !       0.95 eA-3
Q197 0.363 0.782 0.242 !       0.95 eA-3
Q198 0.555 0.268 0.490 !       0.95 eA-3
Q199 0.834 0.406 0.284 !       0.95 eA-3
)
;
_shelx_fab_checksum              26208
_olex2_submission_special_instructions 'No special instructions were received'
loop_
_space_group_symop_operation_xyz
'x, y, z'
'-x+1/2, y+1/2, -z+1/2'
'-x, -y, -z'
'x-1/2, -y-1/2, z-1/2'
loop_
_atom_site_label
_atom_site_type_symbol
_atom_site_fract_x
_atom_site_fract_y
_atom_site_fract_z
_atom_site_U_iso_or_equiv
_atom_site_adp_type
_atom_site_occupancy
_atom_site_site_symmetry_order
_atom_site_calc_flag
_atom_site_refinement_flags_posn
_atom_site_refinement_flags_adp
_atom_site_refinement_flags_occupancy
_atom_site_disorder_assembly
_atom_site_disorder_group
Zn1 Zn 0.66893(3) 0.33870(4) 1.16139(3) 0.01043(15) Uani 1 1 d . . . . .
Zn2 Zn 0.74706(3) 0.16695(4) 1.14485(3) 0.01097(15) Uani 1 1 d . . . . .
Zn3 Zn 0.82263(3) 0.34066(4) 1.14995(3) 0.00952(15) Uani 1 1 d . . . . .
Zn5 Zn 0.77159(3) 0.84547(4) 0.64744(3) 0.01220(15) Uani 1 1 d . . . . .
Zn6 Zn 0.84933(3) 0.66984(4) 0.65350(3) 0.01223(15) Uani 1 1 d . . . . .
Zn4 Zn 0.69478(3) 0.66981(4) 0.66458(3) 0.01248(15) Uani 1 1 d . . . . .
O1 O 0.67320(18) 0.4536(2) 1.18109(16) 0.0177(8) Uani 1 1 d . . . . .
O2 O 0.6639(2) 0.4655(3) 1.08939(17) 0.0307(10) Uani 1 1 d . . . . .
O3 O 0.67133(17) 0.6905(2) 1.30359(15) 0.0162(7) Uani 1 1 d . . . . .
O4 O 0.66975(18) 0.8152(2) 1.26859(14) 0.0160(7) Uani 1 1 d . . . . .
O5 O 0.4734(2) 0.8447(4) 1.12802(19) 0.0403(13) Uani 1 1 d . . . . .
O6 O 0.39194(17) 0.7809(2) 1.09318(16) 0.0189(8) Uani 1 1 d . . . . .
O7 O 0.4670(2) 0.6243(3) 0.87227(19) 0.0355(12) Uani 1 1 d . U . . .
O7W O 0.69126(19) 0.8645(3) 0.59969(19) 0.0277(9) Uani 1 1 d . . . . .
H7WA H 0.692418 0.840306 0.566432 0.042 Uiso 1 1 d R U . . .
H7WB H 0.687505 0.916820 0.590915 0.042 Uiso 1 1 d R U . . .
O26 O 0.74134(15) 0.2921(2) 1.12934(13) 0.0093(6) Uani 1 1 d . . . . .
H26 H 0.735198 0.298094 1.087662 0.014 Uiso 1 1 calc R U . . .
O8 O 0.39339(18) 0.7114(2) 0.88799(16) 0.0209(8) Uani 1 1 d . . . . .
O8W O 0.82233(17) 0.8522(2) 0.57551(15) 0.0166(8) Uani 1 1 d . . . . .
H8WA H 0.855816 0.824884 0.581239 0.025 Uiso 1 1 d R U . . .
H8WB H 0.834126 0.902297 0.570632 0.025 Uiso 1 1 d R U . . .
O9 O 0.6526(3) 1.0326(3) 0.9334(2) 0.0538(18) Uani 1 1 d . U . . .
O9W O 0.7821(2) 0.9690(3) 0.6582(2) 0.0358(11) Uani 1 1 d . . . . .
H9WA H 0.811126 1.004173 0.641739 0.054 Uiso 1 1 d R U . . .
H9WB H 0.759979 1.005843 0.680980 0.054 Uiso 1 1 d R U . . .
O10 O 0.66032(19) 1.0525(2) 0.84191(16) 0.0203(8) Uani 1 1 d . . . . .
O10W O 0.6699(2) 0.1501(3) 1.0932(2) 0.0345(11) Uani 1 1 d . . . . .
H10A H 0.636660 0.167738 1.109714 0.052 Uiso 1 1 d R U . . .
H10B H 0.662173 0.096705 1.088004 0.052 Uiso 1 1 d R U . . .
O11 O 0.68724(18) 0.5536(2) 0.67700(16) 0.0188(8) Uani 1 1 d . . . . .
O11W O 0.7553(2) 0.0429(3) 1.15908(19) 0.0308(10) Uani 1 1 d . . . . .
H11A H 0.757060 0.014827 1.126861 0.046 Uiso 1 1 d R U . . .
H11B H 0.721819 0.022970 1.173544 0.046 Uiso 1 1 d R U . . .
O12 O 0.6817(3) 0.5386(3) 0.58499(19) 0.0432(14) Uani 1 1 d . . . . .
O12W O 0.80315(17) 0.1545(2) 1.07640(15) 0.0153(7) Uani 1 1 d . . . . .
H12A H 0.826669 0.196866 1.075038 0.023 Uiso 1 1 d R U . . .
H12B H 0.781192 0.156242 1.044971 0.023 Uiso 1 1 d R U . . .
O13 O 0.6961(2) 0.7079(2) 0.74249(16) 0.0286(10) Uani 1 1 d . . . . .
O14 O 0.7234(2) 0.8340(2) 0.71998(16) 0.0214(9) Uani 1 1 d . U . . .
O15 O 0.64692(18) 0.3251(2) 0.80184(15) 0.0182(8) Uani 1 1 d . . . . .
O16 O 0.64052(19) 0.1997(2) 0.76637(15) 0.0213(8) Uani 1 1 d . . . . .
O17 O 0.4418(2) 0.3577(3) 0.3648(2) 0.0356(12) Uani 1 1 d . . . . .
O18 O 0.36543(17) 0.2790(2) 0.38729(17) 0.0205(8) Uani 1 1 d . . . . .
O19 O 0.37320(17) 0.2113(2) 0.59616(16) 0.0176(8) Uani 1 1 d . . . . .
O20 O 0.44950(19) 0.1264(3) 0.61592(18) 0.0264(9) Uani 1 1 d . . . . .
O21 O 0.6781(2) -0.0229(2) 0.44123(16) 0.0234(9) Uani 1 1 d . . . . .
O22 O 0.67907(18) -0.0426(2) 0.34892(15) 0.0174(8) Uani 1 1 d . . . . .
O23 O 0.66064(19) 0.2968(2) 0.23845(15) 0.0194(8) Uani 1 1 d . . . . .
O24 O 0.70159(19) 0.1766(2) 0.21923(15) 0.0177(8) Uani 1 1 d . . . . .
O25 O 0.76711(16) 0.7181(2) 0.63242(14) 0.0116(7) Uani 1 1 d . . . . .
H25 H 0.761107 0.711678 0.590767 0.017 Uiso 1 1 calc R U . . .
N1 N 0.61299(19) 0.2615(3) 0.50208(16) 0.0121(8) Uani 1 1 d . . . . .
N2 N 0.63763(19) 0.7439(3) 1.00306(17) 0.0129(8) Uani 1 1 d . . . . .
C5 C 0.6680(2) 0.4968(3) 1.1367(2) 0.0141(10) Uani 1 1 d . . . . .
C6 C 0.6706(2) 0.9182(3) 0.8752(2) 0.0130(10) Uani 1 1 d . . . A -1
C7 C 0.7058(2) 0.7823(3) 0.7537(2) 0.0159(10) Uani 1 1 d . . . . .
C8 C 0.6703(2) 0.7770(3) 1.0527(2) 0.0124(10) Uani 1 1 d . . . . .
H8A H 0.652452 0.830247 1.061973 0.015 Uiso 1 1 calc R U . . .
H8B H 0.712859 0.786573 1.043811 0.015 Uiso 1 1 calc R U . . .
C9 C 0.6681(2) 0.5874(3) 1.1440(2) 0.0116(9) Uani 1 1 d . . . . .
C10 C 0.5420(2) 0.7136(3) 0.9523(2) 0.0155(10) Uani 1 1 d . . . . .
H10 H 0.562606 0.692738 0.921490 0.019 Uiso 1 1 calc R U . . .
C11 C 0.6602(3) 1.0072(3) 0.8851(2) 0.0225(12) Uani 1 1 d . . . . .
C12 C 0.6686(2) 0.6210(3) 1.1973(2) 0.0112(9) Uani 1 1 d . . . . .
H12 H 0.669454 0.586460 1.229332 0.013 Uiso 1 1 calc R U . . .
C13 C 0.6678(2) 0.7049(3) 1.20442(19) 0.0109(9) Uani 1 1 d . . . . .
C14 C 0.6686(2) 0.7553(3) 1.1573(2) 0.0127(10) Uani 1 1 d . . . . .
H14 H 0.668734 0.812701 1.161868 0.015 Uiso 1 1 calc R U . . .
C15 C 0.6469(2) 0.3089(3) 0.7025(2) 0.0134(10) Uani 1 1 d . . . . .
C16 C 0.6682(2) 0.6379(3) 1.0970(2) 0.0114(9) Uani 1 1 d . . . . .
H16 H 0.667729 0.614792 1.060453 0.014 Uiso 1 1 calc R U . . .
C17 C 0.6695(2) 0.7384(3) 1.2624(2) 0.0121(10) Uani 1 1 d . . . . .
C18 C 0.5753(2) 0.7441(3) 0.9998(2) 0.0129(10) Uani 1 1 d . . . . .
C19 C 0.5427(2) 0.7722(3) 1.0451(2) 0.0146(10) Uani 1 1 d . . . . .
H19 H 0.563838 0.791872 1.078022 0.018 Uiso 1 1 calc R U . . .
C20 C 0.4800(2) 0.7714(3) 1.0422(2) 0.0158(10) Uani 1 1 d . . . . .
C21 C 0.4478(2) 0.7429(3) 0.9947(2) 0.0167(10) Uani 1 1 d . . . . .
H21 H 0.404879 0.743340 0.992689 0.020 Uiso 1 1 calc R U . . .
C22 C 0.4791(2) 0.7139(3) 0.9503(2) 0.0165(10) Uani 1 1 d . . . . .
C23 C 0.4455(2) 0.6795(4) 0.8994(2) 0.0162(11) Uani 1 1 d . . . . .
C24 C 0.4474(2) 0.8023(4) 1.0913(2) 0.0174(11) Uani 1 1 d . . . . .
C25 C 0.6713(2) 0.7168(3) 0.9560(2) 0.0115(9) Uani 1 1 d . . . . .
H25A H 0.652039 0.666880 0.940095 0.014 Uiso 1 1 calc R U . . .
H25B H 0.712786 0.702381 0.969882 0.014 Uiso 1 1 calc R U . . .
C26 C 0.6750(2) 0.7797(3) 0.9091(2) 0.0115(9) Uani 1 1 d . . . . .
C27 C 0.6886(2) 0.7536(3) 0.8553(2) 0.0129(10) Uani 1 1 d . . . . .
H27 H 0.694090 0.697214 0.848277 0.015 Uiso 1 1 calc R U . . .
C28 C 0.6655(2) 0.8615(3) 0.9184(2) 0.0106(9) Uani 1 1 d . . . . .
H28 H 0.655330 0.879493 0.954632 0.013 Uiso 1 1 calc R U . A .
C29 C 0.6853(2) 0.8920(3) 0.8224(2) 0.0111(9) Uani 1 1 d . . . . .
H29 H 0.689446 0.930348 0.793023 0.013 Uiso 1 1 calc R U . A .
C30 C 0.6691(2) 0.7219(3) 1.1036(2) 0.0110(9) Uani 1 1 d . . . . .
C31 C 0.6583(2) 0.3911(3) 0.6952(2) 0.0136(10) Uani 1 1 d . . . . .
H31 H 0.661944 0.426294 0.726810 0.016 Uiso 1 1 calc R U . . .
C32 C 0.6645(2) 0.4221(3) 0.6412(2) 0.0139(10) Uani 1 1 d . . . . .
C33 C 0.6940(2) 0.8090(3) 0.8123(2) 0.0121(10) Uani 1 1 d . . . . .
C34 C 0.6599(2) 0.3698(3) 0.5949(2) 0.0128(10) Uani 1 1 d . . . . .
H34 H 0.664609 0.390830 0.558247 0.015 Uiso 1 1 calc R U . . .
C35 C 0.6789(3) 0.5100(3) 0.6331(2) 0.0183(11) Uani 1 1 d . . . . .
C36 C 0.6443(2) 0.2757(3) 0.7608(2) 0.0155(10) Uani 1 1 d . . . . .
C37 C 0.4189(3) 0.3064(4) 0.3953(2) 0.0182(11) Uani 1 1 d . . . . .
C38 C 0.6791(2) 0.2261(3) 0.2519(2) 0.0126(10) Uani 1 1 d . . . . .
C39 C 0.6731(2) 0.2003(3) 0.3121(2) 0.0122(10) Uani 1 1 d . . . . .
C40 C 0.6794(2) 0.1181(3) 0.3253(2) 0.0106(9) Uani 1 1 d . . . . .
H40 H 0.688862 0.080149 0.296942 0.013 Uiso 1 1 calc R U . . .
C41 C 0.6599(2) 0.1478(3) 0.4214(2) 0.0096(9) Uani 1 1 d . . . . .
H41 H 0.655089 0.129410 0.458649 0.012 Uiso 1 1 calc R U . . .
C42 C 0.6719(2) 0.0916(3) 0.3796(2) 0.0098(9) Uani 1 1 d . . . . .
C43 C 0.6550(2) 0.2308(3) 0.4092(2) 0.0105(9) Uani 1 1 d . . . . .
C44 C 0.6454(2) 0.2928(3) 0.45524(19) 0.0117(9) Uani 1 1 d . . . . .
H44A H 0.685253 0.313100 0.469734 0.014 Uiso 1 1 calc R U . . .
H44B H 0.622642 0.339585 0.438658 0.014 Uiso 1 1 calc R U . . .
C45 C 0.6613(2) 0.2570(3) 0.3538(2) 0.0118(9) Uani 1 1 d . . . . .
H45 H 0.657419 0.313139 0.344682 0.014 Uiso 1 1 calc R U . . .
C46 C 0.6773(2) 0.0019(3) 0.3923(2) 0.0140(10) Uani 1 1 d . . . . .
C47 C 0.5508(2) 0.2540(3) 0.4980(2) 0.0104(9) Uani 1 1 d . . . . .
C48 C 0.5195(2) 0.2216(3) 0.5422(2) 0.0149(10) Uani 1 1 d . . . . .
H48 H 0.541380 0.202432 0.574931 0.018 Uiso 1 1 calc R U . . .
C49 C 0.4565(2) 0.2169(3) 0.5388(2) 0.0150(10) Uani 1 1 d . . . . .
C50 C 0.4229(2) 0.2441(3) 0.4914(2) 0.0147(10) Uani 1 1 d . . . . .
H50 H 0.380024 0.241439 0.489517 0.018 Uiso 1 1 calc R U . . .
C51 C 0.4541(2) 0.2753(3) 0.4466(2) 0.0145(10) Uani 1 1 d . . . . .
C52 C 0.5168(2) 0.2802(3) 0.4498(2) 0.0119(9) Uani 1 1 d . . . . .
H52 H 0.537057 0.301596 0.418882 0.014 Uiso 1 1 calc R U . . .
C53 C 0.6485(2) 0.2871(3) 0.6020(2) 0.0127(10) Uani 1 1 d . . . . .
C54 C 0.4254(2) 0.1817(3) 0.5875(2) 0.0164(10) Uani 1 1 d . . . . .
C55 C 0.6472(2) 0.2305(3) 0.5516(2) 0.0130(10) Uani 1 1 d . . . . .
H55A H 0.689219 0.219970 0.541578 0.016 Uiso 1 1 calc R U . . .
H55B H 0.629441 0.177859 0.562464 0.016 Uiso 1 1 calc R U . . .
C56 C 0.6418(2) 0.2571(3) 0.6559(2) 0.0148(10) Uani 1 1 d . . . . .
H56 H 0.633579 0.200914 0.661106 0.018 Uiso 1 1 calc R U . . .
Zn7 Zn 0.54583(4) 0.48252(6) 0.28901(4) 0.0320(2) Uani 1 1 d . . . . .
O1W O 0.5437(2) 0.5046(3) 0.2038(2) 0.0374(11) Uani 1 1 d . . . . .
H1WA H 0.537650 0.458650 0.184824 0.056 Uiso 1 1 d R U . . .
H1WB H 0.579755 0.520733 0.193827 0.056 Uiso 1 1 d R U . . .
O2W O 0.4495(2) 0.4814(3) 0.2841(2) 0.0367(11) Uani 1 1 d . . . . .
H2WA H 0.435389 0.441851 0.305319 0.055 Uiso 1 1 d R U . . .
H2WB H 0.435399 0.468322 0.249587 0.055 Uiso 1 1 d R U . . .
O3W O 0.5547(3) 0.6072(3) 0.3086(2) 0.0444(13) Uani 1 1 d . . . . .
H3WA H 0.593230 0.622724 0.307849 0.067 Uiso 1 1 d R U . . .
H3WB H 0.545824 0.616851 0.344210 0.067 Uiso 1 1 d R U . . .
O4W O 0.5464(2) 0.3558(3) 0.2732(2) 0.0380(11) Uani 1 1 d . . . B 1
H4WA H 0.581627 0.332147 0.248380 0.057 Uiso 1 1 d R U . B 1
H4WB H 0.550910 0.371268 0.308483 0.057 Uiso 1 1 d R U . B 1
O5W O 0.6406(2) 0.4681(3) 0.2926(2) 0.0393(12) Uani 1 1 d . . . . .
H5WA H 0.654686 0.480069 0.259589 0.059 Uiso 1 1 d R U . . .
H5WB H 0.657961 0.504433 0.315520 0.059 Uiso 1 1 d R U . . .
O6W O 0.5415(3) 0.4550(4) 0.3731(2) 0.0488(14) Uani 1 1 d . . . . .
H6WA H 0.517828 0.413088 0.376861 0.073 Uiso 1 1 d R U . . .
H6WB H 0.523476 0.494526 0.390112 0.073 Uiso 1 1 d R U . . .
O28 O 0.4919(3) 0.3746(5) 0.2917(3) 0.0171(15) Uani 0.5 1 d . U P B -1
H28A H 0.467347 0.361833 0.321151 0.026 Uiso 0.5 1 d R U P B -1
H28B H 0.513153 0.327507 0.284551 0.026 Uiso 0.5 1 d R U P B -1
loop_
_atom_site_aniso_label
_atom_site_aniso_U_11
_atom_site_aniso_U_22
_atom_site_aniso_U_33
_atom_site_aniso_U_23
_atom_site_aniso_U_13
_atom_site_aniso_U_12
Zn1 0.0134(3) 0.0113(3) 0.0066(3) -0.0010(2) 0.0008(2) 0.0013(2)
Zn2 0.0179(3) 0.0087(3) 0.0067(3) -0.0018(2) 0.0033(2) -0.0019(2)
Zn3 0.0135(3) 0.0090(3) 0.0063(3) -0.0006(2) 0.0024(2) -0.0020(2)
Zn5 0.0194(4) 0.0102(3) 0.0075(3) 0.0020(2) 0.0044(3) 0.0030(3)
Zn6 0.0213(4) 0.0084(3) 0.0072(3) 0.0001(2) 0.0032(3) 0.0023(3)
Zn4 0.0179(4) 0.0125(3) 0.0074(3) -0.0021(2) 0.0033(3) -0.0021(3)
O1 0.025(2) 0.0114(17) 0.0162(18) 0.0028(14) -0.0006(15) 0.0008(15)
O2 0.062(3) 0.017(2) 0.0142(19) -0.0033(16) 0.010(2) -0.003(2)
O3 0.0223(19) 0.0170(18) 0.0092(16) 0.0005(14) 0.0006(14) -0.0036(15)
O4 0.027(2) 0.0133(17) 0.0076(16) -0.0008(13) -0.0004(14) 0.0001(15)
O5 0.022(2) 0.077(4) 0.022(2) -0.025(2) 0.0080(18) -0.007(2)
O6 0.0176(19) 0.0183(19) 0.0218(19) 0.0010(15) 0.0101(15) 0.0002(15)
O7 0.019(2) 0.060(3) 0.027(2) -0.027(2) -0.0057(17) 0.004(2)
O7W 0.026(2) 0.022(2) 0.034(2) 0.0117(18) -0.0073(18) 0.0007(17)
O26 0.0136(17) 0.0102(16) 0.0042(14) 0.0001(12) 0.0013(12) -0.0013(13)
O8 0.022(2) 0.024(2) 0.0168(18) -0.0024(16) -0.0029(15) -0.0027(16)
O8W 0.0207(19) 0.0147(18) 0.0149(18) 0.0056(14) 0.0053(15) 0.0023(15)
O9 0.121(5) 0.015(2) 0.030(3) -0.0059(19) 0.042(3) 0.000(3)
O9W 0.041(3) 0.015(2) 0.051(3) -0.005(2) 0.007(2) 0.0007(19)
O10 0.030(2) 0.0117(18) 0.0194(19) -0.0002(15) 0.0077(16) 0.0013(16)
O10W 0.027(2) 0.032(2) 0.044(3) -0.027(2) -0.009(2) -0.0001(19)
O11 0.021(2) 0.0156(18) 0.0187(19) -0.0023(15) -0.0056(15) -0.0023(15)
O11W 0.047(3) 0.015(2) 0.032(2) -0.0021(17) 0.008(2) -0.0014(19)
O12 0.095(4) 0.019(2) 0.017(2) 0.0027(17) 0.018(2) -0.012(2)
O12W 0.0211(19) 0.0150(18) 0.0100(16) -0.0031(13) 0.0022(14) -0.0003(14)
O13 0.059(3) 0.017(2) 0.0105(18) -0.0068(15) 0.0142(19) -0.008(2)
O14 0.036(2) 0.0181(19) 0.0110(17) 0.0025(14) 0.0128(16) 0.0056(16)
O15 0.024(2) 0.023(2) 0.0068(16) -0.0019(14) -0.0024(14) -0.0010(16)
O16 0.033(2) 0.022(2) 0.0091(17) 0.0010(15) -0.0008(15) -0.0077(17)
O17 0.020(2) 0.057(3) 0.031(2) 0.027(2) 0.0056(18) 0.001(2)
O18 0.0140(19) 0.022(2) 0.025(2) 0.0021(16) -0.0038(15) -0.0021(15)
O19 0.0164(18) 0.0166(18) 0.0207(19) 0.0018(15) 0.0094(15) -0.0006(15)
O20 0.020(2) 0.036(2) 0.023(2) 0.0118(18) 0.0067(17) 0.0056(18)
O21 0.044(3) 0.0136(18) 0.0128(18) 0.0047(15) 0.0043(17) 0.0068(17)
O22 0.028(2) 0.0108(17) 0.0139(17) 0.0001(14) 0.0088(15) 0.0040(15)
O23 0.034(2) 0.0151(18) 0.0103(17) 0.0037(14) 0.0074(15) 0.0082(16)
O24 0.032(2) 0.0126(17) 0.0095(17) -0.0003(14) 0.0109(15) -0.0004(15)
O25 0.0176(18) 0.0114(16) 0.0060(15) -0.0002(12) 0.0037(13) 0.0001(13)
N1 0.014(2) 0.020(2) 0.0034(18) -0.0006(16) 0.0014(15) -0.0022(17)
N2 0.013(2) 0.022(2) 0.0040(18) 0.0015(16) 0.0005(15) -0.0022(17)
C5 0.021(3) 0.011(2) 0.011(2) -0.0020(18) 0.006(2) -0.0009(19)
C6 0.015(2) 0.011(2) 0.014(2) -0.0022(19) 0.0071(19) -0.0024(19)
C7 0.021(3) 0.019(3) 0.008(2) 0.0019(19) 0.0035(19) 0.003(2)
C8 0.012(2) 0.017(2) 0.009(2) 0.0037(19) 0.0005(18) -0.0037(19)
C9 0.013(2) 0.012(2) 0.011(2) 0.0011(18) 0.0013(18) 0.0019(18)
C10 0.019(3) 0.021(3) 0.007(2) 0.0018(19) -0.0008(19) -0.001(2)
C11 0.036(3) 0.012(3) 0.020(3) -0.002(2) 0.014(2) -0.003(2)
C12 0.010(2) 0.015(2) 0.009(2) 0.0020(18) 0.0003(17) 0.0014(18)
C13 0.012(2) 0.015(2) 0.006(2) 0.0002(18) 0.0000(17) -0.0003(19)
C14 0.017(2) 0.011(2) 0.009(2) 0.0014(18) -0.0004(19) -0.0009(19)
C15 0.014(2) 0.018(3) 0.007(2) -0.0011(19) 0.0000(18) -0.003(2)
C16 0.011(2) 0.018(2) 0.005(2) -0.0009(18) 0.0012(17) -0.0022(19)
C17 0.011(2) 0.016(2) 0.009(2) -0.0010(19) -0.0019(18) -0.0004(19)
C18 0.015(2) 0.016(2) 0.008(2) 0.0048(18) 0.0033(19) -0.0001(19)
C19 0.015(2) 0.024(3) 0.005(2) 0.0022(19) 0.0004(18) -0.001(2)
C20 0.017(3) 0.023(3) 0.008(2) 0.001(2) 0.0057(19) 0.001(2)
C21 0.012(2) 0.026(3) 0.013(2) 0.001(2) 0.0008(19) -0.004(2)
C22 0.016(3) 0.023(3) 0.011(2) 0.000(2) -0.0017(19) -0.003(2)
C23 0.009(2) 0.028(3) 0.012(2) -0.001(2) -0.0006(19) -0.005(2)
C24 0.013(2) 0.029(3) 0.010(2) 0.001(2) 0.0031(19) 0.001(2)
C25 0.011(2) 0.013(2) 0.011(2) 0.0024(18) 0.0012(18) 0.0015(18)
C26 0.012(2) 0.015(2) 0.007(2) 0.0006(18) -0.0004(18) -0.0008(18)
C27 0.017(2) 0.010(2) 0.011(2) -0.0010(18) 0.0013(19) 0.0014(19)
C28 0.010(2) 0.015(2) 0.007(2) -0.0012(18) 0.0045(17) -0.0033(18)
C29 0.009(2) 0.013(2) 0.011(2) 0.0016(18) 0.0031(18) -0.0017(18)
C30 0.012(2) 0.014(2) 0.007(2) 0.0037(18) -0.0006(17) -0.0006(18)
C31 0.014(2) 0.019(3) 0.007(2) -0.0011(19) -0.0019(18) -0.004(2)
C32 0.015(2) 0.016(2) 0.011(2) -0.0022(19) 0.0019(19) -0.0034(19)
C33 0.011(2) 0.016(2) 0.009(2) -0.0038(19) 0.0004(18) -0.0004(19)
C34 0.017(2) 0.015(2) 0.006(2) 0.0020(18) 0.0017(18) -0.0014(19)
C35 0.025(3) 0.017(3) 0.014(2) 0.000(2) 0.005(2) -0.002(2)
C36 0.019(3) 0.019(3) 0.009(2) 0.0004(19) -0.0001(19) -0.005(2)
C37 0.020(3) 0.023(3) 0.012(2) -0.003(2) 0.008(2) 0.002(2)
C38 0.018(2) 0.014(2) 0.006(2) -0.0028(18) 0.0033(18) -0.0019(19)
C39 0.019(3) 0.011(2) 0.007(2) 0.0010(18) 0.0035(18) 0.0012(19)
C40 0.008(2) 0.013(2) 0.011(2) -0.0005(18) 0.0045(17) -0.0015(18)
C41 0.004(2) 0.016(2) 0.009(2) 0.0001(18) 0.0025(17) -0.0004(17)
C42 0.009(2) 0.010(2) 0.010(2) 0.0005(18) 0.0019(17) -0.0001(17)
C43 0.011(2) 0.013(2) 0.008(2) -0.0028(18) 0.0020(17) -0.0004(18)
C44 0.018(2) 0.012(2) 0.005(2) -0.0029(18) 0.0045(18) -0.0025(19)
C45 0.014(2) 0.013(2) 0.009(2) -0.0005(18) 0.0035(18) -0.0029(19)
C46 0.017(2) 0.013(2) 0.013(2) 0.0009(19) 0.0052(19) 0.0011(19)
C47 0.010(2) 0.013(2) 0.009(2) -0.0029(18) 0.0039(18) -0.0006(18)
C48 0.016(3) 0.019(3) 0.010(2) -0.0006(19) 0.0033(19) 0.002(2)
C49 0.018(3) 0.016(2) 0.012(2) 0.0008(19) 0.004(2) 0.001(2)
C50 0.013(2) 0.017(2) 0.014(2) -0.0018(19) 0.0035(19) -0.002(2)
C51 0.015(2) 0.018(3) 0.010(2) -0.0043(19) -0.0001(19) 0.001(2)
C52 0.013(2) 0.015(2) 0.008(2) -0.0011(18) 0.0053(18) -0.0004(19)
C53 0.013(2) 0.016(2) 0.008(2) -0.0018(19) -0.0014(18) -0.0023(19)
C54 0.018(3) 0.019(3) 0.013(2) 0.000(2) 0.006(2) -0.001(2)
C55 0.017(2) 0.014(2) 0.008(2) -0.0006(18) 0.0006(19) 0.0033(19)
C56 0.021(3) 0.014(2) 0.010(2) 0.0009(19) -0.0005(19) -0.005(2)
Zn7 0.0286(5) 0.0362(5) 0.0316(5) 0.0000(4) 0.0050(4) -0.0004(4)
O1W 0.031(3) 0.049(3) 0.032(2) -0.004(2) 0.004(2) -0.009(2)
O2W 0.021(2) 0.044(3) 0.045(3) 0.011(2) 0.003(2) 0.001(2)
O3W 0.046(3) 0.036(3) 0.052(3) -0.005(2) 0.008(3) -0.006(2)
O4W 0.031(3) 0.040(3) 0.043(3) -0.007(2) 0.004(2) -0.004(2)
O5W 0.030(3) 0.039(3) 0.049(3) -0.007(2) -0.001(2) -0.003(2)
O6W 0.062(4) 0.056(3) 0.029(3) 0.004(2) 0.003(2) -0.016(3)
O28 0.009(3) 0.032(4) 0.010(3) -0.002(3) 0.004(3) -0.003(3)
loop_
_atom_type_symbol
_atom_type_description
_atom_type_scat_dispersion_real
_atom_type_scat_dispersion_imag
_atom_type_scat_source
C C 0.0181 0.0091 'International Tables Vol C Tables 4.2.6.8 and 6.1.1.4'
H H 0.0000 0.0000 'International Tables Vol C Tables 4.2.6.8 and 6.1.1.4'
N N 0.0311 0.0180 'International Tables Vol C Tables 4.2.6.8 and 6.1.1.4'
O O 0.0492 0.0322 'International Tables Vol C Tables 4.2.6.8 and 6.1.1.4'
Zn Zn -1.5491 0.6778 'International Tables Vol C Tables 4.2.6.8 and 6.1.1.4'
loop_
_geom_angle_atom_site_label_1
_geom_angle_atom_site_label_2
_geom_angle_atom_site_label_3
_geom_angle
_geom_angle_site_symmetry_1
_geom_angle_site_symmetry_3
_geom_angle_publ_flag
O1 Zn1 O26 116.15(16) . . ?
O1 Zn1 O8 125.38(17) . 3_667 ?
O1 Zn1 O23 96.85(16) . 1_556 ?
O26 Zn1 O23 110.05(15) . 1_556 ?
O8 Zn1 O26 99.66(16) 3_667 . ?
O8 Zn1 O23 108.39(17) 3_667 1_556 ?
O26 Zn2 O3 88.01(14) . 2_647 ?
O26 Zn2 O12W 89.52(14) . . ?
O26 Zn2 O24 92.76(13) . 1_556 ?
O10W Zn2 O3 176.95(19) . 2_647 ?
O10W Zn2 O26 89.23(17) . . ?
O10W Zn2 O11W 91.6(2) . . ?
O10W Zn2 O12W 91.71(18) . . ?
O10W Zn2 O24 95.37(18) . 1_556 ?
O11W Zn2 O3 91.11(17) . 2_647 ?
O11W Zn2 O26 178.21(17) . . ?
O11W Zn2 O12W 88.88(17) . . ?
O11W Zn2 O24 88.73(16) . 1_556 ?
O12W Zn2 O3 86.97(14) . 2_647 ?
O24 Zn2 O3 86.06(15) 1_556 2_647 ?
O24 Zn2 O12W 172.59(16) 1_556 . ?
O4 Zn3 O26 100.59(15) 2_647 . ?
O19 Zn3 O4 122.04(16) 4_666 2_647 ?
O19 Zn3 O26 101.88(15) 4_666 . ?
O22 Zn3 O4 101.40(15) 2_656 2_647 ?
O22 Zn3 O26 112.51(16) 2_656 . ?
O22 Zn3 O19 117.42(16) 2_656 4_666 ?
O7W Zn5 O8W 91.47(17) . . ?
O7W Zn5 O14 90.33(18) . . ?
O7W Zn5 O15 178.69(17) . 2_656 ?
O7W Zn5 O25 91.43(16) . . ?
O8W Zn5 O15 89.80(15) . 2_656 ?
O8W Zn5 O25 86.39(14) . . ?
O9W Zn5 O7W 90.47(19) . . ?
O9W Zn5 O8W 89.29(18) . . ?
O9W Zn5 O14 92.58(18) . . ?
O9W Zn5 O15 89.84(18) . 2_656 ?
O9W Zn5 O25 175.32(18) . . ?
O14 Zn5 O8W 177.39(15) . . ?
O14 Zn5 O15 88.38(16) . 2_656 ?
O14 Zn5 O25 91.68(14) . . ?
O25 Zn5 O15 88.35(14) . 2_656 ?
O6 Zn6 O10 121.00(16) 4_675 2_646 ?
O6 Zn6 O16 125.42(18) 4_675 2_656 ?
O6 Zn6 O25 96.91(15) 4_675 . ?
O10 Zn6 O16 101.49(17) 2_646 2_656 ?
O10 Zn6 O25 107.59(16) 2_646 . ?
O16 Zn6 O25 101.36(15) 2_656 . ?
O11 Zn4 O13 99.63(17) . . ?
O11 Zn4 O18 117.22(16) . 3_666 ?
O11 Zn4 O25 122.12(16) . . ?
O13 Zn4 O18 115.83(19) . 3_666 ?
O13 Zn4 O25 105.51(17) . . ?
O18 Zn4 O25 97.00(16) 3_666 . ?
C5 O1 Zn1 109.8(3) . . ?
C17 O3 Zn2 123.1(3) . 2_657 ?
C17 O4 Zn3 108.8(3) . 2_657 ?
C24 O6 Zn6 114.7(4) . 4_576 ?
Zn5 O7W H7WA 110.8 . . ?
Zn5 O7W H7WB 109.9 . . ?
H7WA O7W H7WB 103.3 . . ?
Zn1 O26 Zn2 110.89(15) . . ?
Zn1 O26 Zn3 119.35(16) . . ?
Zn1 O26 H26 106.0 . . ?
Zn2 O26 H26 106.0 . . ?
Zn3 O26 Zn2 107.61(15) . . ?
Zn3 O26 H26 106.0 . . ?
C23 O8 Zn1 123.8(4) . 3_667 ?
Zn5 O8W H8WA 109.4 . . ?
Zn5 O8W H8WB 109.6 . . ?
H8WA O8W H8WB 104.4 . . ?
Zn5 O9W H9WA 127.9 . . ?
Zn5 O9W H9WB 129.2 . . ?
H9WA O9W H9WB 103.0 . . ?
C11 O10 Zn6 122.1(4) . 2_656 ?
Zn2 O10W H10A 111.5 . . ?
Zn2 O10W H10B 111.0 . . ?
H10A O10W H10B 102.7 . . ?
C35 O11 Zn4 115.9(3) . . ?
Zn2 O11W H11A 111.9 . . ?
Zn2 O11W H11B 110.7 . . ?
H11A O11W H11B 102.5 . . ?
Zn2 O12W H12A 109.2 . . ?
Zn2 O12W H12B 109.6 . . ?
H12A O12W H12B 104.4 . . ?
C7 O13 Zn4 120.2(3) . . ?
C7 O14 Zn5 141.9(4) . . ?
C36 O15 Zn5 122.5(4) . 2_646 ?
C36 O16 Zn6 110.1(3) . 2_646 ?
C37 O17 H28A 140.1 . . ?
C37 O18 Zn4 122.7(4) . 3_666 ?
C54 O19 Zn3 119.7(3) . 4_565 ?
C46 O22 Zn3 124.3(3) . 2_646 ?
C38 O23 Zn1 120.5(3) . 1_554 ?
C38 O24 Zn2 143.5(3) . 1_554 ?
Zn5 O25 H25 105.9 . . ?
Zn6 O25 Zn5 108.10(16) . . ?
Zn6 O25 H25 105.9 . . ?
Zn4 O25 Zn5 111.18(16) . . ?
Zn4 O25 Zn6 118.90(17) . . ?
Zn4 O25 H25 105.9 . . ?
C44 N1 C55 119.3(4) . . ?
C47 N1 C44 120.7(4) . . ?
C47 N1 C55 119.8(4) . . ?
C18 N2 C8 119.8(4) . . ?
C18 N2 C25 120.8(4) . . ?
C25 N2 C8 119.2(4) . . ?
O1 C5 C9 117.2(4) . . ?
O2 C5 O1 121.5(5) . . ?
O2 C5 C9 121.3(5) . . ?
C28 C6 C11 120.9(5) . . ?
C29 C6 C11 119.4(5) . . ?
C29 C6 C28 119.6(5) . . ?
O13 C7 C33 116.2(5) . . ?
O14 C7 O13 125.2(5) . . ?
O14 C7 C33 118.6(5) . . ?
N2 C8 H8A 108.9 . . ?
N2 C8 H8B 108.9 . . ?
N2 C8 C30 113.4(4) . . ?
H8A C8 H8B 107.7 . . ?
C30 C8 H8A 108.9 . . ?
C30 C8 H8B 108.9 . . ?
C12 C9 C5 120.3(4) . . ?
C12 C9 C16 120.0(5) . . ?
C16 C9 C5 119.8(4) . . ?
C18 C10 H10 119.8 . . ?
C22 C10 H10 119.8 . . ?
C22 C10 C18 120.4(5) . . ?
O9 C11 O10 124.0(5) . . ?
O9 C11 C6 120.1(5) . . ?
O10 C11 C6 115.9(5) . . ?
C9 C12 H12 119.7 . . ?
C9 C12 C13 120.5(5) . . ?
C13 C12 H12 119.7 . . ?
C12 C13 C14 119.3(4) . . ?
C12 C13 C17 118.8(4) . . ?
C14 C13 C17 121.8(5) . . ?
C13 C14 H14 119.8 . . ?
C30 C14 C13 120.5(5) . . ?
C30 C14 H14 119.8 . . ?
C31 C15 C36 119.3(4) . . ?
C31 C15 C56 120.0(5) . . ?
C56 C15 C36 120.6(5) . . ?
C9 C16 H16 120.0 . . ?
C30 C16 C9 120.0(4) . . ?
C30 C16 H16 120.0 . . ?
O3 C17 O4 122.0(5) . . ?
O3 C17 C13 119.5(5) . . ?
O4 C17 C13 118.5(4) . . ?
N2 C18 C10 121.6(5) . . ?
N2 C18 C19 120.9(5) . . ?
C19 C18 C10 117.5(5) . . ?
C18 C19 H19 119.5 . . ?
C20 C19 C18 120.9(5) . . ?
C20 C19 H19 119.5 . . ?
C19 C20 C24 118.8(5) . . ?
C21 C20 C19 120.9(5) . . ?
C21 C20 C24 120.3(5) . . ?
C20 C21 H21 120.5 . . ?
C22 C21 C20 118.9(5) . . ?
C22 C21 H21 120.5 . . ?
C10 C22 C23 118.7(5) . . ?
C21 C22 C10 121.3(5) . . ?
C21 C22 C23 120.0(5) . . ?
O7 C23 O8 124.2(5) . . ?
O7 C23 C22 121.0(5) . . ?
O8 C23 C22 114.8(5) . . ?
O5 C24 O6 122.8(5) . . ?
O5 C24 C20 121.3(5) . . ?
O6 C24 C20 115.9(5) . . ?
N2 C25 H25A 108.7 . . ?
N2 C25 H25B 108.7 . . ?
N2 C25 C26 114.1(4) . . ?
H25A C25 H25B 107.6 . . ?
C26 C25 H25A 108.7 . . ?
C26 C25 H25B 108.7 . . ?
C27 C26 C25 119.0(4) . . ?
C28 C26 C25 121.7(4) . . ?
C28 C26 C27 119.2(4) . . ?
C26 C27 H27 119.7 . . ?
C33 C27 C26 120.6(5) . . ?
C33 C27 H27 119.7 . . ?
C6 C28 H28 119.7 . . ?
C26 C28 C6 120.7(4) . . ?
C26 C28 H28 119.7 . . ?
C6 C29 H29 120.0 . . ?
C6 C29 C33 120.1(5) . . ?
C33 C29 H29 120.0 . . ?
C14 C30 C8 120.1(4) . . ?
C16 C30 C8 120.2(4) . . ?
C16 C30 C14 119.6(4) . . ?
C15 C31 H31 120.0 . . ?
C15 C31 C32 119.9(5) . . ?
C32 C31 H31 120.0 . . ?
C31 C32 C34 119.7(5) . . ?
C31 C32 C35 120.3(5) . . ?
C34 C32 C35 119.9(5) . . ?
C27 C33 C7 121.6(5) . . ?
C27 C33 C29 119.7(4) . . ?
C29 C33 C7 118.5(5) . . ?
C32 C34 H34 119.7 . . ?
C53 C34 C32 120.6(5) . . ?
C53 C34 H34 119.7 . . ?
O11 C35 C32 117.3(5) . . ?
O12 C35 O11 122.2(5) . . ?
O12 C35 C32 120.5(5) . . ?
O15 C36 C15 118.7(5) . . ?
O16 C36 O15 123.5(5) . . ?
O16 C36 C15 117.8(5) . . ?
O17 C37 O18 124.1(5) . . ?
O17 C37 C51 119.7(5) . . ?
O18 C37 C51 116.2(5) . . ?
O23 C38 C39 117.0(4) . . ?
O24 C38 O23 125.1(5) . . ?
O24 C38 C39 117.9(5) . . ?
C40 C39 C38 118.3(4) . . ?
C40 C39 C45 120.5(4) . . ?
C45 C39 C38 121.3(4) . . ?
C39 C40 H40 120.0 . . ?
C42 C40 C39 120.0(4) . . ?
C42 C40 H40 120.0 . . ?
C42 C41 H41 119.5 . . ?
C42 C41 C43 120.9(4) . . ?
C43 C41 H41 119.5 . . ?
C40 C42 C41 119.8(4) . . ?
C40 C42 C46 118.9(4) . . ?
C41 C42 C46 121.4(4) . . ?
C41 C43 C44 121.0(4) . . ?
C41 C43 C45 119.0(4) . . ?
C45 C43 C44 119.9(4) . . ?
N1 C44 C43 114.4(4) . . ?
N1 C44 H44A 108.7 . . ?
N1 C44 H44B 108.7 . . ?
C43 C44 H44A 108.7 . . ?
C43 C44 H44B 108.7 . . ?
H44A C44 H44B 107.6 . . ?
C39 C45 C43 119.8(5) . . ?
C39 C45 H45 120.1 . . ?
C43 C45 H45 120.1 . . ?
O21 C46 O22 125.4(5) . . ?
O21 C46 C42 120.6(5) . . ?
O22 C46 C42 114.0(4) . . ?
N1 C47 C48 121.0(5) . . ?
N1 C47 C52 121.2(4) . . ?
C48 C47 C52 117.8(5) . . ?
C47 C48 H48 119.6 . . ?
C47 C48 C49 120.9(5) . . ?
C49 C48 H48 119.6 . . ?
C48 C49 C54 118.5(5) . . ?
C50 C49 C48 121.2(5) . . ?
C50 C49 C54 120.3(5) . . ?
C49 C50 H50 120.9 . . ?
C49 C50 C51 118.1(5) . . ?
C51 C50 H50 120.9 . . ?
C50 C51 C37 119.2(5) . . ?
C52 C51 C37 119.9(5) . . ?
C52 C51 C50 120.9(5) . . ?
C47 C52 H52 119.5 . . ?
C51 C52 C47 121.1(4) . . ?
C51 C52 H52 119.5 . . ?
C34 C53 C55 119.7(4) . . ?
C56 C53 C34 119.2(5) . . ?
C56 C53 C55 121.0(5) . . ?
O19 C54 C49 115.7(5) . . ?
O20 C54 O19 123.9(5) . . ?
O20 C54 C49 120.3(5) . . ?
N1 C55 C53 114.4(4) . . ?
N1 C55 H55A 108.6 . . ?
N1 C55 H55B 108.6 . . ?
C53 C55 H55A 108.6 . . ?
C53 C55 H55B 108.6 . . ?
H55A C55 H55B 107.6 . . ?
C15 C56 H56 119.7 . . ?
C53 C56 C15 120.6(5) . . ?
C53 C56 H56 119.7 . . ?
O1W Zn7 O2W 88.7(2) . . ?
O1W Zn7 O3W 92.6(2) . . ?
O1W Zn7 O4W 89.9(2) . . ?
O1W Zn7 H4WB 114.2 . . ?
O1W Zn7 O5W 91.7(2) . . ?
O1W Zn7 O6W 175.3(2) . . ?
O1W Zn7 O28 101.0(2) . . ?
O2W Zn7 H4WB 93.0 . . ?
O2W Zn7 O28 55.6(2) . . ?
O3W Zn7 O2W 95.8(2) . . ?
O3W Zn7 O4W 173.8(2) . . ?
O3W Zn7 H4WB 152.0 . . ?
O3W Zn7 O5W 91.1(2) . . ?
O3W Zn7 O28 147.5(3) . . ?
O4W Zn7 O2W 89.9(2) . . ?
O4W Zn7 H4WB 24.5 . . ?
O4W Zn7 O28 36.8(2) . . ?
O5W Zn7 O2W 173.0(2) . . ?
O5W Zn7 O4W 83.2(2) . . ?
O5W Zn7 H4WB 80.5 . . ?
O5W Zn7 O28 117.5(3) . . ?
O6W Zn7 O2W 87.3(2) . . ?
O6W Zn7 O3W 90.3(2) . . ?
O6W Zn7 O4W 87.6(2) . . ?
O6W Zn7 H4WB 63.5 . . ?
O6W Zn7 O5W 92.0(2) . . ?
O6W Zn7 O28 74.6(2) . . ?
O28 Zn7 H4WB 38.5 . . ?
Zn7 O1W H1WA 110.3 . . ?
Zn7 O1W H1WB 110.1 . . ?
H1WA O1W H1WB 103.5 . . ?
Zn7 O2W H2WA 110.9 . . ?
Zn7 O2W H2WB 110.7 . . ?
H2WA O2W H2WB 103.3 . . ?
Zn7 O3W H3WA 110.5 . . ?
Zn7 O3W H3WB 111.1 . . ?
H3WA O3W H3WB 103.2 . . ?
Zn7 O4W H4WA 117.7 . . ?
Zn7 O4W H4WB 63.1 . . ?
H4WA O4W H4WB 125.7 . . ?
O28 O4W Zn7 72.7(4) . . ?
O28 O4W H4WA 162.4 . . ?
O28 O4W H4WB 71.3 . . ?
Zn7 O5W H5WA 109.8 . . ?
Zn7 O5W H5WB 110.4 . . ?
H5WA O5W H5WB 103.8 . . ?
Zn7 O6W H6WA 109.4 . . ?
Zn7 O6W H6WB 109.5 . . ?
H6WA O6W H6WB 104.3 . . ?
Zn7 O28 H28A 123.8 . . ?
Zn7 O28 H28B 113.3 . . ?
O4W O28 Zn7 70.5(4) . . ?
O4W O28 H28A 139.8 . . ?
O4W O28 H28B 43.3 . . ?
H28A O28 H28B 105.8 . . ?
loop_
_geom_bond_atom_site_label_1
_geom_bond_atom_site_label_2
_geom_bond_distance
_geom_bond_site_symmetry_2
_geom_bond_publ_flag
Zn1 O1 1.946(4) . ?
Zn1 O26 1.969(3) . ?
Zn1 O8 1.948(4) 3_667 ?
Zn1 O23 1.979(4) 1_556 ?
Zn2 O3 2.166(4) 2_647 ?
Zn2 O26 2.091(3) . ?
Zn2 O10W 2.070(4) . ?
Zn2 O11W 2.073(4) . ?
Zn2 O12W 2.113(4) . ?
Zn2 O24 2.091(4) 1_556 ?
Zn3 O4 1.984(4) 2_647 ?
Zn3 O26 2.007(3) . ?
Zn3 O19 1.945(4) 4_666 ?
Zn3 O22 1.918(4) 2_656 ?
Zn5 O7W 2.084(4) . ?
Zn5 O8W 2.103(4) . ?
Zn5 O9W 2.058(4) . ?
Zn5 O14 2.088(4) . ?
Zn5 O15 2.145(4) 2_656 ?
Zn5 O25 2.124(3) . ?
Zn6 O6 1.938(4) 4_675 ?
Zn6 O10 1.943(4) 2_646 ?
Zn6 O16 1.972(4) 2_656 ?
Zn6 O25 2.026(4) . ?
Zn4 O11 1.941(4) . ?
Zn4 O13 1.958(4) . ?
Zn4 O18 1.960(4) 3_666 ?
Zn4 O25 1.980(4) . ?
O1 C5 1.275(6) . ?
O2 C5 1.237(7) . ?
O3 C17 1.257(6) . ?
O4 C17 1.270(6) . ?
O5 C24 1.235(7) . ?
O6 C24 1.282(7) . ?
O7 C23 1.226(7) . ?
O7W H7WA 0.8882 . ?
O7W H7WB 0.8874 . ?
O26 H26 1.0000 . ?
O8 C23 1.283(7) . ?
O8W H8WA 0.8721 . ?
O8W H8WB 0.8725 . ?
O9 C11 1.245(7) . ?
O9W H9WA 0.9634 . ?
O9W H9WB 0.9641 . ?
O10 C11 1.270(7) . ?
O10W H10A 0.9017 . ?
O10W H10B 0.9005 . ?
O11 C35 1.273(7) . ?
O11W H11A 0.8982 . ?
O11W H11B 0.8968 . ?
O12 C35 1.243(7) . ?
O12W H12A 0.8715 . ?
O12W H12B 0.8715 . ?
O13 C7 1.267(7) . ?
O14 C7 1.247(7) . ?
O15 C36 1.270(6) . ?
O16 C36 1.259(7) . ?
O17 C37 1.241(7) . ?
O17 H28A 1.2116 . ?
O18 C37 1.272(7) . ?
O19 C54 1.282(7) . ?
O20 C54 1.236(7) . ?
O21 C46 1.235(6) . ?
O22 C46 1.269(6) . ?
O23 C38 1.267(6) . ?
O24 C38 1.247(6) . ?
O25 H25 1.0000 . ?
N1 C44 1.453(6) . ?
N1 C47 1.382(6) . ?
N1 C55 1.460(6) . ?
N2 C8 1.458(6) . ?
N2 C18 1.379(7) . ?
N2 C25 1.451(6) . ?
C5 C9 1.498(7) . ?
C6 C11 1.501(7) . ?
C6 C28 1.398(7) . ?
C6 C29 1.385(7) . ?
C7 C33 1.499(7) . ?
C8 H8A 0.9900 . ?
C8 H8B 0.9900 . ?
C8 C30 1.516(6) . ?
C9 C12 1.385(7) . ?
C9 C16 1.394(7) . ?
C10 H10 0.9500 . ?
C10 C18 1.410(7) . ?
C10 C22 1.392(8) . ?
C12 H12 0.9500 . ?
C12 C13 1.388(7) . ?
C13 C14 1.396(7) . ?
C13 C17 1.485(6) . ?
C14 H14 0.9500 . ?
C14 C30 1.392(7) . ?
C15 C31 1.387(7) . ?
C15 C36 1.496(7) . ?
C15 C56 1.399(7) . ?
C16 H16 0.9500 . ?
C16 C30 1.389(7) . ?
C18 C19 1.408(7) . ?
C19 H19 0.9500 . ?
C19 C20 1.387(7) . ?
C20 C21 1.387(7) . ?
C20 C24 1.497(7) . ?
C21 H21 0.9500 . ?
C21 C22 1.380(8) . ?
C22 C23 1.501(7) . ?
C25 H25A 0.9900 . ?
C25 H25B 0.9900 . ?
C25 C26 1.527(7) . ?
C26 C27 1.400(7) . ?
C26 C28 1.380(7) . ?
C27 H27 0.9500 . ?
C27 C33 1.381(7) . ?
C28 H28 0.9500 . ?
C29 H29 0.9500 . ?
C29 C33 1.400(7) . ?
C31 H31 0.9500 . ?
C31 C32 1.396(7) . ?
C32 C34 1.399(7) . ?
C32 C35 1.494(7) . ?
C34 H34 0.9500 . ?
C34 C53 1.395(7) . ?
C37 C51 1.503(7) . ?
C38 C39 1.509(6) . ?
C39 C40 1.392(7) . ?
C39 C45 1.397(7) . ?
C40 H40 0.9500 . ?
C40 C42 1.385(7) . ?
C41 H41 0.9500 . ?
C41 C42 1.393(7) . ?
C41 C43 1.398(7) . ?
C42 C46 1.507(7) . ?
C43 C44 1.521(6) . ?
C43 C45 1.401(7) . ?
C44 H44A 0.9900 . ?
C44 H44B 0.9900 . ?
C45 H45 0.9500 . ?
C47 C48 1.396(7) . ?
C47 C52 1.408(7) . ?
C48 H48 0.9500 . ?
C48 C49 1.397(7) . ?
C49 C50 1.392(7) . ?
C49 C54 1.498(7) . ?
C50 H50 0.9500 . ?
C50 C51 1.400(7) . ?
C51 C52 1.391(7) . ?
C52 H52 0.9500 . ?
C53 C55 1.518(7) . ?
C53 C56 1.390(7) . ?
C55 H55A 0.9900 . ?
C55 H55B 0.9900 . ?
C56 H56 0.9500 . ?
Zn7 O1W 2.061(5) . ?
Zn7 O2W 2.132(5) . ?
Zn7 O3W 2.108(5) . ?
Zn7 O4W 2.116(5) . ?
Zn7 H4WB 1.8876 . ?
Zn7 O5W 2.111(5) . ?
Zn7 O6W 2.062(5) . ?
Zn7 O28 2.142(8) . ?
O1W H1WA 0.8856 . ?
O1W H1WB 0.8855 . ?
O2W H2WA 0.8909 . ?
O2W H2WB 0.8907 . ?
O3W H3WA 0.8928 . ?
O3W H3WB 0.8943 . ?
O4W H4WA 1.0768 . ?
O4W H4WB 0.8779 . ?
O4W O28 1.345(9) . ?
O5W H5WA 0.8831 . ?
O5W H5WB 0.8834 . ?
O6W H6WA 0.8731 . ?
O6W H6WB 0.8730 . ?
O28 H28A 0.9348 . ?
O28 H28B 0.9264 . ?
loop_
_geom_torsion_atom_site_label_1
_geom_torsion_atom_site_label_2
_geom_torsion_atom_site_label_3
_geom_torsion_atom_site_label_4
_geom_torsion
_geom_torsion_site_symmetry_1
_geom_torsion_site_symmetry_2
_geom_torsion_site_symmetry_3
_geom_torsion_site_symmetry_4
_geom_torsion_publ_flag
Zn1 O1 C5 O2 -3.1(7) . . . . ?
Zn1 O1 C5 C9 177.9(4) . . . . ?
Zn1 O8 C23 O7 16.2(8) 3_667 . . . ?
Zn1 O8 C23 C22 -162.6(3) 3_667 . . . ?
Zn1 O23 C38 O24 -2.4(7) 1_554 . . . ?
Zn1 O23 C38 C39 177.8(3) 1_554 . . . ?
Zn2 O3 C17 O4 -75.5(6) 2_657 . . . ?
Zn2 O3 C17 C13 103.5(5) 2_657 . . . ?
Zn2 O24 C38 O23 24.4(10) 1_554 . . . ?
Zn2 O24 C38 C39 -155.9(4) 1_554 . . . ?
Zn3 O4 C17 O3 2.6(6) 2_657 . . . ?
Zn3 O4 C17 C13 -176.4(3) 2_657 . . . ?
Zn3 O19 C54 O20 -8.6(8) 4_565 . . . ?
Zn3 O19 C54 C49 170.1(3) 4_565 . . . ?
Zn3 O22 C46 O21 5.0(8) 2_646 . . . ?
Zn3 O22 C46 C42 -173.3(3) 2_646 . . . ?
Zn5 O14 C7 O13 -25.9(10) . . . . ?
Zn5 O14 C7 C33 155.0(5) . . . . ?
Zn5 O15 C36 O16 78.3(6) 2_646 . . . ?
Zn5 O15 C36 C15 -100.5(5) 2_646 . . . ?
Zn6 O6 C24 O5 6.6(8) 4_576 . . . ?
Zn6 O6 C24 C20 -174.6(4) 4_576 . . . ?
Zn6 O10 C11 O9 1.8(10) 2_656 . . . ?
Zn6 O10 C11 C6 -177.6(4) 2_656 . . . ?
Zn6 O16 C36 O15 -7.7(7) 2_646 . . . ?
Zn6 O16 C36 C15 171.1(4) 2_646 . . . ?
Zn4 O11 C35 O12 7.3(8) . . . . ?
Zn4 O11 C35 C32 -171.8(4) . . . . ?
Zn4 O13 C7 O14 -10.8(8) . . . . ?
Zn4 O13 C7 C33 168.3(4) . . . . ?
Zn4 O18 C37 O17 -13.7(8) 3_666 . . . ?
Zn4 O18 C37 C51 164.1(3) 3_666 . . . ?
O1 C5 C9 C12 -5.4(7) . . . . ?
O1 C5 C9 C16 174.0(5) . . . . ?
O2 C5 C9 C12 175.6(5) . . . . ?
O2 C5 C9 C16 -5.0(8) . . . . ?
O13 C7 C33 C27 16.6(8) . . . . ?
O13 C7 C33 C29 -160.2(5) . . . . ?
O14 C7 C33 C27 -164.2(5) . . . . ?
O14 C7 C33 C29 18.9(7) . . . . ?
O17 C37 C51 C50 155.5(5) . . . . ?
O17 C37 C51 C52 -22.5(8) . . . . ?
O18 C37 C51 C50 -22.4(7) . . . . ?
O18 C37 C51 C52 159.5(5) . . . . ?
O23 C38 C39 C40 165.1(5) . . . . ?
O23 C38 C39 C45 -14.5(7) . . . . ?
O24 C38 C39 C40 -14.7(7) . . . . ?
O24 C38 C39 C45 165.7(5) . . . . ?
N1 C47 C48 C49 177.5(5) . . . . ?
N1 C47 C52 C51 -177.6(5) . . . . ?
N2 C8 C30 C14 -146.8(5) . . . . ?
N2 C8 C30 C16 32.9(7) . . . . ?
N2 C18 C19 C20 -179.2(5) . . . . ?
N2 C25 C26 C27 -159.8(4) . . . . ?
N2 C25 C26 C28 20.3(7) . . . . ?
C5 C9 C12 C13 -179.1(5) . . . . ?
C5 C9 C16 C30 -179.2(5) . . . . ?
C6 C29 C33 C7 176.1(5) . . . . ?
C6 C29 C33 C27 -0.8(8) . . . . ?
C8 N2 C18 C10 179.2(5) . . . . ?
C8 N2 C18 C19 -3.2(7) . . . . ?
C8 N2 C25 C26 -97.0(5) . . . . ?
C9 C12 C13 C14 -2.2(7) . . . . ?
C9 C12 C13 C17 -178.9(5) . . . . ?
C9 C16 C30 C8 179.0(5) . . . . ?
C9 C16 C30 C14 -1.3(7) . . . . ?
C10 C18 C19 C20 -1.5(8) . . . . ?
C10 C22 C23 O7 30.4(8) . . . . ?
C10 C22 C23 O8 -150.8(5) . . . . ?
C11 C6 C28 C26 179.9(5) . . . . ?
C11 C6 C29 C33 -178.7(5) . . . . ?
C12 C9 C16 C30 0.3(7) . . . . ?
C12 C13 C14 C30 1.1(8) . . . . ?
C12 C13 C17 O3 -0.3(7) . . . . ?
C12 C13 C17 O4 178.8(5) . . . . ?
C13 C14 C30 C8 -179.6(5) . . . . ?
C13 C14 C30 C16 0.6(8) . . . . ?
C14 C13 C17 O3 -176.9(5) . . . . ?
C14 C13 C17 O4 2.2(7) . . . . ?
C15 C31 C32 C34 -0.9(8) . . . . ?
C15 C31 C32 C35 -177.9(5) . . . . ?
C16 C9 C12 C13 1.5(7) . . . . ?
C17 C13 C14 C30 177.7(5) . . . . ?
C18 N2 C8 C30 74.5(6) . . . . ?
C18 N2 C25 C26 78.4(6) . . . . ?
C18 C10 C22 C21 -0.8(8) . . . . ?
C18 C10 C22 C23 -178.9(5) . . . . ?
C18 C19 C20 C21 0.1(8) . . . . ?
C18 C19 C20 C24 -179.7(5) . . . . ?
C19 C20 C21 C22 1.0(8) . . . . ?
C19 C20 C24 O5 16.7(9) . . . . ?
C19 C20 C24 O6 -162.1(5) . . . . ?
C20 C21 C22 C10 -0.6(8) . . . . ?
C20 C21 C22 C23 177.5(5) . . . . ?
C21 C20 C24 O5 -163.0(6) . . . . ?
C21 C20 C24 O6 18.1(8) . . . . ?
C21 C22 C23 O7 -147.7(6) . . . . ?
C21 C22 C23 O8 31.0(7) . . . . ?
C22 C10 C18 N2 179.5(5) . . . . ?
C22 C10 C18 C19 1.8(8) . . . . ?
C24 C20 C21 C22 -179.3(5) . . . . ?
C25 N2 C8 C30 -110.0(5) . . . . ?
C25 N2 C18 C10 3.8(7) . . . . ?
C25 N2 C18 C19 -178.5(5) . . . . ?
C25 C26 C27 C33 -178.2(5) . . . . ?
C25 C26 C28 C6 178.4(5) . . . . ?
C26 C27 C33 C7 -177.4(5) . . . . ?
C26 C27 C33 C29 -0.6(8) . . . . ?
C27 C26 C28 C6 -1.5(7) . . . . ?
C28 C6 C11 O9 7.0(9) . . . . ?
C28 C6 C11 O10 -173.5(5) . . . . ?
C28 C6 C29 C33 1.0(8) . . . . ?
C28 C26 C27 C33 1.7(8) . . . . ?
C29 C6 C11 O9 -173.3(6) . . . . ?
C29 C6 C11 O10 6.1(8) . . . . ?
C29 C6 C28 C26 0.2(8) . . . . ?
C31 C15 C36 O15 6.6(8) . . . . ?
C31 C15 C36 O16 -172.3(5) . . . . ?
C31 C15 C56 C53 0.5(8) . . . . ?
C31 C32 C34 C53 0.8(8) . . . . ?
C31 C32 C35 O11 2.4(8) . . . . ?
C31 C32 C35 O12 -176.7(6) . . . . ?
C32 C34 C53 C55 -176.6(5) . . . . ?
C32 C34 C53 C56 0.0(8) . . . . ?
C34 C32 C35 O11 -174.6(5) . . . . ?
C34 C32 C35 O12 6.2(9) . . . . ?
C34 C53 C55 N1 -45.5(7) . . . . ?
C34 C53 C56 C15 -0.6(8) . . . . ?
C35 C32 C34 C53 177.8(5) . . . . ?
C36 C15 C31 C32 176.1(5) . . . . ?
C36 C15 C56 C53 -175.3(5) . . . . ?
C37 C51 C52 C47 178.0(5) . . . . ?
C38 C39 C40 C42 -177.5(5) . . . . ?
C38 C39 C45 C43 179.0(5) . . . . ?
C39 C40 C42 C41 -2.0(7) . . . . ?
C39 C40 C42 C46 178.3(5) . . . . ?
C40 C39 C45 C43 -0.6(8) . . . . ?
C40 C42 C46 O21 171.2(5) . . . . ?
C40 C42 C46 O22 -10.5(7) . . . . ?
C41 C42 C46 O21 -8.4(8) . . . . ?
C41 C42 C46 O22 169.9(5) . . . . ?
C41 C43 C44 N1 -29.2(7) . . . . ?
C41 C43 C45 C39 -0.9(7) . . . . ?
C42 C41 C43 C44 -176.6(4) . . . . ?
C42 C41 C43 C45 1.1(7) . . . . ?
C43 C41 C42 C40 0.4(7) . . . . ?
C43 C41 C42 C46 -179.9(5) . . . . ?
C44 N1 C47 C48 178.0(5) . . . . ?
C44 N1 C47 C52 -3.4(7) . . . . ?
C44 N1 C55 C53 104.6(5) . . . . ?
C44 C43 C45 C39 176.8(5) . . . . ?
C45 C39 C40 C42 2.1(8) . . . . ?
C45 C43 C44 N1 153.1(5) . . . . ?
C47 N1 C44 C43 -79.6(6) . . . . ?
C47 N1 C55 C53 -81.3(6) . . . . ?
C47 C48 C49 C50 0.2(8) . . . . ?
C47 C48 C49 C54 -179.9(5) . . . . ?
C48 C47 C52 C51 1.1(7) . . . . ?
C48 C49 C50 C51 0.8(8) . . . . ?
C48 C49 C54 O19 147.9(5) . . . . ?
C48 C49 C54 O20 -33.4(8) . . . . ?
C49 C50 C51 C37 -178.9(5) . . . . ?
C49 C50 C51 C52 -0.9(8) . . . . ?
C50 C49 C54 O19 -32.2(7) . . . . ?
C50 C49 C54 O20 146.5(6) . . . . ?
C50 C51 C52 C47 0.0(8) . . . . ?
C52 C47 C48 C49 -1.2(7) . . . . ?
C54 C49 C50 C51 -179.0(5) . . . . ?
C55 N1 C44 C43 94.5(5) . . . . ?
C55 N1 C47 C48 3.9(7) . . . . ?
C55 N1 C47 C52 -177.4(4) . . . . ?
C55 C53 C56 C15 175.9(5) . . . . ?
C56 C15 C31 C32 0.2(8) . . . . ?
C56 C15 C36 O15 -177.5(5) . . . . ?
C56 C15 C36 O16 3.6(8) . . . . ?
C56 C53 C55 N1 138.0(5) . . . . ?
