#------------------------------------------------------------------------------
#$Date: 2021-01-07 06:50:47 +0200 (Thu, 07 Jan 2021) $
#$Revision: 260677 $
#$URL: file:///home/coder/svn-repositories/cod/cif/7/12/73/7127303.cif $
#------------------------------------------------------------------------------
#
# This file is available in the Crystallography Open Database (COD),
# http://www.crystallography.net/
#
# All data on this site have been placed in the public domain by the
# contributors.
#
data_7127303
loop_
_publ_author_name
'Schneider, Matthew L.'
'Linder-Patton, Oliver M'
'Bloch, Witold M.'
_publ_section_title
;
 A covalent deprotection strategy for assembling supramolecular
 coordination polymers from metal-organic cages.
;
_journal_issue                   85
_journal_name_full
'Chemical communications (Cambridge, England)'
_journal_page_first              12969
_journal_page_last               12972
_journal_paper_doi               10.1039/d0cc05349j
_journal_volume                  56
_journal_year                    2020
_chemical_formula_moiety         'C19 H13 N3 O2 Pt, C2 H4'
_chemical_formula_sum            'C21 H17 N3 O2 Pt'
_chemical_formula_weight         538.47
_space_group_crystal_system      trigonal
_space_group_IT_number           148
_space_group_name_Hall           '-R 3'
_space_group_name_H-M_alt        'R -3 :H'
_atom_sites_solution_hydrogens   geom
_audit_creation_date             2020-05-04
_audit_creation_method
;
Olex2 1.3
(compiled 2020.02.04 svn.rd84adfe8 for OlexSys, GUI svn.r6032)
;
_audit_update_record
;
2020-05-14 deposited with the CCDC.	2020-09-21 downloaded from the CCDC.
;
_cell_angle_alpha                90
_cell_angle_beta                 90
_cell_angle_gamma                120
_cell_formula_units_Z            18
_cell_length_a                   30.2896(3)
_cell_length_b                   30.2896(3)
_cell_length_c                   10.05700(10)
_cell_measurement_reflns_used    6467
_cell_measurement_temperature    150
_cell_measurement_theta_max      77.0840
_cell_measurement_theta_min      2.9080
_cell_volume                     7990.72(14)
_computing_cell_refinement       'CrysAlisPro 1.171.39.45h (Rigaku OD, 2018)'
_computing_data_collection       'CrysAlisPro 1.171.39.45h (Rigaku OD, 2018)'
_computing_data_reduction        'CrysAlisPro 1.171.39.45h (Rigaku OD, 2018)'
_computing_molecular_graphics    'Olex2 1.3 (Dolomanov et al., 2009)'
_computing_publication_material  'Olex2 1.3 (Dolomanov et al., 2009)'
_computing_structure_refinement  'SHELXL (Sheldrick, 2015)'
_computing_structure_solution    'ShelXT (Sheldrick, 2015)'
_diffrn_ambient_temperature      150
_diffrn_detector_type            HyPix
_diffrn_measured_fraction_theta_full 0.986
_diffrn_measured_fraction_theta_max 0.946
_diffrn_measurement_details
;
List of Runs (angles in degrees, time in seconds):

  # Type    Start    End  Width  t~exp~   \w     \q     \k     \f   Frames
#--------------------------------------------------------------------------
  1  \w    -17.00  46.00   0.50    5.23    --   46.37 -68.00  15.00  126
  2  \w     36.00  68.00   0.50   19.22    --  108.56 -37.00   0.00   64
  3  \w     41.00  68.00   0.50   19.22    --  108.56 -19.00 -60.00   54
  4  \w     42.00  68.00   0.50   19.22    --  108.56 -37.00 -60.00   52
  5  \w     34.00  65.00   0.50   19.22    --  108.56 -19.00 -90.00   62
  6  \w     35.00  63.00   0.50   19.22    --  108.56 -37.00-150.00   56
  7  \w     34.00  60.00   0.50   19.22    --  108.56 -19.00-150.00   52
  8  \w     40.00  69.00   0.50   19.22    --  108.56 -37.00-180.00   58
  9  \w    139.00 166.00   0.50   19.22    --  108.56  61.00   9.00   54
 10  \w     99.00 133.00   0.50   19.22    --  108.56  61.00   9.00   68
 11  \w     73.00 112.00   0.50    5.23    --   46.37 125.00   0.00   78
 12  \w     33.00  60.00   0.50   19.22    --  108.56 -19.00  60.00   54
 13  \w     36.00  63.00   0.50   19.22    --  108.56 -37.00  60.00   54
 14  \w     35.00  69.00   0.50   19.22    --  108.56 -37.00  30.00   68
 15  \w    -73.00 -48.00   0.50   19.22    --  -84.50  61.00   9.00   50
;
_diffrn_measurement_device       'four-circle diffractometer'
_diffrn_measurement_device_type
'XtaLAB Synergy, Single source at home/near, HyPix'
_diffrn_measurement_method       '\w scans'
_diffrn_radiation_type           CuK\a
_diffrn_radiation_wavelength     1.54184
_diffrn_reflns_av_R_equivalents  0.0193
_diffrn_reflns_av_unetI/netI     0.0214
_diffrn_reflns_Laue_measured_fraction_full 0.986
_diffrn_reflns_Laue_measured_fraction_max 0.946
_diffrn_reflns_limit_h_max       37
_diffrn_reflns_limit_h_min       -33
_diffrn_reflns_limit_k_max       37
_diffrn_reflns_limit_k_min       -38
_diffrn_reflns_limit_l_max       12
_diffrn_reflns_limit_l_min       -9
_diffrn_reflns_number            8545
_diffrn_reflns_point_group_measured_fraction_full 0.986
_diffrn_reflns_point_group_measured_fraction_max 0.946
_diffrn_reflns_theta_full        67.684
_diffrn_reflns_theta_max         77.361
_diffrn_reflns_theta_min         2.918
_exptl_absorpt_coefficient_mu    14.963
_exptl_absorpt_correction_T_max  1.00000
_exptl_absorpt_correction_T_min  0.57561
_exptl_absorpt_correction_type   multi-scan
_exptl_absorpt_process_details
;
CrysAlisPro 1.171.39.45h (Rigaku Oxford Diffraction, 2018)
Empirical absorption correction using spherical harmonics,
 implemented in SCALE3 ABSPACK scaling algorithm.
;
_exptl_crystal_colour            orange
_exptl_crystal_density_diffrn    2.014
_exptl_crystal_description       needle
_exptl_crystal_F_000             4644
_exptl_crystal_size_max          0.05
_exptl_crystal_size_mid          0.001
_exptl_crystal_size_min          0.001
_refine_diff_density_max         1.514
_refine_diff_density_min         -1.583
_refine_diff_density_rms         0.127
_refine_ls_extinction_method     none
_refine_ls_goodness_of_fit_ref   1.092
_refine_ls_hydrogen_treatment    constr
_refine_ls_matrix_type           full
_refine_ls_number_parameters     263
_refine_ls_number_reflns         3584
_refine_ls_number_restraints     43
_refine_ls_restrained_S_all      1.087
_refine_ls_R_factor_all          0.0270
_refine_ls_R_factor_gt           0.0259
_refine_ls_shift/su_max          0.001
_refine_ls_shift/su_mean         0.000
_refine_ls_structure_factor_coef Fsqd
_refine_ls_weighting_details
'w=1/[\s^2^(Fo^2^)+(0.0521P)^2^+15.8748P] where P=(Fo^2^+2Fc^2^)/3'
_refine_ls_weighting_scheme      calc
_refine_ls_wR_factor_gt          0.0735
_refine_ls_wR_factor_ref         0.0742
_reflns_Friedel_coverage         0.000
_reflns_number_gt                3416
_reflns_number_total             3584
_reflns_threshold_expression     'I > 2\s(I)'
_iucr_refine_instructions_details
;
TITL 03096spancyclo_1_a.res in R-3
    03096spancyclo_1.res
    created by SHELXL-2018/3 at 18:45:01 on 04-May-2020
REM Old TITL 03096spancyclo_1 in R-3
REM SHELXT solution in R-3
REM R1 0.048, Rweak 0.007, Alpha 0.166, Orientation as input
REM Formula found by SHELXT: C19 N3 O3 Pt
CELL 1.54184 30.2896 30.2896 10.057 90 90 120
ZERR 18 0.0003 0.0003 0.0001 0 0 0
LATT 3
SYMM -Y,+X-Y,+Z
SYMM +Y-X,-X,+Z
SFAC C H N O Pt
UNIT 378 306 54 36 18
EQIV $1 1-Y,+X-Y,+Z
SADI C20B C21B C21B C20B_$1 C20A C21A C21A C20A_$1
DANG 2.515 C21B C21B_$1
DANG 2.515 C21A C21A_$1
DANG 2.515 C20B C20B_$1
DANG 2.515 C20A C20A_$1
SIMU 0.04 0.08 1.7 C20A C21A C20B C21B
RIGU C20A C21A

L.S. 50
PLAN  5
SIZE 0.001 0.001 0.05
TEMP -123.15
CONF
BOND $H
LIST 4
MORE -1
fmap 2
acta
REM <olex2.extras>
REM <HklSrc "%.\\03096spancyclo_1.hkl">
REM </olex2.extras>

WGHT    0.052100   15.874800
FVAR       0.04865   0.21641
PT1   5    0.347060    0.325200    0.453332    11.00000    0.02581    0.03022 =
         0.02630    0.00088    0.00005    0.01390
O1    4    0.276762    0.323504    0.459700    11.00000    0.02289    0.03273 =
         0.03681    0.00273    0.00162    0.01440
O2    4    0.244856    0.375970    0.454695    11.00000    0.02761    0.03280 =
         0.05226    0.00244   -0.00112    0.01459
N3    3    0.371684    0.400984    0.455141    11.00000    0.02669    0.03012 =
         0.02857    0.00033    0.00127    0.01067
N1    3    0.316991    0.249583    0.462320    11.00000    0.03186    0.03008 =
         0.02948    0.00167    0.00073    0.01680
N2    3    0.324901    0.182134    0.502191    11.00000    0.03813    0.03548 =
         0.03954   -0.00243   -0.00161    0.02362
AFIX  43
H2    2    0.339178    0.163499    0.517838    11.00000   -1.20000
AFIX   0
C1    1    0.411489    0.320856    0.449745    11.00000    0.03184    0.04161 =
         0.02486   -0.00216    0.00007    0.01977
C19   1    0.280467    0.367154    0.452052    11.00000    0.02932    0.02878 =
         0.02484    0.00240   -0.00098    0.01186
C18   1    0.334120    0.412096    0.445663    11.00000    0.02844    0.03066 =
         0.02632    0.00147    0.00109    0.01176
C13   1    0.273106    0.164792    0.490877    11.00000    0.03680    0.03819 =
         0.03229   -0.00413   -0.00237    0.02229
C2    1    0.461851    0.357001    0.420606    11.00000    0.03604    0.04255 =
         0.03531   -0.00214    0.00096    0.01788
AFIX  43
H2A   2    0.469701    0.390465    0.396343    11.00000   -1.20000
AFIX   0
C6    1    0.403316    0.270837    0.477208    11.00000    0.03463    0.04225 =
         0.02910   -0.00226   -0.00335    0.02062
C17   1    0.343094    0.461498    0.441319    11.00000    0.03665    0.03328 =
         0.03472    0.00712    0.00407    0.01546
AFIX  43
H17   2    0.315599    0.467854    0.430644    11.00000   -1.20000
AFIX   0
C12   1    0.230855    0.116326    0.501217    11.00000    0.04509    0.03146 =
         0.04990   -0.00278   -0.00248    0.02027
AFIX  43
H12   2    0.234158    0.087444    0.521028    11.00000   -1.20000
AFIX   0
C9    1    0.220876    0.202909    0.441398    11.00000    0.03330    0.03489 =
         0.03468    0.00002    0.00154    0.01885
AFIX  43
H9    2    0.217533    0.231703    0.420721    11.00000   -1.20000
AFIX   0
C7    1    0.349088    0.233027    0.484578    11.00000    0.03552    0.03668 =
         0.03020   -0.00246   -0.00064    0.02236
C10   1    0.178857    0.154629    0.450110    11.00000    0.03330    0.03424 =
         0.04418   -0.00218   -0.00087    0.01709
AFIX  43
H10   2    0.145916    0.150132    0.434615    11.00000   -1.20000
AFIX   0
C8    1    0.268345    0.207591    0.464205    11.00000    0.03468    0.03288 =
         0.02573    0.00023    0.00235    0.01842
C14   1    0.419816    0.440429    0.470923    11.00000    0.02366    0.03639 =
         0.05455   -0.00490   -0.00005    0.00836
AFIX  43
H14   2    0.446783    0.433382    0.483248    11.00000   -1.20000
AFIX   0
C15   1    0.430765    0.489854    0.469679    11.00000    0.02969    0.03460 =
         0.05875   -0.00246    0.00037    0.00337
AFIX  43
H15   2    0.465026    0.516479    0.480620    11.00000   -1.20000
AFIX   0
C5    1    0.442038    0.259303    0.483701    11.00000    0.03956    0.04372 =
         0.04082   -0.00642   -0.00628    0.02336
AFIX  43
H5    2    0.434794    0.225748    0.504650    11.00000   -1.20000
AFIX   0
C3    1    0.500970    0.345661    0.425901    11.00000    0.02838    0.05390 =
         0.04256   -0.00466    0.00010    0.01722
AFIX  43
H3    2    0.534878    0.371506    0.406309    11.00000   -1.20000
AFIX   0
C16   1    0.392659    0.501697    0.452709    11.00000    0.04017    0.02825 =
         0.04736    0.00198    0.00374    0.01056
AFIX  43
H16   2    0.400109    0.536090    0.448973    11.00000   -1.20000
AFIX   0
C11   1    0.183572    0.112061    0.481250    11.00000    0.03865    0.03484 =
         0.05338   -0.00224   -0.00107    0.01602
AFIX  43
H11   2    0.153710    0.079566    0.488845    11.00000   -1.20000
AFIX   0
C4    1    0.491285    0.297363    0.459233    11.00000    0.03396    0.05656 =
         0.05377   -0.01048   -0.00621    0.02915
AFIX  43
H4    2    0.518544    0.290441    0.465247    11.00000   -1.20000
AFIX   0

PART 2
C20B  1    0.615437    0.293141    0.491874    21.00000    0.07973    0.10673 =
         0.16196    0.01582    0.00273    0.02889
AFIX  23
H20A  2    0.584115    0.268642    0.539909    21.00000   -1.20000
H20B  2    0.608107    0.287377    0.395517    21.00000   -1.20000
AFIX   0
C21B  1    0.655348    0.281682    0.523692    21.00000    0.06363    0.06154 =
         0.14574   -0.00363    0.02248    0.03096
AFIX  23
H21A  2    0.648595    0.250533    0.474871    21.00000   -1.20000
H21B  2    0.653675    0.274109    0.619919    21.00000   -1.20000
AFIX   0

PART 1
C20A  1    0.614267    0.292191    0.594992   -21.00000    0.05135    0.07317 =
         0.15618    0.00079    0.00789    0.02723
AFIX  23
H20C  2    0.585017    0.269238    0.651920   -21.00000   -1.20000
H20D  2    0.603199    0.283501    0.501363   -21.00000   -1.20000
AFIX   0
C21A  1    0.655481    0.281429    0.619077   -21.00000    0.08580    0.05206 =
         0.14078    0.01289    0.02791    0.03834
AFIX  23
H21C  2    0.649143    0.251959    0.563023   -21.00000   -1.20000
H21D  2    0.653146    0.270593    0.712913   -21.00000   -1.20000
AFIX   0
HKLF 4




REM  03096spancyclo_1_a.res in R-3
REM wR2 = 0.0742, GooF = S = 1.092, Restrained GooF = 1.087 for all data
REM R1 = 0.0259 for 3416 Fo > 4sig(Fo) and 0.0270 for all 3584 data
REM 263 parameters refined using 43 restraints

END  
     
WGHT      0.0521     15.8636 

REM Highest difference peak  1.514,  deepest hole -1.583,  1-sigma level  0.127
Q1    1   0.3479  0.3245  0.3607  11.00000  0.05    1.51
Q2    1   0.3486  0.3245  0.5425  11.00000  0.05    1.48
Q3    1   0.3818  0.3266  0.5360  11.00000  0.05    0.64
Q4    1   0.3575  0.3822  0.6039  11.00000  0.05    0.53
Q5    1   0.3452  0.2874  0.3751  11.00000  0.05    0.50

  REM The information below was added by Olex2.
  REM
  REM R1 = 0.0259 for 3416 Fo > 4sig(Fo) and 0.0270 for all 8545 data
  REM n/a parameters refined using n/a restraints
  REM Highest difference peak 1.51, deepest hole -1.58
  REM Mean Shift 0, Max Shift -0.001.

  REM +++ Tabular Listing of Refinement Information +++
  REM R1_all = 0.0270
  REM R1_gt = 0.0259
  REM wR_ref = 0.0742
  REM GOOF = 1.092
  REM Shift_max = -0.001
  REM Shift_mean = 0
  REM Reflections_all = 8545
  REM Reflections_gt = 3416
  REM Parameters = n/a
  REM Hole = -1.58
  REM Peak = 1.51
  REM Flack = n/a

  
;
_cod_data_source_file            d0cc05349j2.cif
_cod_data_source_block           1P-cHex
_cod_depositor_comments
'Adding full bibliography for 7127299--7127303.cif.'
_cod_original_cell_volume        7990.72(18)
_cod_original_sg_symbol_H-M      'R -3'
_cod_database_code               7127303
_shelx_shelxl_version_number     2018/3
_chemical_oxdiff_formula         C19H13N3O2Pt
_shelx_space_group_comment
;
The symmetry employed for this shelxl refinement is uniquely defined
by the following loop, which should always be used as a source of
symmetry information in preference to the above space-group names.
They are only intended as comments.
;
_shelx_estimated_absorpt_t_max   0.985
_shelx_estimated_absorpt_t_min   0.522
_olex2_refinement_description
;
1. Fixed Uiso
 At 1.2 times of:
  All C(H) groups, All C(H,H) groups, All N(H) groups
2. Restrained distances
 C21B-C21B_$1
 2.515 with sigma of 0.04
 C21A-C21A_$1
 2.515 with sigma of 0.04
 C20B-C20B_$1
 2.515 with sigma of 0.04
 C20A-C20A_$1
 2.515 with sigma of 0.04
 C20B-C21B \\sim C21B-C20B_$1 \\sim C20A-C21A \\sim C21A-C20A_$1
 with sigma of 0.02
3. Uiso/Uaniso restraints and constraints
C20A \\sim C21A \\sim C20B \\sim C21B: within 1.7A with sigma of 0.04 and sigma
for terminal atoms of 0.08 within 1.7A
4. Rigid body (RIGU) restrains
 C20A, C21A
 with sigma for 1-2 distances of 0.004 and sigma for 1-3 distances of 0.004
5. Others
 Sof(C20A)=Sof(H20C)=Sof(H20D)=Sof(C21A)=Sof(H21C)=Sof(H21D)=1-FVAR(1)
 Sof(C20B)=Sof(H20A)=Sof(H20B)=Sof(C21B)=Sof(H21A)=Sof(H21B)=FVAR(1)
6.a Secondary CH2 refined with riding coordinates:
 C20B(H20A,H20B), C21B(H21A,H21B), C20A(H20C,H20D), C21A(H21C,H21D)
6.b Aromatic/amide H refined with riding coordinates:
 N2(H2), C2(H2A), C17(H17), C12(H12), C9(H9), C10(H10), C14(H14), C15(H15),
 C5(H5), C3(H3), C16(H16), C11(H11), C4(H4)
;
_olex2_submission_special_instructions 'No special instructions were received'
_oxdiff_exptl_absorpt_empirical_details
;
Empirical correction (ABSPACK) includes:
- Absorption correction using spherical harmonics
- Frame scaling
;
loop_
_space_group_symop_operation_xyz
'x, y, z'
'-y, x-y, z'
'-x+y, -x, z'
'x+2/3, y+1/3, z+1/3'
'-y+2/3, x-y+1/3, z+1/3'
'-x+y+2/3, -x+1/3, z+1/3'
'x+1/3, y+2/3, z+2/3'
'-y+1/3, x-y+2/3, z+2/3'
'-x+y+1/3, -x+2/3, z+2/3'
'-x, -y, -z'
'y, -x+y, -z'
'x-y, x, -z'
'-x+2/3, -y+1/3, -z+1/3'
'y+2/3, -x+y+1/3, -z+1/3'
'x-y+2/3, x+1/3, -z+1/3'
'-x+1/3, -y+2/3, -z+2/3'
'y+1/3, -x+y+2/3, -z+2/3'
'x-y+1/3, x+2/3, -z+2/3'
loop_
_atom_site_label
_atom_site_type_symbol
_atom_site_fract_x
_atom_site_fract_y
_atom_site_fract_z
_atom_site_U_iso_or_equiv
_atom_site_adp_type
_atom_site_occupancy
_atom_site_site_symmetry_order
_atom_site_calc_flag
_atom_site_refinement_flags_posn
_atom_site_refinement_flags_adp
_atom_site_refinement_flags_occupancy
_atom_site_disorder_assembly
_atom_site_disorder_group
Pt1 Pt 0.34706(2) 0.32520(2) 0.45333(2) 0.02749(8) Uani 1 1 d . . . . .
O1 O 0.27676(9) 0.32350(9) 0.4597(2) 0.0306(5) Uani 1 1 d . . . . .
O2 O 0.24486(10) 0.37597(10) 0.4547(3) 0.0378(6) Uani 1 1 d . . . . .
N3 N 0.37168(11) 0.40098(11) 0.4551(3) 0.0300(6) Uani 1 1 d . . . . .
N1 N 0.31699(11) 0.24958(11) 0.4623(3) 0.0299(6) Uani 1 1 d . . . . .
N2 N 0.32490(13) 0.18213(12) 0.5022(3) 0.0354(6) Uani 1 1 d . . . . .
H2 H 0.339178 0.163499 0.517838 0.042 Uiso 1 1 calc R U . . .
C1 C 0.41149(14) 0.32086(15) 0.4497(3) 0.0321(7) Uani 1 1 d . . . . .
C19 C 0.28047(13) 0.36715(13) 0.4521(3) 0.0288(6) Uani 1 1 d . . . . .
C18 C 0.33412(13) 0.41210(13) 0.4457(3) 0.0298(7) Uani 1 1 d . . . . .
C13 C 0.27311(14) 0.16479(15) 0.4909(4) 0.0342(7) Uani 1 1 d . . . . .
C2 C 0.46185(15) 0.35700(16) 0.4206(4) 0.0388(8) Uani 1 1 d . . . . .
H2A H 0.469701 0.390465 0.396343 0.047 Uiso 1 1 calc R U . . .
C6 C 0.40332(14) 0.27084(15) 0.4772(4) 0.0347(7) Uani 1 1 d . . . . .
C17 C 0.34309(15) 0.46150(14) 0.4413(4) 0.0358(8) Uani 1 1 d . . . . .
H17 H 0.315599 0.467854 0.430644 0.043 Uiso 1 1 calc R U . . .
C12 C 0.23085(16) 0.11633(15) 0.5012(4) 0.0416(8) Uani 1 1 d . . . . .
H12 H 0.234158 0.087444 0.521028 0.050 Uiso 1 1 calc R U . . .
C9 C 0.22088(14) 0.20291(14) 0.4414(4) 0.0335(7) Uani 1 1 d . . . . .
H9 H 0.217533 0.231703 0.420721 0.040 Uiso 1 1 calc R U . . .
C7 C 0.34909(14) 0.23303(14) 0.4846(3) 0.0322(7) Uani 1 1 d . . . . .
C10 C 0.17886(15) 0.15463(14) 0.4501(4) 0.0372(8) Uani 1 1 d . . . . .
H10 H 0.145916 0.150132 0.434615 0.045 Uiso 1 1 calc R U . . .
C8 C 0.26834(14) 0.20759(14) 0.4642(3) 0.0304(7) Uani 1 1 d . . . . .
C14 C 0.41982(14) 0.44043(16) 0.4709(4) 0.0412(9) Uani 1 1 d . . . . .
H14 H 0.446783 0.433382 0.483248 0.049 Uiso 1 1 calc R U . . .
C15 C 0.43077(15) 0.48985(16) 0.4697(5) 0.0467(10) Uani 1 1 d . . . . .
H15 H 0.465026 0.516479 0.480620 0.056 Uiso 1 1 calc R U . . .
C5 C 0.44204(15) 0.25930(16) 0.4837(4) 0.0402(8) Uani 1 1 d . . . . .
H5 H 0.434794 0.225748 0.504650 0.048 Uiso 1 1 calc R U . . .
C3 C 0.50097(15) 0.34566(18) 0.4259(4) 0.0431(9) Uani 1 1 d . . . . .
H3 H 0.534878 0.371506 0.406309 0.052 Uiso 1 1 calc R U . . .
C16 C 0.39266(15) 0.50170(15) 0.4527(4) 0.0415(8) Uani 1 1 d . . . . .
H16 H 0.400109 0.536090 0.448973 0.050 Uiso 1 1 calc R U . . .
C11 C 0.18357(16) 0.11206(16) 0.4813(4) 0.0433(9) Uani 1 1 d . . . . .
H11 H 0.153710 0.079566 0.488845 0.052 Uiso 1 1 calc R U . . .
C4 C 0.49128(15) 0.29736(18) 0.4592(5) 0.0452(9) Uani 1 1 d . . . . .
H4 H 0.518544 0.290441 0.465247 0.054 Uiso 1 1 calc R U . . .
C20B C 0.6154(8) 0.2931(10) 0.492(7) 0.124(14) Uani 0.22(2) 1 d D U P A 2
H20A H 0.584115 0.268642 0.539909 0.149 Uiso 0.22(2) 1 calc R U P A 2
H20B H 0.608107 0.287377 0.395517 0.149 Uiso 0.22(2) 1 calc R U P A 2
C21B C 0.6553(12) 0.2817(8) 0.524(6) 0.090(9) Uani 0.22(2) 1 d D U P A 2
H21A H 0.648595 0.250533 0.474871 0.109 Uiso 0.22(2) 1 calc R U P A 2
H21B H 0.653675 0.274109 0.619919 0.109 Uiso 0.22(2) 1 calc R U P A 2
C20A C 0.6143(3) 0.2922(3) 0.5950(18) 0.095(4) Uani 0.78(2) 1 d D U P A 1
H20C H 0.585017 0.269238 0.651920 0.114 Uiso 0.78(2) 1 calc R U P A 1
H20D H 0.603199 0.283501 0.501363 0.114 Uiso 0.78(2) 1 calc R U P A 1
C21A C 0.6555(3) 0.2814(3) 0.6191(17) 0.091(4) Uani 0.78(2) 1 d D U P A 1
H21C H 0.649143 0.251959 0.563023 0.109 Uiso 0.78(2) 1 calc R U P A 1
H21D H 0.653146 0.270593 0.712913 0.109 Uiso 0.78(2) 1 calc R U P A 1
loop_
_atom_site_aniso_label
_atom_site_aniso_U_11
_atom_site_aniso_U_22
_atom_site_aniso_U_33
_atom_site_aniso_U_23
_atom_site_aniso_U_13
_atom_site_aniso_U_12
Pt1 0.02581(10) 0.03022(10) 0.02630(11) 0.00088(5) 0.00005(4) 0.01390(6)
O1 0.0229(11) 0.0327(12) 0.0368(13) 0.0027(10) 0.0016(9) 0.0144(10)
O2 0.0276(12) 0.0328(13) 0.0523(16) 0.0024(11) -0.0011(11) 0.0146(10)
N3 0.0267(14) 0.0301(14) 0.0286(13) 0.0003(11) 0.0013(11) 0.0107(12)
N1 0.0319(14) 0.0301(14) 0.0295(14) 0.0017(11) 0.0007(11) 0.0168(12)
N2 0.0381(16) 0.0355(16) 0.0395(16) -0.0024(12) -0.0016(13) 0.0236(13)
C1 0.0318(17) 0.0416(19) 0.0249(16) -0.0022(13) 0.0001(13) 0.0198(15)
C19 0.0293(16) 0.0288(16) 0.0248(15) 0.0024(12) -0.0010(12) 0.0119(13)
C18 0.0284(16) 0.0307(16) 0.0263(16) 0.0015(12) 0.0011(12) 0.0118(14)
C13 0.0368(18) 0.0382(18) 0.0323(17) -0.0041(14) -0.0024(14) 0.0223(15)
C2 0.0360(19) 0.043(2) 0.0353(19) -0.0021(15) 0.0010(15) 0.0179(17)
C6 0.0346(18) 0.0423(19) 0.0291(17) -0.0023(14) -0.0034(13) 0.0206(16)
C17 0.0367(18) 0.0333(18) 0.0347(18) 0.0071(14) 0.0041(14) 0.0155(15)
C12 0.045(2) 0.0315(18) 0.050(2) -0.0028(16) -0.0025(17) 0.0203(16)
C9 0.0333(17) 0.0349(18) 0.0347(18) 0.0000(14) 0.0015(13) 0.0188(15)
C7 0.0355(18) 0.0367(18) 0.0302(16) -0.0025(13) -0.0006(13) 0.0224(15)
C10 0.0333(18) 0.0342(18) 0.044(2) -0.0022(15) -0.0009(15) 0.0171(15)
C8 0.0347(17) 0.0329(17) 0.0257(15) 0.0002(13) 0.0023(13) 0.0184(14)
C14 0.0237(16) 0.0364(19) 0.055(2) -0.0049(17) -0.0001(15) 0.0084(15)
C15 0.0297(19) 0.035(2) 0.059(3) -0.0025(17) 0.0004(17) 0.0034(15)
C5 0.0396(19) 0.044(2) 0.041(2) -0.0064(16) -0.0063(16) 0.0234(17)
C3 0.0284(18) 0.054(2) 0.043(2) -0.0047(17) 0.0001(15) 0.0172(17)
C16 0.040(2) 0.0283(17) 0.047(2) 0.0020(15) 0.0037(17) 0.0106(16)
C11 0.039(2) 0.0348(19) 0.053(2) -0.0022(17) -0.0011(17) 0.0160(16)
C4 0.0340(19) 0.057(2) 0.054(2) -0.0105(19) -0.0062(17) 0.0292(19)
C20B 0.080(19) 0.11(2) 0.16(3) 0.02(2) 0.00(2) 0.029(17)
C21B 0.064(14) 0.062(14) 0.15(2) -0.004(16) 0.022(17) 0.031(11)
C20A 0.051(4) 0.073(5) 0.156(11) 0.001(6) 0.008(5) 0.027(4)
C21A 0.086(6) 0.052(4) 0.141(10) 0.013(5) 0.028(6) 0.038(4)
loop_
_atom_type_symbol
_atom_type_description
_atom_type_scat_dispersion_real
_atom_type_scat_dispersion_imag
_atom_type_scat_source
C C 0.0181 0.0091 'International Tables Vol C Tables 4.2.6.8 and 6.1.1.4'
H H 0.0000 0.0000 'International Tables Vol C Tables 4.2.6.8 and 6.1.1.4'
N N 0.0311 0.0180 'International Tables Vol C Tables 4.2.6.8 and 6.1.1.4'
O O 0.0492 0.0322 'International Tables Vol C Tables 4.2.6.8 and 6.1.1.4'
Pt Pt -4.5932 6.9264 'International Tables Vol C Tables 4.2.6.8 and 6.1.1.4'
loop_
_diffrn_refln_index_h
_diffrn_refln_index_k
_diffrn_refln_index_l
_diffrn_refln_intensity_net
_diffrn_refln_intensity_u
0 0 3 9999 203.13
0 0 9 900.84 18.79
0 0 9 901.44 18.78
1 -1 11 1.66 0.59
0 1 11 1.32 0.6
-1 0 11 2.04 0.65
1 -1 8 10.43 0.88
0 1 8 10.5 0.9
-1 0 8 10.36 0.86
0 1 5 56.56 2.15
-1 0 5 62.13 1.48
-1 0 5 60.48 2.1
1 -1 5 61.97 1.5
1 -1 2 0.65 0.4
-1 0 2 0.41 0.4
0 1 2 0.65 0.47
0 -1 1 2.92 0.22
1 0 1 2.97 0.12
1 0 1 3.35 0.29
1 -1 -1 3.52 0.15
-1 1 4 6.94 0.75
0 -1 4 6.73 0.73
1 0 4 7.57 0.81
-1 1 7 0.33 0.41
0 -1 7 0.69 0.4
-1 1 7 0.57 0.57
1 0 7 0.14 0.36
-1 1 10 -0.08 0.48
0 -1 10 0.55 0.49
-1 1 10 -0.39 0.71
-1 1 10 -0.03 0.57
1 0 10 0.47 0.69
1 0 10 0.26 0.39
0 -1 10 0.82 0.74
-1 2 12 9.97 0.66
-1 -1 9 809.86 17.01
2 -1 9 831.59 16.97
2 -1 9 794.69 16.91
-1 -1 9 815.2 16.99
-1 2 9 806.43 17.02
2 -1 9 818.73 17.02
-1 2 6 2730.71 56.8
-1 -1 3 1008.04 20.59
-1 2 3 972.52 20.63
2 -1 0 2043.51 41.54
1 -2 3 8717.37 177.21
1 1 3 8748.21 177.28
-2 1 3 8698.38 177.22
-2 1 6 2270 48.15
1 -2 6 2316.57 47.08
-2 1 9 3.89 0.71
1 -2 9 7.34 0.65
1 1 9 4.25 0.67
1 1 9 6.36 0.72
1 -2 9 2.93 0.77
1 -2 9 3.27 0.63
-2 1 12 220.37 4.8
0 2 10 1.54 0.69
-2 0 10 1.52 0.78
0 2 10 2.24 0.62
-2 0 10 1.96 0.62
0 2 10 1.75 0.41
-2 0 10 1.17 0.54
2 -2 10 2.41 0.74
2 -2 10 1.83 0.4
0 2 7 3.86 0.43
2 -2 7 3.85 0.46
-2 0 7 3.07 0.62
0 2 4 9.98 0.87
-2 0 4 10.87 0.89
2 0 -1 1.37 0.15
-2 2 2 221.66 4.82
0 -2 2 229.72 4.77
2 -2 -2 215.27 4.58
-2 2 5 99.51 2.99
0 -2 5 97.96 2.25
0 -2 8 41.09 1.39
-2 2 8 43.57 1.46
0 -2 8 42.72 1.38
2 0 8 41.72 1.47
-2 2 8 44.79 1.77
0 -2 11 5.54 0.67
-2 2 11 5.17 0.71
2 0 11 5.03 0.59
-1 -2 10 8.42 0.89
-2 3 10 7.82 0.79
3 -1 10 7.99 0.79
-2 3 10 7.88 0.78
-1 -2 10 8.36 0.69
3 -1 7 17.89 0.75
-2 3 7 17.55 0.76
-2 3 7 17.33 0.94
-1 -2 4 3.3 0.59
-2 3 4 3.76 0.74
3 -1 1 188.8 4.01
1 2 2 126.54 2.8
3 -1 -2 110.71 2.48
2 -3 5 51.28 1.32
-3 1 5 49.88 1.95
2 -3 8 0.97 0.64
2 -3 8 0.82 0.71
1 2 8 1.21 0.72
2 -3 11 6.24 0.62
-3 1 11 6.21 0.76
1 2 11 5.6 0.63
-2 -1 11 6.56 0.72
3 -2 11 5.28 0.58
-1 3 11 5.58 0.67
3 -2 8 4.5 0.73
-1 3 8 5.17 0.74
3 -2 8 5.04 0.82
-2 -1 5 1.96 0.7
-2 -1 5 2.08 0.28
-1 3 5 1.79 0.79
-1 3 2 261.8 5.68
3 -2 2 258.68 5.47
-2 -1 2 262.11 5.57
3 -2 -1 58.69 1.39
-3 2 4 0.83 0.61
1 -3 4 0.72 0.28
2 1 7 2.67 0.43
1 -3 7 3.15 0.43
-3 2 7 3.26 0.64
-3 2 10 0.7 0.7
1 -3 10 0.61 0.47
2 1 10 0.64 0.63
1 -3 10 0.42 0.72
-3 2 10 0.23 0.66
2 1 10 0.65 0.51
-3 0 12 298.73 6.38
3 -3 9 667.1 13.7
0 3 9 644.4 13.65
3 -3 9 631.75 13.54
-3 0 6 114.28 3.47
-3 0 3 800.23 16.29
0 3 3 823.67 16.43
3 0 0 3541 71.27
0 3 0 3494.56 71.16
-3 3 3 769.52 15.55
0 -3 3 786.01 15.45
3 0 6 75.69 1.82
0 -3 6 74.29 1.84
-3 3 6 72.35 2.7
3 0 9 559.34 11.8
-3 3 9 548.26 11.88
0 -3 9 554.33 11.82
3 0 9 557.06 11.84
0 -3 9 563.94 11.92
0 -3 9 563.59 11.81
-3 3 12 264.06 5.68
-1 -3 11 10.66 0.77
4 -1 11 9.91 0.63
-3 4 11 10.05 0.79
-3 4 8 0.6 0.99
-3 4 8 0.41 0.67
4 -1 8 1.16 0.72
4 -1 8 0.11 0.62
-1 -3 5 27.92 0.82
-3 4 5 24.71 1.44
-1 -3 5 28.39 1.32
4 -1 5 27.22 0.82
-1 -3 2 23.42 0.71
4 -1 2 20.09 0.66
1 3 1 136.65 3.04
4 -1 -1 134.71 2.99
-4 1 4 68.77 1.78
1 3 4 60.27 1.81
1 3 7 1.96 0.6
-4 1 7 2.25 0.61
-4 1 7 1.09 0.81
-4 1 7 1.25 0.42
3 -4 7 1.74 0.38
3 -4 7 2 0.39
1 3 7 1.84 0.4
3 -4 7 1.97 0.41
3 -4 10 4.88 0.47
1 3 10 4.34 0.68
-4 1 10 4.11 0.85
1 3 10 5.17 0.66
3 -4 10 5.07 0.76
-2 4 12 160.87 3.57
-2 4 9 12.86 0.91
4 -2 9 14.25 0.77
4 -2 9 13.17 0.92
-2 4 6 306.49 7.75
4 -2 6 314.73 6.68
-2 -2 3 1149.61 22.57
-2 4 3 1136.16 22.72
4 -2 0 641.51 13.25
2 2 3 96.46 2.54
4 -2 -3 88.88 2.02
-4 2 3 91.83 2.42
2 -4 6 1461.49 30.11
-4 2 6 1501.38 31.26
2 2 9 687.21 14.58
2 -4 9 681.74 14.54
2 -4 9 708.89 14.67
2 2 9 698.68 14.54
-4 2 12 18.27 0.84
-3 -1 10 8.6 0.73
-1 4 10 8.39 0.77
4 -3 10 8.42 0.79
-1 4 10 8.45 0.78
-3 -1 7 15.18 0.74
-1 4 7 14.69 0.9
4 -3 7 14.75 0.66
4 -3 7 16.04 0.67
-3 -1 7 15.59 0.87
-1 4 4 134.37 3.61
-3 -1 4 141.99 3.54
4 -3 1 349.19 7
-1 4 1 315.78 6.95
4 -3 -2 419.63 8.76
3 1 5 12.03 0.48
1 -4 5 12.24 0.54
-4 3 5 11.38 1.1
3 1 8 20.48 1.03
-4 3 8 20.44 1.35
1 -4 8 20.7 0.93
1 -4 8 20.95 1.04
1 -4 11 15.83 0.83
3 1 11 15.97 0.75
-4 3 11 17.16 0.94
-4 0 11 1.16 0.65
-4 0 11 1.1 0.5
0 4 11 1.69 0.56
4 -4 8 43.19 1.44
4 -4 8 40.83 1.27
0 4 8 44.14 1.74
0 4 8 42.28 1.42
-4 0 8 41.17 1.44
4 -4 8 43.4 1.32
-4 0 5 83.67 2.6
0 4 5 79.06 2.66
4 -4 2 47.04 1.3
4 0 1 313.13 6.59
0 -4 4 170.43 3.71
-4 4 4 179.71 4.35
-4 4 7 35.52 2.03
4 0 7 35.7 1.13
0 -4 7 36.98 1.13
-4 4 7 35.45 1.31
0 -4 10 0.49 0.53
4 0 10 0.08 0.58
0 -4 10 0.66 0.81
-4 4 10 0.6 0.71
-4 4 10 0.4 0.71
-4 5 12 1.67 0.56
-4 5 9 230.14 5.43
-1 -4 9 238.82 5.37
5 -1 9 240.29 5.37
5 -1 9 240.96 5.27
5 -1 6 576.83 11.8
-4 5 6 555.91 13.03
-1 -4 6 557.57 11.79
-4 5 3 120.56 3.18
4 -5 -3 124.07 2.87
5 -1 0 197.19 4.3
4 -5 3 2046.11 41.84
-5 1 6 856.53 18.3
4 -5 6 827.04 17.26
4 -5 9 0.39 0.48
1 4 9 -0.07 0.62
4 -5 9 1.11 0.72
-5 1 9 0.68 0.65
-5 1 12 169.84 3.78
-3 5 10 28.44 1.2
5 -2 10 28.11 1.1
-3 5 10 28.13 1.13
-2 -3 10 27.27 1.1
5 -2 7 200.46 4.45
-3 5 7 213.04 5.95
5 -2 7 208.44 4.48
5 -2 7 195.07 4.47
-2 -3 4 499.73 9.93
5 -2 4 492.23 9.46
-3 5 4 472.34 10.11
5 -2 1 348.99 7.39
5 -2 -2 38.59 1.07
-5 2 5 122.67 3.57
3 -5 5 127.71 2.88
3 -5 8 18.77 1.02
-5 2 8 16.82 1.26
-5 2 8 18.19 1.07
2 3 8 18.7 0.94
3 -5 8 18.8 1
-5 2 11 9.29 0.83
2 3 11 8.64 0.62
-5 2 11 9.15 0.65
-3 -2 11 2.68 0.48
-2 5 11 2.9 0.53
-2 5 11 3.25 0.64
5 -3 8 19.4 0.99
-2 5 8 18.45 0.97
-3 -2 8 17.35 0.99
5 -3 8 18.45 0.85
-2 5 5 30.2 1.63
-3 -2 5 33.56 1.44
-3 -2 5 31.03 0.88
5 -3 5 33.42 0.97
5 -3 2 99.08 2.34
5 -3 -1 2.72 0.4
2 -5 4 31.65 0.91
-5 3 4 36.45 1.44
2 -5 7 2.7 0.4
-5 3 7 2.74 0.61
-5 3 7 2.27 0.45
2 -5 7 2.59 0.42
3 2 7 3.05 0.44
2 -5 7 2.69 0.46
-5 3 7 1.12 0.82
2 -5 10 3.27 0.53
3 2 10 2.82 0.64
-5 3 10 3 0.78
3 2 10 3.27 0.54
2 -5 10 2.63 0.79
5 -4 9 295.87 6.45
-1 5 9 284.93 6.46
-4 -1 9 287.94 6.4
-4 -1 6 760.53 16.95
-1 5 6 795.91 17.31
-4 -1 3 247.48 5.4
5 -4 3 237.38 5.23
5 -4 0 171.73 3.84
5 -4 -3 1521.57 31.14
1 -5 6 652.54 13.63
-5 4 6 666.71 14.8
4 1 9 0.76 0.53
4 1 9 -0.2 0.6
1 -5 9 0.3 0.75
1 -5 9 0.49 0.58
-5 4 12 138.23 3.17
0 5 10 4.04 0.65
0 5 10 3.79 0.68
5 -5 10 4.44 0.72
5 -5 7 65.69 1.72
-5 0 7 68.8 1.97
-5 0 7 68.82 2.71
-5 0 7 67.64 1.82
0 5 7 68.6 1.99
5 -5 7 67.2 1.8
-5 0 4 57.42 1.76
5 -5 4 48.5 1.29
0 5 1 21.55 0.83
5 0 -1 24.26 0.79
5 -5 -2 165.94 3.74
0 -5 5 124.45 2.82
-5 5 5 119 3.62
5 0 5 125.85 2.79
5 0 8 43.82 1.36
5 0 8 40.86 1.35
-5 5 8 42.04 1.87
0 -5 11 0.14 0.55
-5 5 11 -0.08 0.64
-5 5 11 0.27 0.53
6 -1 10 104.53 2.59
-1 -5 10 106.12 2.64
6 -1 7 74.72 1.89
-5 6 7 78.86 3.13
-5 6 7 77.15 2.11
6 -1 7 72.86 1.85
-1 -5 7 74.45 1.93
5 -6 -4 18.73 0.7
-5 6 4 19.99 1.21
-1 -5 4 20.14 0.64
6 -1 4 19.98 0.64
6 -1 1 602.68 12.57
6 -1 -2 592.69 12.32
1 5 2 587.5 12.48
5 -6 5 2.88 0.38
-6 1 5 2.86 0.72
5 -6 8 156.27 3.69
1 5 8 169.24 4.14
5 -6 8 165.59 3.84
-6 1 8 162.33 3.86
5 -6 8 158.99 3.71
1 5 8 155.8 3.77
-6 1 11 109.97 2.67
-4 6 11 18.35 0.85
-4 6 11 20.28 0.96
-2 -4 11 17.9 0.75
6 -2 8 50.53 1.52
6 -2 8 47.63 1.42
-4 6 8 46.41 1.64
-2 -4 8 48.89 1.7
6 -2 5 69.06 1.67
-4 6 5 71.25 2.5
-2 -4 5 67.08 2.16
-2 -4 5 66.76 1.64
6 -2 2 14.81 0.69
-2 -4 2 15.73 0.55
6 -2 -1 21.45 0.82
4 -6 4 16.03 0.66
-6 2 4 16.98 1.05
2 4 7 3.48 0.66
-6 2 7 4.49 0.52
-6 2 7 2.51 0.84
-6 2 7 3.66 0.62
4 -6 7 4.2 0.5
4 -6 7 4.29 0.41
4 -6 7 4.44 0.45
4 -6 7 3.75 0.48
4 -6 10 19.92 0.77
2 4 10 21.41 0.96
-6 2 10 20.88 1.01
4 -6 10 21.17 1.04
2 4 10 20.57 0.92
-3 6 12 104.43 2.41
6 -3 9 195.25 4.49
-3 6 9 194.13 4.58
6 -3 6 2.93 0.38
-3 6 6 3.9 0.98
6 -3 3 465.34 10.28
-3 -3 3 527.33 10.41
6 -3 0 2355.63 48.12
6 -3 -3 946.21 19.52
3 -6 6 8.59 0.56
-6 3 6 8.19 1.14
3 -6 9 397.25 8.54
-6 3 9 387.98 8.5
3 -6 9 387.56 8.41
3 3 9 390.2 8.39
3 3 9 392.87 8.44
-6 3 12 221.5 4.83
-2 6 10 96.18 2.52
-4 -2 10 91.78 2.46
-2 6 10 95.15 2.42
6 -4 10 95.33 2.41
6 -4 7 106.41 2.56
6 -4 7 103.11 2.49
6 -4 7 107.1 2.57
-2 6 7 107.37 2.77
-4 -2 7 106.06 2.58
6 -4 4 0.68 0.24
-4 -2 4 0.42 0.54
-2 6 1 141.18 3.24
6 -4 1 150.79 3.39
6 -4 -2 122.61 2.85
-6 4 5 40.72 1.81
2 -6 5 42.56 1.17
-6 4 8 10.06 1.06
-6 4 8 8.49 1.42
2 -6 8 10.34 0.76
4 2 8 8.74 0.74
2 -6 8 10.66 1.09
-6 4 11 38.66 1.34
-6 4 11 36.9 1.2
-1 6 11 42.9 1.32
-1 6 11 42.31 1.27
-5 -1 11 41.76 1.29
6 -5 8 3.5 0.71
-1 6 8 2.62 1.25
-1 6 8 3.19 0.79
-5 -1 8 2.29 0.89
-5 -1 5 84.02 2.58
-1 6 5 79.89 2.74
6 -5 2 354.88 7.42
-1 6 2 331.6 7.44
6 -5 -1 124.25 2.96
5 1 4 16.1 0.53
6 -5 -4 16.54 0.62
-6 5 4 16.32 1.12
1 -6 7 97.48 2.33
1 -6 7 94.39 2.28
5 1 7 92.31 2.3
-6 5 7 89.45 2.46
-6 5 7 93.94 3.49
1 -6 10 36.09 1.38
1 -6 10 34.37 1.18
5 1 10 33.89 1.18
6 -6 9 359.98 7.85
-6 0 9 363.74 7.84
-6 0 9 360.92 7.84
0 6 9 357.43 7.89
-6 0 6 66.81 2.44
0 6 3 664.83 14.08
6 -6 3 653.64 13.83
0 6 0 2144.88 43.96
6 0 0 2200.75 44.16
6 -6 -3 405.64 8.65
6 0 6 75.58 1.82
0 -6 6 74.18 1.87
-6 6 6 71.92 2.86
-6 6 9 307.93 7.13
0 -6 9 308.95 6.8
6 0 9 312.73 6.68
6 0 9 303.63 6.74
-6 6 12 116.8 2.73
-6 7 11 44.73 1.44
-1 -6 11 42.95 1.23
7 -1 8 18.53 0.87
-1 -6 8 19.49 1.07
-6 7 8 18.93 1.3
7 -1 8 18.23 0.8
-1 -6 8 19.24 1.09
7 -1 5 30.85 0.9
-1 -6 5 31.94 0.94
-6 7 5 29.37 1.59
7 -1 2 192.77 4.3
1 6 1 67.93 1.75
7 -1 -1 67.66 1.8
-7 1 4 19.99 1.11
6 -7 4 18.33 0.81
1 6 7 88.93 2.39
-7 1 7 80.83 3.05
6 -7 7 83.04 2.2
-7 1 7 88.21 2.22
6 -7 7 86.78 2.12
6 -7 7 86.33 2.21
-7 1 7 86.05 2.35
-7 1 10 43.09 1.54
1 6 10 42.87 1.36
1 6 10 42.29 1.39
-5 7 12 73.36 1.82
-2 -5 9 0.7 0.76
7 -2 9 0.63 0.56
-2 -5 9 1.11 0.66
-5 7 9 1.96 1.08
-2 -5 6 471.03 9.81
-5 7 6 452.3 11.07
7 -2 6 467.73 9.83
-2 -5 3 1054.04 22.16
5 -7 -3 1071.69 22.28
7 -2 3 1103.39 22.2
7 -2 0 272.72 5.97
7 -2 -3 263.53 5.75
5 -7 6 903.19 18.94
-7 2 6 961.86 20.13
5 -7 9 372.43 7.92
2 5 9 365.68 7.88
-7 2 9 362.06 7.89
5 -7 9 352.01 7.76
-3 -4 10 29.24 1.19
7 -3 10 29.24 1.05
-4 7 10 30.01 1.27
7 -3 7 28.61 0.97
7 -3 7 27.96 0.92
-4 7 7 29.67 1.99
-3 -4 7 28.26 0.98
7 -3 7 29.05 0.99
-3 -4 7 28.4 0.98
-3 -4 4 340.41 6.99
-3 -4 4 345.08 7.4
7 -3 1 410.93 8.78
7 -3 -2 0.19 0.39
-7 3 5 285.81 6.97
-7 3 8 219.02 5
-7 3 8 211.05 6.31
4 -7 8 219.03 5.02
3 4 8 218.69 4.92
4 -7 8 215.75 4.88
-7 3 8 220.54 5.28
4 -7 8 215.6 4.88
-7 3 11 23.37 0.95
-4 -3 11 1.21 0.47
-3 7 11 1.25 0.53
-3 7 11 1.19 0.59
-3 7 8 7.98 0.9
-4 -3 8 7.88 0.76
-3 7 8 7.73 1.23
7 -4 8 8.17 0.74
-4 -3 8 7.54 0.85
7 -4 5 48.17 1.28
-4 -3 5 49.9 1.75
7 -4 2 91.05 2.21
-3 7 2 80.5 2.22
7 -4 -1 24.71 0.94
7 -4 -4 58.7 1.55
-7 4 4 66.27 2.16
-7 4 7 73.63 2.09
3 -7 7 73.22 1.92
-7 4 7 77.97 3.08
4 3 7 73.78 1.89
-7 4 7 73.88 1.94
3 -7 7 74.69 1.98
3 -7 7 74.57 1.95
-7 4 10 3.55 0.74
3 -7 10 3.8 0.51
3 -7 10 4.01 0.79
4 3 10 4.78 0.53
4 3 10 4.03 0.59
7 -5 9 -0.12 0.58
-5 -2 9 -0.36 0.74
-2 7 9 0.52 0.67
-5 -2 6 372.96 8.95
-2 7 6 385.05 9.35
7 -5 6 390.54 8.21
7 -5 3 1041.07 21.72
-2 7 3 1059.85 21.96
7 -5 0 201.11 4.55
7 -5 -3 370.23 7.94
2 -7 6 836.94 17.42
-7 5 6 856.21 18.68
-7 5 9 282.07 6.49
2 -7 9 278.44 6.13
-7 5 9 271.68 6.21
5 2 9 281.91 6.08
5 2 9 269.11 6.09
2 -7 9 281.33 6.23
-7 5 12 2.23 0.55
-6 -1 10 43.47 1.48
-1 7 10 43.16 1.37
-6 -1 10 44.3 1.58
-1 7 10 43.89 1.48
7 -6 7 4.04 0.49
-6 -1 7 3.19 0.48
-6 -1 7 2.21 0.78
-1 7 7 3.16 0.66
-6 -1 4 193.92 4.4
7 -6 4 172.05 4.07
7 -6 1 227.13 4.92
-1 7 1 208.21 4.69
7 -6 -2 1.49 0.47
-7 6 5 114.92 3.52
6 1 5 111.07 2.52
1 -7 5 113.92 2.6
6 1 8 125.71 3.01
6 1 8 129.57 3.04
1 -7 8 128.49 3.17
-7 6 8 127.03 3.15
-7 6 8 124.34 3.41
-7 6 8 130.9 4.72
-7 6 11 27.77 1.12
-7 6 11 24.69 0.96
-7 0 11 4.54 0.59
0 7 11 4.92 0.5
-7 0 11 4.58 0.68
7 -7 8 218.04 4.95
0 7 8 219.33 5.24
0 7 8 218.08 4.93
-7 0 8 213.51 4.92
-7 0 5 481.79 10.79
0 7 2 54.4 1.7
7 -7 2 60.01 1.76
7 0 1 339.98 7.51
7 -7 -1 364.74 7.68
-7 7 4 469.16 9.84
7 0 4 442.17 8.95
7 0 7 67.54 1.74
0 -7 7 67.68 1.84
0 -7 7 73.61 1.84
-7 7 7 68.58 1.96
7 0 7 68.31 1.77
0 -7 7 71.26 1.91
-7 7 7 74.01 3.18
0 -7 10 12.55 0.8
-7 8 12 1.27 0.49
-1 -7 9 185.39 4.33
8 -1 9 177.2 4.11
-7 8 9 178.45 4.34
-1 -7 9 187.98 4.28
-7 8 9 190.51 4.66
8 -1 6 544.1 11.37
-1 -7 6 543.22 11.41
-7 8 6 563.58 12.93
7 -8 -3 118.13 2.98
8 -1 0 558.99 11.82
7 -8 3 1353.36 28.46
1 7 3 1392.36 28.62
-8 1 6 362.45 8.34
7 -8 6 333.18 7.3
7 -8 9 4.32 0.67
-8 1 9 3.41 0.66
-8 1 9 3.74 0.68
1 7 9 3.88 0.68
7 -8 9 3.81 0.42
-8 1 12 90.58 2.12
-2 -6 10 48.88 1.54
-2 -6 10 49.91 1.63
-6 8 7 293.74 6.43
8 -2 7 281.64 6.18
-2 -6 7 293.18 6.32
8 -2 7 286.13 6.22
-6 8 7 301.97 7.94
-2 -6 4 215.84 4.5
6 -8 -4 201.46 4.74
8 -2 4 209.44 4.5
8 -2 1 61.75 1.74
8 -2 -2 1001.82 20.79
-8 2 5 727.9 15.89
6 -8 8 38.38 1.21
-8 2 8 37.83 1.6
2 6 8 37.91 1.4
6 -8 8 38.65 1.29
-8 2 8 39.22 1.35
6 -8 8 38.2 1.37
-8 2 8 38.2 2.19
-8 2 11 41.2 1.32
-8 2 11 44.38 1.42
-3 -5 11 1.29 0.45
-5 8 11 1.18 0.59
-5 8 11 1.22 0.61
8 -3 8 22.4 0.93
-3 -5 8 22.46 1.09
-3 -5 5 24.1 0.75
-5 8 5 24.95 1.51
8 -3 5 24.02 0.79
-3 -5 5 22.7 1.08
-3 -5 2 12.76 0.45
8 -3 2 12.87 0.69
8 -3 -1 260.58 5.77
5 -8 4 252.99 5.74
-8 3 7 29.85 1.09
3 5 7 32.92 1.26
-8 3 7 32.27 1.23
5 -8 7 31.74 1.1
5 -8 7 28.91 1.08
5 -8 7 31.27 1.02
-8 3 7 31.46 1.89
-8 3 10 2.79 0.76
3 5 10 3.29 0.56
3 5 10 3.32 0.55
-8 3 10 3.29 0.67
-4 8 9 260.98 5.96
-4 -4 9 262.13 5.9
-4 -4 9 263.17 5.96
8 -4 9 264.9 5.8
8 -4 6 522.05 10.94
-4 8 6 515.76 12.22
8 -4 3 25.44 0.96
-4 8 3 26.95 1.2
-4 -4 3 27.77 0.94
8 -4 0 643.18 13.55
8 -4 -3 1079.12 22.36
4 -8 6 378 8.13
-8 4 6 389.86 9.26
-8 4 9 0.28 0.66
4 4 9 -0.41 0.52
4 4 9 0.41 0.51
4 -8 9 0.46 0.5
4 -8 9 0.09 0.68
-5 -3 10 22.67 1.18
-5 -3 10 22.54 1.07
-3 8 10 22.94 1.13
8 -5 7 205.46 4.54
-3 8 7 201.26 4.7
-5 -3 7 202.92 4.53
8 -5 7 198.4 4.51
-5 -3 4 133.38 3.25
-5 -3 4 131.45 2.79
8 -5 1 90.12 2.36
8 -5 -2 510.57 10.87
-8 5 5 247.74 6.09
3 -8 5 237.1 5.18
5 3 8 15.58 0.83
5 3 8 14.8 0.7
-8 5 8 16.29 1.2
3 -8 8 14.74 1
3 -8 8 15.77 0.78
3 -8 8 15.69 0.97
-8 5 8 16.16 0.96
-8 5 8 13.26 1.82
-8 5 11 15.09 0.8
-2 8 11 49.32 1.42
-2 8 11 47.98 1.41
-6 -2 11 47.5 1.4
-6 -2 11 49.14 1.47
-6 -2 8 129.62 3.08
-6 -2 8 127.72 3.09
-2 8 8 126.74 3.38
8 -6 8 124.65 3.05
8 -6 8 127.87 3.1
-6 -2 5 46.85 1.77
8 -6 2 74.47 2.06
-2 8 2 73.68 2.02
8 -6 -1 299.19 6.61
6 2 4 103.66 2.27
8 -6 -4 98.6 2.52
2 -8 7 5.93 0.53
-8 6 7 5.21 0.64
2 -8 7 5.5 0.55
-8 6 7 6.36 1.31
6 2 7 5.73 0.47
2 -8 10 60.9 1.71
2 -8 10 64.59 1.86
-8 6 10 61.63 1.83
-7 -1 12 0.33 0.29
8 -7 9 134.39 3.23
-1 8 9 131.5 3.33
-7 -1 9 135.91 3.32
-7 -1 9 137.41 3.25
-7 -1 6 491.48 11.22
8 -7 3 153.68 3.77
-1 8 3 159.83 3.94
-1 8 0 520.22 10.93
8 -7 0 566.98 11.42
8 -7 -3 1135.38 23.56
-8 7 6 300.15 7.62
1 -8 6 289.99 6.31
-8 7 9 6.75 0.84
-8 7 9 8.66 1.15
7 1 9 7.16 0.58
7 1 9 6.73 0.53
1 -8 9 6.55 0.69
-8 7 12 83.56 2.05
0 8 10 3.8 0.67
0 8 10 4.66 0.61
-8 0 10 4.64 0.8
8 -8 7 101.34 2.48
-8 0 7 93.98 3.29
-8 0 7 97.94 2.61
0 8 7 99.58 2.67
-8 0 7 102.54 2.51
-8 0 4 173.1 4.2
0 8 4 168.65 4.38
8 -8 4 161.31 3.99
8 -8 1 44.62 1.64
0 8 1 49.08 1.36
8 -8 -2 69.45 2.03
-8 8 5 225.81 5.78
8 0 5 213.22 4.61
0 -8 5 214.76 4.68
-8 8 8 29.1 2.18
8 0 8 27.9 0.96
-8 8 8 29.84 1.43
-8 8 8 29.43 1.17
0 -8 8 28.85 1.16
0 -8 8 29.59 1.22
-8 8 11 13.98 0.86
-8 9 10 143.05 3.53
-1 -8 10 140.41 3.37
-1 -8 10 148.67 3.47
-8 9 7 63.74 3.46
-8 9 7 61.25 1.94
-1 -8 7 61.94 1.79
-1 -8 7 62.78 1.9
-1 -8 7 64.7 1.69
9 -1 4 80.78 1.81
-1 -8 4 76.6 1.83
9 -1 1 768.1 16.12
1 8 2 790.51 16.41
8 -9 2 761.47 16.5
-9 1 5 4.99 0.79
1 8 8 172.11 3.85
8 -9 8 167.33 3.85
1 8 8 167.63 4.14
-9 1 8 168.81 3.87
-9 1 11 123.9 2.99
-9 1 11 126.66 2.98
-7 9 11 13.2 0.83
-2 -7 11 12 0.61
9 -2 8 44.29 1.32
-7 9 8 49.72 2.8
-2 -7 8 46.7 1.5
-7 9 8 44.04 1.78
-2 -7 8 46.54 1.56
9 -2 5 5.68 0.4
-7 9 5 4.31 0.97
-2 -7 5 5.25 0.38
9 -2 2 80.34 2.15
9 -2 -1 265.44 5.93
7 -9 4 73.83 2.16
7 -9 7 1.99 0.52
2 7 7 1.15 0.6
7 -9 7 2.06 0.36
-9 2 7 0.62 0.81
7 -9 7 1.46 0.47
-9 2 7 0.68 0.54
-9 2 7 1.17 0.5
-9 2 10 22.36 1.09
2 7 10 22.46 0.93
-6 9 12 91.67 2.13
-3 -6 9 203.59 4.61
-3 -6 9 199.23 4.55
9 -3 9 188.32 4.35
-3 -6 6 0.97 0.35
9 -3 6 0.53 0.32
-6 9 6 1.59 0.95
-3 -6 6 1.01 0.39
-3 -6 6 0.85 0.29
9 -3 3 733.14 14.86
-6 9 3 733.63 15.16
9 -3 0 1293.63 26.77
9 -3 -3 307.44 6.77
6 -9 6 23.31 0.89
-9 3 6 23.12 1.52
-9 3 9 215.42 4.83
6 -9 9 203.05 4.67
3 6 9 211.47 4.79
3 6 9 210.37 4.67
6 -9 9 217.1 4.83
-9 3 12 108.76 2.5
-4 -5 10 132.57 3.21
-4 -5 10 125.34 3.14
-5 9 10 131.29 3.27
-5 9 7 44.51 2.86
9 -4 7 43.21 1.28
-4 -5 7 47.43 1.35
-4 -5 7 43.56 1.37
9 -4 7 45.87 1.34
5 -9 -4 165.64 3.88
-4 -5 4 163.41 3.46
9 -4 4 153.93 3.72
-4 -5 4 159.09 3.8
9 -4 1 1312.19 27.17
9 -4 -2 851.12 17.79
-9 4 5 28.03 1.53
-9 4 8 87.81 2.56
-9 4 8 86.49 3.6
-9 4 8 87.93 2.37
5 -9 8 87.91 2.31
5 -9 8 88.14 2.36
4 5 8 89.69 2.35
5 -9 8 89.63 2.32
-9 4 11 100.88 2.5
-9 4 11 100.73 2.55
-4 9 11 24.19 0.99
-5 -4 11 24.09 0.91
-5 -4 11 23.97 0.97
-4 9 11 25.86 1
9 -5 8 1.04 0.58
-5 -4 8 0.76 0.67
-4 9 8 0.39 0.92
-5 -4 5 80.36 2.41
9 -5 5 82.61 1.99
-4 9 2 243.37 5.68
9 -5 2 263.52 5.74
9 -5 -1 226.76 5.17
9 -5 -4 3.88 0.44
4 -9 7 70.44 1.9
-9 5 7 65.95 2.99
-9 5 7 71.71 2.01
5 4 7 67.65 1.8
4 -9 7 70.75 1.85
4 -9 7 69.99 1.91
-9 5 7 71.17 1.88
5 4 10 57.22 1.55
-9 5 10 58.19 1.72
-9 5 10 61.99 1.75
-6 -3 9 192.88 4.51
-3 9 9 190.18 4.51
-3 9 9 190.1 4.78
9 -6 9 191.23 4.34
9 -6 6 23.96 0.89
-6 -3 6 22.46 1.26
-3 9 3 284.43 6.53
9 -6 3 284.69 6.39
9 -6 0 975.44 20.37
9 -6 -3 316.25 6.97
-9 6 6 31.16 1.79
3 -9 6 28.64 1.01
-9 6 9 220.28 5.23
3 -9 9 213.85 4.84
6 3 9 203.12 4.75
-9 6 9 215.18 4.95
3 -9 9 223.33 4.95
6 3 9 218.67 4.78
-7 -2 10 122.28 3.01
-2 9 10 118.09 2.98
-7 -2 10 115.76 2.94
9 -7 7 138.13 3.29
9 -7 7 134.29 3.23
-2 9 7 144.35 3.44
-7 -2 7 140.76 3.27
-2 9 4 3.02 0.78
9 -7 4 2.12 0.46
-7 -2 4 3.04 0.58
-2 9 1 241.08 5.35
9 -7 1 250.4 5.64
9 -7 -2 314.07 6.97
-9 7 5 9.81 1.14
2 -9 5 8.94 0.52
-9 7 8 69.24 1.98
-9 7 8 68.4 2.18
7 2 8 69.79 1.84
2 -9 8 71.81 1.95
-9 7 11 84.39 2.12
-8 -1 11 61.71 1.69
-1 9 11 61.21 1.61
-8 -1 11 60.69 1.67
-8 -1 8 2.11 0.59
9 -8 8 2.06 0.59
-1 9 8 2.08 0.89
-8 -1 5 226.71 5.62
-1 9 5 235.1 5.99
9 -8 2 577.99 12.4
-1 9 2 575.17 12.3
9 -8 -1 93.72 2.59
9 -8 -4 115.18 2.94
8 1 4 116.81 2.55
1 -9 7 290.89 6.41
1 -9 7 292.55 6.47
1 -9 7 296.66 6.39
-9 8 7 293.41 8.17
-9 8 7 288.64 6.5
1 -9 10 92.59 2.34
-9 8 10 94.93 2.49
-9 0 12 44.93 1.14
0 9 9 186.5 4.38
-9 0 9 188.57 4.36
-9 0 6 49.52 2.11
-9 0 6 52.69 1.45
9 -9 3 247.13 5.86
0 9 3 254.2 5.95
9 -9 0 1138.8 23.89
9 -9 -3 475.25 10.34
-9 9 6 0.26 0.93
0 -9 6 1.27 0.37
0 -9 6 0.78 0.42
0 -9 6 1.16 0.42
-9 9 9 130.7 3.51
0 -9 9 122.9 3.07
-9 9 9 125.41 3.19
0 -9 9 124.19 3.12
-9 9 12 56.48 1.48
-9 10 11 41.29 1.36
-9 10 11 42.08 1.31
-9 10 8 16.91 1.17
-1 -9 8 19.38 1.01
-9 10 8 17.92 1.84
-1 -9 8 18.38 0.96
-9 10 5 46.59 2.18
-1 -9 5 44.84 1.23
10 -1 5 44.35 1.18
9 -10 -2 393.33 8.81
10 -1 -1 262.69 5.94
9 -10 4 8.93 0.78
9 -10 7 36.96 1.23
-10 1 7 35.27 1.34
-10 1 7 36.33 1.99
9 -10 7 32.68 1.02
1 9 7 37.97 1.41
-10 1 7 35.67 1.5
-10 1 10 42.68 1.46
1 9 10 43.64 1.36
-8 10 12 39.96 1.12
-2 -8 9 2.09 0.67
-8 10 9 3.41 1.1
-8 10 9 2.37 0.77
-2 -8 9 2.03 0.73
-2 -8 6 329.83 6.88
-8 10 6 343.26 8.46
10 -2 6 322.91 6.86
8 -10 -3 694.37 14.89
10 -2 0 147.49 3.59
8 -10 3 232.52 5.56
-10 2 6 466.29 9.9
8 -10 6 469.25 9.98
-10 2 6 454.67 10.88
8 -10 6 472.66 9.89
-10 2 9 147.5 3.55
-10 2 9 156.72 3.58
2 8 9 148.55 3.6
-10 2 12 0.31 0.33
-3 -7 10 18.5 0.91
-3 -7 10 17.58 0.96
10 -3 7 108.11 2.55
-3 -7 7 101.35 2.77
-7 10 7 109.85 4.22
7 -10 -4 740.33 15.52
-3 -7 4 722.09 15
10 -3 4 733.77 15.03
10 -3 1 752.03 15.88
10 -3 -2 10.42 0.71
-10 3 5 280.94 6.92
-10 3 8 301.97 6.65
7 -10 8 292.75 6.48
7 -10 8 282.42 6.32
3 7 8 286.07 6.38
-10 3 8 293.52 6.45
7 -10 8 304.14 6.45
-10 3 8 270.55 7.74
-10 3 11 36.68 1.26
-10 3 11 37.35 1.22
-6 10 11 2.48 0.62
-6 10 11 2.91 0.62
-4 -6 11 2.79 0.48
-4 -6 8 14.2 0.9
10 -4 8 13.7 0.71
-4 -6 8 14.19 0.93
-4 -6 5 97.79 2.22
10 -4 5 95.82 2.29
10 -4 2 144.79 3.3
-4 -6 2 126.62 2.8
10 -4 -1 5.95 0.64
6 -10 4 83.94 2.45
6 -10 7 109.69 2.72
-10 4 7 104.97 3.91
6 -10 7 111.35 2.7
-10 4 7 107.79 2.79
4 6 7 106.31 2.78
-10 4 7 105.96 2.7
6 -10 7 104.94 2.58
4 6 10 19.5 0.81
-10 4 10 19.19 0.99
-10 4 10 20.01 0.9
-5 -5 9 2.77 0.72
-5 10 9 2.68 0.76
-5 10 9 3.74 1.09
-5 -5 9 3.2 0.79
10 -5 6 389.68 8.09
-5 -5 6 381.77 8.05
-5 -5 6 367.48 8.03
10 -5 3 852.79 17.62
-5 -5 3 816.31 17.35
-5 10 3 868.1 17.83
10 -5 0 265.31 6
10 -5 -3 123.53 3.1
-10 5 6 357.89 8.81
5 -10 6 351.93 7.63
-10 5 6 344.85 7.57
5 -10 6 366.19 7.62
5 5 9 163.28 3.74
5 -10 9 168.31 3.86
5 -10 9 161.2 3.72
5 5 9 152.94 3.66
-10 5 9 167.87 3.86
-10 5 12 6.01 0.55
-6 -4 10 24.87 1.15
-6 -4 10 25.12 1.08
-4 10 10 24.63 1.17
-4 10 7 75.68 2.2
10 -6 7 73.81 1.92
10 -6 7 79.02 2.02
-6 -4 7 74.11 2.03
-6 -4 7 78.93 2.02
-4 10 4 740.49 15.48
-6 -4 4 694.94 14.95
10 -6 4 704.44 14.96
10 -6 1 653.77 13.96
10 -6 -2 9.44 0.7
-10 6 5 337.37 8.23
6 4 8 210.32 4.77
-10 6 8 212.17 4.88
4 -10 8 213.31 4.8
4 -10 8 216.7 4.87
-10 6 8 210.48 5.05
4 -10 8 214.54 4.82
-10 6 8 198.18 6.3
-10 6 11 18.42 0.95
-7 -3 11 0.75 0.55
-3 10 11 0.76 0.51
-7 -3 11 0.17 0.5
-3 10 11 0.59 0.48
10 -7 8 103.04 2.55
10 -7 8 104.9 2.6
-3 10 8 103.4 2.91
-7 -3 8 103.49 2.65
-3 10 5 348.38 8.11
-7 -3 5 319.44 7.56
10 -7 2 223.62 5.06
-3 10 2 207.23 4.93
10 -7 -1 75.28 2.15
10 -7 -4 394.85 8.62
-10 7 7 162.05 4.01
3 -10 7 169.34 3.86
7 3 7 163.87 3.76
3 -10 7 168.42 3.85
-10 7 10 2.72 0.66
-8 -2 9 7.9 0.85
-2 10 9 8.86 1.14
-2 10 9 9.48 0.83
-8 -2 6 110.18 2.64
10 -8 6 110.44 2.7
-8 -2 6 105.82 3.28
-2 10 6 114.47 2.68
-2 10 6 115.67 3.83
-2 10 3 704.41 15.62
10 -8 3 751.48 15.56
10 -8 0 728.21 15.22
-2 10 0 709.33 14.71
10 -8 -3 14.71 0.88
2 -10 6 378.71 8.15
-10 8 6 384.64 9.51
2 -10 6 381.62 8.14
2 -10 6 381.55 8.17
-10 8 9 202.85 4.89
8 2 9 194.24 4.33
2 -10 9 197.01 4.5
-10 8 9 199.34 4.63
-9 -1 10 35.68 1.3
-1 10 10 36.4 1.28
-1 10 10 34.96 1.12
-9 -1 10 35.74 1.33
-9 -1 7 8.51 1.08
10 -9 7 8.67 0.59
10 -9 7 8.82 0.68
-1 10 7 9.49 1.05
-1 10 4 259.69 6.39
10 -9 4 261 6.07
-1 10 1 385.86 8.33
10 -9 1 394.08 8.73
10 -9 -2 30.9 1.29
1 -10 5 104.1 2.47
-10 9 5 104.4 3.46
-10 9 8 178.32 4.16
-10 9 8 169.73 5.75
1 -10 8 179.46 4.15
-10 9 8 178.73 4.43
1 -10 8 178.54 4.19
-10 9 11 27.21 0.99
-10 0 11 7.86 0.66
-10 0 11 9.05 0.68
-10 0 8 224.39 5.07
0 10 8 231.04 5.38
-10 0 5 368.24 8.1
10 -10 5 331.27 7.64
10 -10 2 33.11 1.46
0 10 2 31.84 1.27
10 -10 -1 449.64 10.03
10 0 4 651.83 13.44
10 -10 -4 658.24 14.03
0 -10 7 154.68 3.78
0 -10 7 153.92 3.77
0 -10 7 159.82 3.67
-10 10 7 167.2 3.86
-10 10 7 165.17 5.37
0 -10 10 3.46 0.57
-10 10 10 3.43 0.76
-10 11 12 9.54 0.49
-10 11 9 151.82 3.96
-1 -10 9 144.71 3.5
-10 11 9 143.01 3.58
-1 -10 9 142.48 3.47
-10 11 6 223.14 6.35
-10 11 6 215.13 5.26
11 -1 6 225.98 4.81
-1 -10 6 227.72 4.89
-1 -10 6 212.07 4.93
10 -11 -3 4.84 0.71
11 -1 0 412.22 9.33
10 -11 0 448.72 9.68
10 -11 3 613.18 13.42
1 10 6 104.04 2.58
-11 1 6 104.56 2.52
-11 1 6 104.62 3.34
-11 1 9 16.62 0.94
1 10 9 16.23 0.9
-2 -9 10 74.15 2.01
-9 11 10 79.74 2.2
-9 11 7 359.09 9.53
-9 11 7 363.49 7.82
-2 -9 7 348.82 7.76
9 -11 -4 215.02 5.26
-2 -9 4 217.71 4.72
11 -2 4 223.88 4.71
11 -2 1 33.03 1.3
11 -2 -2 671.38 14.29
-11 2 5 535.42 11.98
9 -11 5 524.52 11.51
9 -11 8 33.8 1.27
2 9 8 33.45 1.15
-11 2 8 31.51 1.17
-11 2 11 51.61 1.47
-11 2 11 50.66 1.48
-3 -8 11 0.7 0.4
-8 11 11 0.53 0.61
-3 -8 8 39.12 1.39
-3 -8 8 39.56 1.42
-8 11 8 40.65 2.61
11 -3 5 157.59 3.45
-3 -8 5 151.94 3.41
11 -3 2 135.19 3.43
11 -3 -1 4.89 0.65
8 -11 4 71.55 2.3
-11 3 7 38.42 2.54
8 -11 7 39.11 1.16
8 -11 7 40.84 1.56
8 -11 7 39.73 1.37
-11 3 7 37.63 1.6
3 8 7 39.51 1.42
-11 3 7 37.17 1.65
-11 3 10 0.07 0.67
3 8 10 0.11 0.43
-4 -7 9 189.75 4.46
-4 -7 9 193.02 4.48
-4 -7 6 379.06 8.24
11 -4 6 391.66 8.2
-7 11 3 12.25 1.04
11 -4 3 12.05 0.78
11 -4 0 687.99 14.64
11 -4 -3 732.84 15.52
-11 4 6 149.5 4.48
7 -11 6 151.08 3.41
-11 4 6 144.64 3.37
-11 4 6 143.15 3.41
7 -11 6 147.56 3.48
4 7 9 2.87 0.53
-11 4 9 3.83 0.65
-11 4 12 52.41 1.3
-5 -6 10 92.88 2.44
-5 -6 10 92.06 2.41
-6 11 10 96.08 2.58
-6 11 7 495.13 10.76
-5 -6 7 498.56 10.7
11 -5 7 504.46 10.58
-6 11 4 328.61 7.59
-5 -6 4 314.67 6.6
11 -5 4 315.88 7.04
11 -5 1 57.69 1.83
11 -5 -2 803.25 16.94
-11 5 5 531.06 11.69
6 -11 5 488.87 10.93
6 -11 8 27.78 1.13
-11 5 8 25.89 1.13
-11 5 8 29.23 1.35
5 6 8 28 1.04
6 -11 8 28.07 1.02
6 -11 8 27.2 1.1
-11 5 11 38.59 1.27
-11 5 11 39.72 1.3
-5 11 11 40.54 1.26
-5 11 11 41.04 1.31
-6 -5 11 41.04 1.21
-6 -5 8 138.32 3.39
-5 11 8 134.83 3.6
11 -6 8 138.36 3.25
-5 11 5 73.81 2.75
-5 11 2 89.42 2.46
11 -6 2 89.49 2.52
11 -6 -1 459.6 10
11 -6 -4 289.82 6.55
5 -11 7 12.89 1.2
-11 6 7 10.95 2.09
6 5 7 12.49 0.62
-11 6 7 11.39 1.38
5 -11 7 12.78 0.75
-11 6 7 12.37 1.28
-11 6 10 31.16 1.15
-11 6 10 30.88 1.13
-7 -4 9 116.62 2.98
-4 11 9 116 3.28
-4 11 9 115.99 3.01
-7 -4 6 365.17 7.74
11 -7 6 357.83 7.8
-4 11 6 362.99 9.13
-7 -4 6 365.91 7.72
11 -7 3 218.15 4.93
-4 11 3 190.18 4.91
11 -7 0 85.81 2.44
11 -7 -3 526 11.35
-11 7 6 320.05 8.12
4 -11 6 311.88 6.68
4 -11 6 304.28 6.73
-11 7 9 8.12 1.06
4 -11 9 8.02 0.65
-11 7 9 7.66 0.79
7 4 9 7.21 0.49
-8 -3 10 46.03 1.51
-8 -3 10 45.91 1.51
-3 11 10 47.66 1.58
-8 -3 7 356.64 7.7
-3 11 7 353.7 7.89
-8 -3 7 359.35 7.69
11 -8 7 351.01 7.72
-8 -3 4 319.11 7.17
-3 11 4 329.26 7.66
11 -8 4 313.42 7.21
-3 11 1 0.3 0.39
11 -8 1 0.29 0.61
11 -8 -2 433.53 9.51
-11 8 5 482.65 11.3
3 -11 8 32.84 1.17
-11 8 8 31.95 1.24
-11 8 8 30.75 1.45
3 -11 8 32.49 1.13
-11 8 8 30.1 2.24
-11 8 11 33.64 1.21
-9 -2 11 71.05 1.84
-2 11 11 70.91 1.81
-9 -2 11 72.21 1.83
11 -9 8 172.16 4.07
-9 -2 8 173.8 4.06
-2 11 8 176.51 4.33
11 -9 5 25.92 1.04
-9 -2 5 25.23 1.25
-2 11 5 27.46 1.58
11 -9 2 440.28 9.46
-2 11 2 410.33 9.27
11 -9 -1 1117.9 23.48
11 -9 -4 277.63 6.35
2 -11 7 10.53 0.91
2 -11 7 11.24 0.89
-11 9 7 9.2 1.67
-11 9 7 9.14 0.97
2 -11 7 10.73 0.66
-11 9 10 130.27 3.17
-10 -1 9 58.47 1.78
-1 11 9 56.46 1.76
-10 -1 6 336.8 7.27
11 -10 6 345.16 7.4
-10 -1 6 329.03 8.13
-1 11 6 341.59 7.33
-1 11 3 268.34 6.57
11 -10 3 292.8 6.65
11 -10 0 91.88 2.73
11 -10 -3 565.81 12.31
-11 10 6 353.7 9.1
1 -11 6 366.23 7.67
1 -11 6 351.28 7.67
1 -11 6 351.44 7.66
-11 10 9 22.79 1.47
-11 10 9 22.48 1.12
1 -11 9 21.71 0.98
-11 10 12 12.27 0.55
-11 0 10 26.28 1.09
0 11 10 27.06 1.03
-11 0 7 220.89 4.94
0 11 7 221.74 5.16
11 -11 4 193.94 4.89
11 -11 -2 365.1 8.36
-11 11 5 373.33 9.12
0 -11 5 379.08 7.89
11 0 5 364.98 7.75
0 -11 8 38.57 1.34
0 -11 8 37.56 1.36
-11 11 8 38.64 1.66
-11 11 8 38.4 2.46
-11 11 11 16.3 0.79
-11 12 10 206.32 4.72
-1 -11 10 204.26 4.57
-11 12 7 79.78 3.73
-11 12 7 83.7 2.43
-1 -11 7 79.43 2.3
-1 -11 7 83.88 2.08
12 -1 4 151.87 3.27
-1 -11 4 151.89 3.34
11 -12 -1 1363.16 28.75
11 -12 2 1111.55 23.66
-12 1 5 30.42 1.53
11 -12 5 29.42 1.29
1 11 8 163.44 4
-12 1 8 159.87 3.72
-12 1 11 152.92 3.44
-12 1 11 152.78 3.48
-10 12 11 14.21 0.8
-10 12 11 13.01 0.84
-10 12 8 87.29 3.79
-10 12 8 84.79 2.56
-2 -10 8 82.32 2.27
-2 -10 8 85.58 2.3
12 -2 5 67.59 1.65
-2 -10 5 66.89 1.68
10 -12 -2 7.26 0.93
12 -2 2 7.88 0.71
12 -2 -1 300.94 6.86
10 -12 4 224.56 5.58
-12 2 7 8.74 1.53
-12 2 7 9.09 0.75
-12 2 7 7.52 1.39
10 -12 7 8.62 0.77
2 10 7 8.35 1
-12 2 10 19.81 0.97
2 10 10 19.55 0.8
-3 -9 9 134.64 3.32
-9 12 9 138.95 3.82
-3 -9 9 135.15 3.33
-9 12 9 138.86 3.44
-3 -9 6 4.79 0.55
-3 -9 6 2.98 0.49
-3 -9 6 2.74 0.35
-9 12 6 3.7 0.85
12 -3 6 3.28 0.39
9 -12 -3 264.33 6.35
12 -3 0 353.42 7.91
9 -12 3 33.1 1.53
3 9 6 73.82 1.99
-12 3 6 74.28 1.97
-12 3 6 73.58 2.84
-12 3 6 75.09 1.93
9 -12 9 166.06 3.96
-12 3 9 166.61 3.86
3 9 9 160.19 3.87
-4 -8 10 243.31 5.34
-4 -8 10 235.48 5.31
12 -4 7 139.98 3.22
-4 -8 7 137.32 3.38
8 -12 -4 61.58 2.06
-8 12 4 62.85 2.32
-4 -8 4 58.77 1.42
12 -4 1 889.39 18.82
12 -4 -2 669.96 14.32
-12 4 5 7.89 1.06
8 -12 5 5.78 0.64
-12 4 8 161.64 3.78
-12 4 8 162.84 3.96
4 8 8 161.4 3.72
8 -12 8 162.82 3.87
-12 4 11 168.45 3.84
-12 4 11 170.36 3.84
-7 12 11 52.75 1.51
-5 -7 11 51.99 1.41
-7 12 11 52.97 1.56
-5 -7 8 51.17 1.65
-7 12 5 0.49 0.87
12 -5 5 0.5 0.32
12 -5 2 66.15 2.04
12 -5 -1 143.08 3.61
7 -12 4 8.25 0.78
-12 5 7 42.9 1.53
7 -12 7 44.11 1.4
-12 5 7 45.38 2.61
7 -12 7 40.96 1.43
-12 5 7 42.57 1.9
-12 5 10 65.17 1.76
-12 5 10 65.94 1.83
-6 -6 9 100.12 2.64
-6 12 9 100.64 2.71
-6 12 9 98.56 2.99
12 -6 6 0.63 0.38
-6 -6 6 0.59 0.42
-6 12 6 1.03 0.92
-6 12 3 396.83 8.9
-6 -6 3 377.23 8.29
12 -6 0 602.9 12.99
12 -6 -3 130.13 3.34
6 -12 6 17.6 0.73
-12 6 6 17.87 0.75
6 -12 6 18.55 0.81
-12 6 6 16.36 1.52
-12 6 6 17.4 0.71
6 -12 6 16.84 0.82
6 6 9 96.81 2.37
-12 6 9 99.41 2.54
-12 6 12 42.44 1.08
-7 -5 10 217.71 4.93
-7 -5 10 217.13 4.95
-5 12 10 224.53 5.11
12 -7 7 113.61 2.78
-7 -5 7 112.56 2.88
-5 12 7 114.46 2.95
-5 12 4 113.24 3.22
12 -7 4 104.08 2.79
-5 12 1 1301.43 26.88
12 -7 -2 948.74 19.99
5 -12 5 0.67 0.48
-12 7 5 1.87 0.94
5 -12 8 222.86 5.06
-12 7 8 227.09 5.29
7 5 8 219.53 4.92
5 -12 8 226.49 5
-12 7 8 225.86 5.1
-12 7 11 187.38 4.23
-4 12 11 58.91 1.64
-8 -4 11 61.28 1.6
-4 12 8 4.37 0.94
-8 -4 8 4.69 0.75
12 -8 8 3.93 0.54
-4 12 5 259.34 6.24
12 -8 5 216.03 5.22
-4 12 2 1088.07 23.37
12 -8 2 1159.84 23.6
12 -8 -1 813.59 15.19
-4 12 -1 688.91 14.41
12 -8 -4 1.3 0.47
4 -12 7 202.07 4.62
4 -12 7 204.83 4.66
-12 8 7 201.23 6.26
-12 8 7 202.86 4.74
-12 8 7 205.82 4.63
-12 8 10 105.6 2.62
-3 12 9 109.16 3.09
-9 -3 9 109.55 2.81
-3 12 9 108.4 2.84
-9 -3 6 58.14 1.55
-3 12 6 61.31 2.68
12 -9 6 57.74 1.66
12 -9 3 40.3 1.61
-3 12 3 42.67 1.67
12 -9 0 456.61 10.13
-3 12 0 455.44 9.53
12 -9 -3 502.92 11
-12 9 6 24.02 1.85
3 -12 6 21.26 0.9
3 -12 6 23.66 0.9
3 -12 6 22.87 0.91
-12 9 9 61.88 1.85
-12 9 9 60.51 2.11
3 -12 9 59.78 1.71
-2 12 10 127.3 3.13
-10 -2 10 127.76 3.08
-10 -2 7 74.31 1.95
-2 12 7 71 2.17
12 -10 7 72.75 2.05
-10 -2 7 74.48 1.94
12 -10 4 67.29 2.2
-10 -2 4 63.77 2.02
-2 12 4 65.25 2.34
-2 12 1 792.06 16.56
12 -10 -2 725.02 15.6
-12 10 5 29.61 1.82
2 -12 8 97.06 2.48
2 -12 8 94.69 2.36
-12 10 8 88.17 3.94
-12 10 8 90.97 2.44
-12 10 8 95.11 2.73
2 -12 8 92.48 2.42
-12 10 11 123.37 2.99
-12 10 11 126.44 2.88
-11 -1 11 42.83 1.22
-11 -1 11 41.24 1.26
-11 -1 8 8.71 0.75
12 -11 8 8.7 0.75
12 -11 5 381.67 8.74
-11 -1 5 403.2 9
12 -11 2 769.99 16.32
-1 12 2 739.82 16
12 -11 -1 99.74 2.97
12 -11 -4 227.56 5.47
1 -12 7 465.89 10.21
1 -12 7 482.28 10.15
1 -12 7 473.54 10.21
-12 11 7 501.51 12.33
-12 11 7 485.09 10.28
-12 11 10 126.97 3.09
-12 0 9 138.27 3.37
0 12 9 139.4 3.37
-12 0 6 71.64 1.83
0 12 6 68.32 1.9
-12 0 6 66.59 2.51
12 -12 3 64 2.27
12 -12 0 524.28 11.82
12 -12 -3 347.22 8.04
0 -12 6 19.47 0.78
-12 12 6 19.49 2.13
-12 12 6 19.95 1.25
0 -12 6 19.73 0.86
0 -12 9 28.41 1.14
-12 12 9 28.14 1.7
-12 12 9 29.19 1.29
-12 13 11 66.15 1.71
-12 13 8 59.67 2.07
-12 13 8 56.76 2.99
-1 -12 8 57.16 1.73
13 -1 5 24.41 0.74
-1 -12 5 23.5 0.87
-12 13 5 25.35 1.31
-1 -12 5 23.47 0.9
-1 -12 5 24.91 0.83
12 -13 -2 489.68 11.13
12 -13 4 3.45 0.75
1 12 7 91.17 2.58
-13 1 7 96.09 2.4
-13 1 10 91.45 2.3
-13 1 10 92.27 2.34
1 12 10 89.34 2.22
-11 13 9 8.09 0.94
-11 13 9 8.77 1.47
-2 -11 9 7.55 0.8
13 -2 6 148.37 3.27
-11 13 6 145.62 3.86
-2 -11 6 140.86 3.4
-2 -11 6 141.25 3.42
-2 -11 6 149.01 3.32
11 -13 -3 188.18 4.89
13 -2 0 12.76 0.92
11 -13 0 13.85 1.2
11 -13 3 123.32 3.61
13 -2 -6 195.09 4.17
2 11 6 178.93 4.28
-13 2 6 193.28 5.29
-13 2 6 184.36 4.19
-13 2 9 47.53 1.52
11 -13 9 49.34 1.57
2 11 9 46.63 1.47
-3 -10 10 26.48 1.02
-10 13 10 27.79 1.24
-3 -10 7 161.25 3.87
13 -3 4 1035.62 21.26
-10 13 4 1081.5 22.48
10 -13 -4 1007.02 22.03
13 -3 1 815.39 17.38
13 -3 -2 1.7 0.54
10 -13 5 484.33 11
-13 3 5 509.59 11.49
3 10 8 429.67 9.17
10 -13 8 432.04 9.39
-13 3 8 427.58 9.17
-13 3 11 42.73 1.32
-13 3 11 43.57 1.29
-9 13 11 17.39 0.89
-4 -9 8 0.79 0.65
-9 13 8 0.19 1.16
-4 -9 5 31.32 0.91
13 -4 5 34.19 1
-9 13 5 32.55 1.89
13 -4 2 124.02 3.31
13 -4 -1 33.36 1.36
9 -13 4 22.06 1.3
9 -13 7 71.98 2.1
4 9 7 71.44 2.09
-13 4 7 70.9 3.1
-13 4 7 71.44 1.95
-13 4 7 69.86 2.11
-13 4 10 25.66 1.05
-5 -8 9 1.95 0.71
13 -5 6 201.91 4.4
-5 -8 6 192.34 4.45
-8 13 6 193.74 4.82
-5 -8 6 195.07 4.45
13 -5 3 382.14 8.61
-8 13 3 382.24 8.78
13 -5 0 21.43 1.12
13 -5 -3 233.96 5.52
-13 5 6 250.4 5.51
5 8 6 240.25 5.52
-13 5 6 261.76 6.91
8 -13 6 254.13 5.44
-13 5 6 250.11 5.47
-13 5 9 65.75 1.8
5 8 9 61.97 1.69
-6 -7 10 32.33 1.16
-6 -7 10 32.78 1.18
-7 13 10 32.23 1.4
-6 -7 7 146.45 3.58
-7 13 7 146.15 3.63
13 -6 7 149.6 3.44
-6 -7 7 145.52 3.55
-7 13 4 1120.48 23.07
13 -6 4 1043.24 22.53
13 -6 -2 60.1 1.93
-13 6 5 660.92 14.38
7 -13 5 603.98 13.67
7 -13 8 406.08 8.74
-13 6 8 400.61 8.84
-13 6 8 383.9 10.37
6 7 8 399.71 8.58
-13 6 8 403.85 8.67
-13 6 11 28.4 1.06
-13 6 11 28.01 1.06
-6 13 11 1.31 0.64
-7 -6 11 1.03 0.49
-6 13 11 1.31 0.5
-7 -6 8 90.15 2.43
-6 13 8 86.24 2.66
-7 -6 8 89.33 2.41
13 -7 8 90.93 2.28
-6 13 5 460.18 10.97
13 -7 2 439.01 9.58
-6 13 2 419.54 9.45
13 -7 -1 29.88 1.3
13 -7 -4 379.98 8.52
-13 7 7 192.95 4.52
6 -13 7 199.84 4.48
6 -13 7 199.39 4.6
-13 7 7 198.33 6.17
-13 7 7 201.85 4.64
-13 7 10 15.27 0.83
-13 7 10 16.6 0.79
-5 13 9 1.21 0.77
-8 -5 9 0.9 0.7
-5 13 9 1.42 1.02
-5 13 6 66.13 2.85
-8 -5 6 63 1.71
13 -8 6 64.95 1.77
13 -8 3 194.65 4.81
-5 13 3 193.07 4.86
-5 13 0 161.23 3.68
13 -8 0 171.25 4.22
13 -8 -3 0.56 0.48
-13 8 6 96.97 3.68
5 -13 6 98.48 2.47
5 -13 6 94.69 2.37
-13 8 9 77.15 2.36
-13 8 9 74.98 2.09
-9 -4 10 18.05 0.89
-4 13 10 18.64 1.03
-4 13 7 106.17 2.84
-9 -4 7 107.17 2.71
13 -9 7 109.34 2.73
13 -9 4 774.73 16.37
-9 -4 4 723.39 16.07
-4 13 1 594.48 12.58
13 -9 -2 18.34 1.07
-13 9 5 464.11 11.11
-13 9 8 324.93 9.4
4 -13 8 346.02 7.45
4 -13 8 341.23 7.42
-13 9 8 340.28 7.5
-13 9 8 343.36 7.69
-13 9 11 33.71 1.19
-10 -3 11 4.24 0.6
-3 13 11 5.59 0.54
13 -10 8 191.81 4.49
-10 -3 8 193.96 4.5
-3 13 8 197.35 4.75
-3 13 5 591 12.12
13 -10 5 477.56 11.13
13 -10 2 337.94 7.81
-3 13 2 334.29 7.57
13 -10 -1 227.21 5.53
13 -10 -4 769.01 16.48
3 -13 7 219.05 5.01
3 -13 7 218.29 4.98
-13 10 7 226.07 5.13
-13 10 7 222.19 6.89
-13 10 10 0.41 0.56
-11 -2 9 25.89 1.16
-2 13 9 26.2 1.17
11 2 -6 27.28 0.96
-2 13 6 25.37 0.95
-11 -2 6 25.65 0.88
-2 13 3 411.74 9.3
13 -11 3 405.38 9.36
13 -11 0 523.79 11.7
13 -11 -3 3.35 0.65
-13 11 6 142.14 4.97
2 -13 6 136.3 3.25
2 -13 6 137.21 3.26
2 -13 6 139.57 3.28
2 -13 9 123.77 3.04
-13 11 9 126.85 3.18
-13 11 9 131.66 3.52
-12 -1 10 21.04 0.98
-12 -1 10 21.59 0.92
-1 13 10 20.84 0.91
-12 -1 7 56.21 1.66
13 -12 7 54.8 1.76
-1 13 7 54.65 1.93
13 -12 4 520.67 11.73
13 -12 -2 16.58 1.14
-13 12 5 369.77 9.1
-13 12 5 367.26 8.1
1 -13 5 357.38 7.73
-13 12 8 285.44 6.29
-13 12 8 292.24 6.59
1 -13 8 280.99 6.26
-13 12 11 30.49 0.98
-13 0 11 20.36 0.76
-13 0 8 279.29 6.27
0 13 8 294.38 6.52
13 -13 5 308.33 7.72
-13 0 5 325.45 7.91
13 -13 2 6.6 0.96
13 -13 -1 1090.9 23.38
13 -13 -4 1092.14 23.3
-13 13 7 176.77 5.86
0 -13 7 176.62 4
-13 13 10 17.2 0.89
-13 14 9 40.9 1.89
-13 14 9 37.84 1.41
-1 -13 9 37.27 1.29
-1 -13 6 10.43 0.56
-1 -13 6 10.35 0.98
-13 14 6 9.36 1.94
13 -14 -3 38.33 1.77
13 -14 0 281.09 7.1
13 -14 3 261.31 6.6
1 13 6 37.3 1.23
-14 1 6 36.91 1.87
14 -1 -6 37.04 1.15
-14 1 6 40.14 1.14
-14 1 9 9.6 0.81
1 13 9 11.23 0.78
-12 14 10 142.44 3.89
-12 14 10 151.47 3.54
-2 -12 7 737.85 15.48
12 -14 -4 506.87 11.58
-12 14 4 524.83 11.96
12 -14 -1 48.13 2.08
12 -14 2 1109.56 23.83
-14 2 5 782.91 17.43
14 -2 -5 803.71 16.36
12 -14 5 748.73 17.13
-14 2 8 60.75 1.68
-14 2 8 59.06 1.64
-14 2 11 50.42 1.32
-11 14 11 0.86 0.58
-11 14 11 0.23 0.64
-3 -11 8 18.37 0.96
-11 14 8 15.58 1.75
-11 14 8 17.04 1.27
-11 14 5 77.4 3.03
-3 -11 5 73.41 1.87
-11 14 5 75 2.35
-3 -11 5 70.52 1.76
14 -3 5 73.37 1.78
-3 -11 5 73.12 1.91
11 -14 -2 16.73 1.28
14 -3 2 17.55 1.07
14 -3 -1 40.36 1.58
11 -14 4 159.36 4.41
-14 3 7 68.2 1.91
-14 3 7 68.19 2.02
3 11 7 68.86 2.01
11 -14 7 75.43 2.17
-14 3 7 65.63 2.9
-14 3 10 1.22 0.6
-10 14 9 90.34 2.53
-4 -10 6 164.31 3.94
-4 -10 6 167.2 3.91
14 -4 6 173.96 3.82
14 -4 3 21.39 1.12
10 -14 -3 24.37 1.39
14 -4 0 117.82 3.27
10 -14 3 222.7 5.68
4 10 6 46.57 1.41
-14 4 6 45.82 2.34
14 -4 -6 45.32 1.29
-14 4 6 47.38 1.42
-14 4 6 46.64 1.34
10 -14 9 4.75 0.64
-14 4 9 4.92 0.7
-14 4 9 4.13 0.59
4 10 9 5.18 0.53
-5 -9 10 138.67 3.25
-5 -9 7 701.35 14.81
14 -5 7 713.33 14.69
-5 -9 7 693.86 14.81
9 -14 -4 435.81 10.39
-9 14 4 480.14 10.7
14 -5 -2 1209.23 25.38
9 -14 5 721.13 15.76
9 -14 8 26.05 1.14
-14 5 8 23.93 1.19
-14 5 8 23.72 1
5 9 8 23.29 0.91
-14 5 11 69.67 1.8
-14 5 11 69.4 1.82
-8 14 11 14.33 0.87
-8 14 11 14.16 0.77
-6 -8 8 97.14 2.54
-6 -8 8 95.16 2.55
-8 14 8 97.14 2.83
-6 -8 5 68.53 1.76
-8 14 5 64.72 2.08
14 -6 5 64.92 1.71
-8 14 5 68.22 2.76
14 -6 2 43.93 1.71
14 -6 -1 246 5.84
14 -6 -4 149.17 3.85
8 -14 4 148.12 4.14
8 -14 7 11.3 0.83
-14 6 7 11.31 1.65
-14 6 7 10.47 1
-14 6 7 12.27 0.95
-14 6 10 11.04 0.74
-7 14 9 45.22 1.66
-7 -7 9 43.57 1.49
-7 14 9 44.16 1.96
14 -7 6 80.29 2.1
-7 14 6 84.57 3.46
-7 -7 6 83.87 2.14
14 -7 3 1.84 0.6
-7 14 3 0.8 0.72
14 -7 0 229.46 5.55
14 -7 -3 211.32 5.13
-14 7 6 52.96 1.49
-14 7 6 56.56 2.8
-14 7 6 55.89 1.52
7 -14 6 56.01 1.52
-14 7 9 2.19 0.63
-8 -6 10 107.06 2.6
-6 14 10 106.11 2.83
-8 -6 7 558.85 11.61
-6 14 7 537.32 11.66
14 -8 7 533.07 11.53
14 -8 4 299.67 7.09
-6 14 4 311.78 7.55
-6 14 1 105.59 2.71
14 -8 -2 1066.83 22.51
-14 8 5 722.79 16
6 -14 5 711.02 14.51
6 -14 8 27.93 1.09
-14 8 8 27.5 1.29
-14 8 8 26.34 2.19
-14 8 8 26.76 1.13
-14 8 11 61.93 1.7
-5 14 11 71.86 1.86
-9 -5 11 71.17 1.79
14 -9 8 218.94 5
-9 -5 8 225.05 5.07
-9 -5 8 223.06 5.09
-5 14 8 219.28 5.32
-5 14 5 70.55 2.73
-5 14 5 65.95 2.01
14 -9 5 64.92 2.04
-5 14 2 368.1 8.4
14 -9 2 389.11 8.7
-5 14 -1 1014.88 21.26
14 -9 -1 1261.22 22.25
14 -9 -4 440.75 9.85
-14 9 7 0.73 1.65
-14 9 7 1.39 0.91
5 -14 7 1.34 0.69
-14 9 7 0.84 0.76
5 -14 7 1.8 0.52
-14 9 10 63.1 1.7
-4 14 9 13 1.03
-10 -4 9 12.48 0.91
-10 -4 9 14.09 1
-4 14 9 13.88 1.25
14 -10 6 107.92 2.72
-10 -4 6 107.06 2.61
10 4 -6 109.21 2.67
14 -10 3 122.05 3.48
-4 14 3 122.45 3.46
-4 14 0 0.07 0.26
14 -10 0 0.38 0.71
14 -10 -3 72.44 2.33
-14 10 6 122.34 4.71
4 -14 6 119.31 2.96
4 -14 6 124.72 2.93
-14 10 9 11.23 1.2
-14 10 9 11.4 0.87
-11 -3 10 54.11 1.59
-11 -3 10 51.78 1.5
-3 14 10 54.08 1.63
14 -11 7 301.66 6.63
-11 -3 7 292.79 6.52
-3 14 7 298.05 6.67
-3 14 4 125.9 3.65
14 -11 4 127.68 3.49
-3 14 1 144.17 3.45
14 -11 -2 718.58 15.6
-14 11 5 430.25 10.53
-14 11 5 431.03 9.43
-14 11 8 21.92 1.01
-14 11 8 20.85 2.02
3 -14 8 21.95 0.87
-14 11 8 19.45 1.24
3 -14 8 20.71 0.96
-14 11 11 32.09 1.12
14 -12 8 140.43 3.4
-12 -2 8 134.68 3.31
-2 14 8 135.9 3.54
14 -12 5 1.54 0.47
12 2 -5 0.58 0.3
14 -12 2 776.53 16.73
-2 14 2 756.2 16.31
14 -12 -1 1174.68 25
14 -12 -4 147.54 3.98
-14 12 7 57.05 3.11
2 -14 7 62.2 1.73
2 -14 7 59.4 1.78
-14 12 10 155.22 3.59
14 -13 9 19.46 0.92
-13 -1 9 18.67 0.98
-1 14 9 20.47 1
-1 14 6 199.93 4.53
14 -13 3 257.74 6.45
14 -13 0 8.67 1.12
14 -13 -3 115.55 3.39
-14 13 6 156.11 4.54
-14 13 6 163.16 5.32
1 -14 6 162.33 3.72
-14 13 9 30.39 1.65
-14 13 9 31.98 1.26
-14 0 10 22.44 0.94
-14 0 10 21.74 0.86
0 14 7 188.28 4.46
14 -14 7 188.24 4.57
-14 0 7 188.03 4.24
14 0 -7 189.89 4.35
14 -14 4 184.15 5.02
14 -14 -2 514.41 11.75
0 -14 5 385 8.14
14 -14 -5 381.9 8.15
-14 14 5 389.48 8.66
0 -14 5 376.18 8.19
-14 14 8 30.04 1.51
0 -14 8 28.05 1.14
-14 14 11 14.24 0.57
-14 15 10 243.61 5.76
-14 15 10 247.12 5.42
-14 15 4 117.7 3.23
14 -15 -4 114.75 2.74
14 -15 -4 118.13 3.53
-1 -14 4 119.76 2.79
14 -15 -1 1258.38 27.02
14 -15 2 912.64 19.94
-15 1 5 9.12 0.96
15 -1 -5 8.46 0.51
14 -15 5 9.59 0.93
-15 1 8 199.71 4.52
-15 1 11 172.79 3.75
-13 15 11 8.77 0.59
-13 15 11 8.51 0.52
-13 15 8 70.98 2.4
13 -15 -5 67 1.75
-13 15 5 69.33 2.86
-2 -13 5 65.48 1.78
-13 15 5 64.2 2.29
13 -15 -2 12.95 1.23
13 -15 4 176.34 4.87
2 13 7 6.98 0.73
-15 2 7 6.37 0.52
-15 2 10 16.77 0.78
-15 2 10 17.78 0.86
-12 15 9 13.56 1.46
-12 15 9 12.32 0.95
-12 15 6 7.22 1.46
-3 -12 6 7.03 0.87
-12 15 6 5.82 1.56
-3 -12 6 6.88 1.2
15 -3 6 7.44 0.43
12 -15 -3 138.5 4.08
12 -15 0 189.81 5.14
15 -3 0 182.74 4.74
12 -15 3 19.14 1.36
-15 3 6 24.82 2.04
15 -3 -6 26.49 0.96
-15 3 6 25.64 0.91
12 -15 9 52.59 1.66
-15 3 9 52.07 1.57
3 12 9 51.11 1.48
-11 15 10 340.66 7.39
-4 -11 10 333.91 7.2
-11 15 7 139.93 5.05
-4 -11 7 152.41 3.53
-4 -11 7 144.19 3.54
15 -4 4 241.38 5.24
11 -15 -4 238.37 6.16
15 -4 1 1818.16 37.86
15 -4 -2 1200.22 25.3
15 -4 -5 16.08 0.69
11 -15 5 15.66 1.08
4 11 8 222.86 5.04
11 -15 8 226.37 5.32
-15 4 8 232.55 5.05
-15 4 11 216.04 4.64
-10 15 11 24.7 0.93
-5 -10 8 22.98 1.04
-5 -10 8 21.42 1.06
-5 -10 5 3.12 0.49
-5 -10 5 3.3 0.44
-10 15 5 3.21 0.98
15 -5 5 3.17 0.37
15 -5 2 46.6 1.78
15 -5 -1 55.38 1.95
10 -15 4 9.82 1.01
-15 5 7 8.74 1.64
10 -15 7 7.14 0.81
-15 5 7 6.33 0.64
-15 5 7 7.46 0.98
-15 5 10 21.2 0.91
-6 -9 9 38.51 1.34
-9 15 9 35.26 1.83
15 -6 6 1.52 0.39
-6 -9 6 0.42 1.18
-6 -9 6 0.44 0.56
-9 15 6 1.41 1.88
-9 15 6 1.75 1.58
15 -6 3 142.51 3.88
-9 15 3 146.88 4.02
15 -6 0 350.71 8.08
15 -6 -3 109.83 3.08
15 -6 -6 7.09 0.48
-15 6 6 7.35 2
-15 6 6 5.68 0.54
-15 6 6 7 0.53
9 -15 9 43.21 1.44
-15 6 9 46.47 1.39
-8 15 10 275.69 6.23
-8 15 7 136.17 4.81
15 -7 7 131.54 3.16
-8 15 7 138.22 3.35
-7 -8 7 129.25 3.27
-7 -8 7 136.61 3.27
-8 15 4 197.12 5.26
15 -7 4 192.21 4.86
15 -7 -2 1202.1 25.33
8 -15 5 14.32 1.08
15 -7 -5 16.94 0.71
8 -15 8 218.52 5.05
-15 7 8 223.16 4.95
-15 7 8 216.83 5.1
-15 7 11 192.65 4.24
-15 7 11 193.85 4.27
-7 15 11 25.76 0.99
-8 -7 11 25.65 0.86
-8 -7 8 0.36 0.68
-7 15 8 1.16 0.93
-8 -7 8 0.66 0.63
15 -8 8 0.12 0.37
-7 15 5 228.98 6.2
-7 15 5 221.35 5.29
15 -8 2 658.09 14.21
-7 15 2 644.45 14
15 -8 -1 305.03 7.14
15 -8 -4 2.73 0.57
-15 8 7 96.94 4.05
-15 8 7 94.2 2.56
7 -15 7 99.07 2.57
-15 8 7 95.02 2.46
-15 8 10 52.54 1.49
-15 8 10 53.5 1.45
-9 -6 9 42.19 1.45
-6 15 9 45.37 1.86
-9 -6 9 45.42 1.53
-6 15 6 12.89 1.92
15 -9 6 10.89 0.69
-9 -6 6 11.82 0.72
15 -9 3 4.8 0.74
-6 15 3 4.82 0.74
15 -9 0 4.34 0.83
-6 15 0 5.64 0.45
15 -9 -3 10.4 0.85
15 -9 -6 2.69 0.39
-15 9 6 2.63 1.95
6 -15 6 2.46 0.56
-15 9 9 25.59 1.35
-15 9 9 28.6 1.12
-10 -5 10 186.95 4.15
-10 -5 10 188.42 4.2
-5 15 10 179.2 4.34
-10 -5 7 88.68 2.35
-5 15 7 90.09 2.45
15 -10 7 87.79 2.33
-5 15 4 86.13 2.86
15 -10 4 78.36 2.58
-5 15 1 737.42 15.55
15 -10 -2 558.07 12.37
-15 10 5 5.87 0.72
5 -15 5 5.74 0.51
-15 10 8 137.47 3.46
5 -15 8 134.14 3.22
-15 10 8 134.67 3.28
-15 10 11 132.56 3.03
-4 15 11 44.9 1.2
-11 -4 8 1.52 0.7
-11 -4 8 0.65 0.64
15 -11 8 1.34 0.5
-4 15 8 2.1 0.88
-4 15 5 304.73 7.6
-4 15 5 294.34 6.59
11 4 -5 296.83 6.36
15 -11 2 709.89 15.3
-4 15 2 683.14 14.89
15 -11 -1 216.08 5.52
15 -11 -4 62.41 2.13
4 -15 7 230.7 5.23
-15 11 7 224.65 7.07
-15 11 7 238.65 5.31
4 -15 7 231.2 5.21
-15 11 10 67.63 1.77
-3 15 9 60.68 2.01
-3 15 9 63.27 1.85
-12 -3 9 59.54 1.75
-12 -3 9 58.78 1.8
-12 -3 6 102.55 2.58
12 3 -6 105.22 2.7
-3 15 6 110.13 2.65
-3 15 3 6.81 0.83
15 -12 3 8.45 0.88
15 -12 0 116.29 3.51
15 -12 -3 276.03 6.67
-15 12 6 45.38 2.65
3 -15 6 41.9 1.47
3 -15 6 43.6 1.35
-15 12 9 12.51 0.85
-15 12 9 12.48 1.18
-13 -2 10 96.23 2.29
-13 -2 10 97.47 2.38
-2 15 10 93.83 2.36
13 2 -7 47.65 1.52
-13 -2 7 46.79 1.47
-2 15 7 49.18 1.64
15 -13 7 48.77 1.64
15 -13 4 82.77 2.81
15 -13 -2 423.73 9.83
-15 13 5 4.04 0.86
-15 13 5 3.55 1.18
2 -15 5 4.13 0.45
2 -15 5 3.97 0.49
-15 13 8 102.83 2.86
-15 13 8 99.47 2.58
-15 13 11 97.37 2.29
-14 -1 11 57.08 1.41
-14 -1 8 12.45 0.82
-1 15 8 13.81 0.99
15 -14 8 12.27 0.86
14 1 -5 500.63 10.41
15 -14 5 473.64 11.17
15 -14 2 835.21 18.37
15 -14 -1 48.69 2.12
1 -15 4 281.89 6
15 -14 -4 271.35 5.94
-15 14 4 282.41 6.38
15 -14 -4 260.68 6.72
-15 14 7 346.99 9.75
1 -15 7 365.02 7.79
-15 14 10 61.85 1.67
-15 0 9 52.07 1.56
15 -15 9 57.58 1.68
-15 0 9 57.14 1.66
0 15 9 54.07 1.59
-15 0 6 78.37 1.98
15 0 -6 76.1 1.96
15 -15 3 3.77 0.84
15 -15 0 77.94 2.89
15 -15 -3 159.36 4.51
-15 15 6 57.4 2.63
0 -15 6 59 1.8
0 -15 6 59.39 1.59
-15 15 9 -0.03 1.06
-15 15 9 0.51 0.63
-15 16 8 37.39 1.72
-1 -15 5 6.59 0.94
-15 16 5 6.46 1.66
-15 16 5 5.96 2.03
15 -16 -5 5.65 0.58
15 -16 -2 314.21 7.88
15 -16 4 38.5 1.88
16 -1 -4 37.61 1.12
-16 1 7 40.12 1.25
16 -1 -7 41.88 1.35
1 15 7 40.45 1.4
-16 1 10 68 1.7
-16 1 10 72.79 1.83
-14 16 9 16.87 1.44
-14 16 9 18.09 0.97
-14 16 6 51.48 2.44
-14 16 6 56.48 2.92
-2 -14 6 50.92 1.64
14 -16 -3 13.19 1.15
14 -16 0 44.68 2.19
14 -16 3 140.24 4.18
16 -2 -6 83.58 2.14
-16 2 9 7.65 0.67
-13 16 10 34.03 1.61
-13 16 10 40.05 1.29
-13 16 7 184.91 5.86
-3 -13 7 178.85 4.18
-3 -13 4 1176.21 23.62
13 -16 -4 1117.98 24.6
-13 16 4 1074.31 24.08
-13 16 4 1226.97 24.96
13 -16 -4 1136.7 23.58
13 -16 -1 901.15 19.84
13 -16 2 4.24 0.96
16 -3 -5 578.44 12.04
13 -16 5 573.57 13.07
-16 3 5 559.66 13.25
13 -16 8 434.51 9.76
-16 3 8 450.09 9.44
-16 3 11 43.27 1.16
-12 16 11 5.75 0.51
-12 16 11 5.25 0.48
-4 -12 8 0.65 0.63
-12 16 5 21.93 1.67
-4 -12 5 19.63 0.85
16 -4 5 19.9 0.69
12 -16 -5 20.39 0.81
12 -16 -2 57.33 2.38
16 -4 -1 28.13 1.37
16 -4 -4 1.26 0.33
12 -16 4 2.21 0.74
16 -4 -7 29.55 0.97
-16 4 7 27.73 0.98
12 -16 7 27.78 1.34
-16 4 10 17.25 0.78
-11 16 9 0.23 0.75
-11 16 6 70.22 3.21
-5 -11 6 63.87 1.89
-5 -11 6 65.09 1.97
16 -5 6 67.13 1.71
-11 16 3 201.62 5.24
11 -16 -3 193.84 5.37
16 -5 0 78.51 2.54
11 -16 3 20.03 1.34
-16 5 6 66.87 3.04
16 -5 -6 65.02 1.84
-16 5 6 62.44 1.71
-16 5 9 16.01 0.82
11 -16 9 14.66 0.85
-6 -10 7 234.11 5.28
-6 -10 7 233.04 5.33
-10 16 7 224.96 6.91
16 -6 7 239.52 5.19
10 -16 -4 1431.2 31.51
-10 16 4 1548.5 31.77
16 -6 -2 6.38 0.78
10 -16 5 736.05 17.03
16 -6 -5 789.02 16.15
-16 6 8 522.74 11.34
-16 6 8 529.08 11.17
10 -16 8 537.51 11.42
-16 6 11 41.8 1.12
-9 16 11 0.07 0.46
-9 16 11 0.47 0.41
-7 -9 8 29.09 1.21
-7 -9 8 28.53 1.13
-9 16 8 27.67 1.5
7 9 -5 110 2.67
16 -7 5 111.27 2.64
-7 -9 5 111.49 2.64
-7 -9 5 108.43 2.68
-9 16 5 107.55 3.08
-9 16 2 78.51 2.47
16 -7 2 85.3 2.64
16 -7 -1 0.32 0.59
9 -16 4 31.99 1.66
-16 7 7 23.39 2.03
-16 7 7 24.69 1.12
-16 7 7 24.09 0.97
9 -16 7 25.44 1.18
-16 7 10 1.12 0.52
-8 -8 9 0.27 0.6
-8 -8 9 0.55 0.66
-8 16 9 1.79 1.06
-8 -8 6 29.64 1.28
-8 -8 6 29.47 1.36
-8 16 6 26.77 1.79
-8 16 6 28.41 2.11
16 -8 6 28.69 1.02
-8 16 3 90.12 2.83
16 -8 3 84.11 2.74
16 -8 0 33.68 1.55
16 -8 -3 24.95 1.25
-16 8 6 68.33 3.28
16 -8 -6 73.63 1.89
-16 8 6 68.36 1.9
-16 8 6 65.27 1.84
-16 8 9 25.52 1
-9 -7 10 30.79 1.06
-7 16 10 29.05 1.27
-9 -7 7 132.55 3.29
-7 16 7 129.26 3.32
-9 -7 7 139.89 3.26
16 -9 7 132.38 3.2
16 -9 4 947.31 20.78
-7 16 4 1006.55 21.26
-7 16 1 793.82 16.73
16 -9 -2 10.33 0.9
7 -16 5 298.71 7.6
-16 9 5 318.87 6.96
7 -16 8 339.96 7.46
-16 9 8 333.2 7.56
-16 9 8 344.7 7.41
-16 9 11 31.15 0.97
-16 9 11 29.14 0.95
-6 16 11 3.9 0.47
-6 16 8 110.55 3.06
-10 -6 8 109.72 2.78
16 -10 8 112.97 2.75
-10 -6 8 110.38 2.84
10 6 -5 200.93 4.57
-6 16 5 219.59 5.8
-6 16 5 210.31 4.87
16 -10 2 41.26 1.78
-6 16 2 36.99 1.49
16 -10 -1 183.21 4.76
16 -10 -4 357.08 8.27
-16 10 7 101.12 4.29
-16 10 7 106.21 2.75
-16 10 7 109.37 2.69
6 -16 7 107.72 2.75
-16 10 10 0.51 0.42
-11 -5 9 14.23 0.91
-5 16 9 15.81 1.17
-11 -5 9 15.54 0.83
11 5 -6 0.53 0.91
-11 -5 6 1.26 0.95
16 -11 6 -0.02 0.48
-5 16 3 51.36 1.98
16 -11 3 55.15 2.09
16 -11 0 146.08 4.09
16 -11 -3 11.41 0.92
5 -16 6 18.81 0.89
-16 11 6 19.3 1.91
16 -11 -6 20.69 1.01
-16 11 9 39.87 1.58
-16 11 9 39.65 1.32
-12 -4 10 19.48 0.86
-4 16 10 17.97 0.92
-4 16 7 72.15 2.1
16 -12 7 73.63 2.07
-12 -4 7 71.89 1.99
16 -12 4 520.24 11
-4 16 4 508.46 11.09
12 4 -4 501.94 10.06
-4 16 1 257.82 5.77
16 -12 -2 17 1.18
-16 12 5 264.77 7.32
-16 12 5 267.77 6.15
4 -16 8 208.06 4.67
-16 12 8 207.66 4.96
-16 12 8 207.76 4.77
-16 12 11 17.43 0.7
-13 -3 11 14.17 0.57
16 -13 8 224.81 5.08
-13 -3 8 225.87 5.06
-3 16 8 222.17 5.22
-13 -3 8 213.18 4.96
13 3 -5 313.01 6.64
-3 16 5 308.33 6.83
16 -13 2 20.46 1.37
16 -13 -1 286 7.07
-16 13 4 370.43 8.13
16 -13 -4 356.94 8.58
16 -13 -4 367.62 7.79
3 -16 7 50.31 1.49
-16 13 7 52.19 1.63
-16 13 10 16.53 0.73
-14 -2 9 52.1 1.6
-2 16 9 52.85 1.59
-14 -2 9 52.22 1.51
16 -14 9 53.7 1.56
-2 16 6 6.11 0.65
14 2 -6 5.91 0.72
16 -14 3 123.64 3.85
16 -14 0 431.78 10.24
16 -14 -3 113.91 3.52
-16 14 6 5.51 1.73
-16 14 6 5.97 1.82
2 -16 6 7.24 0.55
-16 14 9 52.87 1.94
-16 14 9 53.69 1.61
-15 -1 10 11.05 0.55
-15 -1 10 10.94 0.67
16 -15 7 60.53 1.93
15 1 -7 60.06 1.77
-15 -1 7 57.45 1.66
-1 16 7 59.62 1.83
15 1 -4 379.44 8.07
16 -15 4 381.71 9.19
16 -15 -2 0.46 0.69
1 -16 5 146.63 3.42
-16 15 5 147.61 4.1
1 -16 5 153.31 3.6
-16 15 8 135.81 3.28
-16 15 8 136.61 3.61
-16 15 11 9.6 0.55
-16 0 11 24.31 0.7
16 -16 8 395.04 8.68
-16 0 8 392.26 8.41
16 0 -5 598.82 12.58
16 -16 2 25.99 1.64
16 -16 -1 460.13 10.94
16 -16 -4 546.26 11.52
-16 16 4 557.94 12.05
16 -16 -4 544.92 12.54
0 16 -7 90.93 2.41
-16 16 10 19.69 0.79
-16 17 9 27.43 1.47
-16 17 9 27.08 1.06
-16 17 6 0.08 1.05
-1 -16 6 0.51 0.57
-16 17 6 -0.15 1.25
16 -17 -3 97.63 2.4
16 -17 -3 105.23 3.47
-16 17 3 100.24 2.82
16 -17 -3 100.8 2.42
16 -17 0 142.88 4.45
16 -17 3 13.36 1.24
17 -1 -3 13.33 0.6
17 -1 -6 17.41 0.78
-17 1 9 28.06 1.05
-17 1 9 26.04 0.92
-15 17 10 104.54 2.8
-15 17 10 101.45 2.47
-15 17 7 458.71 11.83
-2 -15 7 468.5 9.98
-15 17 4 314.77 7.9
15 -17 -4 310.47 6.65
-2 -15 4 316.35 6.67
-15 17 4 297.14 7.19
15 -17 -4 319.67 7.73
2 15 -4 296.28 6.64
15 -17 -1 77.29 2.97
15 -17 2 1077.86 23.48
-17 2 5 616.63 14.11
17 -2 -5 635.51 13
15 -17 5 607.94 12.89
-17 2 8 29.7 1.09
17 -2 -8 31.58 1.12
-17 2 11 49.19 1.19
-14 17 11 2.32 0.39
-14 17 11 2.37 0.34
-14 17 8 1.66 1.13
3 14 -8 1.22 0.62
-3 -14 8 0.42 0.65
-3 -14 5 46.58 1.7
-14 17 5 46.88 2.61
14 -17 -5 47.65 1.41
14 -17 -2 113.59 3.78
17 -3 -4 84.59 2.09
14 -17 4 83.55 3.01
14 -17 7 78.23 2.41
-17 3 10 17.28 0.68
-17 3 10 17.47 0.81
-13 17 9 11.9 1.39
-13 17 9 15.39 0.94
-4 -13 6 13.93 0.87
-13 17 6 14.18 1.82
-13 17 6 12.3 1.65
13 -17 -3 9.43 1.1
17 -4 0 126.45 3.63
13 -17 0 127.84 4.04
13 -17 3 96.8 3.3
-17 4 6 1.78 0.99
17 -4 -6 1.55 0.56
-17 4 9 12.42 0.72
13 -17 9 11 0.78
-12 17 10 123.77 3.02
-5 -12 7 662.28 14.06
-12 17 7 690.99 16.07
12 -17 -4 414.43 8.76
-12 17 4 421.62 9.97
5 12 -4 410.89 8.75
12 -17 -4 411.84 9.84
-5 -12 4 409.88 8.77
17 -5 1 142.51 3.95
17 -5 -2 1506.55 32.05
12 -17 2 1554.62 32.46
12 -17 5 841.02 20.07
17 -5 -5 950.19 19.15
17 -5 -8 51.19 1.48
12 -17 8 51.4 1.73
-17 5 8 47.77 1.38
-17 5 11 56.76 1.38
-17 5 11 67.74 1.51
-11 17 11 5.4 0.43
-6 -11 8 32.61 1.25
11 -17 -5 51.99 1.48
-11 17 5 51.99 2.55
-11 17 5 52.72 2.02
6 11 -5 52.74 1.47
-6 -11 5 52.96 1.54
17 -6 5 53.44 1.43
17 -6 2 33.5 1.57
17 -6 -1 2.61 0.71
11 -17 4 6.76 0.96
17 -6 -4 7.36 0.51
11 -17 7 2.9 0.76
-17 6 7 1.58 1.09
-17 6 7 2.75 0.49
-17 6 7 2.06 0.63
17 -6 -7 2.93 0.43
-17 6 10 0.06 0.48
-10 17 9 16.07 1.36
-7 -10 9 17.68 0.91
-7 -10 6 61.53 1.78
-10 17 6 63.11 3.03
-7 -10 6 59.67 1.89
-10 17 6 58.93 2.7
17 -7 6 64.87 1.68
17 -7 3 37.13 1.64
-10 17 3 36.56 1.71
17 -7 0 17.31 1.15
17 -7 -3 95.6 2.86
-17 7 6 33.73 2.33
17 -7 -6 36.57 1.18
-17 7 6 35.12 1.53
-17 7 6 31.97 1.37
10 -17 9 0.18 0.46
-17 7 9 0.01 0.42
-8 -9 10 149.26 3.4
-8 -9 7 707.1 14.68
-8 -9 7 699.1 14.74
-9 17 7 731.88 16.75
17 -8 7 687.2 14.62
-9 17 4 560.15 12.53
17 -8 4 550.55 12.16
-9 17 4 534.5 11.77
8 9 -4 539.17 11.42
9 -17 -4 537.9 12.47
-9 17 1 10.28 0.76
17 -8 -2 911.31 19.56
17 -8 -5 897 18.09
9 -17 5 788.13 19
9 -17 8 54.72 1.73
-17 8 8 55.17 1.78
-17 8 8 56.89 1.6
-17 8 11 56.78 1.39
-8 17 11 12.07 0.57
-9 -8 8 16.97 0.97
-9 -8 8 17.15 0.88
17 -9 8 17.5 0.75
-8 17 8 16.01 1.19
-8 17 5 3.22 0.97
9 8 -5 2.01 0.43
-8 17 5 2.22 0.84
-9 -8 5 2.1 0.47
-8 17 2 157.28 4.11
17 -9 2 160.46 4.34
17 -9 -1 231.96 5.75
17 -9 -4 67.14 2.26
-17 9 7 2.55 1.32
8 -17 7 2.76 0.61
-17 9 7 2.17 0.66
-17 9 7 2.17 0.55
-17 9 10 29.28 0.99
-10 -7 9 8.19 0.77
-7 17 9 8.23 1.03
-10 -7 6 52.27 1.65
-10 -7 6 51.29 1.66
-7 17 6 48.33 2.58
10 7 -6 49.96 1.7
17 -10 6 49.56 1.52
-7 17 3 24.7 1.38
17 -10 3 26.01 1.42
-7 17 0 16.46 0.71
17 -10 0 19.25 1.27
17 -10 -3 39.47 1.68
-17 10 6 20.43 2.05
17 -10 -6 23.21 1.07
-17 10 6 22.7 1.02
-17 10 9 1.38 0.51
-17 10 9 0.75 0.74
-11 -6 10 71.26 1.81
-6 17 10 68.35 1.96
-6 17 7 416.13 8.99
-11 -6 7 415.34 8.86
-11 -6 7 413.65 8.94
17 -11 7 405.38 8.91
17 -11 4 304.73 7.08
-6 17 4 296.52 7.21
-6 17 4 276.59 6.42
11 6 -4 278.63 6.22
-6 17 1 6.46 0.59
17 -11 -2 412.39 9.53
-17 11 5 400.82 8.8
-17 11 8 22.43 1
6 -17 8 21.9 0.92
-17 11 8 21.35 1.15
-17 11 11 45.53 1.21
-17 11 11 44.81 1.18
-5 17 11 59.88 1.39
17 -12 8 68.23 1.89
-12 -5 8 66.81 1.87
-5 17 8 70.27 2.16
-12 -5 8 68.65 1.98
12 5 -5 2.7 0.5
17 -12 5 1.95 0.56
-5 17 5 2.54 0.69
-5 17 5 1.94 0.89
-5 17 2 196.57 4.95
17 -12 2 216.92 5.49
17 -12 -1 182.15 4.89
-17 12 4 18.29 0.98
17 -12 -4 16.23 1.11
-17 12 7 31.26 2.42
-17 12 7 33.66 1.27
-17 12 7 34.37 1.17
5 -17 7 31.04 1.15
-17 12 10 70.06 1.74
-4 17 9 5.11 0.72
-13 -4 9 3.8 0.65
-4 17 9 3.91 0.81
-13 -4 9 4 0.54
13 4 -6 42.45 1.48
-4 17 3 217.16 5.51
17 -13 3 216.73 5.72
17 -13 0 74.76 2.78
17 -13 -3 25.4 1.39
-17 13 6 110.36 4.29
4 -17 6 110.45 2.75
-17 13 9 39.03 1.54
-17 13 9 39.39 1.28
-14 -3 10 61.72 1.61
-3 17 10 59.94 1.6
-14 -3 7 263.87 5.94
17 -14 7 275.56 6.17
-3 17 7 271.19 6.13
14 3 -7 275.39 6.04
14 3 -4 141.97 3.3
17 -14 4 152.5 4.32
14 3 -4 145.66 3.4
17 -14 -2 363.1 8.81
-3 17 -5 239.77 5.44
-17 14 5 248.3 5.89
-17 14 5 252.86 6.97
-17 14 8 10.26 1.07
-17 14 8 11.74 0.81
-17 14 11 31.33 0.9
-15 -2 11 112.19 2.44
-15 -2 8 165.67 3.94
-15 -2 8 181.23 4.08
-2 17 8 176.89 4.17
17 -15 8 174.12 4.14
15 2 -5 0.98 1.11
15 2 -5 0.01 0.92
17 -15 2 466.04 10.99
17 -15 -1 561.23 12.94
-2 17 -4 40.34 1.32
17 -15 -4 38.26 1.17
-17 15 4 40.71 1.6
-17 15 7 85.15 3.73
2 -17 7 86.79 2.17
-17 15 10 136.22 3.07
-16 -1 9 6.31 0.66
17 -16 9 7.08 0.58
-16 -1 9 6.37 0.52
-1 17 9 7.32 0.61
-1 17 6 33.43 1.26
16 1 -6 35.33 1.27
17 -16 3 184.97 5.09
16 1 -3 170.43 3.85
17 -16 0 93.06 3.34
-1 17 -3 15.11 0.82
17 -16 -3 14.73 1.29
17 -16 -3 15.44 0.69
-17 16 3 15.68 1
17 -16 -3 15.27 0.69
-17 16 6 103.63 3.2
1 -17 6 102.19 2.48
-1 17 -6 102.53 2.7
-17 16 9 59.22 2.01
-17 16 9 60.31 1.69
-17 0 10 58.17 1.54
17 0 -7 197.63 4.54
0 17 7 191.94 4.5
17 -17 7 196.66 4.75
17 0 -4 94.51 2.32
17 -17 4 95.78 2.28
17 -17 4 96.59 3.31
17 -17 -2 300.41 6.41
0 17 -2 290.4 6.55
17 -17 -2 295.88 6.42
0 17 -5 154.9 3.95
17 -17 -5 166.02 3.76
-17 17 5 164.86 5.13
-17 17 5 155.51 4.43
-17 17 8 1.52 1.05
-17 17 8 2.3 0.64
-17 18 10 120.11 2.73
1 17 -7 50.95 1.6
1 17 -4 118.21 3.16
1 17 -4 119.96 2.86
-17 18 4 125.55 4.17
-17 18 4 115.52 3.96
17 -18 -4 118.56 2.97
17 -18 -4 116.68 3.84
1 17 -1 865.83 18.1
1 17 -1 867.43 18.15
17 -18 -1 858 18.05
17 -18 2 729.67 15.31
17 -18 2 786.22 16.83
18 -1 -5 36.77 1.28
17 -18 5 34.9 1.1
17 -18 8 129.69 3.31
18 -1 -8 130.89 3.11
-16 18 8 33.92 1.65
-16 18 5 107.23 3.89
16 -18 -5 107.7 2.65
2 16 -2 4.87 0.47
2 16 -2 5.97 0.64
16 -18 -2 6.1 1.08
16 -18 -2 5.46 0.5
18 -2 -4 225.29 4.93
16 -18 4 219.81 4.89
16 -18 4 230.56 6.12
18 -2 -7 69.58 1.96
-18 2 10 -0.28 0.57
-15 18 9 -0.05 1.04
-15 18 9 0.12 0.61
-15 18 6 29.63 2.08
-15 18 6 29.5 1.94
-3 -15 6 32.78 1.2
15 -18 -3 62.1 1.68
3 15 -3 64.07 1.71
15 -18 -3 68.03 2.7
15 -18 -3 66.71 1.71
-15 18 3 60.94 2.1
15 -18 0 3.91 1.08
15 -18 3 55.72 1.51
15 -18 3 58.58 2.48
18 -3 -3 57.99 1.53
18 -3 -6 56.46 1.53
15 -18 6 50.97 1.44
15 -18 9 5.16 0.6
-18 3 9 5.98 0.54
-14 18 10 266.7 6.09
-14 18 10 268.58 5.82
-4 -14 7 148.66 3.5
-14 18 7 133.4 4.89
4 14 -4 168.77 3.79
14 -18 -4 158.48 4.79
-14 18 4 183.75 5.07
-14 18 4 153.35 4.34
14 -18 -4 163.49 3.79
-4 -14 4 172.77 3.82
14 -18 -1 1632.29 34.91
14 -18 2 1032.45 22.63
18 -4 -5 6.73 0.79
18 -4 -8 228.02 5.04
-18 4 8 230.29 4.96
-18 4 11 175.54 3.73
-13 18 11 2.62 0.34
-13 18 11 2.02 0.32
-5 -13 8 12.74 0.89
-13 18 5 8.44 1.44
-5 -13 5 7.74 1.21
13 -18 -5 8.98 0.76
13 -18 -2 8.33 1.17
18 -5 -1 60.77 2.21
13 -18 4 37.57 1.95
18 -5 -4 40.89 1.22
18 -5 -7 7.27 0.53
13 -18 7 6.39 0.88
-18 5 10 1.31 0.41
-18 5 10 0.1 0.56
-12 18 9 4.78 0.77
-6 -12 9 5.84 0.65
-6 -12 6 0.52 0.62
-12 18 6 1.22 1.16
18 -6 6 0.71 0.29
-12 18 3 20.4 1.38
12 -18 -3 24.83 1.6
-12 18 3 21.48 1.23
18 -6 0 46.57 1.89
12 -18 3 0.33 0.72
18 -6 -3 0.56 0.34
-18 6 6 11.99 1.77
18 -6 -6 13.95 0.8
-18 6 9 5.28 0.57
12 -18 9 4.52 0.58
-11 18 7 137.68 4.87
-7 -11 7 145.14 3.45
18 -7 7 140.31 3.25
11 -18 -4 147.49 4.42
11 -18 -4 143.3 3.36
-11 18 4 150.32 4.43
-11 18 4 140.04 3.81
7 11 -4 144.88 3.37
-7 -11 4 147.3 3.36
18 -7 1 1425.93 30.16
18 -7 -2 1064.39 22.74
11 -18 5 12.64 1.14
18 -7 -5 17.41 0.85
11 -18 8 272.7 6.22
-18 7 8 273.57 5.92
-18 7 11 228.72 4.85
-10 18 11 1.79 0.36
-8 -10 8 1.51 0.68
-10 18 8 1.39 0.98
-10 18 5 1.63 1.45
18 -8 5 1.08 0.37
-10 18 5 0.35 1.35
8 10 -5 1.66 0.43
-8 -10 5 1.48 0.65
18 -8 2 6.97 0.85
-10 18 2 8.47 0.81
18 -8 -1 10.74 0.97
10 -18 4 0.83 0.71
-18 8 7 10.93 1.61
-18 8 7 9.73 0.78
10 -18 7 10.67 0.87
-18 8 7 9.86 0.63
18 -8 -7 10.15 0.59
-18 8 10 4.13 0.52
-9 18 9 19.59 1.27
-9 -9 9 18.9 0.91
-9 -9 6 8.9 0.72
-9 18 6 7.69 1.28
9 9 -6 8.6 0.69
-9 18 6 7.69 1.58
-9 -9 6 8.4 0.79
18 -9 6 8.48 0.6
18 -9 3 12.55 1.04
-9 18 3 10.28 1
18 -9 0 54.74 2.04
-9 18 0 46.22 1.46
18 -9 -3 29.32 1.44
-18 9 6 1.62 0.58
-18 9 6 0.46 1.67
18 -9 -6 0.35 0.6
-18 9 9 2.42 0.44
-8 18 10 227.48 5.32
-10 -8 10 244.6 5.16
18 -10 7 144.42 3.47
-10 -8 7 148.33 3.58
-10 -8 7 149.32 3.48
-8 18 7 150.12 3.62
-10 -8 4 55.52 1.5
10 8 -4 52.03 1.54
18 -10 4 54.18 2.13
-8 18 4 55.43 2.3
-8 18 4 54.9 1.83
-8 18 1 826.04 17.49
18 -10 -2 840.82 18.24
8 -18 5 32.17 1.74
-18 10 5 34.97 1.3
8 -18 8 149.12 3.62
-18 10 8 153.1 3.73
-18 10 8 153.07 3.54
-18 10 11 135.26 2.93
-7 18 11 4.32 0.34
-11 -7 8 12.92 0.9
-7 18 8 13.97 1.11
18 -11 8 14.89 0.7
-11 -7 8 12.76 0.75
-11 -7 5 94.12 2.4
-7 18 5 92.03 2.72
-7 18 5 93.96 3.43
11 7 -5 96.14 2.44
-7 18 2 62.43 2.05
18 -11 2 54.66 2.2
18 -11 -1 0.75 0.67
18 -11 -4 63.57 2.28
-18 11 4 69.05 1.94
-18 11 7 106.65 2.74
7 -18 7 109.18 2.74
-18 11 7 107.48 2.66
-18 11 10 30 0.97
-12 -6 9 14.14 0.83
-6 18 9 14.26 1.01
-12 -6 6 36.17 1.3
12 6 -6 36.64 1.45
18 -12 6 35.26 1.26
12 6 -3 2.39 0.43
-6 18 3 2.08 0.64
18 -12 3 2.61 0.7
18 -12 0 33.68 1.72
18 -12 -3 75.73 2.58
6 -18 6 23.27 0.99
-18 12 6 23.57 2.11
18 -12 -6 24.12 1.12
-18 12 9 0.67 0.72
-18 12 9 0.1 0.45
-13 -5 10 167.59 3.75
-5 18 10 170.14 3.83
18 -13 7 85.24 2.34
-13 -5 7 90.3 2.37
13 5 -7 89.18 2.32
-13 -5 7 87.02 2.23
-5 18 7 86.54 2.41
13 5 -4 44.58 1.43
18 -13 4 46.1 2.01
-5 18 4 46.78 1.59
18 -13 -2 425.66 10
-18 13 5 5.69 1.45
-18 13 5 1.89 1.53
-18 13 8 140.98 3.57
-18 13 8 145.92 3.4
5 -18 8 137.48 3.28
-18 13 11 94.64 2.15
-18 13 11 99.52 2.18
-14 -4 8 28.92 1.05
18 -14 8 31.99 1.16
-14 -4 8 30.46 1.23
-4 18 5 232.27 5.5
14 4 -5 238.12 5.41
18 -14 2 175.22 4.97
18 -14 -1 0.89 0.82
-4 18 -4 133.05 3.19
-18 14 4 137.34 3.48
18 -14 -4 140.16 3.16
-18 14 7 161.36 5.62
-18 14 7 171.18 3.84
-18 14 7 159.16 3.89
4 -18 7 163.53 3.81
-18 14 10 21.65 0.74
-15 -3 9 22.56 0.81
-3 18 9 24.24 0.97
-15 -3 9 23.91 0.97
-3 18 6 161.32 3.78
15 3 -6 162.59 3.88
15 3 -3 112.65 2.68
15 3 -3 114.15 2.78
18 -15 0 8.65 1.17
-3 18 -3 159.22 3.74
18 -15 -3 162.99 3.65
-18 15 3 159.5 3.97
18 -15 -3 171.99 4.74
-18 15 6 81.86 3.6
-18 15 6 85.73 2.72
3 -18 6 87.91 2.22
-18 15 9 4.49 0.57
-18 15 9 2.55 0.82
-16 -2 10 85.66 2.07
16 2 -7 26.48 1.1
18 -16 7 27.8 1.23
-2 18 7 27.06 1.15
16 2 -4 75.12 1.98
18 -16 4 76 2.8
-2 18 -2 196.42 4.47
18 -16 -2 195.47 4.39
-2 18 -5 0.71 0.79
-18 16 5 -0.34 1.32
2 -18 5 1.06 0.38
-18 16 8 100.71 2.87
-18 16 8 105.45 2.63
-17 -1 8 25.02 1.05
17 1 -8 22.96 0.93
18 -17 8 24.7 1.08
17 1 -5 450.97 9.54
17 1 -5 442.96 9.63
18 -17 2 607.22 14.03
-1 18 -1 27.03 0.98
18 -17 -1 25.85 0.93
-1 18 -4 203.67 4.69
-18 17 4 201.19 5.19
18 -17 -4 199.98 4.59
18 -17 -4 199.07 5.52
-18 17 10 57.89 1.45
-18 0 9 0.57 0.49
18 -18 9 1.06 0.41
18 0 -6 65.77 1.91
18 0 -3 92.76 2.28
18 -18 3 92.61 2.24
18 -18 0 2.55 0.45
18 -18 0 3.27 0.98
18 -18 0 3.16 0.43
18 -18 -3 149.19 3.44
0 18 -3 146.24 3.57
18 -18 -3 156.78 4.73
-18 18 3 149.56 3.83
0 18 -3 146.4 3.43
18 -18 -3 147.65 3.42
-18 18 6 141.17 4.08
-18 18 6 134.95 4.76
0 18 -6 150.49 3.57
-18 18 9 23.52 1.24
-18 18 9 23.94 0.92
-18 19 8 78.49 2.43
-18 19 8 85.75 2.15
-18 19 5 2.52 1.06
18 -19 -5 3.38 0.64
-18 19 5 2.93 1.3
1 18 -5 2.5 0.72
1 18 -2 130.76 3.13
1 18 -2 131.08 3.22
18 -19 -2 132.06 3.09
18 -19 -2 129.97 3.1
18 -19 1 345.19 7.21
19 -1 -1 327.06 7.18
1 18 1 335.94 7.27
18 -19 4 121.87 2.87
19 -1 -4 121.36 2.9
18 -19 4 121.97 4.04
19 -1 -7 0.66 0.57
18 -19 7 -0.08 0.72
-19 1 10 33.99 0.95
-17 19 9 36.29 1.5
-17 19 9 33.72 1.15
2 17 -6 22.52 1.14
-17 19 6 19.45 1.72
-17 19 6 17.68 1.66
2 17 -3 36.19 1.18
17 -19 -3 37.36 1.17
2 17 -3 34.62 1.34
17 -19 -3 38.74 2.07
-17 19 3 37.8 1.6
17 -19 -3 35.08 1.14
2 17 0 239.99 5.39
2 17 0 237.27 5.41
17 -19 0 246.46 5.32
17 -19 3 67.78 2.73
19 -2 -3 64.61 1.68
17 -19 3 62 1.67
17 -19 6 7 0.49
19 -2 -6 8.49 0.58
-19 2 9 30.06 1.04
-16 19 10 12.51 0.65
3 16 -7 158.97 3.91
16 -19 -4 827.29 17.45
16 -19 -4 840.37 18.72
3 16 -4 832.63 17.46
-16 19 4 881.91 18.93
-16 19 4 850.7 18.19
3 16 -1 736.39 15.5
16 -19 -1 733.49 15.42
16 -19 2 3.26 0.45
16 -19 2 2.35 0.94
-19 3 5 432.65 10.53
19 -3 -5 452.3 9.33
16 -19 5 428.01 9.25
-19 3 8 382.23 8.17
19 -3 -8 388.43 8.27
4 15 -8 10.5 0.81
-15 19 8 9 1.21
-4 -15 5 1.46 0.86
4 15 -5 0.6 0.61
15 -19 -5 0.84 0.66
-15 19 5 0.21 1.15
-15 19 5 0.73 1.75
4 15 -2 24.72 0.93
15 -19 -2 24.81 0.88
15 -19 4 25.34 1.66
15 -19 4 27.55 0.93
19 -4 -4 27.25 1.05
-19 4 7 3.8 0.46
15 -19 7 3.31 0.39
15 -19 7 2.45 0.83
-19 4 10 19.73 0.84
-14 19 9 4.24 0.66
-14 19 6 6.97 1.32
-5 -14 6 8.86 0.73
5 14 -3 0.7 0.35
14 -19 -3 0.89 0.39
-14 19 3 1.19 0.79
14 -19 -3 0.82 0.81
14 -19 -3 0.61 0.4
14 -19 0 34.99 2.04
14 -19 3 26.21 0.91
19 -5 -3 25.68 0.91
14 -19 3 25.19 1.64
-19 5 6 -0.22 1
19 -5 -6 1.08 0.43
-19 5 9 3.4 0.5
14 -19 9 3.77 0.54
-13 19 10 37.66 1.26
-13 19 7 140.8 4.91
-6 -13 7 148.05 3.52
13 -19 -4 1024.87 21.35
-13 19 4 1063.19 22.75
6 13 -4 1026.69 21.34
13 -19 -4 1031.75 22.67
-6 -13 4 1035.45 21.33
13 -19 -1 824.22 18.23
19 -6 1 801.19 17.74
13 -19 2 12.15 0.62
13 -19 2 13.55 1.28
19 -6 -5 713.54 14.9
-19 6 8 536.22 10.96
19 -6 -8 515.58 11.04
13 -19 8 506.57 11.28
-7 -12 8 2.08 0.7
-12 19 8 2.43 1.08
7 12 -5 2.17 1.03
19 -7 5 2.3 0.35
-12 19 5 3.19 1.24
-12 19 5 2.3 1.35
12 -19 -5 2.28 1.08
-7 -12 5 2.03 0.72
-12 19 2 18.86 1.16
19 -7 2 17.4 1.22
19 -7 -1 20.24 1.27
12 -19 4 5.43 0.98
19 -7 -4 5.37 0.49
19 -7 -7 0.59 0.39
12 -19 7 0.8 0.73
-19 7 10 0.35 0.4
-8 -11 9 0.2 0.52
-11 19 9 0.47 0.95
-8 -11 6 5.31 0.69
8 11 -6 5.5 0.64
-11 19 6 4.31 1.26
-11 19 6 5.11 1.23
19 -8 6 5.87 0.47
19 -8 3 11.82 1.01
-11 19 3 11.18 1.06
-11 19 3 14.09 1.01
8 11 -3 11.21 0.63
19 -8 0 4.28 0.75
19 -8 -3 0.96 0.58
-19 8 6 0.09 1.18
19 -8 -6 0.32 0.45
-19 8 9 2.06 0.48
11 -19 9 2.11 0.45
-9 -10 7 156.54 3.68
19 -9 7 152.14 3.53
-10 19 7 144.98 5.05
9 10 -4 919.45 19.31
10 -19 -4 927.68 19.27
-10 19 4 950.56 20.53
10 -19 -4 907.25 20.59
-10 19 4 926.48 19.69
19 -9 4 972.13 20.24
-9 -10 4 928.11 19.25
19 -9 1 790.97 16.77
-10 19 1 741.43 16.18
19 -9 -2 1.4 0.62
19 -9 -5 468.79 10.01
-19 9 8 379.79 8.56
10 -19 8 403.51 8.62
-19 9 8 401.92 8.4
-19 9 11 24.49 0.71
-10 -9 8 11.01 0.89
-9 19 8 12.47 1.13
-9 19 5 5.32 1.24
-10 -9 5 5.47 1.13
10 9 -5 6 1.15
-9 19 5 4.51 1.44
-9 19 2 2.96 0.63
19 -10 2 3.35 0.76
19 -10 -1 78.36 2.66
19 -10 -4 103.79 3.15
19 -10 -7 25.43 0.9
-19 10 7 23.31 1.07
9 -19 7 25.47 1.11
-19 10 7 24.49 0.94
-19 10 10 0.45 0.45
-11 -8 9 13.74 0.77
-8 19 9 13.53 1.02
11 8 -6 1.71 0.56
-8 19 6 0.85 1.07
-11 -8 6 2.32 0.63
19 -11 6 1.48 0.47
19 -11 3 22.37 1.4
-8 19 3 24.09 1.35
-8 19 3 25.12 1.16
11 8 -3 22.66 0.91
19 -11 0 46.57 1.99
19 -11 -3 9.16 0.89
19 -11 -6 0.5 0.49
-19 11 6 0.57 1.18
-19 11 6 0.49 0.49
-19 11 9 7.88 0.53
-7 19 10 35.39 1.22
-12 -7 10 35.67 1.08
-12 -7 7 69.03 1.97
-12 -7 7 65.17 1.81
12 7 -7 70.55 1.88
-7 19 7 67.19 2
19 -12 7 70.97 1.91
12 7 -4 581.97 12.61
19 -12 4 614.23 13.59
-12 -7 4 610.59 12.54
-7 19 4 574.31 13.52
-7 19 4 602.12 12.87
19 -12 -2 1.24 0.65
-19 12 5 361.81 8.19
-19 12 8 277.94 6.46
7 -19 8 288.74 6.32
-19 12 8 296.41 6.31
-13 -6 8 87.98 2.2
-13 -6 8 89.78 2.37
-6 19 8 91.77 2.55
19 -13 8 89.56 2.28
-13 -6 5 32.02 1.33
13 6 -5 30.55 1.24
-6 19 5 29.14 1.59
13 6 -2 23.65 0.9
-6 19 2 22.05 1.09
19 -13 -1 175.07 4.89
-6 19 -4 105.71 2.56
19 -13 -4 103.52 3.29
-19 13 4 111.55 2.86
-19 13 7 5.21 1.47
-19 13 7 5.9 0.74
-19 13 7 5.12 0.6
6 -19 7 5.31 0.55
-19 13 10 12.49 0.64
-14 -5 9 46.33 1.37
-5 19 9 45.3 1.44
19 -14 6 37.71 1.36
14 5 -6 40.23 1.39
-14 -5 6 39.5 1.33
14 5 -3 7.49 0.59
19 -14 3 8.71 1.02
19 -14 3 7.14 0.46
19 -14 0 179.47 5.14
-19 14 3 97.84 2.62
-5 19 -3 98.15 2.41
19 -14 -3 101.07 3.25
5 -19 6 4.32 0.53
-19 14 6 4.76 1.35
-19 14 9 15.87 0.72
-19 14 9 15.43 0.96
-15 -4 10 2.96 0.5
-4 19 10 3.13 0.48
15 4 -7 104.43 2.65
-4 19 7 104.11 2.73
19 -15 7 105.05 2.73
-15 -4 7 101.85 2.64
15 4 -4 411.85 8.96
19 -15 4 408.48 9.93
-4 19 4 418.26 9.06
19 -15 -2 19.87 0.75
-4 19 -2 18.96 0.79
19 -15 -2 19.64 0.78
19 -15 -2 20.96 1.46
-4 19 -5 250.08 5.62
-19 15 5 257.93 7.22
-19 15 5 258.52 6.08
-19 15 8 156.22 3.99
-19 15 8 170.29 3.84
19 -16 8 152.32 3.59
-16 -3 8 144.76 3.52
-3 19 8 153.49 3.64
16 3 -5 145.03 3.56
19 -16 2 0.78 0.78
-3 19 -1 314.69 6.87
19 -16 -1 314.07 6.78
19 -16 -1 314.74 6.83
19 -16 -4 363.77 9.21
-19 16 4 393.07 8.76
-3 19 -4 385.34 8.33
19 -16 -4 389.26 8.31
-19 16 7 60.59 1.77
3 -19 7 55.5 1.54
-19 16 10 10.73 0.51
-17 -2 9 63.44 1.68
-2 19 9 63.75 1.66
17 2 -6 63.96 1.9
-2 19 6 63.75 1.8
17 2 -3 7.8 0.51
19 -17 3 8.42 1.09
19 -17 3 8.43 0.48
17 2 -3 8.94 0.64
17 2 0 187.69 4.26
-2 19 0 182.62 4.22
-2 19 -3 142.51 3.37
-19 17 3 152.27 3.78
-2 19 -3 144.38 3.5
19 -17 -3 150.76 3.42
-2 19 -6 7.31 0.64
-19 17 6 8.36 1.26
-19 17 9 19.78 1.1
-19 17 9 20.88 0.82
-18 -1 10 0.91 0.34
18 1 -7 63.28 1.85
-18 -1 7 65.54 1.81
19 -18 7 67.11 2.03
18 1 -4 217.47 4.88
18 1 -4 215.02 4.75
19 -18 4 207.16 4.63
19 -18 4 213.4 5.96
18 1 -1 96.84 2.4
18 1 -1 93.48 2.28
19 -18 1 99.18 3.57
19 -18 1 94.64 2.28
19 -18 1 96.55 2.32
-1 19 -2 29.09 1
-1 19 -2 29.48 1.08
19 -18 -2 30.69 1.95
19 -18 -2 30.22 1.04
-19 18 5 246.77 7.13
-19 18 5 266.69 6.31
-1 19 -5 259.79 5.86
-19 18 8 151.92 3.8
-19 18 8 154.58 3.57
-19 0 8 231.2 5.13
19 -19 8 230.88 5.29
19 0 -8 234.68 5.12
19 0 -5 199.67 4.73
19 0 -5 212.84 4.66
19 -19 2 8.93 0.55
19 0 -2 9.85 0.54
0 19 -1 391.32 8.36
0 19 -1 400.22 8.42
19 0 1 366.72 8.2
19 0 1 398.02 8.37
19 -19 -1 396.8 8.36
0 19 -4 419.34 9.06
0 19 -4 435.93 9.26
-19 19 4 422.52 10.46
-19 19 4 436.93 9.67
19 -19 -4 399.38 10.24
19 -19 -4 423.99 9.09
0 19 -7 65.74 1.78
-19 19 10 8.47 0.37
-19 20 9 0.43 0.77
-19 20 9 0.17 0.44
-19 20 6 88.64 3.01
1 19 -6 94.69 2.48
19 -20 -3 237.21 5.33
1 19 -3 237.1 5.48
1 19 -3 231.54 5.42
-19 20 3 241.12 5.78
19 -20 -3 244.37 5.36
20 -1 0 44.72 1.34
19 -20 0 44.72 2.54
19 -20 0 43.4 1.29
20 -1 0 44.41 1.23
19 -20 0 43.54 1.33
19 -20 3 30.43 1.97
20 -1 -3 30.58 1.05
19 -20 3 29.88 1.14
20 -1 -6 95.1 2.51
-20 1 9 31.78 0.97
19 -20 9 30.55 0.97
-18 20 10 48.34 1.18
2 18 -7 288.23 6.38
2 18 -4 226.8 5.16
-18 20 4 223.51 6.39
-18 20 4 236.2 5.81
18 -20 -4 233.58 5.18
2 18 -4 227.94 5.41
18 -20 -4 226.09 6.35
20 -2 1 10.93 0.62
18 -20 -1 10.83 1.42
2 18 -1 9.78 0.64
18 -20 -1 9.48 0.65
18 -20 2 522.89 11.98
20 -2 -2 490.97 10.39
18 -20 2 489.8 10.39
18 -20 5 439.52 9.5
20 -2 -5 466.13 9.6
-20 2 8 72.27 1.89
20 -2 -8 71.17 1.88
3 17 -8 2.21 0.48
-17 20 8 2.24 0.98
3 17 -5 18.57 0.91
3 17 -5 18.71 1.16
-17 20 5 18.19 1.62
-17 20 5 16.8 1.61
17 -20 -5 19.09 0.92
3 17 -2 138.13 3.4
3 17 -2 138.22 3.27
17 -20 -2 132.22 3.19
17 -20 1 80.34 2.02
17 -20 1 86.14 3.31
20 -3 -1 80.5 1.98
17 -20 4 1.01 0.59
17 -20 4 1.32 0.96
20 -3 -4 0.84 0.56
20 -3 -7 41.96 1.4
-20 3 10 32.85 0.91
-16 20 9 0.47 0.88
-16 20 9 0.61 0.53
-16 20 6 11.23 1.43
-16 20 6 10.33 1.62
4 16 -3 28.87 1.04
-16 20 3 26.73 1.65
16 -20 -3 31.8 1.95
-16 20 3 29.1 1.51
16 -20 -3 28.62 1.01
16 -20 -3 28.02 1.01
16 -20 0 6.07 1.18
4 16 0 5.82 0.57
20 -4 0 5.06 0.41
4 16 0 5.36 0.53
16 -20 3 49.23 1.42
16 -20 3 51.7 2.4
20 -4 -3 49.67 1.42
20 -4 -6 46.49 1.35
16 -20 6 43.52 1.29
-20 4 9 7.85 0.61
16 -20 9 7.9 0.57
-15 20 10 89.53 2.13
15 -20 -4 471.28 10.01
5 15 -4 458.02 10
15 -20 -4 479.7 11.35
-15 20 4 484.78 11.36
5 15 -1 54.18 1.55
5 15 -1 55.28 1.67
15 -20 -1 57.41 2.67
15 -20 -1 52.97 1.47
15 -20 -1 51.87 1.43
15 -20 2 1162.98 23.68
5 15 2 1130.45 23.67
15 -20 2 1166.99 25.28
20 -5 -5 748.56 15.55
15 -20 5 742.57 15.51
20 -5 -8 37.61 1.25
-20 5 8 35.68 1.15
15 -20 8 39.89 1.45
6 14 -8 1.42 0.79
6 14 -5 15.92 0.86
-14 20 5 16.26 1.72
-6 -14 5 16.72 0.94
14 -20 -5 16.75 1.04
6 14 -2 37.48 1.19
14 -20 -2 40.62 2.2
14 -20 -2 36.74 1.13
14 -20 -2 37.58 1.14
6 14 1 10.13 0.62
20 -6 -1 10.3 0.56
14 -20 4 0.87 0.8
20 -6 -4 0.59 0.88
20 -6 -7 6.72 0.52
14 -20 7 5.6 0.49
14 -20 7 6.29 0.86
-20 6 10 10.01 0.62
7 13 -9 0.34 0.43
-13 20 9 0.09 0.91
-13 20 9 -0.33 0.63
-7 -13 6 4.64 0.66
7 13 -6 3.75 0.52
-13 20 6 3.76 1.14
-13 20 6 3.88 1.38
-7 -13 3 8.25 0.52
-13 20 3 9.69 1.02
13 -20 -3 7.36 1.18
-13 20 3 9.6 1.01
7 13 -3 8 0.55
13 -20 0 1.38 0.42
20 -7 0 0.74 0.66
13 -20 3 0.19 0.77
20 -7 -3 0.42 0.37
-20 7 6 1.39 1.06
20 -7 -6 0.43 0.42
-20 7 9 0.53 0.42
13 -20 9 0.29 0.4
-12 20 10 119.86 2.84
-8 -12 7 550.07 11.68
8 12 -4 329.41 7.27
12 -20 -4 350.42 8.7
12 -20 -4 331.04 7.25
-12 20 4 329.9 8.41
-12 20 4 342.85 7.83
-8 -12 4 340.75 7.24
8 12 -1 65.32 1.72
-12 20 1 63.44 2.09
12 -20 -1 62.4 1.67
20 -8 -2 893.3 19.78
8 12 2 920.39 18.96
20 -8 -5 604.69 12.75
12 -20 8 22.38 1.04
-9 -11 8 2.31 0.62
-11 20 8 1.82 0.97
9 11 -5 4.47 0.63
-9 -11 5 3.62 0.69
-11 20 5 3.38 1.05
-11 20 5 4.05 1.73
20 -9 5 3.51 0.43
11 -20 -2 7.01 0.5
-11 20 2 7.27 0.8
9 11 -2 7.17 0.53
20 -9 2 5.62 0.86
11 -20 1 6.74 0.53
20 -9 -1 6.46 0.87
20 -9 -4 0.05 0.61
11 -20 4 -0.38 0.75
20 -9 -7 5.48 0.49
11 -20 7 5.53 0.72
-20 9 10 2.43 0.46
-10 -10 9 0.81 0.5
-10 20 9 0.11 0.79
-10 -10 6 2.82 0.62
-10 20 6 3.27 1.02
10 10 -6 2.13 0.52
-10 20 6 0.93 1.11
20 -10 6 2.48 0.43
10 10 -3 12.38 0.69
20 -10 3 12.73 1.1
-10 20 3 10.29 1.01
20 -10 0 13.66 1.12
20 -10 -3 1.22 0.59
-20 10 6 12.38 1.74
20 -10 -6 14.5 0.77
-20 10 6 14.06 0.74
-20 10 9 28.23 0.92
-9 20 10 80.74 2.08
-11 -9 7 437.22 9.34
-9 20 7 446.43 9.41
20 -11 7 422.97 9.25
-11 -9 4 307.64 6.53
-9 20 4 303.1 7.64
-9 20 4 301.26 6.91
11 9 -4 292.74 6.63
20 -11 4 301.52 7.5
20 -11 1 42.57 1.98
20 -11 -2 759.66 16.21
20 -11 -2 723.98 15.1
20 -11 -5 620.19 13.11
-20 11 8 27.02 1.21
-20 11 8 29.82 0.99
9 -20 8 29.59 1.07
-12 -8 8 3.45 0.66
-8 20 8 3.75 0.86
20 -12 8 4.17 0.43
-12 -8 5 24.68 1.04
-8 20 5 22.7 1.64
-8 20 5 24.43 1.57
12 8 -5 23.6 1.16
12 8 -2 126.12 2.95
20 -12 2 130.72 3.86
20 -12 -1 75.07 2.69
20 -12 -1 74.75 1.85
-20 12 4 0.42 0.58
20 -12 -4 -0.05 0.62
20 -12 -7 27.82 0.97
-20 12 7 27.96 1.16
-20 12 7 28.87 1.02
8 -20 7 27.94 1.08
-20 12 10 25.82 0.88
-7 20 9 5.51 0.73
-13 -7 9 5.2 0.55
13 7 -6 12.25 0.8
-13 -7 6 12.45 0.81
20 -13 6 11.71 0.72
13 7 -3 83.47 2.23
20 -13 3 89.42 3.09
-7 20 3 91.89 2.43
20 -13 3 86.7 2.08
20 -13 0 64.01 2.55
20 -13 -3 3.29 0.77
-7 20 -3 2.12 0.36
-20 13 3 2.59 0.59
-20 13 6 23.9 2.08
20 -13 -6 27.3 1.05
7 -20 6 24.81 1.03
-20 13 9 39.12 1.34
-20 13 9 42.02 1.14
-6 20 10 73.16 1.78
-14 -6 10 70.6 1.72
20 -14 7 340.78 7.62
-14 -6 7 347.14 7.6
-6 20 7 346.26 7.67
14 6 -7 360.57 7.59
20 -14 4 226.54 6
-6 20 4 234.99 5.24
20 -14 4 222.12 4.84
14 6 -1 20.16 0.85
20 -14 1 22.15 1.55
20 -14 1 20.91 0.77
20 -14 -2 456.71 9.66
20 -14 -2 471.98 10.89
-6 20 -2 460.19 9.72
-20 14 5 311.99 8.52
-20 14 5 315.01 7.23
-20 14 8 5.74 0.84
-20 14 8 7.15 0.64
6 -20 8 6.36 0.47
-15 -5 8 5.46 0.66
-5 20 8 5.22 0.8
20 -15 8 7.21 0.57
-15 -5 5 79.03 2.11
15 5 -5 73.06 2.11
-5 20 5 80.95 2.42
20 -15 5 74.66 1.87
20 -15 2 400.5 9.35
20 -15 2 370.35 7.97
20 -15 -1 254.95 5.66
-5 20 -1 267.96 5.76
20 -15 -4 5.6 1.15
-5 20 -4 7.77 0.69
-20 15 4 7.5 1.79
20 -15 -7 49.75 1.41
-20 15 7 46.18 1.53
-20 15 7 48.68 1.44
5 -20 7 45.14 1.37
-20 15 10 46.09 1.19
-16 -4 9 37.16 1.12
-4 20 9 34.92 1.14
-16 -4 6 3.31 0.6
-4 20 6 3.45 0.54
16 4 -6 4.12 0.67
16 4 -3 158.25 3.75
20 -16 3 157.4 4.74
20 -16 3 156.25 3.55
20 -16 0 189.42 4.25
16 4 0 193.69 4.38
20 -16 0 194.26 4.32
20 -16 -3 15.69 1.39
-20 16 3 18.51 1.04
-4 20 -3 17.4 0.79
-20 16 6 39.75 2.49
4 -20 6 39.28 1.23
-20 16 9 72.94 2.04
-20 16 9 74.26 1.82
-17 -3 10 30.38 0.84
17 3 -7 116.65 2.85
-17 -3 7 113.22 2.8
-3 20 7 115.72 2.87
20 -17 7 110.16 2.93
17 3 -4 30.06 1.33
20 -17 4 30.1 1.84
17 3 -1 103.41 2.6
17 3 -1 102.62 2.45
20 -17 1 102.51 2.5
20 -17 1 108.02 3.79
-3 20 -2 406.87 8.91
20 -17 -2 419.61 8.87
-3 20 -5 210.34 4.77
-20 17 5 208.48 5.18
-20 17 8 4.16 0.56
-20 17 8 3.52 0.79
-18 -2 8 75.72 1.97
18 2 -8 77.93 1.93
20 -18 8 74.68 2.04
18 2 -5 2.28 0.63
18 2 -2 295.8 6.45
18 2 -2 288.45 6.29
20 -18 2 287.77 6.23
20 -18 2 310.56 7.82
18 2 1 453.84 9.73
-2 20 -1 462.3 9.76
20 -18 -1 456.8 9.71
20 -18 -1 443.64 9.66
-2 20 -4 55.66 1.73
20 -18 -4 50.43 2.34
-20 18 4 54.61 2.32
20 -18 -4 53.53 1.65
-20 18 7 49.51 1.62
-19 -1 9 41.41 1.16
19 1 -6 1.16 0.59
-19 -1 6 1.59 0.5
19 1 -3 94.77 2.46
19 1 -3 93.1 2.31
20 -19 3 90.28 2.21
20 -19 3 86.58 3.37
20 -19 0 228.38 6.41
19 1 0 216.01 4.93
19 1 0 221.92 4.78
20 -19 0 212.72 4.87
20 -19 -3 37.11 1.29
-1 20 -3 36.34 1.38
-1 20 -3 33.45 1.33
-20 19 3 37.31 1.79
20 -19 -3 37.79 2.23
-1 20 -6 29.02 1.08
-20 19 6 25.44 1.63
-20 19 9 75.19 2.07
-20 19 9 74.41 1.81
20 0 -7 63.52 1.85
-20 0 7 66.32 1.78
20 -20 7 66.51 2
20 0 -4 10.4 0.79
20 0 -4 11.14 0.67
20 -20 4 10.51 0.68
20 -20 4 10.14 1.32
20 0 -1 83 2.16
20 -20 1 85.51 3.68
20 -20 1 81.13 2.03
20 0 -1 78.74 2.02
0 20 -2 306.81 6.76
0 20 -2 301.83 6.86
20 -20 -2 307.97 6.79
0 20 -5 138.96 3.38
-20 20 5 129.82 4.46
-20 20 5 136.23 3.81
-20 20 8 0.64 0.75
-20 20 8 1.18 0.49
-20 21 10 70.67 1.57
1 20 -7 55.51 1.57
1 20 -4 39.38 1.24
1 20 -4 37.34 1.39
-20 21 4 35 2.05
-20 21 4 37.53 1.79
20 -21 -4 37.13 1.28
21 -1 1 305.18 6.85
1 20 -1 321.34 6.99
21 -1 1 314.3 6.73
20 -21 -1 317.48 6.93
20 -21 2 232.81 6.61
20 -21 2 230.2 5.17
21 -1 -2 226.79 5.18
21 -1 -5 14.59 0.87
21 -1 -5 13.65 0.72
20 -21 5 12.83 0.61
-21 1 8 47.68 1.34
21 -1 -8 47.55 1.33
20 -21 8 49.18 1.46
-19 21 8 32.75 1.37
-19 21 8 32.66 1.07
2 19 -5 127.38 3.28
-19 21 5 128.3 4.44
-19 21 5 127.75 3.74
19 -21 -5 131.82 3.12
2 19 -2 54.92 1.94
19 -21 -2 56.39 1.7
19 -21 -2 57.48 2.88
19 -21 -2 56.53 1.96
2 19 -2 54.63 1.86
2 19 1 7.5 0.63
19 -21 1 6.55 1.83
21 -2 -1 5.67 0.49
19 -21 1 4.85 0.57
21 -2 -4 88.9 2.23
19 -21 4 87.92 2.2
19 -21 4 85.68 3.31
21 -2 -7 65.53 1.88
-18 21 9 18.63 1.06
-18 21 9 17.08 0.75
3 18 -6 19.98 1.06
-18 21 6 16.12 1.59
3 18 -3 10.31 0.92
3 18 -3 10.19 1
18 -21 -3 11.38 0.81
-18 21 3 11.13 1.37
18 -21 -3 11 0.99
18 -21 -3 9.85 1.47
3 18 0 117.88 2.92
3 18 0 116.06 2.92
18 -21 0 121.06 2.84
21 -3 0 120.1 2.79
18 -21 0 128.87 4.5
18 -21 0 121.02 2.85
18 -21 3 147.34 4.64
18 -21 3 146.3 3.38
21 -3 -3 141.56 3.35
21 -3 -6 16.42 0.88
18 -21 6 14.49 0.64
-21 3 9 8.5 0.55
-17 21 10 146.52 3.17
4 17 -7 115.67 2.98
17 -21 -4 83.68 2.24
4 17 -4 88.04 2.26
4 17 -4 79.53 2.47
-17 21 4 82.06 3.22
-17 21 4 86.35 2.87
4 17 -1 863.01 17.79
17 -21 -1 843.47 17.67
21 -4 1 844.42 17.6
21 -4 1 858.26 17.69
17 -21 -1 841.37 17.7
17 -21 2 659.52 13.53
21 -4 -2 629.52 13.5
17 -21 2 670.51 15.16
17 -21 5 30.17 1.05
21 -4 -5 32.95 1.09
17 -21 8 119.67 2.86
21 -4 -8 103.02 2.61
5 16 -8 2.16 0.56
-16 21 5 12.84 1.41
5 16 -5 14.32 0.8
16 -21 -5 13.83 0.82
5 16 -2 17.54 0.83
16 -21 -2 18.81 1.76
16 -21 -2 16.73 0.77
5 16 1 4.37 0.5
16 -21 1 5.54 0.56
21 -5 -1 4.41 0.44
16 -21 1 5.06 1.2
16 -21 4 11.16 1.32
16 -21 4 12.44 0.78
21 -5 -4 11.96 0.81
16 -21 7 30.57 0.96
21 -5 -7 34 1.18
16 -21 7 35.06 1.44
-21 5 10 5.92 0.39
-15 21 9 13.73 0.77
6 15 -6 4.41 0.53
-15 21 6 2.5 1.03
-15 21 3 11.92 1.21
15 -21 -3 11.02 0.8
15 -21 -3 11.63 1.74
15 -21 -3 13.01 0.67
6 15 -3 10.78 0.79
15 -21 0 16.68 1.59
6 15 0 17.03 0.83
15 -21 0 17.16 0.78
21 -6 0 19.6 0.73
15 -21 3 3.9 0.6
21 -6 -3 3.11 0.84
15 -21 3 4.45 1.27
15 -21 6 3.44 0.5
21 -6 -6 3.31 0.5
15 -21 9 6.68 0.52
-14 21 10 221.05 4.76
-7 -14 7 138.46 3.32
14 -21 -4 134.84 3.25
-14 21 4 144.69 4.37
-14 21 4 142.43 3.89
14 -21 -4 126.9 4.55
7 14 -4 128.4 3.19
7 14 -1 1076.75 22.76
14 -21 -1 1085.52 22.5
7 14 -1 1078.45 22.61
21 -7 1 1096.45 22.48
7 14 2 681.22 14.27
14 -21 2 717.46 15.87
14 -21 2 679.69 14.29
21 -7 -5 2.4 0.49
21 -7 -8 218.05 4.86
-21 7 8 213.84 4.75
14 -21 8 225.01 5.04
-8 -13 8 0.42 0.52
-13 21 8 0.42 0.87
8 13 -5 3.01 0.54
13 -21 -5 3.38 0.82
-13 21 5 3.56 1.28
-8 -13 5 3.42 0.58
-13 21 5 3.03 1.21
13 -21 -2 4.82 1.07
13 -21 -2 4.64 0.49
-13 21 2 5.34 0.78
13 -21 -2 5.38 0.48
8 13 -2 4.29 0.49
21 -8 2 4.56 0.83
8 13 -2 3.65 0.46
8 13 1 9.54 0.58
21 -8 -1 8.51 0.96
8 13 1 10.29 0.63
13 -21 4 1.44 1.15
21 -8 -4 1.71 0.54
21 -8 -7 5 0.49
13 -21 7 4.61 0.74
-21 8 10 7.19 0.5
9 12 -9 3.47 0.55
-12 21 9 3.53 0.83
-12 21 9 3.85 0.64
-9 -12 6 3.64 0.64
-12 21 6 2.18 0.95
-12 21 6 2.42 1.21
21 -9 6 3.25 0.36
9 12 -3 0.57 0.43
-12 21 3 -0.05 0.63
-12 21 3 0.62 0.8
21 -9 3 0.58 0.69
12 -21 -3 1.21 1.01
9 12 0 0.94 0.41
9 12 0 1.47 0.51
12 -21 0 1.16 0.43
21 -9 0 1.12 0.7
12 -21 3 11.68 1.29
-21 9 6 21.92 2
21 -9 -6 28.11 1.01
-21 9 9 8.84 0.53
10 11 -7 79.17 2.05
21 -10 7 75.2 1.95
-10 -11 7 79.07 2.13
11 -21 -4 154.12 3.75
11 -21 -4 154.17 5.16
-11 21 4 159.49 4.76
-11 21 4 170.44 4.28
10 11 -4 159.99 3.8
-10 -11 4 161.16 3.7
21 -10 1 955.27 20.72
11 -21 -1 944.12 19.57
10 11 2 596.56 12.54
21 -10 -2 592.94 13.47
21 -10 -5 3.77 0.61
11 -21 8 157.62 3.71
-10 21 8 20.21 1.14
-11 -10 8 20.23 0.91
11 10 -5 46.99 1.51
-11 -10 5 48.07 1.51
-10 21 5 44.75 2.31
-10 21 5 46.11 1.96
21 -11 5 47.12 1.41
21 -11 2 21.59 1.43
-10 21 2 17.56 1.07
10 -21 -2 19.77 0.78
21 -11 2 19.07 0.69
11 10 -2 21.14 0.85
21 -11 -1 2.28 0.71
11 10 1 2.77 0.45
21 -11 -1 2.33 0.32
10 -21 1 2.57 0.46
10 -21 4 27.04 1.9
21 -11 -7 18.38 0.76
-21 11 7 16.91 0.9
10 -21 7 17.45 0.9
-21 11 10 0.59 0.36
-9 21 9 6.99 0.77
-12 -9 9 7.66 0.57
21 -12 6 68.47 1.87
12 9 -6 67.74 1.91
-12 -9 6 68.2 1.91
21 -12 3 103.52 3.34
12 9 -3 95.55 2.46
-9 21 3 92.77 3
-9 21 3 100.93 2.69
21 -12 3 94.07 2.27
12 9 0 16.17 0.74
12 9 0 18.5 0.75
21 -12 0 15.51 1.28
9 -21 0 16.25 0.76
21 -12 0 16.75 0.67
21 -12 -3 25.61 1.48
21 -12 -6 62.15 1.72
-21 12 6 61.63 1.68
9 -21 6 60.05 1.8
-8 21 10 171.68 3.77
13 8 -7 116.58 2.79
-13 -8 7 114.55 2.84
-8 21 7 116.57 2.92
21 -13 7 111.18 2.78
21 -13 4 58.88 2.5
-13 -8 4 58.39 1.62
-8 21 4 53.36 2.24
-8 21 4 57.73 2.2
13 8 -4 57.09 1.76
13 8 -1 731.7 15.09
21 -13 1 719.97 16.25
8 -21 -1 719.64 14.98
21 -13 1 712.6 14.94
13 8 2 580.31 11.97
21 -13 -2 583.09 13.07
21 -13 -2 555.46 11.84
-21 13 5 7.73 1.16
-21 13 8 119.91 3.08
-21 13 8 129.96 2.9
8 -21 8 124.38 2.95
-7 21 8 46.36 1.56
-14 -7 8 46.71 1.4
21 -14 8 44.4 1.3
-14 -7 5 159.59 3.73
14 7 -5 160.02 3.85
-7 21 5 161.41 4.08
7 -21 -2 57.36 1.54
21 -14 2 57.95 2.45
-7 21 2 58.13 1.75
21 -14 2 54.83 1.51
14 7 1 32.38 1.07
14 7 1 33.03 1.06
21 -14 -1 33.38 1.83
21 -14 -1 32.31 0.98
21 -14 -1 31.54 1.03
21 -14 -4 150.02 4.42
-7 21 -4 143.63 3.42
-21 14 4 149.55 3.95
21 -14 -7 75.12 1.87
-21 14 7 68.84 1.99
-21 14 7 69.36 1.86
7 -21 7 69.29 1.89
-21 14 10 0.9 0.35
-15 -6 9 2.44 0.46
-6 21 9 3.07 0.52
15 6 -6 67.81 1.95
-15 -6 6 67.55 1.88
21 -15 6 67.98 1.95
21 -15 3 89.19 3.25
-6 21 3 88.41 2.38
21 -15 3 83.92 2.1
15 6 0 0.87 0.41
21 -15 0 0.88 0.8
6 -21 0 1.35 0.41
21 -15 0 1.36 0.34
21 -15 0 1.7 0.43
-6 21 -3 124.34 2.94
21 -15 -3 122.53 3.99
-21 15 3 123.52 3.19
-21 15 6 166.92 5.67
6 -21 6 173.36 4.12
-21 15 9 39.89 1.31
-21 15 9 41.43 1.09
16 5 -7 20.95 0.93
-5 21 7 21.18 1.02
-16 -5 7 20.69 0.93
21 -16 7 20.36 0.92
16 5 -4 112.62 2.96
21 -16 4 115.52 3.79
-5 21 4 113.49 3.03
21 -16 4 112.18 2.7
16 5 -1 530.31 11.48
21 -16 1 541.03 11.31
5 -21 -1 553.31 11.38
21 -16 1 528.61 11.38
21 -16 -2 308.92 6.6
16 5 2 302.47 6.65
-5 21 -2 309.19 6.65
16 5 2 298.69 6.58
-5 21 -5 0.07 0.43
-21 16 5 0.55 1.01
-21 16 5 0.38 0.9
-21 16 8 80.2 2.26
-21 16 8 84.31 2.07
-17 -4 8 22.65 0.89
21 -17 8 22.66 0.89
17 4 -5 187.62 4.37
-17 -4 5 194.56 4.24
21 -17 5 179.45 4.13
21 -17 2 255.8 6.73
21 -17 2 232.27 5.2
21 -17 -1 9.37 0.57
-4 21 -1 10.79 0.63
17 4 1 9.81 0.57
17 4 1 9.55 0.61
21 -17 -1 9.67 1.4
21 -17 -1 9.75 0.62
-21 17 4 99.18 3.08
21 -17 -4 99.96 3.41
-4 21 -4 98.59 2.58
21 -17 -4 103.81 2.54
21 -17 -7 118.53 2.86
-21 17 7 121.71 2.99
-21 17 7 122.98 2.9
-21 17 10 13.13 0.5
-18 -3 9 1.77 0.41
18 3 -6 120.13 2.98
-18 -3 6 123.89 2.86
-3 21 6 120.64 2.87
18 3 -3 226.74 5.24
21 -18 3 223.94 4.92
21 -18 3 237.97 6.41
21 -18 3 230.09 5.03
18 3 0 29.55 1.07
21 -18 0 28.57 0.97
3 -21 0 31.31 1.01
-3 21 -3 73.79 2.06
21 -18 -3 72.77 1.97
-21 18 3 72.39 2.37
21 -18 -3 72.29 2.99
-3 21 -6 166.26 3.79
-21 18 6 163.53 4.28
-21 18 9 41.39 1.36
-21 18 9 42.44 1.11
-19 -2 7 18.3 0.85
19 2 -7 16.79 0.9
21 -19 7 16.98 0.92
21 -19 4 27.12 1.84
19 2 -4 31.23 1.27
19 2 -1 206.71 4.84
19 2 -1 214.9 4.69
21 -19 1 206.98 4.75
-2 21 -2 128.74 3.24
21 -19 -2 129.22 3.17
21 -19 -2 132.07 4.44
-2 21 -5 -0.02 0.53
-21 19 5 0.82 0.95
-21 19 5 1.23 1.05
-21 19 8 55.66 1.76
-21 19 8 59.25 1.57
20 1 -8 15.2 0.64
-20 -1 8 14.74 0.67
21 -20 8 13.93 0.72
20 1 -5 238.1 5.46
20 1 -2 377.82 8
21 -20 2 366.52 7.95
20 1 -2 375.8 8.16
21 -20 2 387.76 9.59
21 -20 2 371.37 8
20 1 1 22.64 0.91
21 -20 -1 19.32 1.16
-1 21 -1 21.66 1.21
21 -20 -1 21.33 1.27
21 -20 -1 23.67 1.99
-1 21 -4 140.59 3.4
-21 20 4 130.05 4.42
21 -20 -4 124.83 4.28
-21 20 4 137.17 3.74
21 -20 -4 145.39 3.33
-21 20 7 189.24 4.36
-21 0 9 0.18 0.37
-21 0 6 59.3 1.57
21 0 -6 55.88 1.72
21 -21 6 55.43 1.47
21 -21 3 190.26 4.27
21 -21 3 198.29 5.7
21 0 0 91.73 2.47
21 0 0 86.66 2.26
21 -21 0 90 2.36
21 -21 -3 6.7 0.7
0 21 -3 5.39 0.73
21 -21 -3 5.95 1.32
-21 21 3 6.08 1.09
0 21 -6 113.01 2.78
-21 21 6 108.8 3.28
-21 21 9 51.89 1.51
-21 21 9 49.95 1.26
-21 22 8 70.88 1.98
-21 22 8 71.46 1.78
-21 22 5 44.66 1.98
1 21 -5 47.19 1.53
21 -22 -2 14.05 0.87
1 21 -2 12.68 0.89
21 -22 -2 13.65 0.84
21 -22 1 190.42 5.94
22 -1 -1 189.32 4.49
21 -22 1 193.01 4.35
22 -1 -1 194.31 4.34
22 -1 -4 117.05 2.75
21 -22 4 114.6 2.66
22 -1 -4 109.96 2.88
22 -1 -7 2.94 0.55
-22 1 7 2.97 0.46
21 -22 7 2.66 0.59
-20 22 9 16.72 0.9
-20 22 9 16.07 0.65
2 20 -6 2.15 0.62
-20 22 6 1.95 1.31
20 -22 -3 94.29 2.4
2 20 -3 90.67 2.41
2 20 -3 91.87 2.5
-20 22 3 92.97 2.83
22 -2 0 160.89 3.84
22 -2 0 158.98 3.67
2 20 0 156.91 3.8
20 -22 0 163.33 3.8
20 -22 3 19.14 0.86
20 -22 3 19.82 1.72
22 -2 -6 13.78 0.89
-22 2 9 39.29 1.04
3 19 -7 77.12 2.06
19 -22 -4 328.72 7.08
3 19 -4 325.71 7.11
3 19 -4 325.1 7.28
-19 22 4 305.59 8.3
-19 22 4 328.26 7.62
22 -3 1 208.02 4.68
3 19 -1 202.16 4.76
19 -22 -1 219.39 6.29
22 -3 1 207.94 4.53
19 -22 -1 203.26 4.74
19 -22 2 0.31 0.58
19 -22 2 1.74 1.11
22 -3 -2 -0.1 0.5
22 -3 -5 145.01 3.29
19 -22 5 135.94 3.2
-22 3 8 139.37 3.11
22 -3 -8 132.64 3.12
4 18 -8 22.54 0.81
-18 22 8 20.72 1.15
4 18 -5 40.98 1.32
4 18 -5 41.86 1.57
-18 22 5 40.18 2.23
-18 22 5 38 1.98
18 -22 -5 44.12 1.38
4 18 -2 23.57 1.14
18 -22 -2 24.64 1.03
4 18 -2 22.74 1.2
18 -22 -2 23.3 1.95
18 -22 -2 24.06 1.27
4 18 1 16.78 0.9
18 -22 1 19.64 1.22
22 -4 -1 19.45 0.87
18 -22 1 17.14 1.9
22 -4 -4 61.51 1.67
18 -22 4 62.22 1.69
22 -4 -7 6.66 0.71
18 -22 7 7.67 0.79
-17 22 9 1.64 0.83
-17 22 9 0.93 0.5
5 17 -6 25.64 1.26
-17 22 6 24.41 1.75
17 -22 -3 66.68 1.89
5 17 -3 65.7 2.22
17 -22 -3 67.89 3.02
-17 22 3 65.09 2.67
-17 22 3 71.73 2.57
17 -22 -3 68.29 1.88
5 17 -3 63.27 1.9
5 17 0 18.95 0.92
5 17 0 19.56 0.9
22 -5 0 20.07 0.76
17 -22 3 27.66 1.89
17 -22 3 31.74 1.15
22 -5 -3 30.18 1.16
22 -5 -6 65.14 1.7
17 -22 6 58.74 1.61
-22 5 9 29.28 0.93
17 -22 9 27.49 0.91
-16 22 10 37.56 0.98
6 16 -7 81.82 2.39
16 -22 -4 675.4 14
6 16 -4 663.01 14.05
-16 22 4 659.43 15.38
16 -22 -4 653.21 15.47
6 16 -1 625.72 13.33
6 16 -1 623.48 13.41
16 -22 -1 638.56 13.23
22 -6 1 624.11 13.15
16 -22 -1 633.78 13.21
16 -22 2 2.94 0.92
16 -22 2 3.31 1.58
22 -6 -2 2.61 0.79
-22 6 5 353.76 9.38
22 -6 -5 381.09 8.04
16 -22 5 372.7 8.01
22 -6 -8 311.82 6.84
16 -22 8 323.6 7
7 15 -8 0.32 0.6
7 15 -5 0.7 0.53
15 -22 -5 0.94 0.57
-15 22 5 0.38 0.95
7 15 -2 3.28 0.7
-15 22 2 2.3 0.7
15 -22 -2 2.77 2.13
15 -22 -2 3.61 0.48
7 15 1 11.6 0.71
7 15 1 12.33 0.66
15 -22 1 12.4 1.71
22 -7 -1 12.19 0.63
15 -22 4 47.16 2.33
15 -22 4 47.86 1.46
22 -7 -4 47.2 1.42
15 -22 7 23.98 0.89
15 -22 7 25.01 1.22
-22 7 10 2.76 0.35
8 14 -9 1.83 0.36
-14 22 9 1.71 0.76
-14 22 9 1.5 0.55
-8 -14 6 2.8 0.6
8 14 -6 3.56 0.57
-14 22 6 2.46 1.29
8 14 -3 11.2 0.98
14 -22 -3 11.2 1.21
-14 22 3 12.09 1.18
14 -22 -3 11.42 2.05
-14 22 3 13.5 1.58
8 14 0 2.08 0.51
14 -22 0 2.46 1.12
14 -22 0 2.23 0.47
22 -8 0 2.01 0.82
22 -8 0 2.34 0.38
14 -22 3 7.82 1.53
14 -22 3 9.02 0.89
22 -8 -3 8.12 0.74
14 -22 6 3.67 0.55
22 -8 -6 3.87 0.5
-13 22 10 13.9 0.6
9 13 -7 185.75 4.19
-9 -13 7 182.36 4.22
13 -22 -4 765.23 16.23
9 13 -4 794.53 16.25
-13 22 4 762.68 17.52
-13 22 4 768.99 16.72
9 13 -4 785.97 16.27
13 -22 -4 720.73 17.67
-9 -13 4 785.42 16.18
22 -9 1 410.87 9.9
9 13 -1 419.75 8.94
13 -22 -1 412.61 8.83
13 -22 2 9.65 1.46
9 13 2 12.42 0.67
22 -9 -2 10.83 1.24
9 13 2 12.54 0.61
22 -9 -5 407.51 8.75
-22 9 8 279.18 5.95
22 -9 -8 273.37 6.06
13 -22 8 285.39 6.18
-10 -12 8 0.78 0.5
-12 22 8 0.62 0.77
12 -22 -5 10.54 0.74
-12 22 5 9.98 1.26
-12 22 5 10.57 1.27
-10 -12 5 10.42 0.71
10 12 -5 9.72 0.68
10 12 -2 54.95 1.59
22 -10 2 56.42 2.37
10 12 -2 53.49 1.57
12 -22 -2 55.12 1.53
-12 22 2 52.14 1.97
12 -22 -2 58.95 1.52
22 -10 -1 28.06 1.65
10 12 1 32.99 1.11
10 12 1 30.13 1.05
12 -22 1 29.98 1.08
12 -22 4 -0.84 0.97
22 -10 -4 -0.05 0.66
22 -10 -7 7.5 0.53
12 -22 7 6.2 0.7
-22 10 10 4.06 0.42
11 11 -9 8.04 0.69
-11 22 9 9.5 0.81
-11 22 6 24.18 1.52
11 11 -6 25.37 1
22 -11 6 25.02 0.89
-11 -11 6 25.68 1.03
11 11 -3 4.96 1.14
-11 22 3 4.91 0.8
-11 22 3 6.43 1.37
22 -11 3 5.14 1.23
11 11 0 22.47 0.92
11 11 0 21.53 1.01
11 11 0 23.65 0.88
11 -22 0 22.22 0.88
22 -11 0 21.78 1.48
22 -11 -3 68.98 2.81
-22 11 6 16.33 1.79
22 -11 -6 21.24 0.88
-22 11 9 1.68 0.39
-10 22 10 16.27 0.63
-12 -10 7 110.71 2.72
-10 22 7 111.86 2.8
22 -12 7 108.01 2.61
22 -12 4 689.22 15.01
10 -22 -4 650.61 13.81
12 10 -4 658.82 13.92
-10 22 4 625.4 14.8
-10 22 4 686.09 14.24
10 -22 -4 630.04 15.31
-12 -10 4 660.72 13.77
12 10 -1 453.94 9.76
10 -22 -1 455.97 9.69
22 -12 1 455 9.61
22 -12 -2 2.74 0.95
12 10 2 2.27 0.45
22 -12 -5 361.2 7.87
-22 12 8 265.66 5.88
10 -22 8 269.29 5.85
13 9 -8 36.36 1.1
-9 22 8 36.42 1.35
-13 -9 8 34.95 1.15
13 9 -5 7.6 0.7
-9 22 5 6.98 1.05
-13 -9 5 7.43 0.65
13 9 -2 39.18 1.32
22 -13 2 42.29 2.17
9 -22 -2 41.01 1.22
22 -13 2 39.34 1.16
13 9 1 121.71 2.94
13 9 1 121.3 2.91
22 -13 -1 124.97 3.94
9 -22 1 125.14 2.89
22 -13 -1 113.18 2.74
13 9 1 123.25 2.87
-22 13 4 32.15 1.46
22 -13 -4 25.96 1.56
-22 13 7 3.38 0.63
22 -13 -7 3.58 0.45
9 -22 7 2.72 0.49
-14 -8 9 36.26 1.07
-8 22 9 40.35 1.22
14 8 -6 45.04 1.45
-14 -8 6 46.09 1.42
22 -14 6 44.53 1.42
14 8 -3 2.7 0.83
22 -14 3 3.35 1.14
-8 22 3 3.83 0.85
22 -14 3 1.89 0.4
14 8 0 169.78 3.9
14 8 0 176.75 3.9
22 -14 0 179.3 5.08
8 -22 0 167.78 3.85
22 -14 0 164.48 3.73
22 -14 0 166.5 3.8
22 -14 -3 197.44 5.57
-22 14 3 197.05 4.64
8 -22 6 28.97 1.09
22 -14 -6 30.99 1.11
-22 14 6 30.82 1.05
-7 22 10 11.88 0.45
15 7 -7 88.32 2.2
-15 -7 7 83.79 2.19
-7 22 7 82.69 2.28
22 -15 7 84.26 2.19
22 -15 4 511.14 12.19
15 7 -4 518.21 11.16
-7 22 4 540.11 11.34
22 -15 4 514.86 10.93
15 7 -1 388.3 8.28
22 -15 1 381.13 8.06
7 -22 -1 376.79 8.14
22 -15 1 377.2 8.14
15 7 2 1.11 0.4
22 -15 -2 0.87 0.41
22 -15 -2 1.42 1.58
-22 15 5 233.33 6.71
-22 15 5 223.18 5.32
-22 15 8 165.08 3.87
22 -16 8 90.73 2.23
-16 -6 8 93.3 2.25
16 6 -5 39.45 1.41
-16 -6 5 40.28 1.25
22 -16 5 38.23 1.14
22 -16 2 42.73 1.18
6 -22 -2 43.08 1.26
22 -16 2 41.04 2.44
-6 22 2 44.82 1.48
22 -16 2 41 1.28
16 6 1 273.86 5.89
22 -16 -1 262.53 5.79
16 6 1 263.74 5.89
-6 22 -4 144.48 3.35
-22 16 4 141.15 3.74
-22 16 7 0.48 0.65
22 -16 -7 0.93 0.41
-22 16 7 1.42 0.46
6 -22 7 0.9 0.34
-5 22 9 62.31 1.57
-17 -5 9 60.25 1.51
-17 -5 6 118.43 2.84
17 5 -6 117.35 2.95
22 -17 6 116.87 2.98
-5 22 6 116.67 2.85
17 5 -3 2.85 0.92
22 -17 3 4.61 1.04
22 -17 3 4.12 0.59
-5 22 3 4.14 0.72
17 5 0 187.58 4.28
22 -17 0 181.07 4.12
22 -17 0 184.02 4.2
5 -22 0 186.74 4.17
-5 22 -3 341.88 7.47
22 -17 -3 347.17 8.69
-22 17 3 346.93 7.77
22 -17 -6 86.94 2.29
-22 17 9 3.97 0.6
-18 -4 7 39.3 1.25
22 -18 7 37.88 1.31
18 4 -7 42.36 1.32
18 4 -4 210.79 4.99
22 -18 4 220.31 6.07
22 -18 4 219.57 4.81
18 4 -1 137.66 3.55
22 -18 1 144.04 3.3
4 -22 -1 150.29 3.35
22 -18 1 151.21 4.89
22 -18 1 143.35 3.48
18 4 2 3.08 0.38
22 -18 -2 3.09 0.67
-4 22 -2 3.14 0.73
22 -18 -2 3.28 1.14
-4 22 -5 119.24 2.9
-22 18 5 122.68 3.33
-22 18 8 77.84 2.16
-22 18 8 80.9 1.95
-19 -3 8 95.91 2.25
19 3 -8 96.71 2.23
22 -19 8 91.52 2.31
19 3 -5 125.39 3.21
22 -19 5 133.93 3.04
22 -19 2 2.9 1.13
19 3 -2 1.39 0.79
22 -19 2 2.51 0.64
19 3 1 165.79 3.81
19 3 1 163.01 3.75
-3 22 -1 159.39 3.87
22 -19 -1 162.37 3.84
22 -19 -1 163.27 3.8
22 -19 -1 175.69 5.33
-3 22 -4 213.22 4.82
-22 19 4 209.1 5.15
22 -19 -4 210.43 4.77
22 -19 -7 16.81 0.75
-22 19 7 18.32 0.91
-22 19 7 18.16 0.79
20 2 -9 44.93 1.16
-20 -2 9 50.55 1.19
20 2 -6 115.62 2.9
22 -20 6 108.1 2.63
22 -20 3 22.68 0.88
22 -20 3 21.71 1.7
22 -20 3 24.28 0.95
20 2 0 76.98 2.17
22 -20 0 73.91 2
2 -22 0 76.51 2.04
22 -20 0 76.58 3.3
-2 22 -3 266.52 6.01
22 -20 -3 275.31 5.95
-22 20 3 271.08 6.32
-2 22 -6 86.3 2.19
-22 20 9 2.64 0.64
-22 20 9 2.63 0.31
21 1 -7 41.6 1.29
-21 -1 7 40.3 1.17
22 -21 7 38.53 1.34
21 1 -4 97.97 2.67
22 -21 4 98.06 2.33
22 -21 4 104.23 2.44
21 1 -1 31.05 1.12
21 1 -1 32.07 1.39
22 -21 1 29.9 2.32
-1 22 -2 13.47 0.88
22 -21 -2 14.7 0.88
22 -21 -2 13.94 1.69
-1 22 -5 67.42 1.9
-22 21 5 65.39 2.32
-22 21 8 19.83 0.95
-22 21 8 19.46 0.73
22 0 -8 118.85 2.68
-22 0 8 119.21 2.65
22 -22 8 118.5 2.78
22 0 -5 165.81 4.02
22 -22 5 171.04 3.8
22 0 -2 2.13 0.66
22 -22 2 2.34 0.51
22 -22 2 1.01 0.88
22 0 -2 2.85 0.48
22 -22 2 2.22 0.6
22 0 1 177.51 4.19
22 0 1 180.35 4.1
0 22 -1 181.74 4.24
22 -22 -1 183.06 4.17
22 -22 -1 180.46 4.21
0 22 -4 283.22 6.23
-22 22 4 271.94 6.56
22 -22 -4 283.68 6.15
0 22 -7 55.18 1.44
-22 22 7 53.56 1.59
-22 22 7 55.03 1.47
-22 23 9 0.51 0.43
1 22 -6 73.3 1.94
-22 23 6 68.01 2.36
22 -23 -3 182.59 4.07
1 22 -3 171.4 4.13
-22 23 3 172.27 4.43
22 -23 -3 177.64 5.44
23 -1 0 29.04 1.17
22 -23 0 30.02 1.08
23 -1 0 29.37 1.01
22 -23 0 30.53 1.21
22 -23 0 30.91 2.17
22 -23 3 33.36 1.09
22 -23 3 32.7 1.93
22 -23 3 36.61 1.2
23 -1 -6 113.78 2.85
22 -23 6 117.41 2.68
2 21 -7 139.03 3.23
-21 23 7 143.02 3.34
2 21 -4 41.38 1.47
-21 23 4 38.66 2.11
-21 23 4 42.98 1.88
21 -23 -4 44.56 1.39
23 -2 1 49.17 1.5
23 -2 1 46.36 1.33
21 -23 -1 49.9 1.56
21 -23 -1 51.67 2.67
21 -23 2 202.93 6.1
23 -2 -2 211.43 4.83
21 -23 2 214.24 4.69
23 -2 -2 206.45 4.69
23 -2 -5 73.86 2.12
21 -23 5 75.59 1.83
-23 2 8 0.23 0.32
23 -2 -8 0.86 0.35
21 -23 8 0.69 0.36
-20 23 8 28.37 1.14
-20 23 8 26.27 0.9
3 20 -5 0.36 0.43
3 20 -5 0.96 0.67
-20 23 5 0.85 1.18
3 20 -2 118 3.04
20 -23 -2 120.26 4.37
3 20 -2 122.14 3.11
20 -23 -2 124.68 3.02
20 -23 -2 130.06 3.05
23 -3 -1 107.8 2.79
20 -23 1 112.43 4.22
20 -23 1 110.36 2.75
23 -3 -1 109.68 2.67
20 -23 1 112.63 2.74
20 -23 4 3.33 0.51
20 -23 4 4.67 0.86
23 -3 -4 3.33 0.48
23 -3 -7 13.64 0.75
-23 3 7 16.98 0.72
-19 23 9 3.69 0.66
-19 23 9 3.46 0.42
4 19 -6 28.45 1.21
-19 23 6 25.46 1.83
19 -23 -3 14 1.55
4 19 -3 13.85 0.82
4 19 -3 13.02 0.96
19 -23 -3 15.66 0.86
-19 23 3 14.18 1.4
-19 23 3 15.13 1.29
19 -23 -3 15.76 0.82
23 -4 0 15.26 0.88
4 19 0 15.09 0.9
19 -23 0 15.13 0.92
19 -23 0 12.94 1.72
23 -4 0 14.91 0.73
19 -23 0 14.48 0.92
19 -23 3 43.98 2.37
19 -23 3 52.05 1.5
23 -4 -6 55.93 1.67
19 -23 6 52.5 1.39
-23 4 9 12.62 0.53
5 18 -7 295.56 6.53
18 -23 -4 226.14 5.02
5 18 -4 220.75 5.06
5 18 -4 215.62 5.25
-18 23 4 226.58 6.34
-18 23 4 229.84 5.56
23 -5 1 8.22 0.58
5 18 -1 8.1 0.77
5 18 -1 7.26 0.8
18 -23 -1 9.15 1.51
23 -5 1 7.67 0.49
18 -23 -1 6.98 0.8
18 -23 2 396.3 8.39
18 -23 2 384.37 9.92
23 -5 -2 384.78 8.34
23 -5 -5 283.5 6.15
18 -23 5 279.9 6.11
-23 5 8 14.8 0.68
18 -23 8 14.88 0.75
6 17 -8 5.16 0.54
6 17 -5 14.71 0.81
-17 23 5 12.6 1.4
6 17 -5 15.07 1.09
17 -23 -5 14.97 0.82
6 17 -2 1.79 0.7
-17 23 2 1.33 0.85
17 -23 -2 1.8 1.17
17 -23 -2 1.36 0.71
6 17 1 27.22 1.31
17 -23 1 30.36 1.24
23 -6 -1 28.25 1.16
17 -23 1 29.56 2.14
17 -23 4 22.24 0.94
23 -6 -4 22.1 0.88
23 -6 -7 2.09 0.57
17 -23 7 1.88 0.65
-16 23 9 15.49 0.77
7 16 -6 55.26 1.6
7 16 -3 9.25 0.93
16 -23 -3 10.86 0.9
-16 23 3 8.35 1.1
16 -23 -3 10.58 0.75
7 16 0 37.3 1.37
16 -23 0 39.75 1.68
23 -7 0 37.59 1.17
16 -23 3 42.85 1.46
23 -7 -3 41.43 1.34
16 -23 3 40.32 2.3
23 -7 -6 13.46 0.69
16 -23 6 11.39 0.68
-23 7 9 1.12 0.47
-15 23 10 63.32 1.46
15 -23 -4 314.13 6.74
8 15 -4 302.18 6.8
-15 23 4 296.66 7.93
15 -23 -4 286.95 8.11
-15 23 4 326.46 7.29
8 15 -1 31.44 1.55
15 -23 -1 32.31 2.49
8 15 -1 30.58 1.47
15 -23 -1 30.04 1.39
23 -8 1 28.53 0.96
15 -23 -1 28.89 1.03
15 -23 2 690.11 15.56
15 -23 2 664.65 13.83
23 -8 -2 644.87 13.8
15 -23 5 446.07 9.45
23 -8 -5 443.05 9.47
23 -8 -8 18.89 0.82
15 -23 8 20.65 0.87
9 14 -8 15.46 0.91
-14 23 8 13.49 0.97
9 14 -5 22.41 0.97
-14 23 5 19.95 1.59
-14 23 5 21.07 1.56
14 -23 -5 23.43 0.97
9 14 -2 0.29 0.8
14 -23 -2 0.08 1.34
-14 23 2 0.54 0.58
14 -23 -2 0.63 0.52
9 14 1 27.43 1.13
9 14 1 26.26 0.99
14 -23 1 27.6 1.28
14 -23 1 23.44 2.31
23 -9 -1 28.23 1.04
23 -9 -1 30.7 1.98
14 -23 4 32.9 1.14
23 -9 -4 31.28 1.13
23 -9 -7 9.71 0.6
14 -23 7 7.97 0.62
14 -23 7 9.41 0.78
-23 9 10 0.05 0.27
10 13 -9 7.4 0.51
-13 23 9 8.31 0.78
-13 23 9 8.44 0.67
10 13 -6 5.8 0.59
-13 23 6 5.35 1.22
-10 -13 6 5.75 0.62
10 13 -3 1.8 0.73
10 13 -3 2.21 0.7
-13 23 3 1.05 0.68
-13 23 3 1.59 1.1
13 -23 -3 1.59 1.16
23 -10 0 27.96 2.07
10 13 0 25.86 1.06
10 13 0 27.89 1.1
13 -23 0 27.06 1.06
13 -23 3 10.13 0.94
23 -10 -3 9.84 0.89
23 -10 -6 -0.25 0.43
11 12 -7 393.64 8.7
-11 -12 7 406.69 8.71
12 -23 -4 190.27 5.84
12 -23 -4 201.46 4.47
11 12 -4 194.83 4.49
-12 23 4 195.26 4.86
-11 -12 4 195.81 4.4
23 -11 1 83.92 3.31
12 -23 -1 80.69 2.09
23 -11 -2 603.59 14.44
11 12 2 650.03 13.47
12 -23 2 640.45 13.45
23 -11 -5 450.68 9.65
12 -23 8 27.49 0.88
12 -23 8 27.9 0.97
-11 23 8 7.24 0.8
12 11 -5 67.27 1.9
-11 23 5 67.63 2.29
23 -12 5 68.16 1.8
-12 -11 5 65.83 1.81
12 11 -2 62.95 1.96
23 -12 2 67.46 2.77
11 -23 -2 64.77 1.83
23 -12 2 62.68 1.62
23 -12 -1 1.91 1.61
12 11 1 1.73 0.5
12 11 1 1.69 0.43
11 -23 1 1.58 0.68
11 -23 4 18.03 1.75
23 -12 -4 23.15 1.01
23 -12 -7 18.15 0.76
11 -23 7 18.22 0.87
-23 12 10 2.07 0.32
-10 23 9 12.63 0.73
-10 23 9 13.66 0.74
13 10 -6 1.27 0.52
-13 -10 6 1.54 0.52
23 -13 6 1.39 0.4
13 10 -3 110.94 2.86
23 -13 3 108.24 3.7
-10 23 3 116.67 3.1
23 -13 3 108.57 2.59
13 10 0 203.22 4.53
13 10 0 207.87 4.58
23 -13 0 216.03 5.9
13 10 0 194.94 4.67
10 -23 0 196.94 4.5
23 -13 0 194.16 4.34
23 -13 -3 51.93 2.26
10 -23 6 2.44 0.54
-23 13 6 3.08 0.52
23 -13 -6 2.25 0.52
-23 13 9 15.16 0.58
-9 23 10 44.28 1.07
-9 23 7 323.26 6.94
23 -14 7 308.64 6.78
-14 -9 7 315.99 6.82
23 -14 4 233.61 6.33
-9 23 4 236.5 5.59
14 9 -4 234.54 5.36
14 9 -1 18.55 0.99
23 -14 1 19.29 0.68
9 -23 -1 19.95 0.85
23 -14 1 18.9 0.76
14 9 2 477.44 10.23
23 -14 -2 491.92 11.47
23 -14 -5 438.7 9.47
9 -23 8 27.51 0.87
-23 14 8 27.85 1.03
-15 -8 8 2.95 0.47
15 8 -8 3.91 0.44
-8 23 8 3.72 0.64
15 8 -5 45.8 1.49
-8 23 5 44.55 1.7
-15 -8 5 42.67 1.31
23 -15 2 155.93 4.75
8 -23 -2 150.78 3.48
-8 23 2 149.3 3.69
23 -15 2 146.54 3.47
15 8 1 28.16 1.06
23 -15 -1 26.4 1.99
8 -23 1 27.34 1.28
23 -15 -1 25.82 0.91
15 8 1 29.35 1
23 -15 -4 34.5 1.9
-23 15 4 35.66 1.49
23 -15 -7 94.92 2.23
-23 15 7 91.94 2.36
-7 23 9 37.09 1.11
16 7 -6 0.84 0.58
-16 -7 6 1.5 0.51
-7 23 6 1.37 0.48
23 -16 6 1.39 0.47
23 -16 3 149.63 4.73
-7 23 3 159.27 3.86
23 -16 3 149.85 3.54
16 7 -3 159.38 3.78
16 7 0 240.71 5.36
16 7 0 248.48 5.33
23 -16 0 233.82 5.18
23 -16 0 247.14 6.73
7 -23 0 233.39 5.28
23 -16 0 234.75 5.29
-23 16 3 22.6 1.26
23 -16 -3 24.56 1.66
23 -16 -6 57 1.6
7 -23 6 48.72 1.48
7 -23 9 82.91 1.91
17 6 -7 173.68 3.84
23 -17 7 163.04 3.85
-17 -6 7 165.42 3.77
17 6 -4 90.35 2.46
23 -17 4 84.94 3.2
-6 23 4 94.82 2.57
23 -17 4 89.45 2.24
17 6 -1 43.55 1.58
23 -17 1 43.86 1.25
6 -23 -1 41.64 1.38
23 -17 1 44.28 1.54
23 -17 -2 366.25 9.17
17 6 2 355.71 7.81
-23 17 2 358.61 8.09
23 -17 -2 366.51 7.75
-6 23 -5 232.47 5.13
-23 17 5 231.87 6.73
-23 17 5 235.72 5.53
6 -23 5 233.52 5.19
-23 17 8 12.91 0.8
23 -18 8 12.95 0.57
-18 -5 8 11.47 0.57
18 5 -5 25.75 1.12
23 -18 5 25.39 0.88
23 -18 2 174 5.22
23 -18 2 166.37 3.75
23 -18 2 165.3 3.85
18 5 1 94.79 2.46
23 -18 -1 91.08 2.34
18 5 1 95.34 2.44
23 -18 -1 95.3 3.61
-5 23 -4 4.04 0.53
-23 18 4 3.57 0.93
23 -18 -7 70.91 1.82
-23 18 7 73.7 1.98
19 4 -6 0.52 0.64
-19 -4 6 0.53 0.42
23 -19 6 -0.18 0.49
19 4 -3 191.97 4.56
23 -19 3 192.82 5.63
23 -19 3 197.41 4.42
19 4 0 451.18 9.8
23 -19 0 453.15 9.65
4 -23 0 452.3 9.71
-4 23 -3 111.86 2.75
23 -19 -3 106.36 3.77
-23 19 3 106.75 3.05
-4 23 -6 23.31 0.85
23 -19 -6 27.15 1.05
20 3 -7 112.62 2.65
-20 -3 7 105.54 2.53
23 -20 7 110.02 2.7
20 3 -4 77.31 2.22
23 -20 4 73.48 2.94
20 3 -1 2.71 0.91
23 -20 1 2.68 0.55
23 -20 1 2.78 1.35
23 -20 1 2.87 0.78
23 -20 -2 32.86 1.18
-3 23 -2 31.63 1.2
20 3 2 31.57 1.05
-23 20 2 33.8 1.54
23 -20 -2 33.73 2.12
-3 23 -5 26.69 1.03
-23 20 5 26.59 1.45
-23 20 8 -0.22 0.57
-23 20 8 0.42 0.31
23 -21 8 40.4 1.15
-21 -2 8 40.01 1.05
21 2 -8 40.95 1.07
21 2 -5 12.6 0.86
23 -21 5 11.17 0.64
23 -21 2 297.65 6.37
21 2 -2 288.68 6.61
23 -21 2 295.42 7.94
23 -21 2 297.48 6.47
21 2 1 381.86 8.25
23 -21 -1 383.33 8.2
21 2 1 374.3 8.2
-2 23 -1 379.04 8.26
23 -21 -1 383.45 8.24
23 -21 -1 397.43 10
23 -21 -4 36.91 1.29
-2 23 -4 37.44 1.3
-23 21 4 36.24 2.07
-23 21 4 35.8 1.65
-23 21 7 36.99 1.25
-23 21 7 38.96 1.13
22 1 -6 4.62 0.65
23 -22 6 5.25 0.47
23 -22 3 97.56 3.63
23 -22 3 108.1 2.63
22 1 0 324.53 7.21
23 -22 0 331.18 7.09
23 -22 0 327.02 7.18
23 -22 0 322.63 8.75
-1 23 -3 113.58 2.85
-23 22 3 107.81 3.14
23 -22 -3 115.94 2.79
-1 23 -6 6.88 0.61
-23 22 9 59.28 1.47
23 0 -7 13.6 0.68
23 -23 7 13.49 0.7
23 0 -4 7.42 0.82
23 -23 4 7.81 0.63
23 0 -1 139.56 3.51
23 -23 1 145.63 3.35
0 23 -2 149.17 3.69
-23 23 2 151.34 3.95
23 -23 -2 158.48 3.64
23 -23 -2 159.24 5.08
-23 23 5 5.83 1.2
0 23 -5 5.19 0.65
-23 23 8 22.39 0.97
-23 23 8 20.44 0.65
-23 24 7 11.02 0.69
-23 24 7 12.79 0.57
1 23 -4 47.45 1.52
-23 24 4 46.57 1.91
23 -24 -4 48.49 1.49
24 -1 1 207.28 4.72
23 -24 -1 207.47 4.71
1 23 -1 209.21 4.78
23 -24 -1 207.78 4.75
23 -24 -1 197.82 6.17
24 -1 -2 79.79 2.28
24 -1 -2 81.39 2.11
23 -24 2 78.91 3.2
23 -24 2 84.31 2.19
24 -1 -5 5.68 0.74
23 -24 5 5.98 0.6
24 -1 -8 74.28 1.71
-22 24 8 4.94 0.75
-22 24 8 5.31 0.43
2 22 -5 129.95 3.14
-22 24 5 123.29 3.55
2 22 -2 135.62 3.41
-22 24 2 140.57 3.69
22 -24 -2 143.17 3.35
22 -24 -2 130.04 4.69
22 -24 -2 140.96 3.37
24 -2 -1 3.49 0.63
22 -24 1 5.18 1.2
24 -2 -1 4.07 0.46
22 -24 1 4.82 0.71
24 -2 -4 42.08 1.51
24 -2 -4 44.84 1.36
22 -24 4 45.59 1.27
24 -2 -7 50.79 1.46
22 -24 7 52.5 1.52
-21 24 9 24.16 0.86
3 21 -6 67.11 1.85
-21 24 6 62.9 2.26
21 -24 -3 23.75 1.03
3 21 -3 22.33 0.97
3 21 -3 22.22 1.09
-21 24 3 21.42 1.55
-21 24 3 20.57 1.41
21 -24 -3 22.63 1.72
24 -3 0 5.7 0.68
3 21 0 5.44 0.69
24 -3 0 5.8 0.5
21 -24 0 5.55 0.72
21 -24 0 5.89 1.26
21 -24 3 73.91 1.92
21 -24 3 75.08 3.08
24 -3 -6 28.82 1.14
4 20 -7 9.13 0.62
-20 24 7 9.52 0.74
4 20 -4 120.89 2.92
4 20 -4 116.7 3.02
-20 24 4 112.17 3.96
-20 24 4 119.4 3.39
20 -24 -4 117.98 2.89
24 -4 1 330.51 7.18
4 20 -1 332.55 7.22
20 -24 -1 345.04 8.97
24 -4 1 319.36 7.01
20 -24 -1 332.08 7.17
20 -24 2 109.42 2.6
24 -4 -2 101.76 2.54
20 -24 2 100.24 3.81
24 -4 -5 2.97 0.63
20 -24 5 3.02 0.45
24 -4 -5 3.02 0.51
-24 4 8 67.92 1.63
24 -4 -8 68.38 1.68
5 19 -8 2.06 0.35
-19 24 8 2.04 0.67
-19 24 8 2.05 0.44
5 19 -5 6.22 0.6
5 19 -5 6.85 0.81
-19 24 5 5.8 1.24
19 -24 -5 6.13 0.66
5 19 -2 26.57 1.13
19 -24 -2 28.63 1.11
19 -24 -2 24.88 1.99
-19 24 2 26.52 1.62
19 -24 -2 27.69 1.09
19 -24 1 35.41 1.23
19 -24 1 31.94 2.23
24 -5 -1 33.19 1.11
5 19 1 35.78 1.25
19 -24 4 3.51 0.54
19 -24 4 2.46 0.86
24 -5 -4 2.92 0.47
24 -5 -7 5.18 0.6
-24 5 7 5.58 0.5
19 -24 7 5.94 0.64
-18 24 9 27.51 0.84
6 18 -6 9.95 0.63
6 18 -6 10.15 0.97
6 18 -3 16.15 0.9
18 -24 -3 16.69 0.87
6 18 -3 17.44 1.07
18 -24 -3 15.44 1.55
-18 24 3 15.07 1.37
18 -24 -3 17.32 0.82
6 18 0 72.6 2.13
6 18 0 71.93 2.11
24 -6 0 71.52 1.88
18 -24 0 77.93 3.51
18 -24 0 73.46 2.05
18 -24 3 75.74 3.15
18 -24 3 81.23 2.11
24 -6 -6 10.93 0.65
18 -24 6 9.71 0.58
-24 6 9 4.92 0.36
7 17 -7 133.28 3.28
17 -24 -4 21.17 0.94
7 17 -4 20.77 0.97
7 17 -4 20.66 1.2
7 17 -1 431.7 9.47
7 17 -1 436 9.51
17 -24 -1 439.61 9.34
24 -7 1 432.08 9.24
17 -24 -1 449.38 11.21
17 -24 -1 444.34 9.34
17 -24 2 391.87 8.28
24 -7 -2 380.62 8.24
17 -24 2 366.34 9.81
24 -7 -5 8.17 0.61
17 -24 5 9.12 0.66
24 -7 -8 114.1 2.75
17 -24 8 125.02 2.86
8 16 -8 30.35 1.05
-16 24 8 29.82 1.21
8 16 -5 6.92 0.67
-16 24 5 5.79 1.23
16 -24 -5 7.14 0.66
8 16 -2 3.82 0.8
8 16 -2 3.98 1.01
16 -24 -2 4.69 1.6
16 -24 -2 3.34 0.65
8 16 1 16.99 0.98
8 16 1 17.1 0.9
24 -8 -1 16.34 0.83
16 -24 4 2.93 0.95
16 -24 4 4.03 0.61
24 -8 -4 3.52 0.54
16 -24 7 2.98 0.44
16 -24 7 2.75 0.59
9 15 -9 10.57 0.47
-15 24 9 10.89 0.81
-15 24 9 11.07 0.63
9 15 -6 0.89 0.5
-15 24 6 -0.5 1.23
9 15 -3 23.52 1.04
15 -24 -3 20.35 0.93
-15 24 3 24.74 1.46
15 -24 -3 24.06 2.06
9 15 0 40.09 1.57
15 -24 0 40.38 2.53
15 -24 0 40.65 1.4
24 -9 0 41.06 1.39
15 -24 3 27.14 1.09
24 -9 -3 24.95 1.01
15 -24 3 23.55 1.91
15 -24 6 1.55 0.53
24 -9 -6 1.08 0.45
-24 9 9 2.12 0.49
10 14 -7 60.41 1.67
-14 24 7 63.26 1.79
10 14 -4 166.65 3.98
-14 24 4 173.79 4.39
14 -24 -4 169.86 3.92
10 14 -1 868.95 18.2
10 14 -1 879.82 18.34
14 -24 -1 877.84 18.06
14 -24 -1 915.01 20.06
24 -10 1 841.27 18.04
24 -10 1 901.72 19.42
10 14 2 571.18 11.81
14 -24 2 565.39 13.6
24 -10 -2 547.89 11.88
14 -24 5 15.47 0.8
24 -10 -5 13.99 0.76
24 -10 -8 103.05 2.47
14 -24 8 103.1 2.49
11 13 -8 22.42 1.06
-13 24 8 21.14 1.01
11 13 -5 1.53 0.51
13 -24 -5 1.84 0.52
-13 24 5 1.89 1.05
11 13 -2 37.12 1.45
24 -11 2 43.22 2.13
13 -24 -2 40.37 1.3
13 -24 -2 39.52 2.44
24 -11 2 37.03 1.16
13 -24 -2 40.25 1.55
11 13 -2 38.66 1.41
24 -11 -1 114.4 3.77
11 13 1 113.03 2.93
11 13 1 114.33 2.81
13 -24 1 118.89 2.89
24 -11 -4 42.57 1.41
13 -24 4 39.36 2.25
13 -24 7 0.88 0.48
24 -11 -7 0.56 0.38
13 -24 7 0.55 0.47
12 12 -9 0.33 0.49
-12 24 9 0.1 0.62
12 12 -6 31.57 1.14
12 12 -3 89.13 2.33
-12 24 3 88.65 2.66
12 -24 -3 89.07 3.77
12 12 -3 85.11 2.33
24 -12 3 94.21 3.34
24 -12 0 44.38 2.19
12 12 0 40.04 1.58
12 12 0 43.25 1.47
12 -24 0 42.13 1.55
12 -24 3 1.37 1.31
24 -12 -6 12.66 0.71
13 11 -7 62.59 1.72
-11 24 7 62.7 1.79
-13 -11 7 64.14 1.69
11 -24 -4 73.82 1.97
-11 24 4 77.68 2.39
13 11 -4 74.08 2.07
13 11 -1 574.62 12.46
13 11 -1 589.47 12.5
11 -24 -1 589.26 12.41
24 -13 -2 450.82 10.82
13 11 2 449.14 9.69
11 -24 2 455.4 9.68
24 -13 -5 12.58 0.78
11 -24 8 97.73 2.23
11 -24 8 92.09 2.24
14 10 -8 29.92 0.93
-10 24 8 29.8 1.11
14 10 -5 38.79 1.3
-10 24 5 33.91 1.56
24 -14 5 36.2 1.18
-14 -10 5 36.26 1.15
24 -14 2 0.38 0.96
10 -24 -2 0.9 0.63
-10 24 2 1.79 0.86
24 -14 2 0.68 0.49
14 10 1 73.83 2.08
24 -14 -1 76.54 2.97
14 10 1 69.55 1.9
10 -24 1 71.51 2.01
10 -24 4 67.08 2.92
24 -14 -7 11.19 0.58
10 -24 7 11.08 0.62
15 9 -9 4.86 0.65
-9 24 9 5.3 0.51
24 -15 6 105.54 2.65
-15 -9 6 107.6 2.62
15 9 -3 158.19 3.84
24 -15 3 160.35 4.93
-9 24 3 164.2 4.06
24 -15 3 159.52 3.65
15 9 0 8.94 0.82
15 9 0 10.99 0.88
15 9 0 9.72 0.79
24 -15 0 11.22 1.44
9 -24 0 9.88 0.96
24 -15 0 11.08 0.62
24 -15 -3 63.68 2.71
-24 15 6 94.53 2.4
9 -24 6 96.37 2.46
-24 15 9 14.63 0.56
-8 24 7 58.61 1.67
24 -16 7 56.63 1.53
-16 -8 7 56.37 1.52
16 8 -4 48.25 1.59
-8 24 4 48.78 1.72
24 -16 4 48.08 1.34
24 -16 1 455.38 9.68
16 8 -1 454.59 9.91
24 -16 1 488.12 11.44
8 -24 -1 470.52 9.81
24 -16 1 459.86 9.78
16 8 2 350.2 7.65
24 -16 -2 368.05 9.02
-24 16 2 353.44 7.82
24 -16 -2 349.31 7.56
-24 16 5 5.01 1.21
-24 16 5 5.07 0.85
24 -16 -5 4.19 0.68
-24 16 8 76.63 1.96
17 7 -8 37.57 1.07
-17 -7 8 36.46 1.03
17 7 -5 108.05 2.78
24 -17 2 20.24 1.79
7 -24 -2 21.01 0.9
-7 24 2 23.62 1.12
24 -17 2 21.69 1.09
17 7 1 43.24 1.37
17 7 1 41.64 1.4
24 -17 -1 41.84 2.37
7 -24 1 42.02 1.42
24 -17 -1 42.43 1.29
-24 17 4 120.68 3.2
24 -17 -7 47.87 1.32
-24 17 7 48.05 1.47
-6 24 9 0.7 0.32
24 -18 6 131.25 3.24
-18 -6 6 132.49 3.08
-6 24 3 317.97 6.98
24 -18 3 314.53 6.76
18 6 -3 307.83 6.95
18 6 0 59.86 1.83
24 -18 0 63.16 1.69
18 6 0 64.25 1.8
24 -18 0 63.82 3.07
6 -24 0 62.07 1.78
24 -18 0 60.46 1.87
24 -18 -3 69.07 2.85
-24 18 3 71.59 2.22
24 -18 -6 185.65 4.27
6 -24 9 31.65 0.84
19 5 -7 20.32 0.81
24 -19 7 19.88 0.8
-19 -5 7 19.2 0.71
19 5 -4 21.51 1.09
24 -19 4 22.46 0.88
19 5 -1 172.07 4.09
24 -19 1 172.04 3.88
5 -24 -1 169.87 3.9
24 -19 1 180.33 5.48
24 -19 1 170.22 3.97
19 5 2 133.87 3.21
24 -19 -2 136.55 4.48
-24 19 2 133.16 3.49
24 -19 -2 135.18 3.18
-24 19 5 3.65 0.93
-24 19 8 26.58 0.99
-20 -4 8 15.52 0.54
20 4 -5 86.14 2.3
24 -20 5 82.32 2.05
20 4 -2 41.19 1.47
24 -20 2 40.06 1.2
24 -20 2 36.72 2.15
24 -20 2 38.94 1.32
20 4 1 24.12 1.1
24 -20 -1 26.77 1.03
20 4 1 25.32 1.13
24 -20 -1 28.33 1.98
4 -24 1 27.77 1.07
24 -20 -1 25.42 1.06
-4 24 -4 157.49 3.66
-24 20 4 151.96 3.97
24 -20 -7 94.02 2.24
-24 20 7 98.87 2.41
21 3 -6 109.79 2.73
24 -21 6 109.01 2.76
24 -21 3 220.11 4.79
24 -21 3 225.77 4.95
24 -21 0 23.8 0.97
21 3 0 24.41 1.07
3 -24 0 25.51 1.05
24 -21 0 24.91 1.9
-3 24 -3 112.97 2.83
24 -21 -3 112.52 3.89
-24 21 3 113.7 3.16
24 -21 -6 250.8 5.56
3 -24 9 58.79 1.35
22 2 -7 0.33 0.41
24 -22 7 0.22 0.38
22 2 -4 36.55 1.4
24 -22 4 40.29 1.24
22 2 -1 69.85 2.04
24 -22 1 73.42 1.89
24 -22 1 70.4 3.13
24 -22 1 72.06 2
24 -22 -2 8.19 0.73
-2 24 -2 6.74 0.72
24 -22 -2 8.42 1.2
-24 22 2 8.92 1.06
-2 24 -5 11.02 0.71
-24 22 5 10.87 1.22
-24 22 8 20.04 0.89
23 1 -5 186.64 4.34
24 -23 5 186.61 4.15
23 1 -2 229.37 5.48
24 -23 2 248.96 5.32
24 -23 2 234.12 6.74
24 -23 2 248.69 5.44
23 1 1 17.73 0.84
24 -23 -1 15.33 0.85
23 1 1 17.37 0.79
1 -24 1 16.37 0.8
24 -23 -1 17.17 0.95
24 -23 -1 18.04 1.63
-1 24 -4 68.21 1.88
-24 23 4 62.45 2.22
-24 23 7 100.88 2.45
24 0 -6 175.38 4.04
24 -24 6 178.8 4.1
24 -24 3 391.27 8.45
24 -24 3 413.55 8.6
24 0 0 109.25 2.81
24 -24 0 112.34 2.73
24 -24 0 112.14 2.82
24 -24 0 105.57 4.05
0 24 -3 34.54 1.28
-24 24 3 35.27 1.65
24 -24 -3 36.11 1.26
0 24 -6 156.65 3.54
-24 25 8 33.06 0.99
1 24 -5 59 1.66
-24 25 5 57.49 2.01
1 24 -2 7.62 0.73
-24 25 2 7.76 1.1
25 -1 -1 24.85 1.09
24 -25 1 27.84 1.01
24 -25 1 24.74 1.85
25 -1 -4 56.37 1.78
24 -25 4 58.33 1.65
25 -1 -7 20.83 0.75
24 -25 7 18.88 0.74
2 23 -6 20.63 0.84
23 -25 -3 67.3 1.86
2 23 -3 62.7 1.89
-23 25 3 66.87 2.27
25 -2 0 319.3 7.19
23 -25 0 327.59 7.11
23 -25 0 336.35 7.2
23 -25 0 330.58 8.92
25 -2 -3 119.54 3.12
23 -25 3 123.62 2.89
23 -25 3 128.31 3.01
25 -2 -6 3.58 0.58
23 -25 6 4.66 0.45
23 -25 6 4.4 0.57
3 22 -7 68.22 1.67
-22 25 7 64.52 1.76
3 22 -4 153.58 3.66
-22 25 4 150.42 3.99
22 -25 -4 151.28 3.55
25 -3 1 21.65 0.93
22 -25 -1 24.57 1.86
22 -25 -1 23.46 1.05
25 -3 -2 67.72 2
22 -25 2 71.4 1.85
25 -3 -2 68.83 1.83
22 -25 2 67.53 3
25 -3 -5 163.47 3.95
22 -25 5 161.81 3.66
25 -3 -8 46.75 1.18
-21 25 8 18.29 0.93
-21 25 8 18.01 0.7
4 21 -5 43.44 1.47
-21 25 5 42.56 1.97
4 21 -2 9.63 0.82
21 -25 -2 10.63 0.79
-21 25 2 9.33 1.08
-21 25 2 11.07 1.16
21 -25 -2 9.68 0.73
21 -25 -2 9.01 1.36
25 -4 -1 24.73 1.04
21 -25 1 25.08 1.92
21 -25 1 25.07 1
25 -4 -1 25.35 0.92
21 -25 1 26.94 1.1
25 -4 -4 63.66 1.69
21 -25 4 63.5 1.65
25 -4 -7 24.1 0.91
-20 25 9 18.09 0.7
5 20 -6 -0.03 0.57
-20 25 6 0.71 1.12
20 -25 -3 35.23 2.09
20 -25 -3 35.35 1.25
5 20 -3 35.65 1.25
5 20 -3 33.69 1.34
-20 25 3 31.71 1.81
-20 25 3 33.99 1.66
25 -5 0 101.65 2.61
5 20 0 107.41 2.68
20 -25 0 104.1 4
25 -5 0 98.94 2.47
20 -25 0 105.95 2.65
20 -25 3 19.14 1.6
20 -25 3 22.66 0.92
25 -5 -6 7.6 0.71
6 19 -7 72.77 1.92
6 19 -4 270.47 5.96
19 -25 -4 266.89 5.89
6 19 -4 264.25 6.1
25 -6 1 169.36 3.96
6 19 -1 169.65 4.04
6 19 -1 172.41 4.07
19 -25 -1 170.23 5.53
25 -6 1 166.67 3.81
19 -25 -1 175.4 3.98
19 -25 2 1.45 0.9
19 -25 2 2.04 0.59
25 -6 -2 1.61 0.45
25 -6 -5 178.9 4.07
19 -25 5 180.77 4.03
25 -6 -8 110.68 2.59
-25 6 8 115.49 2.53
19 -25 8 112.93 2.64
7 18 -8 1.67 0.4
7 18 -5 11.4 0.7
7 18 -5 10.09 0.97
18 -25 -5 10.72 0.71
7 18 -2 63.91 1.9
18 -25 -2 67.52 1.85
18 -25 -2 67.19 1.83
7 18 1 43.87 1.39
25 -7 -1 41.98 1.3
18 -25 1 42.85 2.49
18 -25 4 2.93 0.58
18 -25 4 2.85 0.84
25 -7 -4 2.69 0.47
25 -7 -7 4.28 0.58
18 -25 7 5.18 0.58
-17 25 9 2.6 0.51
-17 25 9 2.85 0.39
8 17 -6 17.3 0.83
8 17 -6 17.4 1.11
-17 25 6 17.26 1.43
8 17 -3 131.13 3.3
17 -25 -3 131.01 3.21
17 -25 -3 136.03 4.65
-17 25 3 137.84 3.66
17 -25 -3 137.58 3.16
8 17 0 161.6 3.89
17 -25 0 166.74 3.8
25 -8 0 160.26 3.75
17 -25 0 166.9 5.45
17 -25 3 6.74 1.18
17 -25 3 9.36 0.73
25 -8 -6 20.49 0.83
17 -25 6 20.02 0.84
9 16 -7 87.83 2.41
-16 25 7 91.03 2.31
16 -25 -4 533.91 11.1
9 16 -4 511.68 11.19
-16 25 4 525.48 11.55
16 -25 -1 481.94 11.72
9 16 -1 443.9 9.78
9 16 -1 450.64 9.84
16 -25 -1 461.71 9.66
25 -9 1 442.93 9.58
16 -25 -1 460.3 9.65
16 -25 2 3.72 1.16
25 -9 -2 2.5 0.51
25 -9 -5 275.77 5.99
16 -25 5 271.54 5.99
25 -9 -8 226.31 4.96
16 -25 8 228.69 4.98
10 15 -8 0.35 0.49
-15 25 8 1.03 0.61
10 15 -5 46.71 1.55
-15 25 5 49.43 1.99
15 -25 -5 52.53 1.48
15 -25 -2 82.26 3.63
10 15 -2 84.2 2.29
10 15 -2 83.83 2.48
15 -25 -2 83.01 2.21
10 15 1 10.97 0.85
15 -25 1 10.18 0.83
25 -10 -1 9.5 0.78
15 -25 1 9.67 1.71
10 15 1 10.47 0.74
15 -25 4 10.45 0.76
25 -10 -4 11.06 0.7
15 -25 7 22.78 0.84
15 -25 7 24.33 0.97
11 14 -9 13.57 0.51
-14 25 9 14.4 0.67
-14 25 9 14.38 0.62
11 14 -6 58.48 1.7
11 14 -3 53.11 1.67
14 -25 -3 53.18 1.54
14 -25 -3 55.37 2.81
-14 25 3 50.42 1.93
11 14 0 9.61 0.97
11 14 0 9.76 0.81
14 -25 0 6.91 1.73
14 -25 0 10.51 0.98
25 -11 0 9.29 0.7
25 -11 0 9.26 1.39
14 -25 3 9.85 1.31
25 -11 -3 8.81 0.7
25 -11 -6 33.84 1.12
14 -25 6 32.72 1.15
-25 11 9 14.49 0.57
12 13 -7 96.36 2.4
-13 25 7 99.06 2.46
13 -25 -4 501.18 10.5
12 13 -4 490.13 10.59
-13 25 4 492.59 10.9
25 -12 1 352.64 8.83
12 13 -1 340.2 7.79
13 -25 -1 352.07 7.5
25 -12 1 342 7.49
12 13 2 1.01 0.57
13 -25 2 1.19 0.64
25 -12 -2 1.23 0.88
13 -25 2 1.11 1.14
13 -25 5 248.7 5.59
25 -12 -5 259.86 5.66
25 -12 -8 196.24 4.23
13 -25 8 187.13 4.18
13 12 -8 0.49 0.62
-12 25 8 1.14 0.58
13 12 -5 34.39 1.22
-12 25 5 34.38 1.58
13 12 -2 133.18 3.23
12 -25 -2 134.64 3.11
-12 25 2 137.29 3.45
25 -13 2 137.6 4.28
13 12 -2 133.26 3.21
13 12 1 69.53 2.11
25 -13 -1 68.88 2.92
13 12 1 71.42 1.91
12 -25 1 70.12 2.02
12 -25 4 -1 0.9
25 -13 -4 0.18 0.54
25 -13 -7 22.05 0.78
12 -25 7 21.97 0.83
12 -25 7 20.87 0.85
14 11 -9 21.89 0.76
-11 25 9 24.56 0.77
14 11 -6 46.27 1.43
11 -25 -3 3.71 1.14
14 11 -3 2.7 0.61
-11 25 3 3.98 0.91
25 -14 3 3.44 0.89
25 -14 0 57.84 2.74
14 11 0 55.01 1.83
14 11 0 58.19 1.75
11 -25 0 52.84 1.79
25 -14 -3 108.23 3.61
11 -25 3 110.37 2.75
25 -14 -6 47.02 1.39
11 -25 6 43.53 1.37
15 10 -7 60.01 1.62
-10 25 7 58.46 1.68
15 10 -4 359.06 7.84
-10 25 4 356.56 8.03
15 10 -1 291.81 6.54
15 10 -1 300.92 6.58
10 -25 -1 297.68 6.48
25 -15 1 289.28 6.29
25 -15 -2 0.98 0.88
15 10 2 1.58 0.62
10 -25 2 0.86 0.63
25 -15 -5 180.7 4.22
10 -25 8 148.06 3.28
16 9 -8 18.04 0.68
16 9 -5 0.14 0.59
-9 25 5 1.23 0.8
25 -16 5 0.28 0.39
25 -16 2 49.74 2.41
9 -25 -2 47.52 1.45
-9 25 2 49.13 1.79
25 -16 2 49.89 1.44
16 9 1 74.06 2.1
25 -16 -1 75.45 3.09
9 -25 1 71.72 2.02
25 -16 -1 70.76 1.91
-25 16 4 12.11 0.93
9 -25 4 8.22 1.2
25 -16 -7 9.54 0.52
-25 16 7 9.09 0.67
9 -25 7 8.12 0.47
17 8 -9 78.3 1.87
-8 25 9 76.84 1.78
17 8 -6 166.11 3.74
-8 25 6 166.49 3.67
25 -17 6 156.82 3.68
-17 -8 6 152.65 3.55
17 8 -3 19.12 1.02
25 -17 3 18.21 1.47
-8 25 3 21.23 1.14
25 -17 3 21.23 0.86
17 8 0 90.85 2.38
17 8 0 90.48 2.44
17 8 0 88.36 2.44
8 -25 0 89.99 2.37
25 -17 0 88.27 2.23
25 -17 -3 167.04 5.01
-25 17 3 169.47 4.13
-25 17 6 23.53 0.92
8 -25 6 21.22 0.81
-18 -7 7 29.24 0.87
25 -18 7 28.38 0.92
18 7 -4 180.76 4.34
25 -18 4 170.92 5.17
25 -18 4 182.17 4.1
18 7 -1 127.47 3.21
25 -18 1 129.93 3.02
25 -18 1 125.51 4.37
7 -25 -1 129.97 3.09
-7 25 1 129.54 3.23
25 -18 1 131.01 3.09
25 -18 -2 6.1 1.12
18 7 2 4.31 0.55
25 -18 -2 5.28 0.6
-25 18 2 4.29 0.86
-25 18 5 127.28 3.31
-25 18 8 86.89 2.1
19 6 -8 31.37 0.93
19 6 -5 0.41 0.65
25 -19 5 0.76 0.32
19 6 -2 87.77 2.41
25 -19 2 86.78 2.12
25 -19 2 82.92 3.31
25 -19 2 89.85 2.26
25 -19 -1 169.71 3.92
19 6 1 175.2 4.06
25 -19 -1 179.56 5.42
6 -25 1 170.06 3.99
19 6 1 174.3 4
-25 19 4 52.78 1.86
-25 19 7 1.86 0.54
25 -19 -7 2.11 0.34
20 5 -6 135.07 3.25
25 -20 6 140.02 3.29
25 -20 3 10.07 1.22
25 -20 3 10.42 0.69
20 5 0 167.62 3.95
25 -20 0 165.88 3.81
20 5 0 165.92 3.93
25 -20 0 175.51 5.38
5 -25 0 165.29 3.85
25 -20 0 170.25 3.9
25 -20 -3 297.93 7.93
-25 20 3 306.07 6.95
25 -20 -6 66.8 1.81
5 -25 9 5.31 0.32
21 4 -7 28.46 0.91
25 -21 7 26.77 0.9
21 4 -4 78.92 2.21
25 -21 4 78.9 2.02
21 4 -1 33.34 1.29
25 -21 1 34.89 1.12
25 -21 1 34.41 2.12
25 -21 1 34.68 1.24
25 -21 -2 1.45 0.59
25 -21 -2 1.23 0.92
-25 21 2 1.73 0.88
-25 21 5 24.19 1.37
-25 21 8 16.62 0.8
22 3 -8 57.42 1.41
22 3 -5 35.31 1.28
25 -22 5 33.3 1.05
25 -22 2 13.38 0.67
22 3 -2 13.48 0.9
25 -22 2 14.4 1.36
25 -22 2 14.2 0.83
22 3 1 160.01 3.74
25 -22 -1 159.97 3.71
22 3 1 159.43 3.76
3 -25 1 159.75 3.7
25 -22 -1 157.02 5.12
25 -22 -1 161.45 3.77
-25 22 4 134.82 3.56
-25 22 7 14.91 0.75
23 2 -6 181.58 4.12
25 -23 6 182.42 4.17
25 -23 3 14.09 0.63
25 -23 3 15.25 0.81
23 2 0 152.13 3.66
25 -23 0 149.64 3.54
23 2 0 156.3 3.6
2 -25 0 153.17 3.5
25 -23 0 151.16 5.02
-2 25 -3 336.89 7.28
-25 23 3 326.65 7.57
25 -23 -6 108.54 2.6
24 1 -7 25.43 0.83
25 -24 7 24.74 0.83
24 1 -4 17.78 0.99
25 -24 4 19.16 0.87
24 1 -1 4.36 0.67
25 -24 1 5.27 0.57
25 -24 1 5.14 1.11
-25 24 2 78.99 2.45
-25 24 5 70.77 2.22
-25 24 8 7.62 0.5
25 0 -8 45.22 1.11
25 0 -5 72.91 1.97
25 -25 5 71.04 1.79
25 0 -2 0.97 0.64
25 -25 2 0.89 0.45
25 -25 2 0.95 0.65
25 0 1 73.15 1.94
25 -25 -1 72.86 1.98
0 -25 1 71.8 1.88
25 -25 -1 73.42 2.03
0 25 -4 97.36 2.45
-25 25 4 94.1 2.78
-25 25 7 18.32 0.81
25 -26 -6 86.35 2.06
1 25 -3 361.83 7.91
-25 26 3 347.59 8.18
26 -1 0 128.75 3.15
25 -26 0 131.33 3.11
26 -1 0 127.65 3.07
25 -26 0 133.17 3.19
26 -1 -3 38.01 1.41
25 -26 3 39.33 1.15
26 -1 -6 205.91 4.51
25 -26 6 201.48 4.53
-24 26 7 54.22 1.49
2 24 -4 16.76 0.88
-24 26 4 16.89 1.3
24 -26 -4 17.24 0.89
26 -2 1 40.9 1.28
24 -26 -1 42.48 1.41
26 -2 -2 148.13 3.68
24 -26 2 156.61 3.51
26 -2 -5 49.93 1.53
24 -26 5 51.85 1.41
-23 26 8 18.09 0.74
3 23 -5 5.68 0.63
-23 26 5 4.95 1.07
23 -26 -2 34.46 1.24
3 23 -2 31.13 1.25
-23 26 2 32.97 1.56
23 -26 -2 34.47 1.19
26 -3 -1 107.48 2.84
26 -3 -1 115.67 2.69
23 -26 1 113.21 2.82
23 -26 1 103.97 4.03
23 -26 4 56.11 1.5
23 -26 4 59.65 1.65
26 -3 -7 1.02 0.43
23 -26 7 1.65 0.35
4 22 -6 65.54 1.76
22 -26 -3 201.2 4.43
4 22 -3 186.74 4.49
-22 26 3 189.46 4.8
26 -4 0 69.48 1.97
22 -26 0 71.97 3.16
26 -4 0 69.22 1.81
22 -26 0 71.71 2.01
26 -4 -3 5.67 0.73
22 -26 3 5.33 0.57
22 -26 3 5.24 0.63
26 -4 -6 54.29 1.6
22 -26 6 58.3 1.47
5 21 -7 113.11 2.57
-21 26 7 106.69 2.61
5 21 -4 17.12 0.84
5 21 -4 17.28 0.97
-21 26 4 15.8 1.4
21 -26 -4 18.15 0.89
26 -5 1 114.81 2.89
5 21 -1 124.31 3.02
21 -26 -1 119.74 2.93
26 -5 1 119.31 2.76
21 -26 -1 119.07 2.94
26 -5 -2 338.91 7.42
21 -26 2 320.37 8.76
21 -26 2 344.2 7.3
26 -5 -2 322.14 7.27
21 -26 2 355.04 7.35
26 -5 -5 97.44 2.58
21 -26 5 99 2.37
26 -5 -8 0.24 0.32
6 20 -8 19.89 0.63
-20 26 8 20.6 0.73
6 20 -5 38.99 1.26
6 20 -5 39.97 1.44
6 20 -2 10.83 0.8
20 -26 -2 10.26 0.79
20 -26 -2 10.92 0.74
20 -26 -2 11.76 1.45
20 -26 1 5.06 1.17
20 -26 1 3.86 0.65
20 -26 1 5.19 0.69
26 -6 -1 4.08 0.48
26 -6 -4 32.07 1.08
20 -26 4 31.86 1.09
26 -6 -7 12.22 0.67
20 -26 7 12.97 0.54
20 -26 7 14.11 0.68
7 19 -6 69.52 1.81
7 19 -6 73.69 2.01
19 -26 -3 116.04 2.84
7 19 -3 114.51 2.9
19 -26 -3 106.39 4
7 19 -3 116.54 3
26 -7 0 3.85 0.56
19 -26 0 4 1.22
7 19 0 3.76 0.64
26 -7 0 2.81 0.43
19 -26 0 4.16 0.67
19 -26 3 53.52 2.62
19 -26 3 61.48 1.7
26 -7 -6 80.06 2.19
19 -26 6 82.38 2.01
8 18 -7 219.72 4.86
-18 26 7 215.65 4.83
18 -26 -4 152.45 3.52
8 18 -4 147.25 3.59
8 18 -4 154.99 3.8
-18 26 4 148.27 3.97
26 -8 1 10.82 0.65
8 18 -1 10.44 0.81
8 18 -1 10.94 0.82
18 -26 -1 8.53 1.38
26 -8 1 10.54 0.57
18 -26 -1 9.59 0.73
18 -26 2 333.13 6.97
26 -8 -2 314.93 6.93
26 -8 -5 221.06 4.93
18 -26 5 223.29 4.91
26 -8 -8 5.53 0.47
-26 8 8 4.84 0.37
9 17 -8 32.75 1
-17 26 8 32.2 1.17
9 17 -5 73.22 2.01
9 17 -5 74.25 2.3
-17 26 5 70.32 2.47
17 -26 -5 75.7 1.94
9 17 -2 18.3 0.96
9 17 -2 18.94 1.07
-17 26 2 20.01 1.29
17 -26 -2 15.93 1.65
17 -26 -2 17.91 0.85
9 17 1 3.19 0.57
17 -26 1 2.42 1.07
26 -9 -1 3.57 0.53
17 -26 4 17.63 0.89
26 -9 -4 18.47 0.81
26 -9 -7 8.97 0.66
17 -26 7 8.49 0.6
-16 26 9 22.73 0.76
-16 26 9 23.63 0.72
10 16 -6 64.88 1.79
10 16 -6 63.9 2.02
10 16 -3 26.07 1.13
16 -26 -3 26.72 1.04
-16 26 3 27.01 1.47
16 -26 -3 24.05 1.9
16 -26 0 15.91 1.71
10 16 0 15.48 0.87
16 -26 0 15.09 0.87
26 -10 0 14.72 0.74
16 -26 3 86.24 2.24
16 -26 3 79.33 3.34
26 -10 -6 49.21 1.37
16 -26 6 44.69 1.34
11 15 -7 248.34 5.4
11 15 -7 257.47 5.65
-15 26 7 245.93 5.48
15 -26 -4 189.7 4.27
11 15 -4 186.51 4.4
-15 26 4 186.41 4.68
15 -26 -1 29.81 2.18
11 15 -1 27.66 1.25
15 -26 -1 27.58 1.08
26 -11 1 31.48 1.04
15 -26 -1 28.13 1.04
15 -26 2 495.12 12.74
26 -11 -2 526.67 11.09
15 -26 5 363.49 7.91
26 -11 -5 374.12 7.93
26 -11 -8 20 0.75
12 14 -8 30.37 1.06
-14 26 8 30.44 1.07
12 14 -5 50.46 1.6
-14 26 5 49.86 1.91
14 -26 -5 52.76 1.45
12 14 -2 0.95 0.62
12 14 -2 2.68 0.88
-14 26 2 1.6 0.85
14 -26 -2 2.43 1.16
14 -26 -2 1.47 0.5
26 -12 2 2.05 0.39
12 14 1 57.66 1.74
12 14 1 56.93 1.65
14 -26 1 55.32 1.69
14 -26 1 58.88 2.94
26 -12 -1 56.8 1.7
14 -26 4 120.26 2.98
26 -12 -4 124.37 3
26 -12 -7 44.07 1.19
14 -26 7 42.16 1.21
14 -26 7 42.81 1.28
13 13 -6 6.4 0.63
13 13 -3 18.22 0.98
13 -26 -3 16.18 1.7
13 -26 -3 16.62 0.8
-13 26 3 18.28 1.21
26 -13 0 89.61 3.38
13 13 0 91.95 2.5
13 13 0 92.72 2.47
13 -26 0 92.44 2.38
13 -26 3 69.48 3.14
26 -13 -3 72.11 2.02
26 -13 -6 9.75 0.61
13 -26 6 9.65 0.68
13 -26 6 9.1 0.64
-26 13 9 4.84 0.32
14 12 -7 204.45 4.57
-12 26 7 207.71 4.62
12 -26 -4 152.66 3.47
14 12 -4 148.18 3.61
-12 26 4 146.53 3.83
14 12 -4 150.75 3.59
14 12 -1 7.66 0.75
14 12 -1 8.9 0.93
12 -26 -1 7.08 0.67
26 -14 1 7.3 1.12
26 -14 -2 248.64 6.89
14 12 2 263.86 5.84
12 -26 2 262.85 5.83
12 -26 5 226.42 5.12
26 -14 -5 234.08 5.19
26 -14 -8 10.44 0.55
12 -26 8 10.46 0.5
15 11 -8 14.42 0.54
15 11 -8 15.79 0.87
15 11 -5 63.2 1.81
-11 26 5 63.23 2.06
15 11 -5 63.86 1.81
26 -15 2 35.45 1.98
-11 26 2 35.32 1.46
15 11 1 3.46 0.63
15 11 1 5.29 0.59
11 -26 1 4.79 0.71
26 -15 -1 4.3 1.01
26 -15 -4 54.31 1.7
26 -15 -7 29.71 0.9
11 -26 7 30.44 0.98
11 -26 7 27.45 0.89
16 10 -9 27.01 0.79
-10 26 9 30.47 0.8
16 10 -6 0.19 0.47
-10 26 6 1.25 0.48
16 10 -3 102.49 2.7
26 -16 3 102.84 3.58
-10 26 3 105.61 2.85
16 10 0 184.98 4.39
26 -16 0 195.94 5.68
16 10 0 188.07 4.4
10 -26 0 184.6 4.27
26 -16 -3 42.28 2.07
10 -26 3 42.89 1.42
26 -16 -6 10.5 0.64
10 -26 6 9.1 0.56
17 9 -7 140.15 3.22
17 9 -4 128.39 3.18
-9 26 4 130.91 3.31
26 -17 4 126.53 2.92
17 9 -1 0.62 0.54
26 -17 1 0.44 0.87
17 9 -1 0.6 0.59
26 -17 1 0.85 0.39
9 -26 -1 0.44 0.54
-9 26 1 0.54 0.71
17 9 2 140.88 3.35
26 -17 -2 140.59 4.47
9 -26 2 137.53 3.35
26 -17 -5 127.98 3.02
9 -26 5 113.34 2.82
9 -26 8 2.28 0.43
18 8 -8 3.87 0.4
18 8 -5 68.44 1.93
26 -18 5 66.04 1.82
26 -18 2 109.46 3.82
8 -26 -2 105.86 2.56
-8 26 2 106.76 2.82
26 -18 2 107.36 2.61
18 8 1 20.45 0.96
26 -18 -1 19.44 1.64
8 -26 1 19.17 0.96
-26 18 1 19.96 1.12
26 -18 -1 19.43 0.82
-26 18 4 9.61 0.91
26 -18 -7 24.89 0.78
-26 18 7 24.53 0.91
19 7 -6 10.99 0.68
26 -19 6 10.71 0.6
19 7 -3 94.8 2.5
26 -19 3 84.39 3.22
-7 26 3 88.39 2.43
26 -19 3 92.26 2.28
19 7 0 259.65 5.86
19 7 0 261.57 5.91
26 -19 0 268.67 7.42
7 -26 0 267.84 5.8
26 -19 0 259.97 5.72
26 -19 -3 68.65 2.74
-26 19 3 65.15 2.08
26 -19 -6 18.08 0.8
-26 19 6 17.54 0.76
26 -20 7 36.71 1.04
20 6 -4 8.64 0.79
26 -20 4 8.69 0.57
20 6 -1 27.83 1.16
20 6 -1 28.4 1.12
26 -20 1 28.33 1.93
6 -26 -1 30.29 1.05
26 -20 1 31.16 1
26 -20 1 29.82 1.1
20 6 2 106.11 2.67
26 -20 -2 105.27 3.84
-26 20 2 108.23 2.97
6 -26 2 109.92 2.72
26 -20 -2 111.67 2.68
-26 20 5 71.31 2.21
6 -26 8 3.63 0.44
-26 20 8 3.38 0.48
21 5 -8 0.25 0.34
21 5 -5 42.73 1.41
21 5 -2 99.83 2.64
26 -21 2 98.26 2.35
26 -21 2 96.45 3.57
26 -21 2 99.32 2.49
26 -21 -1 23.84 0.95
21 5 1 26.2 1.04
26 -21 -1 23.33 1.77
21 5 1 26.72 0.99
5 -26 1 22.71 1.01
-26 21 4 9.84 1.01
26 -21 -7 41.35 1.09
-26 21 7 44.68 1.27
22 4 -6 0.49 0.45
26 -22 6 0.93 0.39
26 -22 3 177.55 4.05
22 4 0 323.01 7.15
26 -22 0 325.36 7.03
22 4 0 329.58 7.16
4 -26 0 323.62 7.03
26 -22 0 335.46 8.74
-26 22 3 67.35 2.18
26 -22 -6 26.52 0.94
23 3 -7 18.57 0.67
23 3 -4 0.31 0.71
26 -23 4 -0.15 0.5
23 3 -1 43.69 1.47
26 -23 1 43.41 1.3
26 -23 1 44.48 1.42
-26 23 2 81.09 2.47
3 -26 2 81.99 2.11
26 -23 -2 79.1 2.12
-26 23 5 21.83 1.22
-26 23 8 0.86 0.33
24 2 -8 9.33 0.41
24 2 -5 8 0.67
26 -24 5 7.67 0.51
24 2 -2 104.47 2.69
26 -24 2 102.3 2.46
26 -24 2 103.89 2.6
24 2 1 106.4 2.53
26 -24 -1 100.41 2.52
24 2 1 98.13 2.51
2 -26 1 100.44 2.48
-26 24 4 7.78 1.05
-26 24 7 8.04 0.64
25 1 -6 2.43 0.46
26 -25 6 3.06 0.41
25 1 -3 179.94 4.27
26 -25 3 178.5 3.98
26 -25 3 188.64 4.15
25 1 0 501.3 10.73
26 -25 0 506.64 10.65
25 1 0 499.79 10.7
26 -25 0 507.92 10.73
-26 25 3 170.38 4.27
26 -25 -6 2.06 0.38
26 0 -7 -0.01 0.31
26 -26 4 17.62 0.78
26 0 -1 34.53 1.25
26 -26 1 34.9 1.15
0 -26 2 8.4 0.61
-26 26 2 10.26 1.2
-26 26 5 3.03 0.84
-1 -26 7 1.89 0.32
-26 27 7 1.91 0.39
-26 27 4 25.71 1.29
26 -27 -1 91.85 2.38
-26 27 1 92.81 2.74
26 -27 -1 96.3 2.43
27 -1 -2 41.15 1.4
26 -27 2 40.32 1.23
26 -27 2 43.1 1.38
27 -1 -5 0.29 0.49
26 -27 5 0.11 0.37
-25 27 5 2.53 0.85
-2 -25 2 39.53 1.17
-25 27 2 42.41 1.77
27 -2 -1 45.79 1.46
25 -27 1 44.33 1.37
25 -27 1 45.12 1.49
25 -27 4 0.37 0.5
27 -2 -7 21.38 0.68
3 24 -6 175.03 3.58
24 -27 -6 147.72 3.51
24 -27 -3 57.95 1.67
3 24 -3 54.58 1.67
-24 27 3 53.55 2.03
27 -3 0 59.43 1.75
24 -27 0 63.07 1.75
27 -3 0 58.89 1.61
24 -27 3 264.97 5.64
24 -27 3 269.23 5.78
27 -3 -6 93.37 2.28
24 -27 6 91.17 2.13
24 -27 6 94.47 2.29
-23 27 7 2.07 0.58
-23 27 7 2.33 0.34
4 23 -4 80.28 2.12
-23 27 4 73.66 2.44
23 -27 -4 79.72 2.05
27 -4 1 211.37 4.86
23 -27 -1 225.22 4.93
27 -4 -2 49.87 1.59
27 -4 -2 46.68 1.39
27 -4 -5 15.83 0.85
23 -27 5 15.92 0.73
-22 27 8 15.31 0.66
5 22 -5 0.93 0.55
-22 27 5 1.62 0.99
22 -27 -2 70.97 1.95
-22 27 2 67.17 2.25
22 -27 -2 67.81 1.86
27 -5 -1 110.75 2.86
27 -5 -1 112.58 2.69
22 -27 1 115.92 2.85
27 -5 -4 11.27 0.67
22 -27 4 11.9 0.66
22 -27 4 12.06 0.75
27 -5 -7 23.46 0.85
22 -27 7 21.97 0.79
6 21 -6 76.72 2
6 21 -3 4.97 0.61
21 -27 -3 5.53 0.69
6 21 -3 4.52 0.75
-21 27 3 5.07 1.14
27 -6 0 44.69 1.44
6 21 0 45.68 1.45
21 -27 0 41.3 2.42
27 -6 0 43.93 1.29
21 -27 0 45.15 1.47
27 -6 -3 88.45 2.41
21 -27 3 93.43 2.28
27 -6 -6 14.66 0.8
21 -27 6 14.97 0.63
21 -27 6 12.78 0.73
7 20 -7 9.09 0.58
20 -27 -4 96.65 2.42
7 20 -4 96.09 2.46
7 20 -4 97.64 2.61
27 -7 1 315.22 7.07
7 20 -1 332.21 7.19
7 20 -1 332.88 7.21
27 -7 1 325.15 6.96
20 -27 -1 332.32 7.11
20 -27 2 134.66 4.6
20 -27 2 144.72 3.29
27 -7 -2 134.12 3.24
27 -7 -5 0.78 0.55
20 -27 5 1.35 0.45
27 -7 -5 0.28 0.44
27 -7 -8 57.27 1.36
8 19 -8 29.37 0.82
-19 27 8 31.27 1
-19 27 8 29.83 0.87
8 19 -5 10.83 0.72
8 19 -5 10.98 0.86
19 -27 -2 6.34 1.26
8 19 -2 7.08 0.74
19 -27 -2 8.61 0.74
8 19 -2 6.88 0.78
19 -27 -2 6.8 0.63
19 -27 1 70.6 3.16
27 -8 -1 68.2 1.81
19 -27 4 42 1.28
27 -8 -4 39.23 1.26
27 -8 -7 0.45 0.47
19 -27 7 0.38 0.35
9 18 -6 31.25 1.03
9 18 -6 32.52 1.22
9 18 -3 1.84 0.64
18 -27 -3 0.93 0.58
-18 27 3 1 0.98
9 18 0 99.06 2.56
18 -27 0 98.25 2.5
27 -9 0 100.72 2.42
18 -27 0 94.02 3.83
18 -27 0 94.24 2.45
18 -27 3 112.33 2.76
27 -9 -6 2.4 0.56
18 -27 6 2.58 0.43
27 -9 -6 2.62 0.43
18 -27 6 2.37 0.5
10 17 -7 47.62 1.42
-17 27 7 47.07 1.37
17 -27 -4 45.89 1.4
10 17 -4 47.09 1.51
10 17 -4 47.19 1.73
-17 27 4 46.41 1.86
10 17 -1 424.32 9.11
10 17 -1 436.39 9.13
27 -10 1 403.64 8.87
17 -27 -1 392.78 10.71
17 -27 -1 424.78 8.95
27 -10 -2 300.2 6.53
17 -27 2 290.3 8.12
17 -27 5 2.48 0.59
27 -10 -5 1.97 0.5
27 -10 -8 83.53 1.97
11 16 -8 31.98 0.99
-16 27 8 31.53 1.08
11 16 -5 0.29 0.61
16 -27 -5 0.15 0.48
11 16 -5 -0.51 0.94
-16 27 5 0.29 1
11 16 -2 68.55 1.99
11 16 -2 68.29 2.11
-16 27 2 67.86 2.2
16 -27 -2 67.12 1.8
16 -27 -2 62.58 3.07
16 -27 1 109.74 4.32
11 16 1 118.66 2.99
11 16 1 119.41 2.89
16 -27 1 120.13 2.93
27 -11 -1 117.46 2.9
16 -27 4 20.5 0.96
27 -11 -4 20.74 0.91
27 -11 -7 7.96 0.6
16 -27 7 7.91 0.47
16 -27 7 8.09 0.52
-15 27 9 4.48 0.29
12 15 -6 11.72 0.7
12 15 -6 11.56 0.98
12 15 -3 111.22 2.85
15 -27 -3 107.25 2.67
12 15 -3 112.15 3.05
-15 27 3 112.21 3.08
12 15 0 125.27 3.16
12 15 0 120.73 3.09
15 -27 0 118.64 4.52
15 -27 0 124.9 3.03
27 -12 0 128.04 3.03
15 -27 3 19.49 1.68
27 -12 -6 13.44 0.65
15 -27 6 12.16 0.69
15 -27 6 11.56 0.68
13 14 -7 70.02 1.73
13 14 -7 67.92 1.94
-14 27 7 66.45 1.78
14 -27 -4 19.37 0.84
13 14 -4 21.05 1.03
-14 27 4 19.86 1.26
13 14 -1 309.28 6.77
14 -27 -1 302.56 6.55
14 -27 -1 280.41 8.27
27 -13 1 295.97 6.55
14 -27 -1 299.77 6.5
14 -27 2 217.57 6.73
14 -27 2 224.76 5.18
14 -27 5 0.47 0.65
27 -13 -5 0.65 0.52
27 -13 -8 75.83 1.84
14 13 -8 20.04 0.86
-13 27 8 19.28 0.79
14 13 -5 0.54 0.61
-13 27 5 0.6 0.91
14 13 -2 49.53 1.63
14 13 -2 50.5 1.81
13 -27 -2 49.56 2.67
-13 27 2 51.69 1.79
27 -14 2 47.39 1.38
27 -14 -1 136.96 4.42
14 13 1 141 3.41
14 13 1 137.45 3.27
13 -27 1 136.67 3.33
13 -27 1 138.89 4.82
27 -14 -4 51.37 1.58
13 -27 7 1.1 0.43
27 -14 -7 0.83 0.31
13 -27 7 0.83 0.29
-12 27 9 0.63 0.22
15 12 -6 25.92 1
15 12 -3 68.48 2.05
12 -27 -3 69.89 1.85
12 -27 -3 69.44 3.11
-12 27 3 71.52 2.2
15 12 -3 73.03 2
27 -15 0 16.95 1.49
15 12 0 17.34 0.99
15 12 0 18.51 0.91
12 -27 0 18.39 0.92
12 -27 3 23.69 1.06
27 -15 -3 24.71 1.08
27 -15 -6 95.94 2.25
12 -27 6 92.67 2.26
16 11 -7 40.89 1.19
16 11 -4 14.1 0.86
-11 27 4 14.96 1.05
16 11 -4 14.33 0.87
27 -16 1 239.28 6.53
16 11 -1 227 5.24
16 11 -1 225.85 5.31
11 -27 -1 222.76 5.04
16 11 -1 229.59 5.15
27 -16 -2 213.76 6.08
16 11 2 218.03 4.96
11 -27 2 221.95 4.98
27 -16 -5 6.9 0.72
27 -16 -8 33.31 1.04
11 -27 8 39.05 1
17 10 -8 29.29 0.83
17 10 -8 35.07 1.09
17 10 -5 17.6 0.91
17 10 -5 17.5 0.9
-10 27 2 7.82 0.89
27 -17 2 5.95 1.07
17 10 1 53.81 1.67
10 -27 1 52.8 1.64
10 -27 4 30.05 1.18
27 -17 -4 32.56 1.27
10 -27 7 1.24 0.44
27 -17 -7 1.17 0.31
18 9 -6 74.21 1.93
9 -27 -3 230.19 5.08
-9 27 3 233.38 5.38
18 9 -3 237.05 5.32
18 9 0 87.58 2.35
27 -18 0 84.13 3.38
18 9 0 84.21 2.26
9 -27 0 84.21 2.23
27 -18 0 87.06 2.13
9 -27 3 27.19 1.12
27 -18 -6 149.03 3.41
19 8 -7 13.37 0.63
19 8 -4 10.49 0.85
27 -19 4 9.83 0.54
19 8 -1 102.25 2.62
19 8 -1 105.34 2.66
27 -19 1 100.85 3.74
19 8 -1 94.49 2.7
8 -27 -1 101.89 2.47
-8 27 1 97.03 2.61
27 -19 1 101.44 2.39
19 8 2 75.62 2.04
27 -19 -2 74.65 3.03
8 -27 2 77.87 2.1
-27 19 2 77.1 2.26
27 -19 -5 0.09 0.55
8 -27 8 35.1 0.95
20 7 -8 37.93 0.97
20 7 -5 71.6 1.91
27 -20 5 66.7 1.83
20 7 -2 7.39 0.78
27 -20 2 6.77 1.01
27 -20 2 6.21 0.62
20 7 1 31.43 1.16
27 -20 -1 30.63 1.97
7 -27 1 31.1 1.17
-27 20 1 27.92 1.31
27 -20 -1 30.14 1.05
-27 20 4 62.61 1.97
27 -20 -7 17.03 0.57
-27 20 7 17.55 0.71
21 6 -6 111.67 2.58
27 -21 6 104.99 2.54
27 -21 3 283.51 6.16
21 6 0 74.05 2.02
21 6 0 73.43 2.07
27 -21 0 71.68 3.14
6 -27 0 74.89 1.95
27 -21 0 72.19 1.9
-27 21 3 60.46 1.98
6 -27 3 61.24 1.75
27 -21 -6 226.38 4.7
-27 21 6 201.6 4.64
22 5 -7 -0.16 0.38
22 5 -4 31.49 1.22
27 -22 4 31.01 1.02
22 5 -1 81.49 2.23
27 -22 1 83.75 2.07
22 5 -1 81.85 2.21
27 -22 1 83.73 2.17
5 -27 2 31.87 1.16
-27 22 2 31.65 1.44
27 -22 -2 32.47 1.15
27 -22 -5 1.09 0.56
5 -27 8 14.02 0.5
23 4 -5 47.69 1.43
23 4 -2 27.11 1.13
27 -23 2 23.91 0.84
27 -23 2 24.75 1.01
23 4 1 0.64 0.46
27 -23 -1 0.62 0.53
4 -27 1 1.09 0.54
-27 23 1 0.86 0.82
-27 23 4 22.48 1.27
4 -27 7 20.05 0.76
-27 23 7 20.07 0.78
24 3 -6 154.12 3.38
27 -24 6 145.03 3.38
27 -24 3 375.53 8.03
24 3 0 121.73 2.96
27 -24 0 120.51 2.88
24 3 0 122.75 2.99
3 -27 0 119.75 2.82
-27 24 3 28.99 1.46
3 -27 3 27.3 1.06
27 -24 -6 168.82 3.74
-27 24 6 170.22 3.75
25 2 -7 4.37 0.38
25 2 -4 26.54 1.06
27 -25 4 26.79 0.92
25 2 -1 28.87 1.12
27 -25 1 31.66 1.04
25 2 -1 29.92 1.07
27 -25 1 30.51 1.19
27 -25 -2 1.7 0.65
2 -27 2 1.77 0.54
-27 25 2 2.31 1
-27 25 5 19.1 1.07
26 1 -5 25.88 0.94
27 -26 5 26.05 0.8
26 1 -2 34.18 1.22
27 -26 2 32.7 1.17
26 1 1 0.44 0.33
27 -26 -1 0.86 0.63
1 -27 1 0.73 0.44
-27 26 1 0.82 0.97
-27 26 4 23.54 1.25
1 -27 7 32.27 0.86
-27 26 7 31.35 0.92
27 0 -6 85.61 2.03
27 0 -3 284.7 6.39
27 -27 3 296.32 6.3
27 0 0 103.93 2.6
27 -27 0 105.75 2.59
27 -27 0 110.4 2.67
-27 27 3 47.05 1.7
0 -27 3 45.44 1.29
0 -27 6 222.74 4.39
-27 27 6 206.79 4.4
-1 -27 5 34.16 0.98
-1 -27 2 34.73 1.04
-27 28 2 37.99 1.56
28 -1 -1 0.2 0.49
28 -1 -1 0.19 0.43
27 -28 1 0.24 0.45
27 -28 4 23.33 0.82
28 -1 -7 17.47 0.54
26 -28 -6 9.53 0.42
-26 28 6 12.36 0.61
-26 28 3 99.8 2.84
-2 -26 3 102.51 2.42
28 -2 0 335.4 7.35
26 -28 0 338.94 7.33
26 -28 0 348.76 7.39
28 -2 -3 108.92 2.7
26 -28 3 106 2.48
26 -28 3 110.24 2.61
28 -2 -6 9.68 0.59
-25 28 7 31.55 0.93
3 25 -4 85.45 2.17
-25 28 4 85.06 2.46
-25 28 1 21.97 1.41
25 -28 -1 24.56 1.07
28 -3 -2 17.87 0.92
25 -28 2 17.11 0.79
28 -3 -5 68.42 1.81
25 -28 5 67.02 1.67
4 24 -5 59.6 1.6
-24 28 5 58 1.89
24 -28 -2 95.49 2.41
4 24 -2 88.95 2.41
-24 28 2 93.16 2.75
28 -4 -1 1.4 0.59
24 -28 1 1.1 0.58
24 -28 1 0.41 0.73
24 -28 4 73.4 1.9
28 -4 -7 67.81 1.61
5 23 -6 1.36 0.42
23 -28 -3 100.31 2.45
5 23 -3 94.03 2.5
-23 28 3 95.65 2.82
28 -5 0 189.62 4.5
23 -28 0 196.93 4.48
28 -5 -3 43.29 1.5
28 -5 -3 46.36 1.34
28 -5 -6 3.4 0.52
23 -28 6 3.74 0.4
6 22 -7 58.26 1.43
-22 28 7 56.71 1.53
-22 28 7 57.28 1.4
6 22 -4 173.85 4.04
-22 28 4 171.2 4.31
22 -28 -4 174.48 3.93
22 -28 -1 58.81 1.71
6 22 -1 57.02 1.74
22 -28 -1 57.06 1.68
28 -6 -2 26.37 1.1
22 -28 2 27.81 1.02
28 -6 -2 26.44 0.97
22 -28 2 26.93 1.1
28 -6 -5 132.24 3.24
22 -28 5 132.8 3
22 -28 5 141.38 3.1
7 21 -5 67.18 1.86
21 -28 -2 149.92 3.51
21 -28 -2 145.69 3.43
28 -7 -1 35.53 1.27
21 -28 1 38.88 1.26
28 -7 -1 37.27 1.16
21 -28 1 37.06 1.32
28 -7 -4 16.15 0.75
21 -28 4 15.68 0.74
28 -7 -7 55.62 1.49
8 20 -6 0.36 0.49
20 -28 -3 55.5 1.6
8 20 -3 52.28 1.64
28 -8 0 75.89 2.11
8 20 0 81.46 2.16
28 -8 0 78.77 1.99
20 -28 0 82.57 2.16
20 -28 3 0.54 0.58
28 -8 -6 44.21 1.36
20 -28 6 42.64 1.31
9 19 -7 69.58 1.74
-19 28 7 67.55 1.76
19 -28 -4 271.12 5.92
9 19 -4 272.29 6.03
9 19 -4 276.73 6.14
-19 28 4 264.94 6.32
9 19 -1 152.28 3.63
9 19 -1 152.77 3.62
28 -9 1 144.93 3.35
19 -28 -1 146.96 3.49
19 -28 2 5.36 0.68
28 -9 -2 6.09 0.56
28 -9 -5 171.29 3.8
19 -28 5 165.61 3.75
10 18 -8 0.59 0.24
-18 28 8 0.42 0.42
-18 28 8 0.43 0.31
10 18 -5 59.71 1.66
10 18 -5 59.34 1.82
-18 28 5 54.47 1.97
10 18 -2 120.75 3.09
18 -28 -2 125.22 2.98
10 18 -2 123.88 3.13
-18 28 2 122.44 3.3
18 -28 -2 121.54 2.91
28 -10 -1 16.09 0.76
18 -28 1 14.27 1.59
18 -28 4 24.67 1.01
28 -10 -4 24.46 0.95
28 -10 -7 48.13 1.35
18 -28 7 44.31 1.24
11 17 -6 30.67 1.01
11 17 -6 31.57 1.19
11 17 -3 82.66 2.3
17 -28 -3 85.62 2.17
11 17 -3 82.16 2.38
-17 28 3 80.21 2.52
11 17 0 25.73 1.14
11 17 0 26.17 1.09
17 -28 0 25.51 1.07
28 -11 0 28.47 0.97
17 -28 0 24.46 1.94
17 -28 0 25.65 1.01
17 -28 3 16.2 0.88
28 -11 -6 58.74 1.49
17 -28 6 53.99 1.45
17 -28 6 54.07 1.56
12 16 -7 17.17 0.61
12 16 -7 19.19 0.82
-16 28 7 17.85 0.77
16 -28 -4 206.69 4.57
12 16 -4 206.83 4.76
-16 28 4 201.29 4.97
12 16 -1 167.53 3.94
28 -12 1 159.01 3.7
16 -28 -1 165.08 3.75
16 -28 -1 156.58 5.38
28 -12 -2 4.98 0.61
16 -28 2 5.09 1.11
16 -28 5 187.16 4.22
28 -12 -5 188.98 4.23
28 -12 -8 110.27 2.54
16 -28 8 118.95 2.48
13 15 -8 0.57 0.34
-15 28 8 0.61 0.37
13 15 -5 60.36 1.76
13 15 -5 62.21 2
-15 28 5 60.21 1.98
15 -28 -5 59.64 1.56
13 15 -2 108.76 2.89
13 15 -2 113.79 2.98
-15 28 2 111.22 3.03
13 15 1 14.37 0.88
15 -28 1 14.53 1.63
13 15 1 13.93 0.72
15 -28 1 13.27 0.85
28 -13 -1 12.34 0.78
15 -28 4 35.96 1.31
28 -13 -4 39.55 1.29
28 -13 -7 83.42 2.05
15 -28 7 85.77 1.92
14 14 -6 63.58 1.72
14 14 -6 62.8 1.93
14 14 -3 32.18 1.28
14 -28 -3 33.11 1.12
14 14 -3 32.29 1.46
-14 28 3 32.45 1.45
14 14 0 11.35 0.85
14 14 0 12.75 0.78
14 -28 0 10.84 0.79
14 -28 0 10.45 1.45
28 -14 0 10.87 0.72
14 -28 6 58.61 1.57
14 -28 6 55.96 1.57
15 13 -7 20.85 0.75
15 13 -7 22.06 0.96
-13 28 7 22.97 0.83
13 -28 -4 205.06 4.55
15 13 -4 208.35 4.8
-13 28 4 207.82 4.92
15 13 -1 169.69 4.07
15 13 -1 175.17 4.08
13 -28 -1 168.12 3.88
28 -15 1 170.64 3.91
13 -28 -1 166.49 3.82
28 -15 1 177 5.23
13 -28 2 1.27 0.87
13 -28 2 0.6 0.67
28 -15 -2 -0.66 0.55
13 -28 5 106.61 2.69
28 -15 -5 116.94 2.73
28 -15 -8 82.13 1.9
16 12 -8 0.37 0.37
16 12 -5 37.07 1.31
16 12 -2 103.26 2.8
-12 28 2 107.74 2.79
28 -16 2 99.65 3.55
28 -16 -1 34.63 1.97
16 12 1 33.94 1.27
12 -28 1 33.07 1.24
28 -16 -4 9.16 0.8
28 -16 -7 46.44 1.19
12 -28 7 47.24 1.26
17 11 -6 98.89 2.44
17 11 -3 29.66 1.2
11 -28 -3 28.56 0.99
-11 28 3 29.29 1.29
17 11 -3 30.09 1.18
28 -17 0 52.3 2.56
17 11 0 56.77 1.76
17 11 0 54.67 1.62
11 -28 0 55.48 1.63
11 -28 3 210.69 4.92
28 -17 -3 226.09 5.04
11 -28 6 96.4 2.38
28 -17 -6 101.64 2.37
18 10 -7 11.62 0.59
18 10 -4 107.48 2.72
-10 28 4 108 2.8
18 10 -4 104.75 2.71
28 -18 1 99.56 3.74
18 10 -1 103.77 2.76
18 10 -1 106.86 2.8
10 -28 -1 105.38 2.57
-10 28 1 104.91 2.77
18 10 -1 106.68 2.68
10 -28 2 0.42 0.66
28 -18 -5 57.41 1.67
28 -18 -8 38.16 1.05
10 -28 8 47.69 1.06
19 9 -8 7.16 0.49
19 9 -5 7.06 0.64
19 9 -5 7.13 0.61
19 9 -2 69.34 1.97
19 9 -2 67.33 1.97
-9 28 2 68.75 1.98
19 9 1 73.7 2.04
9 -28 1 72.53 2
9 -28 4 8.52 0.81
28 -19 -4 7.88 0.79
28 -19 -7 7.98 0.38
9 -28 7 7.86 0.56
20 8 -6 163.5 3.69
20 8 -3 55.17 1.7
20 8 0 73.79 2.1
8 -28 0 72.15 1.95
28 -20 0 74.54 1.89
-28 20 3 305.02 7.03
8 -28 3 324.71 6.91
28 -20 -6 152.07 3.29
-28 20 6 138.8 3.25
21 7 -7 15.52 0.68
21 7 -4 56.44 1.67
21 7 -1 13.6 0.82
21 7 -1 14.66 0.87
21 7 -1 13.01 0.83
7 -28 -1 14.42 0.71
28 -21 1 14.25 0.65
7 -28 2 21.44 0.99
-28 21 2 22.12 1.16
7 -28 5 65.75 1.75
28 -21 -5 65.86 1.82
7 -28 8 26.24 0.71
22 6 -8 24.25 0.75
22 6 -5 5.27 0.58
28 -22 5 4.82 0.44
22 6 -2 16.13 0.93
22 6 -2 16.58 0.86
28 -22 2 17.3 0.82
28 -22 2 15.59 0.61
22 6 1 53.26 1.59
6 -28 1 54.6 1.56
-28 22 1 53.1 1.78
28 -22 -1 51.55 1.5
-28 22 4 15.93 1.06
6 -28 4 15.66 0.83
-28 22 7 1.9 0.41
23 5 -6 209.37 4.62
23 5 -6 215.79 4.62
28 -23 3 41.39 1.27
23 5 0 133.84 3.24
5 -28 0 130.91 3.08
28 -23 0 130.63 3.08
23 5 0 135.83 3.18
-28 23 3 368.83 8.25
5 -28 3 374.84 7.99
5 -28 6 144 3.16
28 -23 -6 143.81 3.16
-28 23 6 135.03 3.15
24 4 -7 13.01 0.53
24 4 -4 31.84 1.16
28 -24 4 33.07 1
28 -24 1 11.65 0.63
24 4 -1 11.88 0.79
24 4 -1 11.34 0.74
28 -24 1 12.32 0.82
4 -28 2 6.92 0.69
-28 24 2 7.38 1.05
28 -24 -2 8.12 0.74
4 -28 5 28.96 0.96
28 -24 -5 28.28 1.03
25 3 -5 6.1 0.54
28 -25 5 5.17 0.44
25 3 -2 1.41 0.59
25 3 -2 1.99 0.56
28 -25 2 1.64 0.39
28 -25 2 2.01 0.59
3 -28 1 34.69 1.1
-28 25 1 34.5 1.52
28 -25 -1 33.1 1.15
-28 25 4 33.49 1.35
3 -28 4 32.75 1.06
3 -28 7 3.26 0.33
-28 25 7 2.71 0.34
26 2 -6 182.17 3.92
26 2 -6 177.24 3.91
26 2 -3 57.56 1.69
28 -26 3 60.59 1.6
26 2 0 78.9 2.04
28 -26 0 77.67 2
26 2 0 78.17 2.04
-28 26 3 354.07 7.85
2 -28 3 354.31 7.53
2 -28 6 158.56 3.25
-28 26 6 151.22 3.27
27 1 -7 6.35 0.34
28 -27 4 0.28 0.38
27 1 -1 28.27 1.04
28 -27 1 28.14 0.94
27 1 -1 28.55 1.02
1 -28 2 44.56 1.27
-28 27 2 47.45 1.69
28 -27 -2 48.13 1.38
1 -28 5 14.12 0.62
28 -27 -5 13.43 0.67
28 0 -5 23.97 0.85
28 0 -2 7.83 0.63
28 -28 2 7.63 0.48
28 0 -2 8.06 0.57
28 -28 2 8.2 0.65
-28 28 1 4.98 0.92
28 -28 -1 6.46 0.59
-28 28 4 32.86 1.28
0 -28 4 31.56 0.95
-1 -28 6 84.49 1.86
-28 29 6 84.96 1.92
-1 -28 3 234.72 5.08
-28 29 3 251.01 5.46
28 -29 0 67.6 1.74
-28 29 0 68.44 2.05
29 -1 -3 45.65 1.37
29 -1 -3 47.18 1.32
28 -29 3 48.37 1.31
29 -1 -6 145.03 3.13
-27 29 4 -0.18 0.72
-2 -27 4 0.48 0.36
27 -29 -1 38.56 1.2
-27 29 1 36.4 1.5
29 -2 -2 65.46 1.75
27 -29 2 61.09 1.58
29 -2 -5 25.98 0.89
27 -29 5 24.22 0.74
-3 -26 5 31.84 0.91
-26 29 2 0.85 0.91
29 -3 -1 56.17 1.63
26 -29 1 59.09 1.57
26 -29 1 57.44 1.66
26 -29 4 48.18 1.32
29 -3 -7 1 0.21
-25 29 6 85.55 2.01
-25 29 3 203.25 4.9
-4 -25 3 201.11 4.47
29 -4 0 57.73 1.62
25 -29 0 57.88 1.64
25 -29 0 58.43 1.68
29 -4 -3 24.52 1.04
25 -29 3 25.33 0.84
25 -29 3 26.36 1
29 -4 -6 120.57 2.75
-24 29 7 37.23 1.04
5 24 -4 11.43 0.71
-24 29 4 11.65 1.05
-24 29 1 27.31 1.48
24 -29 -1 29.92 1.13
29 -5 -2 112.87 2.81
24 -29 2 110.99 2.66
24 -29 2 114.04 2.77
29 -5 -5 46.03 1.36
24 -29 5 45.08 1.24
6 23 -5 80.67 2
-23 29 5 74.79 2.23
23 -29 -2 1.11 0.65
-23 29 2 1.11 1.01
29 -6 -1 98.3 2.59
29 -6 -1 104.08 2.47
23 -29 1 104.49 2.62
23 -29 4 150.55 3.44
29 -6 -7 21.97 0.7
7 22 -6 52.48 1.41
22 -29 -3 70.41 1.84
7 22 -3 65.21 1.92
29 -7 0 0.39 0.46
29 -7 0 0.34 0.34
22 -29 0 0.16 0.67
29 -7 -3 42.88 1.44
22 -29 3 44.22 1.29
29 -7 -3 42.8 1.29
29 -7 -6 48.25 1.37
22 -29 6 50.17 1.27
22 -29 6 47.39 1.33
8 21 -7 113.09 2.53
8 21 -4 33.23 1.24
21 -29 -4 34.42 1.1
21 -29 -1 54.57 1.64
8 21 -1 57.28 1.69
29 -8 1 54.36 1.43
21 -29 -1 54.55 1.61
29 -8 -2 248.55 5.55
21 -29 2 248.72 5.42
29 -8 -2 242.73 5.4
21 -29 2 245.29 5.45
29 -8 -5 136.96 3.34
21 -29 5 138.63 3.12
21 -29 5 146.01 3.19
-20 29 8 35.37 0.93
9 20 -5 72.19 1.94
-20 29 5 67.77 2.13
9 20 -2 1.24 0.62
20 -29 -2 0.97 0.64
9 20 -2 1.63 0.69
-20 29 2 1.21 1.02
20 -29 -2 1.06 0.5
29 -9 -1 74.81 2.06
29 -9 -1 75.31 1.96
20 -29 1 79.58 2.07
29 -9 -4 120.37 2.8
20 -29 4 116.45 2.76
29 -9 -7 26.58 0.9
20 -29 7 25.87 0.77
10 19 -6 19.11 0.84
19 -29 -3 21.57 0.95
10 19 -3 18.36 0.98
-19 29 3 17.97 1.33
29 -10 0 2.4 0.49
10 19 0 3.25 0.57
29 -10 0 1.75 0.4
19 -29 0 2.15 0.6
19 -29 3 48.27 1.46
29 -10 -6 34.75 1.15
19 -29 6 34.89 0.94
11 18 -7 117.3 2.63
-18 29 7 109.65 2.64
18 -29 -4 64.38 1.69
11 18 -4 63.37 1.82
-18 29 4 61.21 2.06
11 18 -1 27.66 1.18
11 18 -1 29.07 1.14
29 -11 1 25.86 0.88
18 -29 -1 27.63 1.03
29 -11 -2 265.05 5.83
29 -11 -5 189.61 4.16
18 -29 5 184.15 4.12
-17 29 8 43.77 1.18
-17 29 8 51.8 1.17
12 17 -5 112.35 2.74
12 17 -5 115.45 2.89
-17 29 5 110.81 2.97
12 17 -2 9.32 0.84
17 -29 -2 9.71 0.72
12 17 -2 9.75 0.81
-17 29 2 9.5 1.05
17 -29 -2 8.74 0.61
17 -29 1 73.81 2.02
29 -12 -1 75.89 1.99
17 -29 4 130.65 3.02
29 -12 -4 123.79 3
29 -12 -7 20.22 0.86
13 16 -6 20.81 0.8
13 16 -6 21.98 0.97
16 -29 -3 8.13 0.66
13 16 -3 6.89 0.84
13 16 -3 8.88 0.95
-16 29 3 7.99 1.03
13 16 0 122.6 3.07
13 16 0 122.39 2.98
16 -29 0 120.87 2.94
29 -13 0 121.72 2.91
16 -29 0 118.04 2.88
29 -13 -6 5.89 0.44
16 -29 6 4.89 0.47
16 -29 6 4.41 0.42
14 15 -7 100.23 2.3
14 15 -7 107.41 2.49
-15 29 7 104.08 2.42
15 -29 -4 89.97 2.18
14 15 -4 89.66 2.4
14 15 -4 90.27 2.56
-15 29 4 85.49 2.54
14 15 -1 7.13 0.71
-15 29 1 7.06 0.93
29 -14 1 7.26 0.54
15 -29 -1 7.34 0.6
15 -29 2 174.76 4.15
29 -14 -2 186.08 4.2
15 -29 5 133.41 3.15
29 -14 -5 139.11 3.17
15 -29 8 4.24 0.26
15 14 -8 31.21 0.84
15 14 -5 65.39 1.81
-14 29 5 62.78 1.94
15 14 -2 7.57 0.83
-14 29 2 4.87 0.88
15 14 1 61.26 1.81
15 14 1 59.38 1.63
14 -29 1 60.51 1.77
29 -15 -1 62.36 1.79
29 -15 -4 141.19 3.34
29 -15 -7 30.63 1.01
14 -29 7 29.82 0.88
16 13 -6 16.29 0.74
16 13 -6 16.23 0.94
-13 29 6 16.45 0.67
16 13 -3 30.53 1.28
13 -29 -3 30.64 1.03
16 13 -3 27.71 1.39
-13 29 3 27.64 1.32
16 13 0 139.56 3.48
16 13 0 138.8 3.35
13 -29 0 139.24 3.33
29 -16 0 145.8 3.4
13 -29 3 61.99 1.82
29 -16 -6 3.64 0.42
13 -29 6 4.47 0.52
17 12 -7 71.88 1.75
17 12 -7 75.17 1.93
17 12 -4 62.25 1.84
-12 29 4 61.19 1.92
17 12 -1 4.43 0.75
17 12 -1 5 0.67
12 -29 -1 4.34 0.61
-12 29 1 5.87 0.81
29 -17 1 5.04 0.55
12 -29 2 148.26 3.56
29 -17 -2 152.82 3.66
29 -17 -5 159.12 3.39
12 -29 5 134.61 3.26
18 11 -8 27.55 0.77
-11 29 8 26.69 0.72
18 11 -5 85.13 2.22
18 11 -2 26.84 1.17
18 11 -2 29.56 1.23
-11 29 2 25.64 1.16
18 11 1 21.33 0.95
11 -29 1 19.84 0.97
11 -29 4 78.97 2.12
29 -18 -4 82.11 2.18
29 -18 -7 17.28 0.59
11 -29 7 20.29 0.72
19 10 -6 17.09 0.75
19 10 -3 77.2 2.15
19 10 0 367.07 7.91
19 10 0 351.62 7.73
10 -29 0 363.66 7.75
-10 29 0 359.39 7.86
10 -29 3 222.28 5.12
29 -19 -3 235.06 5.25
29 -19 -6 1.4 0.36
20 9 -7 26.56 0.83
20 9 -4 9 0.76
20 9 -4 10.13 0.74
20 9 -1 19.47 0.98
20 9 -1 19.29 0.92
9 -29 -1 19.1 0.83
9 -29 2 95.21 2.45
9 -29 5 66.29 1.79
29 -20 -5 69.21 1.83
21 8 -5 28.09 1.02
21 8 -5 28.79 0.99
21 8 -2 50.54 1.61
21 8 -2 51.51 1.64
21 8 -2 49.47 1.66
21 8 1 3.56 0.57
8 -29 1 3.38 0.65
-29 21 1 2.97 0.74
-29 21 4 21.84 1.05
8 -29 4 23.38 0.98
29 -21 -4 25.23 1.06
29 -21 -7 21.48 0.59
22 7 -6 9.21 0.57
22 7 -3 159.73 3.75
22 7 0 509.11 10.79
7 -29 0 509.1 10.63
-29 22 0 493.5 10.84
-29 22 3 203.55 4.9
7 -29 3 218.15 4.75
7 -29 6 1.87 0.48
29 -22 -6 1.91 0.35
23 6 -7 18.51 0.61
23 6 -7 17.88 0.72
23 6 -4 6.76 0.62
23 6 -1 8.83 0.77
29 -23 1 9.74 0.55
23 6 -1 8.88 0.73
6 -29 2 38.42 1.27
-29 23 2 36.47 1.49
6 -29 5 14.65 0.71
29 -23 -5 14.57 0.73
24 5 -5 10.77 0.59
24 5 -5 10.39 0.61
29 -24 5 9.1 0.48
24 5 -2 36.16 1.24
24 5 -2 35.29 1.23
29 -24 2 36.5 1.17
5 -29 1 14.2 0.77
-29 24 1 14.81 1.1
29 -24 -1 13.58 0.75
-29 24 4 0.71 0.66
5 -29 4 0.07 0.51
5 -29 7 5.87 0.38
25 4 -6 10.84 0.58
25 4 -3 139.2 3.26
29 -25 3 144.87 3.17
25 4 0 438.09 9.38
-29 25 0 446.06 9.57
29 -25 0 437.23 9.27
-29 25 3 169.59 4.08
4 -29 3 170.86 3.83
4 -29 6 4.52 0.5
29 -25 -6 4.66 0.39
-29 25 6 3.6 0.48
26 3 -7 0.28 0.21
26 3 -4 4.57 0.5
29 -26 4 4.5 0.41
26 3 -1 14.4 0.74
26 3 -1 14.67 0.77
29 -26 1 14.41 0.65
3 -29 2 12.28 0.64
-29 26 2 11.93 0.98
3 -29 5 2.33 0.44
29 -26 -5 2.6 0.45
27 2 -5 0.02 0.44
27 2 -2 11.25 0.66
27 2 -2 11.04 0.65
29 -27 2 11.34 0.67
-29 27 1 21.62 1.17
29 -27 -1 22 0.86
-29 27 4 3.19 0.7
2 -29 4 2.32 0.43
28 1 -3 93.64 2.36
28 1 -3 99.68 2.35
29 -28 3 98.3 2.29
-29 28 0 362.63 7.9
29 -28 0 358.13 7.62
1 -29 3 156.26 3.47
-29 28 3 163.97 3.79
1 -29 6 3.79 0.3
-29 28 6 3.21 0.32
29 0 -4 36.95 1.07
29 -29 4 35.5 0.97
29 0 -1 30.55 0.98
29 -29 1 30.33 0.92
-29 29 2 0.27 0.74
0 -29 5 20.4 0.62
29 -29 -5 17.8 0.64
-1 -29 4 22.44 0.65
-29 30 4 23.51 1.07
-29 30 1 38.85 1.41
29 -30 -1 37.31 1.1
30 -1 -2 10.91 0.58
29 -30 2 11.22 0.61
30 -1 -5 1.08 0.3
30 -1 -5 0.91 0.31
-2 -28 5 0.84 0.29
28 -30 -5 0.48 0.31
-28 30 2 50.26 1.66
30 -2 -1 49.52 1.34
28 -30 1 47.13 1.29
28 -30 1 48.89 1.37
30 -2 -4 2.3 0.4
28 -30 4 1.81 0.38
-27 30 6 77.78 1.79
-27 30 3 14.91 0.99
27 -30 0 79.46 2
-27 30 0 77.92 2.3
27 -30 0 82.59 2.04
30 -3 -3 230.28 5.14
27 -30 3 236.04 5.06
30 -3 -6 85.05 1.96
30 -3 -6 90.39 1.98
-26 30 4 24.39 1.15
-4 -26 4 24.8 0.75
-26 30 1 59.22 1.94
30 -4 -2 22.73 0.91
26 -30 2 19.81 0.77
30 -4 -5 3.93 0.56
26 -30 5 4.38 0.43
-5 -25 5 2.84 0.35
25 -30 -2 95.21 2.31
-25 30 2 86.99 2.61
30 -5 -1 92.49 2.39
25 -30 1 97.53 2.34
25 -30 1 97.22 2.4
25 -30 4 2.35 0.48
-24 30 6 69 1.66
24 -30 -3 3.3 0.55
6 24 -3 2.84 0.56
-24 30 3 2.7 0.93
24 -30 0 66.43 1.83
30 -6 -3 102.82 2.58
24 -30 3 102.48 2.39
30 -6 -6 25.45 0.84
24 -30 6 23.22 0.72
7 23 -4 33.75 1.15
23 -30 -4 34.8 1.06
23 -30 -1 139.84 3.3
23 -30 -1 139.51 3.26
30 -7 -2 72.03 1.99
30 -7 -2 73.27 1.84
23 -30 2 68.4 1.91
30 -7 -5 0.45 0.47
23 -30 5 0.11 0.41
8 22 -5 2.86 0.5
22 -30 -2 141.23 3.3
8 22 -2 139.27 3.36
30 -8 -1 174.09 4.12
30 -8 -1 179.69 3.99
22 -30 1 179.12 4.08
30 -8 -4 26.16 0.89
22 -30 4 24.36 0.83
30 -8 -7 11.17 0.48
9 21 -6 11.36 0.63
21 -30 -3 1.41 0.54
-21 30 3 0.48 0.88
30 -9 0 48.85 1.31
21 -30 0 47.02 1.48
30 -9 -3 55.2 1.68
21 -30 3 57.25 1.56
30 -9 -3 56.64 1.55
21 -30 3 59.61 1.61
30 -9 -6 6.42 0.62
21 -30 6 7.19 0.49
10 20 -7 6.5 0.38
-20 30 7 6.17 0.46
10 20 -4 76.14 1.94
10 20 -4 73.26 2.01
-20 30 4 73.79 2.22
20 -30 -4 70.9 1.83
10 20 -1 291.9 6.31
20 -30 -1 293.15 6.24
30 -10 1 270.15 6.06
-20 30 1 290.62 6.56
20 -30 -1 288.37 6.2
30 -10 -2 178.95 4.03
20 -30 2 170.17 3.9
30 -10 -2 166.95 3.87
20 -30 2 171 3.91
30 -10 -5 5.42 0.6
30 -10 -5 5.24 0.47
20 -30 5 5.24 0.44
11 19 -5 -0.42 0.41
11 19 -5 0.89 0.56
-19 30 5 -0.73 0.76
11 19 -2 128.16 3.25
19 -30 -2 138.04 3.17
11 19 -2 135.7 3.27
-19 30 2 126.93 3.46
19 -30 -2 131.19 3.05
19 -30 1 210.62 4.74
30 -11 -1 207.84 4.69
19 -30 1 214.7 4.75
19 -30 4 26.06 0.94
30 -11 -4 27.2 0.94
30 -11 -7 15.13 0.62
19 -30 7 15.66 0.54
12 18 -6 -0.05 0.47
18 -30 -3 22.16 0.92
12 18 -3 23.94 1.05
12 18 -3 23.84 1.1
-18 30 3 23.02 1.3
30 -12 0 41.15 1.29
12 18 0 45.2 1.38
30 -12 0 42.9 1.26
18 -30 0 43.39 1.37
18 -30 3 6.23 0.67
30 -12 -6 7.52 0.61
18 -30 6 6.89 0.43
18 -30 6 6.4 0.43
13 17 -7 12.76 0.56
-17 30 7 11.49 0.59
17 -30 -4 31.63 0.99
13 17 -4 31.78 1.17
-17 30 4 30.42 1.37
13 17 -1 204.71 4.58
30 -13 1 193.43 4.35
-17 30 1 207.62 4.79
17 -30 -1 193.75 4.42
17 -30 2 145.23 3.42
30 -13 -2 145.02 3.43
17 -30 5 1.15 0.45
30 -13 -5 0.99 0.41
14 16 -5 1.46 0.51
14 16 -2 97.93 2.66
16 -30 -2 100.98 2.47
14 16 -2 98.67 2.63
-16 30 2 99.52 2.78
16 -30 1 178.2 4.11
30 -14 -1 180.7 4.14
16 -30 4 28.48 1.04
30 -14 -4 28.54 1
30 -14 -7 14.6 0.67
15 15 -6 23.26 0.81
15 15 -6 23.9 0.95
-15 30 6 21.65 0.77
15 -30 -3 121.92 2.9
15 15 -3 127.22 3.12
15 15 -3 122.75 3.13
-15 30 3 122.53 3.2
15 15 0 62.56 1.89
15 15 0 63.25 1.77
15 -30 0 65.9 1.8
30 -15 0 65.08 1.78
15 -30 0 62.55 1.71
15 -30 3 6.73 0.73
30 -15 -6 67.47 1.63
15 -30 6 63.89 1.62
16 14 -7 29.45 0.81
16 14 -7 32.2 0.95
14 -30 -4 12.61 0.6
16 14 -4 13.63 0.85
16 14 -4 13.28 0.97
-14 30 4 13.96 0.94
16 14 -1 201.13 4.66
16 14 -1 204.24 4.56
-14 30 1 200.68 4.7
30 -16 1 194.88 4.41
14 -30 -1 193.51 4.37
14 -30 2 199.36 4.55
30 -16 -2 200.75 4.6
14 -30 5 10.79 0.66
30 -16 -5 11.87 0.62
14 -30 5 9.98 0.53
17 13 -5 2.37 0.55
17 13 -5 2.33 0.7
17 13 -2 74.72 2.11
-13 30 2 71.99 2.14
17 13 1 154.96 3.73
13 -30 1 156.5 3.68
30 -17 -1 160.37 3.76
30 -17 -4 25.54 1
30 -17 -7 11.41 0.57
13 -30 7 11.58 0.48
18 12 -6 59.75 1.56
12 -30 -3 246.57 5.34
18 12 -3 248.59 5.59
18 12 -3 244.02 5.64
-12 30 3 247.59 5.6
18 12 0 147.56 3.53
18 12 0 143.91 3.35
12 -30 0 148.82 3.38
-12 30 0 143.57 3.52
30 -18 0 145.05 3.46
12 -30 0 138.71 3.26
12 -30 3 4.02 0.7
30 -18 -6 101.01 2.35
12 -30 6 103.68 2.38
19 11 -7 4.26 0.32
19 11 -7 4.23 0.45
19 11 -4 17.76 0.92
19 11 -4 17.04 1.02
19 11 -1 109.67 2.81
19 11 -1 111.49 2.71
-11 30 1 108.56 2.78
30 -19 1 104.06 2.63
11 -30 2 108.49 2.73
30 -19 -2 111.59 2.85
30 -19 -5 7.69 0.55
20 10 -5 5.49 0.59
20 10 -5 5.35 0.71
20 10 -2 23.98 1.09
20 10 -2 24.29 1.09
20 10 1 84.68 2.23
10 -30 1 85.29 2.21
10 -30 4 32.1 1.13
30 -20 -4 32.19 1.17
10 -30 7 0.33 0.29
21 9 -6 110.35 2.53
21 9 -6 106.16 2.63
21 9 -3 353.98 7.77
21 9 0 199.01 4.55
9 -30 0 195.82 4.39
9 -30 3 8.88 0.72
30 -21 -3 7.8 0.77
30 -21 -6 151.68 3.33
22 8 -7 2.09 0.28
22 8 -4 15.51 0.75
22 8 -1 68.37 1.95
8 -30 2 33.59 1.16
-30 22 2 32.99 1.29
8 -30 5 0.54 0.48
30 -22 -5 0.73 0.43
23 7 -5 18.31 0.78
23 7 -2 0.82 0.52
23 7 -2 0.91 0.54
23 7 1 18.58 0.83
7 -30 1 19.69 0.84
-30 23 1 17.63 1.08
7 -30 4 26.8 0.98
30 -23 -4 29.43 1.07
24 6 -6 125.67 2.8
24 6 -6 122.75 2.87
24 6 -3 376.55 7.92
24 6 -3 358.57 7.94
24 6 0 114.72 2.79
6 -30 0 115.12 2.64
-30 24 0 110.21 2.89
-30 24 3 56.5 1.72
6 -30 3 56.52 1.54
6 -30 6 223.76 4.72
30 -24 -6 220.22 4.69
25 5 -4 2.69 0.49
25 5 -4 2.24 0.47
25 5 -1 7.33 0.62
30 -25 1 7.25 0.47
25 5 -1 7.61 0.59
5 -30 2 4.63 0.52
-30 25 2 5.48 0.76
5 -30 5 0.03 0.44
-30 25 5 0.42 0.3
30 -25 -5 0.54 0.4
26 4 -5 4.98 0.56
26 4 -2 4.58 0.52
26 4 -2 4.5 0.54
4 -30 1 0.03 0.37
-30 26 1 -0.06 0.72
4 -30 4 6.34 0.5
30 -26 -4 6.46 0.61
27 3 -6 89.67 1.84
27 3 -6 71.39 1.79
27 3 -3 294.77 6.35
27 3 -3 295.56 6.37
-30 27 0 120.9 3.01
30 -27 0 119.3 2.75
3 -30 3 28.42 0.88
-30 27 3 28.51 1.16
3 -30 6 163.41 3.46
28 2 -4 4.41 0.5
28 2 -1 1.26 0.39
30 -28 1 0.88 0.34
2 -30 2 10.28 0.47
-30 28 2 10.78 0.84
2 -30 5 7.11 0.4
30 -28 -5 7.04 0.42
-30 28 5 6.4 0.39
29 1 -5 10.03 0.47
29 1 -2 19.53 0.74
29 1 -2 19.22 0.74
-30 29 1 10.18 0.85
1 -30 4 0.36 0.33
30 -29 -4 0.45 0.5
30 0 -3 241.75 5.24
30 0 -3 247.14 5.25
-30 30 0 83.72 2.19
30 -30 0 80.91 1.93
-30 30 3 24.85 1.06
-30 31 2 37.61 1.29
-30 31 -1 9.43 0.75
30 -31 1 7.85 0.42
31 -1 -4 3.8 0.33
31 -1 -4 4.22 0.34
-29 31 3 68.88 1.92
-29 31 0 212.22 4.84
29 -31 0 214.18 4.6
31 -2 -3 89.2 2.11
29 -31 3 88.25 2.05
-28 31 4 26.07 1.08
28 -31 -1 2.33 0.46
-28 31 1 2.94 0.79
31 -3 -2 14.81 0.65
28 -31 2 13.71 0.55
31 -3 -5 20.58 0.66
31 -3 -5 21.55 0.66
27 -31 -5 35.65 0.93
-27 31 2 48.22 1.62
27 -31 -2 50.44 1.37
31 -4 -1 0.44 0.37
27 -31 1 0.36 0.4
27 -31 1 0.26 0.49
31 -4 -4 31 1.02
27 -31 4 30.29 0.91
-26 31 6 -0.13 0.3
-26 31 3 74.12 2.16
26 -31 -3 78.81 1.91
26 -31 0 163.45 3.67
-26 31 0 161.35 3.96
26 -31 0 164.67 3.69
31 -5 -3 49.21 1.4
26 -31 3 46.46 1.21
31 -5 -6 4.26 0.32
31 -5 -6 4.12 0.31
-25 31 4 43.66 1.49
-25 31 1 19.53 1.19
31 -6 -2 6.12 0.58
25 -31 2 5.15 0.48
25 -31 2 4.85 0.59
31 -6 -5 39.4 1.17
25 -31 5 38.26 1.05
-7 -24 5 72.92 1.65
24 -31 -2 105.62 2.54
31 -7 -1 2.84 0.51
24 -31 1 3.31 0.53
24 -31 1 2.85 0.59
31 -7 -4 50.07 1.47
24 -31 4 52.51 1.39
23 -31 -3 73.16 1.85
23 -31 0 84.88 2.16
31 -8 -3 4.68 0.62
23 -31 3 5.36 0.59
31 -8 -6 14.38 0.61
23 -31 6 13.85 0.5
-22 31 7 25.3 0.72
9 22 -4 144.82 3.26
22 -31 -4 141.65 3.14
22 -31 -1 74.13 1.94
22 -31 -1 70.96 1.87
31 -9 -2 2.07 0.56
31 -9 -2 2.12 0.43
22 -31 2 1.54 0.56
31 -9 -5 53.34 1.5
22 -31 5 53.49 1.39
10 21 -5 142.24 3.18
-21 31 5 133.03 3.33
21 -31 -2 182.37 4.05
10 21 -2 173.45 4.1
-21 31 2 180.59 4.36
31 -10 -1 7.1 0.66
21 -31 1 8.27 0.7
31 -10 -4 68.87 1.9
31 -10 -4 71.56 1.76
21 -31 4 67.38 1.7
31 -10 -7 82.08 1.84
11 20 -6 8.75 0.56
-20 31 6 7.84 0.53
20 -31 -3 29.71 1
11 20 -3 29.41 1.13
-20 31 3 28.45 1.32
31 -11 0 22.31 0.82
20 -31 0 22.85 0.97
31 -11 -3 1.16 0.55
20 -31 3 1.49 0.5
31 -11 -3 1.51 0.46
20 -31 3 1.71 0.5
31 -11 -6 8.91 0.65
20 -31 6 10.42 0.54
12 19 -7 37.2 0.94
-19 31 7 35.8 0.97
12 19 -4 151.4 3.47
-19 31 4 148.54 3.66
19 -31 -4 149.74 3.34
12 19 -1 84.69 2.24
19 -31 -1 86.85 2.19
-19 31 1 85.99 2.49
19 -31 -1 83.28 2.13
31 -12 -2 1.59 0.46
19 -31 2 1.18 0.52
31 -12 -5 71.64 1.93
31 -12 -5 77.47 1.85
19 -31 5 74.73 1.78
13 18 -5 124.37 2.86
13 18 -5 123.34 2.94
13 18 -2 223.11 5.04
18 -31 -2 227.59 4.92
13 18 -2 221.56 5.01
-18 31 2 226.96 5.23
18 -31 -2 213.79 4.78
18 -31 1 33.81 1.18
31 -13 -1 33.9 1.11
18 -31 1 34.47 1.17
18 -31 4 43.95 1.27
31 -13 -4 44.99 1.28
31 -13 -7 83.34 1.89
18 -31 7 81.07 1.82
14 17 -6 35.04 1.11
-17 31 6 34.77 1
17 -31 -3 27.66 0.96
14 17 -3 27.66 1.13
14 17 -3 28.59 1.14
-17 31 3 28.33 1.28
14 17 0 7.4 0.61
31 -14 0 7.92 0.56
17 -31 0 6.67 0.67
31 -14 -6 56.76 1.53
17 -31 6 53.76 1.34
15 16 -7 19.24 0.64
15 16 -4 147.74 3.44
15 16 -4 148.75 3.48
-16 31 4 144.2 3.52
16 -31 -4 142.59 3.21
15 16 -1 110.55 2.78
15 16 -1 111.04 2.69
31 -15 1 102.4 2.5
-16 31 1 113.57 2.9
16 -31 -1 106.08 2.54
16 -31 2 0.27 0.6
31 -15 -2 -0.09 0.49
16 -31 5 68.1 1.64
31 -15 -5 71.75 1.66
16 15 -5 83.06 2.09
15 -31 -2 129.27 3.06
16 15 -2 132.83 3.2
-15 31 2 133.86 3.34
15 -31 1 9.92 0.77
31 -16 -1 9.94 0.73
31 -16 -4 60.56 1.62
31 -16 -7 86.93 1.92
15 -31 7 79.55 1.78
17 14 -6 113.96 2.6
14 -31 -3 49.43 1.32
17 14 -3 45.78 1.53
17 14 -3 46.96 1.51
-14 31 3 44.95 1.55
17 14 0 26.48 1.14
17 14 0 27.26 0.93
14 -31 0 27.43 1.05
-14 31 0 26.44 1.2
31 -17 0 24.95 1
14 -31 0 23.82 0.94
14 -31 3 137.36 3.22
31 -17 -6 51.42 1.32
14 -31 6 52.18 1.33
18 13 -7 13.31 0.52
18 13 -4 112.6 2.78
18 13 -4 111.95 2.81
18 13 -1 115.24 2.86
18 13 -1 112.52 2.73
-13 31 1 116.59 2.9
31 -18 1 105.7 2.63
13 -31 2 5.11 0.67
31 -18 -2 5.38 0.65
31 -18 -5 34.69 1.05
19 12 -5 61.29 1.66
19 12 -5 63.35 1.74
19 12 -2 123.25 3.08
12 -31 -2 124.51 2.86
19 12 -2 122.94 3.01
12 -31 1 22.89 0.97
31 -19 -1 21.15 0.99
12 -31 4 21.31 0.89
31 -19 -4 22.06 0.88
31 -19 -7 40.2 1.1
12 -31 7 44.93 1.03
20 11 -6 160.36 3.58
20 11 -6 165.76 3.65
20 11 -3 74.39 2.03
20 11 0 33.23 1.2
11 -31 0 31.55 1.1
31 -20 0 31.29 1.14
11 -31 3 229.27 5.06
31 -20 -6 111.66 2.49
21 10 -4 46.94 1.43
21 10 -4 47.56 1.47
21 10 -1 33.86 1.22
31 -21 1 30.87 1.05
10 -31 2 0.92 0.55
31 -21 -2 0.5 0.57
10 -31 5 25.41 0.88
31 -21 -5 25.56 0.86
22 9 -5 4.8 0.52
22 9 -5 4.65 0.57
22 9 -2 27.42 1.09
9 -31 -2 26.85 0.85
22 9 -2 27.38 0.99
9 -31 1 17.29 0.8
9 -31 4 0.67 0.5
31 -22 -4 0.69 0.48
23 8 -6 205.67 4.44
23 8 -6 209.44 4.48
23 8 -3 61.21 1.72
23 8 -3 63.04 1.71
23 8 0 79.72 2.06
8 -31 0 79.74 1.93
-31 23 0 74.97 2.09
8 -31 3 296.28 6.49
31 -23 -3 313.01 6.65
8 -31 6 110.6 2.36
31 -23 -6 102.73 2.32
24 7 -4 11.02 0.66
24 7 -1 9.36 0.66
-31 24 -1 8.97 0.72
7 -31 2 0.53 0.46
-31 24 2 0.25 0.59
7 -31 5 8.29 0.56
31 -24 -5 7.71 0.54
25 6 -5 0.52 0.46
25 6 -2 5.78 0.57
6 -31 1 12.53 0.59
-31 25 1 11.78 0.81
6 -31 4 2.09 0.42
31 -25 -4 2.08 0.48
26 5 -6 139.69 3.02
26 5 -3 29.71 1.01
-31 26 0 102.06 2.59
5 -31 3 300.52 6.23
-31 26 3 283.98 6.39
5 -31 6 89.26 1.95
27 4 -4 2.09 0.49
27 4 -1 4.6 0.47
-31 27 -1 4.47 0.65
4 -31 2 0.98 0.34
-31 27 2 1.05 0.62
4 -31 5 0.35 0.3
31 -27 -5 0.33 0.27
28 3 -5 3.48 0.36
28 3 -2 2.25 0.41
-31 28 1 1.18 0.61
3 -31 4 4.37 0.42
31 -28 -4 4.67 0.51
29 2 -3 33.33 1.01
-31 29 0 69.78 1.91
2 -31 3 216.98 4.65
-31 29 3 236.47 4.91
30 1 -4 4.4 0.36
-31 30 -1 13.12 0.76
-31 30 2 2.89 0.65
-31 31 -2 3.91 0.62
-31 31 1 2.28 0.66
31 -31 -4 7.33 0.37
-31 32 3 123.18 2.63
31 -32 -3 109.99 2.56
-31 32 0 63.06 1.69
-31 32 -3 9.47 0.49
30 -32 -4 0.66 0.26
-30 32 1 16.7 0.94
-30 32 -2 13.36 0.79
-29 32 2 2.99 0.79
-29 32 -1 29.71 1.14
29 -32 1 29.99 0.85
32 -3 -4 53.8 1.31
-28 32 3 100.92 2.55
28 -32 0 36.21 1.02
-28 32 0 32.02 1.27
32 -4 -3 16.5 0.71
28 -32 3 15.79 0.67
-27 32 4 -0.75 0.63
-27 32 1 17.91 1.04
32 -5 -2 32.87 1
27 -32 2 30.2 0.9
27 -32 2 32.7 0.99
32 -5 -5 6.44 0.35
27 -32 5 6.23 0.3
26 -32 -5 14.64 0.48
26 -32 -2 0.56 0.43
-26 32 2 1.08 0.74
26 -32 1 75.6 1.86
26 -32 1 76.63 1.9
32 -6 -4 93.35 2.21
26 -32 4 89.89 2.12
-25 32 3 74.82 2.17
25 -32 -3 81.43 1.92
-25 32 0 7.01 0.9
25 -32 0 5.66 0.56
32 -7 -3 34.69 1.11
25 -32 3 32.86 0.93
32 -7 -6 46.62 1.11
24 -32 -1 5.61 0.57
32 -8 -2 42.05 1.26
24 -32 2 39.8 1.15
24 -32 2 39.24 1.21
24 -32 5 15.02 0.59
23 -32 -2 0.94 0.5
23 -32 1 112.85 2.63
23 -32 1 115.95 2.67
32 -9 -4 152.05 3.41
23 -32 4 146.91 3.22
-22 32 6 24.13 0.73
-22 32 3 21.67 1.16
22 -32 -3 23.28 0.83
22 -32 0 -0.05 0.53
32 -10 0 -0.37 0.31
22 -32 0 0.33 0.5
32 -10 -3 26.77 1.04
32 -10 -3 27.96 0.89
22 -32 3 25.25 0.93
32 -10 -6 35.52 0.94
22 -32 6 30.66 0.83
-21 32 4 19.53 1.02
21 -32 -1 13.59 0.76
-21 32 1 14.65 1.06
21 -32 -1 13.49 0.67
32 -11 -2 84.82 2.22
32 -11 -2 88.04 2.1
21 -32 2 84.52 2.15
12 20 -5 127.57 2.93
20 -32 -2 4.97 0.57
12 20 -2 4.85 0.59
-20 32 2 4.91 0.86
32 -12 -1 128.69 3.14
32 -12 -1 138.03 3.08
20 -32 1 133.08 3.11
32 -12 -4 216.89 4.81
32 -12 -4 214.51 4.68
20 -32 4 212.97 4.64
20 -32 4 217.65 4.67
13 19 -6 10.34 0.5
-19 32 6 10.63 0.5
13 19 -3 0.09 0.49
19 -32 -3 0.09 0.42
13 19 -3 -0.16 0.51
-19 32 3 -0.13 0.74
32 -13 0 21.46 0.76
-19 32 0 22.96 1.16
19 -32 0 22.38 0.88
32 -13 -3 42.72 1.34
32 -13 -3 42 1.22
19 -32 3 41.98 1.22
32 -13 -6 10.4 0.57
19 -32 6 10.75 0.47
14 18 -4 21.23 0.85
14 18 -4 18.79 0.87
-18 32 4 20.67 1
18 -32 -4 20.66 0.69
14 18 -1 12.27 0.71
18 -32 -1 13.35 0.73
-18 32 1 13.57 0.99
18 -32 -1 12.09 0.63
18 -32 2 99.71 2.47
32 -14 -2 103.71 2.47
18 -32 2 103.54 2.46
32 -14 -5 75.38 1.76
18 -32 5 69.63 1.71
15 17 -5 103.88 2.43
15 17 -2 2.51 0.64
17 -32 -2 2.96 0.52
15 17 -2 2.4 0.54
-17 32 2 2.96 0.75
17 -32 1 120.88 2.91
32 -15 -1 125.85 2.92
17 -32 1 124.89 2.91
17 -32 4 185.21 4.13
32 -15 -4 191.37 4.15
16 16 -6 8.05 0.49
16 -32 -3 30.72 0.97
16 16 -3 33.43 1.17
16 16 -3 30.9 1.11
-16 32 3 31.41 1.24
32 -16 0 130.79 3
-16 32 0 127.44 3.23
16 -32 0 130.03 3
16 -32 3 64.58 1.71
32 -16 -6 0.35 0.4
16 -32 6 0.34 0.29
17 15 -7 49.61 1.14
17 15 -4 72.84 1.89
17 15 -4 69.31 1.88
17 15 -1 0.29 0.57
17 15 -1 0.64 0.44
-15 32 1 0.9 0.71
15 -32 2 66.82 1.79
32 -17 -2 67.14 1.79
15 -32 5 85.61 2.03
32 -17 -5 86.95 2.04
18 14 -5 72.55 1.81
18 14 -5 71.18 1.84
14 -32 -2 2.13 0.46
18 14 -2 2.59 0.51
-14 32 2 2.48 0.64
14 -32 1 81.94 2.12
32 -18 -1 86.89 2.18
14 -32 1 85.49 2.06
14 -32 4 131.22 3.02
32 -18 -4 133.36 3.04
19 13 -6 10.78 0.47
13 -32 -3 49.87 1.28
19 13 -3 50.93 1.46
19 13 0 208.06 4.6
13 -32 0 206.16 4.47
32 -19 0 206.76 4.51
13 -32 0 192.09 4.39
13 -32 3 100.93 2.44
13 -32 6 0.58 0.3
32 -19 -6 0.85 0.27
20 12 -4 26.59 0.98
20 12 -4 25.68 0.95
20 12 -1 0.34 0.54
32 -20 1 0.17 0.33
12 -32 2 28 1
32 -20 -2 28.04 1.05
12 -32 5 35.96 1.07
32 -20 -5 37.95 1.06
21 11 -5 35.75 1.11
21 11 -5 38.09 1.12
21 11 -2 2.91 0.58
11 -32 -2 2.63 0.39
21 11 -2 2.88 0.46
11 -32 1 34.9 1.11
32 -21 -1 36.4 1.2
11 -32 1 34.84 1.01
11 -32 4 65.8 1.71
32 -21 -4 70.03 1.75
22 10 -6 10.75 0.46
22 10 -6 11.02 0.49
22 10 -3 81.13 2.08
22 10 -3 79.69 2.01
22 10 0 280.79 6.08
10 -32 0 278.9 5.95
32 -22 0 274.24 6.05
10 -32 3 118.97 2.76
32 -22 -6 1.25 0.22
23 9 -4 22.11 0.81
23 9 -1 1.22 0.48
32 -23 1 0.38 0.34
9 -32 2 10.62 0.62
32 -23 -2 11.43 0.72
9 -32 5 14.97 0.65
32 -23 -5 15.83 0.63
24 8 -5 9.09 0.52
24 8 -5 9.83 0.52
24 8 -2 8.95 0.64
8 -32 1 0.2 0.38
8 -32 4 10.66 0.57
32 -24 -4 11.82 0.63
25 7 -6 8.48 0.35
25 7 -3 97.41 2.36
-32 25 0 266.84 5.82
7 -32 3 98.14 2.29
32 -25 -3 102.55 2.43
7 -32 6 6.6 0.3
26 6 -4 1.15 0.48
26 6 -1 0.28 0.37
-32 26 -1 0.46 0.49
6 -32 2 -0.27 0.34
-32 26 2 0.3 0.49
6 -32 5 0.65 0.28
32 -26 -5 0.61 0.26
27 5 -2 0.3 0.38
-32 27 -2 0.38 0.45
-32 27 1 0.48 0.52
5 -32 4 -0.13 0.35
32 -27 -4 -0.32 0.38
28 4 -3 95.51 2.19
-32 28 -3 89.19 2.15
-32 28 0 256.32 5.59
4 -32 3 95.78 2.12
-32 28 3 91.69 2.26
29 3 -4 2.58 0.32
-32 29 -1 0.74 0.5
-32 29 2 8.04 0.63
-32 30 -2 2.56 0.56
-32 30 1 6.62 0.66
32 -30 -4 3.79 0.31
-32 31 -3 61.97 1.46
-32 31 0 202.64 4.44
32 -31 -3 55.13 1.35
-32 32 -1 1.72 0.43
-32 32 2 2.74 0.39
-32 33 1 2.78 0.4
-31 33 2 20.01 0.74
-31 33 -1 53.85 1.42
-30 33 3 13.96 0.66
-30 33 0 20.29 0.89
-30 33 -3 78.88 1.87
29 -33 -4 8.64 0.37
-29 33 1 11.94 0.87
29 -33 -1 13.13 0.59
-29 33 -2 0.37 0.58
-28 33 2 82.45 2.18
28 -33 1 105.71 2.4
-28 33 -1 111.11 2.67
33 -5 -4 12.44 0.49
-27 33 3 4.57 0.76
27 -33 0 36.9 1.04
-27 33 0 35.31 1.31
33 -6 -3 75.39 1.83
-26 33 4 13.52 0.75
-26 33 1 27.68 1.19
33 -7 -2 8.49 0.51
26 -33 2 7.9 0.46
26 -33 2 8.87 0.55
26 -33 5 1.93 0.23
25 -33 -2 127.03 2.87
25 -33 1 161.96 3.59
25 -33 1 162.99 3.61
33 -8 -4 23.51 0.83
24 -33 -3 0.27 0.39
24 -33 0 49.85 1.35
33 -9 -3 54.56 1.46
24 -33 3 50.94 1.31
24 -33 3 52.37 1.38
-23 33 4 8.44 0.87
23 -33 -1 51.37 1.41
-23 33 1 50.47 1.69
33 -10 -2 18.63 0.77
23 -33 2 16.75 0.69
23 -33 2 18.76 0.77
23 -33 5 2.86 0.33
22 -33 -2 204.86 4.42
-22 33 2 195.39 4.64
33 -11 -1 283.13 5.98
22 -33 1 275.8 6.01
33 -11 -4 35.15 1.12
22 -33 4 32.99 0.9
22 -33 4 33 1.01
-21 33 6 0.25 0.26
12 21 -3 11.4 0.65
-21 33 3 10.19 0.85
21 -33 -3 12.28 0.58
21 -33 0 32.59 1.08
-21 33 0 35.49 1.34
21 -33 0 33.5 1.06
33 -12 -3 20.4 0.87
33 -12 -3 21.41 0.75
21 -33 3 19.96 0.79
33 -12 -6 0.64 0.29
21 -33 6 0.43 0.23
-20 33 4 15.63 0.87
20 -33 -1 68.39 1.77
-20 33 1 68.49 2.01
20 -33 -1 67.85 1.68
33 -13 -2 41.58 1.3
33 -13 -2 44.12 1.23
20 -33 2 43.06 1.26
19 -33 -2 174.79 3.8
14 19 -2 168 3.85
-19 33 2 166.61 4.01
33 -14 -1 259.55 5.54
19 -33 1 253.5 5.55
33 -14 -4 40.01 1.27
19 -33 4 41.38 1.14
19 -33 4 42.67 1.17
15 18 -6 5.7 0.37
18 -33 -3 57.11 1.42
15 18 -3 56.99 1.56
15 18 -3 52.78 1.52
-18 33 3 53.63 1.65
33 -15 0 48.87 1.32
-18 33 0 52.58 1.63
18 -33 0 52 1.38
33 -15 -3 0.81 0.39
18 -33 3 0.36 0.42
33 -15 -6 17.22 0.63
16 17 -4 2.9 0.48
16 17 -4 3.03 0.49
16 17 -1 75.75 1.91
17 -33 -1 75.04 1.91
-17 33 1 77.88 2.13
17 -33 2 79.35 1.98
33 -16 -2 80.37 1.98
17 -33 2 79.07 1.96
33 -16 -5 4.41 0.42
17 -33 5 3.69 0.43
17 -33 5 4.35 0.44
17 16 -5 1.16 0.42
17 16 -5 1.05 0.45
16 -33 -2 127.42 2.86
17 16 -2 121.54 2.9
-16 33 2 125 3.04
16 -33 1 167.49 3.72
33 -17 -1 168.6 3.73
-16 33 -1 159.48 3.84
16 -33 1 165.43 3.7
33 -17 -4 17.48 0.69
15 -33 -3 122.35 2.76
18 15 -3 129.67 2.98
18 15 -3 123.67 2.9
33 -18 0 41.88 1.16
15 -33 0 39.5 1.13
15 -33 3 13.9 0.69
33 -18 -6 56.79 1.43
15 -33 6 57.59 1.31
15 -33 6 57.81 1.32
19 14 -4 -0.12 0.46
19 14 -4 0.3 0.42
19 14 -1 44.04 1.37
14 -33 2 72.18 1.81
33 -19 -2 73.66 1.85
14 -33 2 68.7 1.73
33 -19 -5 17.02 0.62
20 13 -5 0.37 0.38
20 13 -5 0.08 0.38
20 13 -2 78.94 2.06
13 -33 -2 81.11 1.89
20 13 -2 76.7 1.93
13 -33 1 132.25 2.97
33 -20 -1 135.76 3.03
13 -33 4 22.5 0.81
33 -20 -4 22.93 0.8
21 12 -6 46.27 1.13
21 12 -6 50.77 1.15
21 12 -3 160.67 3.58
33 -21 0 59.06 1.55
12 -33 3 16.39 0.71
33 -21 -6 75.38 1.74
22 11 -4 1.38 0.38
22 11 -1 12.27 0.68
11 -33 2 24.85 0.87
33 -22 -2 28.09 0.96
11 -33 5 3.66 0.37
33 -22 -5 3.88 0.34
23 10 -5 0.35 0.31
23 10 -5 0.42 0.28
23 10 -2 15.83 0.74
10 -33 1 36.52 1.07
33 -23 -1 39.49 1.17
10 -33 4 9.43 0.58
33 -23 -4 9.1 0.56
24 9 -3 210.94 4.63
33 -24 0 66.62 1.69
9 -33 3 23.65 0.78
25 8 -4 1.99 0.41
25 8 -1 1.14 0.39
8 -33 2 8.28 0.46
33 -25 -2 8.8 0.57
8 -33 5 4.94 0.33
33 -25 -5 5.67 0.32
26 7 -2 0.89 0.38
33 -26 -1 3.51 0.45
7 -33 4 1.21 0.31
33 -26 -4 0.82 0.32
27 6 -3 207.4 4.48
-33 27 0 57.41 1.49
33 -27 0 57.7 1.47
6 -33 3 19.09 0.63
33 -27 -3 20.61 0.76
28 5 -4 1.73 0.3
-33 28 -1 8.6 0.54
-33 28 2 4.79 0.45
33 -28 -2 3.73 0.51
-33 29 -2 0.93 0.44
-33 29 1 1.65 0.47
33 -29 -1 1.2 0.44
33 -29 -4 0.48 0.22
-33 30 0 52.11 1.26
33 -30 0 40.24 1.14
33 -30 -3 13.87 0.51
-33 31 -1 5.79 0.4
33 -31 -2 3.06 0.33
33 -32 -1 5.13 0.32
-31 34 1 14.97 0.61
-31 34 -2 34.08 0.91
-30 34 2 78.02 1.87
-30 34 -1 16.77 0.71
-29 34 3 27.18 0.87
-29 34 0 71.89 1.87
29 -34 0 72.79 1.66
-29 34 -3 20.94 0.74
-28 34 1 2.14 0.67
-28 34 -2 18.62 0.8
28 -34 2 17.52 0.54
-27 34 2 100.56 2.48
27 -34 1 5.47 0.47
-27 34 -1 4.71 0.77
34 -7 -4 37.92 0.97
27 -34 4 39.82 0.94
34 -8 -3 8.82 0.49
26 -34 3 8.72 0.46
25 -34 -1 7.53 0.53
25 -34 2 6.93 0.46
25 -34 2 6.26 0.53
-24 34 5 119.28 2.57
-24 34 2 212.83 4.89
24 -34 -2 219.84 4.68
24 -34 1 18.92 0.73
-24 34 -1 19.1 0.98
24 -34 1 20.54 0.75
34 -10 -4 57.66 1.44
-23 34 3 19.45 1
23 -34 -3 19.03 0.69
23 -34 0 15.02 0.67
-23 34 0 12.84 0.9
23 -34 0 13.86 0.6
34 -11 -3 0.64 0.46
23 -34 3 0.57 0.39
23 -34 3 0.25 0.48
-22 34 4 24.84 0.95
22 -34 -1 9.37 0.58
-22 34 1 9.21 0.81
34 -12 -2 4.24 0.43
22 -34 2 5.22 0.46
22 -34 2 5.03 0.5
-21 34 5 133.03 2.86
21 -34 -2 209.38 4.51
-21 34 2 206.96 4.72
34 -13 -1 15.7 0.6
-21 34 -1 16.41 0.9
21 -34 1 15.29 0.68
34 -13 -4 70.55 1.79
21 -34 4 70.34 1.64
21 -34 4 72.93 1.71
14 20 -3 20.3 0.77
-20 34 3 19.92 0.93
20 -34 -3 20.47 0.68
20 -34 0 1.56 0.46
-20 34 0 1.74 0.64
20 -34 0 1.6 0.39
34 -14 -3 6.77 0.57
34 -14 -3 7.92 0.48
20 -34 3 6.9 0.53
15 19 -4 47.29 1.29
19 -34 -1 42.03 1.2
-19 34 1 40.96 1.38
34 -15 -2 0.77 0.41
34 -15 -2 1.01 0.36
19 -34 2 0.82 0.43
19 -34 5 11.51 0.48
16 18 -5 105.52 2.36
18 -34 -2 158.14 3.44
16 18 -2 151.73 3.46
-18 34 2 156.22 3.61
34 -16 -1 12.47 0.56
-18 34 -1 13.44 0.79
18 -34 1 13.02 0.61
34 -16 -4 49.44 1.43
34 -16 -4 53.91 1.34
18 -34 4 52.92 1.35
17 17 -3 16.1 0.66
17 -34 -3 16.49 0.57
34 -17 0 12.74 0.52
-17 34 0 13.62 0.79
17 -34 0 12.38 0.55
34 -17 -3 63.04 1.64
17 -34 3 64.8 1.58
34 -17 -3 62.19 1.58
17 -34 3 61.92 1.56
18 16 -4 27.82 0.92
18 16 -4 26.75 0.88
16 -34 -1 58.87 1.52
16 -34 2 11.32 0.6
34 -18 -2 11.88 0.56
16 -34 2 10.54 0.57
34 -18 -5 5.5 0.34
16 -34 5 4.93 0.35
16 -34 5 4.7 0.36
19 15 -5 55.71 1.34
15 -34 -2 96.06 2.22
19 15 -2 98.84 2.37
34 -19 -1 8.62 0.5
15 -34 1 8.4 0.49
15 -34 4 31.4 0.95
34 -19 -4 33.02 0.95
15 -34 4 32.33 0.92
20 14 -3 16.98 0.63
34 -20 0 28.25 0.85
14 -34 3 111.19 2.47
14 -34 3 105.88 2.42
21 13 -4 12.49 0.61
21 13 -4 12.6 0.54
21 13 -1 23.33 0.87
13 -34 -1 22.79 0.75
13 -34 2 4.39 0.46
34 -21 -2 4.19 0.43
13 -34 2 4.2 0.37
13 -34 5 3.67 0.33
34 -21 -5 3.79 0.3
13 -34 5 3.86 0.29
22 12 -5 40.41 0.98
22 12 -5 36.5 0.93
22 12 -2 70.82 1.8
34 -22 -1 8.95 0.53
12 -34 4 13.76 0.57
34 -22 -4 16.38 0.59
23 11 -3 16.03 0.72
34 -23 0 54.41 1.37
11 -34 3 183.82 3.89
11 -34 3 177.74 3.82
24 10 -1 30.25 0.88
10 -34 -1 24.55 0.73
10 -34 2 21.37 0.71
34 -24 -2 23.04 0.79
10 -34 5 0.53 0.21
34 -24 -5 0.53 0.19
25 9 -5 9.37 0.34
25 9 -2 18.19 0.71
34 -25 -1 3.56 0.41
9 -34 4 3.23 0.3
34 -25 -4 3.17 0.32
9 -34 4 2.49 0.21
26 8 -3 27.43 0.84
34 -26 0 38.27 1.03
8 -34 3 160.32 3.41
27 7 -4 1.95 0.27
34 -27 -2 3.09 0.42
34 -28 -1 1.03 0.35
34 -28 -4 1.53 0.2
34 -29 0 32.77 0.87
34 -30 -2 0.88 0.27
34 -31 -1 0.51 0.22
-30 35 1 27.36 0.84
-29 35 2 0.62 0.4
-29 35 -1 58.67 1.45
29 -35 1 53.82 1.25
-28 35 0 16.66 0.74
28 -35 0 14.97 0.53
-28 35 -3 6.54 0.45
27 -35 2 6.38 0.32
26 -35 1 91.7 2.07
-25 35 3 14.41 0.72
-25 35 0 2.55 0.76
35 -10 -3 8.31 0.41
25 -35 3 7.95 0.35
-25 35 -3 9.63 0.58
25 -35 3 9.16 0.42
24 -35 -1 9.1 0.57
-24 35 1 8.78 0.84
24 -35 2 31.05 0.9
-24 35 -2 33.9 1.15
24 -35 2 31.68 0.93
23 -35 -2 1.49 0.45
-23 35 2 0.98 0.72
-23 35 -1 144.15 3.38
23 -35 1 145.99 3.19
35 -12 -4 175.92 3.81
23 -35 4 178.6 3.77
-22 35 3 0.4 0.55
22 -35 0 1.61 0.45
-22 35 0 1.66 0.63
22 -35 0 2.18 0.36
35 -13 -3 8.85 0.51
22 -35 3 8.06 0.44
22 -35 3 8.31 0.5
21 -35 -1 3 0.44
-21 35 1 2.82 0.62
35 -14 -2 20.63 0.69
-21 35 -2 18.93 0.85
21 -35 2 17.92 0.72
35 -14 -5 10.3 0.39
20 -35 -2 0.71 0.39
-20 35 2 0.3 0.53
20 -35 1 119.39 2.68
35 -15 -1 120.83 2.63
-20 35 -1 115.46 2.8
20 -35 1 115.71 2.64
35 -15 -4 142.93 3.16
20 -35 4 140.83 3.06
20 -35 4 147.82 3.11
19 -35 -3 0.9 0.32
19 -35 0 20.41 0.74
-19 35 0 19.71 0.85
19 -35 0 17.77 0.61
35 -16 -3 17.76 0.74
35 -16 -3 19.97 0.68
19 -35 3 18.39 0.71
17 18 -4 24.5 0.72
18 -35 -1 6.21 0.49
35 -17 -2 9.04 0.47
18 -35 2 7.64 0.5
35 -17 -5 17.88 0.57
18 -35 5 18.27 0.53
18 17 -5 63.51 1.42
17 -35 -2 4.97 0.39
35 -18 -1 60.14 1.46
17 -35 1 59.34 1.45
35 -18 -4 82.21 1.98
17 -35 4 87.37 1.92
19 16 -3 32.97 0.91
16 -35 0 93.87 2.18
16 -35 3 29.71 0.87
35 -19 -3 30.93 0.87
16 -35 3 27.98 0.86
20 15 -4 14.95 0.5
15 -35 -1 4.37 0.4
35 -20 -2 4.13 0.4
15 -35 2 3.45 0.36
35 -20 -5 12.89 0.47
15 -35 5 13.7 0.41
14 -35 -2 1.66 0.26
35 -21 -1 43.12 1.13
35 -21 -4 56.98 1.45
14 -35 4 64.71 1.42
35 -21 -4 63.82 1.44
14 -35 4 58.14 1.39
22 13 -3 54.66 1.39
13 -35 3 56.19 1.29
13 -35 3 49.52 1.24
12 -35 -1 9.77 0.42
35 -23 -2 1.33 0.39
35 -24 -1 23.8 0.75
11 -35 4 26.45 0.68
35 -24 -4 25.83 0.7
25 10 -3 67.42 1.58
10 -35 0 165.93 3.52
35 -26 -2 4.5 0.35
35 -27 -1 6.56 0.37
35 -29 -2 6.27 0.31
35 -30 -1 0.19 0.17
-29 36 1 0.28 0.29
28 -36 1 87.19 1.89
-26 36 1 15.32 0.71
26 -36 -1 14.63 0.51
26 -36 2 6.53 0.32
-26 36 -2 7.91 0.54
-25 36 2 129.31 2.93
25 -36 1 173.45 3.73
-25 36 -1 178.48 3.89
24 -36 0 5.92 0.41
-24 36 0 5.14 0.59
24 -36 3 4.14 0.26
-24 36 -3 4.1 0.43
24 -36 3 4.23 0.32
23 -36 -1 22.77 0.73
-23 36 1 22.78 0.88
23 -36 2 7.13 0.39
-23 36 -2 7.4 0.54
23 -36 2 7.29 0.4
-22 36 2 151.19 3.39
22 -36 -2 152.29 3.26
22 -36 1 187.75 3.94
-22 36 -1 181.16 4.05
22 -36 1 180.06 3.9
22 -36 4 13.7 0.42
21 -36 0 6.03 0.5
-21 36 0 6.34 0.63
21 -36 3 0.34 0.25
21 -36 3 0.63 0.3
20 -36 -1 17.04 0.67
20 -36 2 21.77 0.7
19 -36 -2 108.56 2.39
19 -36 1 151.56 3.13
19 -36 1 135.1 3.04
36 -17 -4 13.02 0.47
19 -36 4 13.73 0.42
19 -36 4 14.16 0.45
18 -36 0 14.8 0.65
36 -18 -3 1.93 0.28
36 -18 -3 2.36 0.28
18 -36 3 2.2 0.31
17 -36 -1 1.44 0.4
36 -19 -2 19.99 0.62
17 -36 2 17.46 0.6
16 -36 -2 50.17 1.16
16 -36 1 91.5 1.96
36 -20 -1 78.98 1.89
15 -36 0 24.18 0.77
36 -21 -3 5.15 0.32
15 -36 3 4.31 0.26
14 -36 -1 0.31 0.3
36 -22 -2 10.16 0.43
36 -23 -1 44.06 1.08
12 -36 0 30.04 0.78
36 -24 -3 18.45 0.55
36 -25 -2 7.27 0.34
36 -26 -1 12.66 0.41
-26 37 0 4.87 0.43
-25 37 1 4.43 0.42
25 -37 -1 3.68 0.29
-24 37 -1 6.66 0.46
23 -37 0 0.45 0.28
-23 37 0 -0.05 0.35
22 -37 -1 1.66 0.29
-22 37 1 1.53 0.32
22 -37 2 4.37 0.28
21 -37 -2 102.96 2.21
21 -37 1 5.04 0.36
20 -37 0 1.07 0.3
20 -37 3 7.44 0.31
19 -37 -1 13.04 0.46
19 -37 2 10.19 0.43
18 -37 1 9.51 0.42
17 -37 0 19.04 0.58
17 -37 3 38.5 0.91
16 -37 2 14.6 0.49
37 -21 -2 14.22 0.44
15 -37 1 0.85 0.26
14 -37 0 19.77 0.53
13 -37 2 17.92 0.49
37 -24 -2 17.22 0.48
22 -38 0 3.95 0.24
20 -38 1 77.86 1.7
19 -38 0 19.63 0.53
0 0 3 9999 203.13
0 0 9 900.84 18.79
0 0 9 901.44 18.78
1 -1 11 1.66 0.59
0 1 11 1.32 0.6
-1 0 11 2.04 0.65
1 -1 8 10.43 0.88
0 1 8 10.5 0.9
-1 0 8 10.36 0.86
0 1 5 56.56 2.15
-1 0 5 62.13 1.48
-1 0 5 60.48 2.1
1 -1 5 61.97 1.5
1 -1 2 0.65 0.4
-1 0 2 0.41 0.4
0 1 2 0.65 0.47
0 -1 1 2.92 0.22
1 0 1 2.97 0.12
1 0 1 3.35 0.29
1 -1 -1 3.52 0.15
-1 1 4 6.94 0.75
0 -1 4 6.73 0.73
1 0 4 7.57 0.81
-1 1 7 0.33 0.41
0 -1 7 0.69 0.4
-1 1 7 0.57 0.57
1 0 7 0.14 0.36
-1 1 10 -0.08 0.48
0 -1 10 0.55 0.49
-1 1 10 -0.39 0.71
-1 1 10 -0.03 0.57
1 0 10 0.47 0.69
1 0 10 0.26 0.39
0 -1 10 0.82 0.74
-1 2 12 9.97 0.66
-1 -1 9 809.86 17.01
2 -1 9 831.59 16.97
2 -1 9 794.69 16.91
-1 -1 9 815.2 16.99
-1 2 9 806.43 17.02
2 -1 9 818.73 17.02
-1 2 6 2730.71 56.8
-1 -1 3 1008.04 20.59
-1 2 3 972.52 20.63
2 -1 0 2043.51 41.54
1 -2 3 8717.37 177.21
1 1 3 8748.21 177.28
-2 1 3 8698.38 177.22
-2 1 6 2270 48.15
1 -2 6 2316.57 47.08
-2 1 9 3.89 0.71
1 -2 9 7.34 0.65
1 1 9 4.25 0.67
1 1 9 6.36 0.72
1 -2 9 2.93 0.77
1 -2 9 3.27 0.63
-2 1 12 220.37 4.8
0 2 10 1.54 0.69
-2 0 10 1.52 0.78
0 2 10 2.24 0.62
-2 0 10 1.96 0.62
0 2 10 1.75 0.41
-2 0 10 1.17 0.54
2 -2 10 2.41 0.74
2 -2 10 1.83 0.4
0 2 7 3.86 0.43
2 -2 7 3.85 0.46
-2 0 7 3.07 0.62
0 2 4 9.98 0.87
-2 0 4 10.87 0.89
2 0 -1 1.37 0.15
-2 2 2 221.66 4.82
0 -2 2 229.72 4.77
2 -2 -2 215.27 4.58
-2 2 5 99.51 2.99
0 -2 5 97.96 2.25
0 -2 8 41.09 1.39
-2 2 8 43.57 1.46
0 -2 8 42.72 1.38
2 0 8 41.72 1.47
-2 2 8 44.79 1.77
0 -2 11 5.54 0.67
-2 2 11 5.17 0.71
2 0 11 5.03 0.59
-1 -2 10 8.42 0.89
-2 3 10 7.82 0.79
3 -1 10 7.99 0.79
-2 3 10 7.88 0.78
-1 -2 10 8.36 0.69
3 -1 7 17.89 0.75
-2 3 7 17.55 0.76
-2 3 7 17.33 0.94
-1 -2 4 3.3 0.59
-2 3 4 3.76 0.74
3 -1 1 188.8 4.01
1 2 2 126.54 2.8
3 -1 -2 110.71 2.48
2 -3 5 51.28 1.32
-3 1 5 49.88 1.95
2 -3 8 0.97 0.64
2 -3 8 0.82 0.71
1 2 8 1.21 0.72
2 -3 11 6.24 0.62
-3 1 11 6.21 0.76
1 2 11 5.6 0.63
-2 -1 11 6.56 0.72
3 -2 11 5.28 0.58
-1 3 11 5.58 0.67
3 -2 8 4.5 0.73
-1 3 8 5.17 0.74
3 -2 8 5.04 0.82
-2 -1 5 1.96 0.7
-2 -1 5 2.08 0.28
-1 3 5 1.79 0.79
-1 3 2 261.8 5.68
3 -2 2 258.68 5.47
-2 -1 2 262.11 5.57
3 -2 -1 58.69 1.39
-3 2 4 0.83 0.61
1 -3 4 0.72 0.28
2 1 7 2.67 0.43
1 -3 7 3.15 0.43
-3 2 7 3.26 0.64
-3 2 10 0.7 0.7
1 -3 10 0.61 0.47
2 1 10 0.64 0.63
1 -3 10 0.42 0.72
-3 2 10 0.23 0.66
2 1 10 0.65 0.51
-3 0 12 298.73 6.38
3 -3 9 667.1 13.7
0 3 9 644.4 13.65
3 -3 9 631.75 13.54
-3 0 6 114.28 3.47
-3 0 3 800.23 16.29
0 3 3 823.67 16.43
3 0 0 3541 71.27
0 3 0 3494.56 71.16
-3 3 3 769.52 15.55
0 -3 3 786.01 15.45
3 0 6 75.69 1.82
0 -3 6 74.29 1.84
-3 3 6 72.35 2.7
3 0 9 559.34 11.8
-3 3 9 548.26 11.88
0 -3 9 554.33 11.82
3 0 9 557.06 11.84
0 -3 9 563.94 11.92
0 -3 9 563.59 11.81
-3 3 12 264.06 5.68
-1 -3 11 10.66 0.77
4 -1 11 9.91 0.63
-3 4 11 10.05 0.79
-3 4 8 0.6 0.99
-3 4 8 0.41 0.67
4 -1 8 1.16 0.72
4 -1 8 0.11 0.62
-1 -3 5 27.92 0.82
-3 4 5 24.71 1.44
-1 -3 5 28.39 1.32
4 -1 5 27.22 0.82
-1 -3 2 23.42 0.71
4 -1 2 20.09 0.66
1 3 1 136.65 3.04
4 -1 -1 134.71 2.99
-4 1 4 68.77 1.78
1 3 4 60.27 1.81
1 3 7 1.96 0.6
-4 1 7 2.25 0.61
-4 1 7 1.09 0.81
-4 1 7 1.25 0.42
3 -4 7 1.74 0.38
3 -4 7 2 0.39
1 3 7 1.84 0.4
3 -4 7 1.97 0.41
3 -4 10 4.88 0.47
1 3 10 4.34 0.68
-4 1 10 4.11 0.85
1 3 10 5.17 0.66
3 -4 10 5.07 0.76
-2 4 12 160.87 3.57
-2 4 9 12.86 0.91
4 -2 9 14.25 0.77
4 -2 9 13.17 0.92
-2 4 6 306.49 7.75
4 -2 6 314.73 6.68
-2 -2 3 1149.61 22.57
-2 4 3 1136.16 22.72
4 -2 0 641.51 13.25
2 2 3 96.46 2.54
4 -2 -3 88.88 2.02
-4 2 3 91.83 2.42
2 -4 6 1461.49 30.11
-4 2 6 1501.38 31.26
2 2 9 687.21 14.58
2 -4 9 681.74 14.54
2 -4 9 708.89 14.67
2 2 9 698.68 14.54
-4 2 12 18.27 0.84
-3 -1 10 8.6 0.73
-1 4 10 8.39 0.77
4 -3 10 8.42 0.79
-1 4 10 8.45 0.78
-3 -1 7 15.18 0.74
-1 4 7 14.69 0.9
4 -3 7 14.75 0.66
4 -3 7 16.04 0.67
-3 -1 7 15.59 0.87
-1 4 4 134.37 3.61
-3 -1 4 141.99 3.54
4 -3 1 349.19 7
-1 4 1 315.78 6.95
4 -3 -2 419.63 8.76
3 1 5 12.03 0.48
1 -4 5 12.24 0.54
-4 3 5 11.38 1.1
3 1 8 20.48 1.03
-4 3 8 20.44 1.35
1 -4 8 20.7 0.93
1 -4 8 20.95 1.04
1 -4 11 15.83 0.83
3 1 11 15.97 0.75
-4 3 11 17.16 0.94
-4 0 11 1.16 0.65
-4 0 11 1.1 0.5
0 4 11 1.69 0.56
4 -4 8 43.19 1.44
4 -4 8 40.83 1.27
0 4 8 44.14 1.74
0 4 8 42.28 1.42
-4 0 8 41.17 1.44
4 -4 8 43.4 1.32
-4 0 5 83.67 2.6
0 4 5 79.06 2.66
4 -4 2 47.04 1.3
4 0 1 313.13 6.59
0 -4 4 170.43 3.71
-4 4 4 179.71 4.35
-4 4 7 35.52 2.03
4 0 7 35.7 1.13
0 -4 7 36.98 1.13
-4 4 7 35.45 1.31
0 -4 10 0.49 0.53
4 0 10 0.08 0.58
0 -4 10 0.66 0.81
-4 4 10 0.6 0.71
-4 4 10 0.4 0.71
-4 5 12 1.67 0.56
-4 5 9 230.14 5.43
-1 -4 9 238.82 5.37
5 -1 9 240.29 5.37
5 -1 9 240.96 5.27
5 -1 6 576.83 11.8
-4 5 6 555.91 13.03
-1 -4 6 557.57 11.79
-4 5 3 120.56 3.18
4 -5 -3 124.07 2.87
5 -1 0 197.19 4.3
4 -5 3 2046.11 41.84
-5 1 6 856.53 18.3
4 -5 6 827.04 17.26
4 -5 9 0.39 0.48
1 4 9 -0.07 0.62
4 -5 9 1.11 0.72
-5 1 9 0.68 0.65
-5 1 12 169.84 3.78
-3 5 10 28.44 1.2
5 -2 10 28.11 1.1
-3 5 10 28.13 1.13
-2 -3 10 27.27 1.1
5 -2 7 200.46 4.45
-3 5 7 213.04 5.95
5 -2 7 208.44 4.48
5 -2 7 195.07 4.47
-2 -3 4 499.73 9.93
5 -2 4 492.23 9.46
-3 5 4 472.34 10.11
5 -2 1 348.99 7.39
5 -2 -2 38.59 1.07
-5 2 5 122.67 3.57
3 -5 5 127.71 2.88
3 -5 8 18.77 1.02
-5 2 8 16.82 1.26
-5 2 8 18.19 1.07
2 3 8 18.7 0.94
3 -5 8 18.8 1
-5 2 11 9.29 0.83
2 3 11 8.64 0.62
-5 2 11 9.15 0.65
-3 -2 11 2.68 0.48
-2 5 11 2.9 0.53
-2 5 11 3.25 0.64
5 -3 8 19.4 0.99
-2 5 8 18.45 0.97
-3 -2 8 17.35 0.99
5 -3 8 18.45 0.85
-2 5 5 30.2 1.63
-3 -2 5 33.56 1.44
-3 -2 5 31.03 0.88
5 -3 5 33.42 0.97
5 -3 2 99.08 2.34
5 -3 -1 2.72 0.4
2 -5 4 31.65 0.91
-5 3 4 36.45 1.44
2 -5 7 2.7 0.4
-5 3 7 2.74 0.61
-5 3 7 2.27 0.45
2 -5 7 2.59 0.42
3 2 7 3.05 0.44
2 -5 7 2.69 0.46
-5 3 7 1.12 0.82
2 -5 10 3.27 0.53
3 2 10 2.82 0.64
-5 3 10 3 0.78
3 2 10 3.27 0.54
2 -5 10 2.63 0.79
5 -4 9 295.87 6.45
-1 5 9 284.93 6.46
-4 -1 9 287.94 6.4
-4 -1 6 760.53 16.95
-1 5 6 795.91 17.31
-4 -1 3 247.48 5.4
5 -4 3 237.38 5.23
5 -4 0 171.73 3.84
5 -4 -3 1521.57 31.14
1 -5 6 652.54 13.63
-5 4 6 666.71 14.8
4 1 9 0.76 0.53
4 1 9 -0.2 0.6
1 -5 9 0.3 0.75
1 -5 9 0.49 0.58
-5 4 12 138.23 3.17
0 5 10 4.04 0.65
0 5 10 3.79 0.68
5 -5 10 4.44 0.72
5 -5 7 65.69 1.72
-5 0 7 68.8 1.97
-5 0 7 68.82 2.71
-5 0 7 67.64 1.82
0 5 7 68.6 1.99
5 -5 7 67.2 1.8
-5 0 4 57.42 1.76
5 -5 4 48.5 1.29
0 5 1 21.55 0.83
5 0 -1 24.26 0.79
5 -5 -2 165.94 3.74
0 -5 5 124.45 2.82
-5 5 5 119 3.62
5 0 5 125.85 2.79
5 0 8 43.82 1.36
5 0 8 40.86 1.35
-5 5 8 42.04 1.87
0 -5 11 0.14 0.55
-5 5 11 -0.08 0.64
-5 5 11 0.27 0.53
6 -1 10 104.53 2.59
-1 -5 10 106.12 2.64
6 -1 7 74.72 1.89
-5 6 7 78.86 3.13
-5 6 7 77.15 2.11
6 -1 7 72.86 1.85
-1 -5 7 74.45 1.93
5 -6 -4 18.73 0.7
-5 6 4 19.99 1.21
-1 -5 4 20.14 0.64
6 -1 4 19.98 0.64
6 -1 1 602.68 12.57
6 -1 -2 592.69 12.32
1 5 2 587.5 12.48
5 -6 5 2.88 0.38
-6 1 5 2.86 0.72
5 -6 8 156.27 3.69
1 5 8 169.24 4.14
5 -6 8 165.59 3.84
-6 1 8 162.33 3.86
5 -6 8 158.99 3.71
1 5 8 155.8 3.77
-6 1 11 109.97 2.67
-4 6 11 18.35 0.85
-4 6 11 20.28 0.96
-2 -4 11 17.9 0.75
6 -2 8 50.53 1.52
6 -2 8 47.63 1.42
-4 6 8 46.41 1.64
-2 -4 8 48.89 1.7
6 -2 5 69.06 1.67
-4 6 5 71.25 2.5
-2 -4 5 67.08 2.16
-2 -4 5 66.76 1.64
6 -2 2 14.81 0.69
-2 -4 2 15.73 0.55
6 -2 -1 21.45 0.82
4 -6 4 16.03 0.66
-6 2 4 16.98 1.05
2 4 7 3.48 0.66
-6 2 7 4.49 0.52
-6 2 7 2.51 0.84
-6 2 7 3.66 0.62
4 -6 7 4.2 0.5
4 -6 7 4.29 0.41
4 -6 7 4.44 0.45
4 -6 7 3.75 0.48
4 -6 10 19.92 0.77
2 4 10 21.41 0.96
-6 2 10 20.88 1.01
4 -6 10 21.17 1.04
2 4 10 20.57 0.92
-3 6 12 104.43 2.41
6 -3 9 195.25 4.49
-3 6 9 194.13 4.58
6 -3 6 2.93 0.38
-3 6 6 3.9 0.98
6 -3 3 465.34 10.28
-3 -3 3 527.33 10.41
6 -3 0 2355.63 48.12
6 -3 -3 946.21 19.52
3 -6 6 8.59 0.56
-6 3 6 8.19 1.14
3 -6 9 397.25 8.54
-6 3 9 387.98 8.5
3 -6 9 387.56 8.41
3 3 9 390.2 8.39
3 3 9 392.87 8.44
-6 3 12 221.5 4.83
-2 6 10 96.18 2.52
-4 -2 10 91.78 2.46
-2 6 10 95.15 2.42
6 -4 10 95.33 2.41
6 -4 7 106.41 2.56
6 -4 7 103.11 2.49
6 -4 7 107.1 2.57
-2 6 7 107.37 2.77
-4 -2 7 106.06 2.58
6 -4 4 0.68 0.24
-4 -2 4 0.42 0.54
-2 6 1 141.18 3.24
6 -4 1 150.79 3.39
6 -4 -2 122.61 2.85
-6 4 5 40.72 1.81
2 -6 5 42.56 1.17
-6 4 8 10.06 1.06
-6 4 8 8.49 1.42
2 -6 8 10.34 0.76
4 2 8 8.74 0.74
2 -6 8 10.66 1.09
-6 4 11 38.66 1.34
-6 4 11 36.9 1.2
-1 6 11 42.9 1.32
-1 6 11 42.31 1.27
-5 -1 11 41.76 1.29
6 -5 8 3.5 0.71
-1 6 8 2.62 1.25
-1 6 8 3.19 0.79
-5 -1 8 2.29 0.89
-5 -1 5 84.02 2.58
-1 6 5 79.89 2.74
6 -5 2 354.88 7.42
-1 6 2 331.6 7.44
6 -5 -1 124.25 2.96
5 1 4 16.1 0.53
6 -5 -4 16.54 0.62
-6 5 4 16.32 1.12
1 -6 7 97.48 2.33
1 -6 7 94.39 2.28
5 1 7 92.31 2.3
-6 5 7 89.45 2.46
-6 5 7 93.94 3.49
1 -6 10 36.09 1.38
1 -6 10 34.37 1.18
5 1 10 33.89 1.18
6 -6 9 359.98 7.85
-6 0 9 363.74 7.84
-6 0 9 360.92 7.84
0 6 9 357.43 7.89
-6 0 6 66.81 2.44
0 6 3 664.83 14.08
6 -6 3 653.64 13.83
0 6 0 2144.88 43.96
6 0 0 2200.75 44.16
6 -6 -3 405.64 8.65
6 0 6 75.58 1.82
0 -6 6 74.18 1.87
-6 6 6 71.92 2.86
-6 6 9 307.93 7.13
0 -6 9 308.95 6.8
6 0 9 312.73 6.68
6 0 9 303.63 6.74
-6 6 12 116.8 2.73
-6 7 11 44.73 1.44
-1 -6 11 42.95 1.23
7 -1 8 18.53 0.87
-1 -6 8 19.49 1.07
-6 7 8 18.93 1.3
7 -1 8 18.23 0.8
-1 -6 8 19.24 1.09
7 -1 5 30.85 0.9
-1 -6 5 31.94 0.94
-6 7 5 29.37 1.59
7 -1 2 192.77 4.3
1 6 1 67.93 1.75
7 -1 -1 67.66 1.8
-7 1 4 19.99 1.11
6 -7 4 18.33 0.81
1 6 7 88.93 2.39
-7 1 7 80.83 3.05
6 -7 7 83.04 2.2
-7 1 7 88.21 2.22
6 -7 7 86.78 2.12
6 -7 7 86.33 2.21
-7 1 7 86.05 2.35
-7 1 10 43.09 1.54
1 6 10 42.87 1.36
1 6 10 42.29 1.39
-5 7 12 73.36 1.82
-2 -5 9 0.7 0.76
7 -2 9 0.63 0.56
-2 -5 9 1.11 0.66
-5 7 9 1.96 1.08
-2 -5 6 471.03 9.81
-5 7 6 452.3 11.07
7 -2 6 467.73 9.83
-2 -5 3 1054.04 22.16
5 -7 -3 1071.69 22.28
7 -2 3 1103.39 22.2
7 -2 0 272.72 5.97
7 -2 -3 263.53 5.75
5 -7 6 903.19 18.94
-7 2 6 961.86 20.13
5 -7 9 372.43 7.92
2 5 9 365.68 7.88
-7 2 9 362.06 7.89
5 -7 9 352.01 7.76
-3 -4 10 29.24 1.19
7 -3 10 29.24 1.05
-4 7 10 30.01 1.27
7 -3 7 28.61 0.97
7 -3 7 27.96 0.92
-4 7 7 29.67 1.99
-3 -4 7 28.26 0.98
7 -3 7 29.05 0.99
-3 -4 7 28.4 0.98
-3 -4 4 340.41 6.99
-3 -4 4 345.08 7.4
7 -3 1 410.93 8.78
7 -3 -2 0.19 0.39
-7 3 5 285.81 6.97
-7 3 8 219.02 5
-7 3 8 211.05 6.31
4 -7 8 219.03 5.02
3 4 8 218.69 4.92
4 -7 8 215.75 4.88
-7 3 8 220.54 5.28
4 -7 8 215.6 4.88
-7 3 11 23.37 0.95
-4 -3 11 1.21 0.47
-3 7 11 1.25 0.53
-3 7 11 1.19 0.59
-3 7 8 7.98 0.9
-4 -3 8 7.88 0.76
-3 7 8 7.73 1.23
7 -4 8 8.17 0.74
-4 -3 8 7.54 0.85
7 -4 5 48.17 1.28
-4 -3 5 49.9 1.75
7 -4 2 91.05 2.21
-3 7 2 80.5 2.22
7 -4 -1 24.71 0.94
7 -4 -4 58.7 1.55
-7 4 4 66.27 2.16
-7 4 7 73.63 2.09
3 -7 7 73.22 1.92
-7 4 7 77.97 3.08
4 3 7 73.78 1.89
-7 4 7 73.88 1.94
3 -7 7 74.69 1.98
3 -7 7 74.57 1.95
-7 4 10 3.55 0.74
3 -7 10 3.8 0.51
3 -7 10 4.01 0.79
4 3 10 4.78 0.53
4 3 10 4.03 0.59
7 -5 9 -0.12 0.58
-5 -2 9 -0.36 0.74
-2 7 9 0.52 0.67
-5 -2 6 372.96 8.95
-2 7 6 385.05 9.35
7 -5 6 390.54 8.21
7 -5 3 1041.07 21.72
-2 7 3 1059.85 21.96
7 -5 0 201.11 4.55
7 -5 -3 370.23 7.94
2 -7 6 836.94 17.42
-7 5 6 856.21 18.68
-7 5 9 282.07 6.49
2 -7 9 278.44 6.13
-7 5 9 271.68 6.21
5 2 9 281.91 6.08
5 2 9 269.11 6.09
2 -7 9 281.33 6.23
-7 5 12 2.23 0.55
-6 -1 10 43.47 1.48
-1 7 10 43.16 1.37
-6 -1 10 44.3 1.58
-1 7 10 43.89 1.48
7 -6 7 4.04 0.49
-6 -1 7 3.19 0.48
-6 -1 7 2.21 0.78
-1 7 7 3.16 0.66
-6 -1 4 193.92 4.4
7 -6 4 172.05 4.07
7 -6 1 227.13 4.92
-1 7 1 208.21 4.69
7 -6 -2 1.49 0.47
-7 6 5 114.92 3.52
6 1 5 111.07 2.52
1 -7 5 113.92 2.6
6 1 8 125.71 3.01
6 1 8 129.57 3.04
1 -7 8 128.49 3.17
-7 6 8 127.03 3.15
-7 6 8 124.34 3.41
-7 6 8 130.9 4.72
-7 6 11 27.77 1.12
-7 6 11 24.69 0.96
-7 0 11 4.54 0.59
0 7 11 4.92 0.5
-7 0 11 4.58 0.68
7 -7 8 218.04 4.95
0 7 8 219.33 5.24
0 7 8 218.08 4.93
-7 0 8 213.51 4.92
-7 0 5 481.79 10.79
0 7 2 54.4 1.7
7 -7 2 60.01 1.76
7 0 1 339.98 7.51
7 -7 -1 364.74 7.68
-7 7 4 469.16 9.84
7 0 4 442.17 8.95
7 0 7 67.54 1.74
0 -7 7 67.68 1.84
0 -7 7 73.61 1.84
-7 7 7 68.58 1.96
7 0 7 68.31 1.77
0 -7 7 71.26 1.91
-7 7 7 74.01 3.18
0 -7 10 12.55 0.8
-7 8 12 1.27 0.49
-1 -7 9 185.39 4.33
8 -1 9 177.2 4.11
-7 8 9 178.45 4.34
-1 -7 9 187.98 4.28
-7 8 9 190.51 4.66
8 -1 6 544.1 11.37
-1 -7 6 543.22 11.41
-7 8 6 563.58 12.93
7 -8 -3 118.13 2.98
8 -1 0 558.99 11.82
7 -8 3 1353.36 28.46
1 7 3 1392.36 28.62
-8 1 6 362.45 8.34
7 -8 6 333.18 7.3
7 -8 9 4.32 0.67
-8 1 9 3.41 0.66
-8 1 9 3.74 0.68
1 7 9 3.88 0.68
7 -8 9 3.81 0.42
-8 1 12 90.58 2.12
-2 -6 10 48.88 1.54
-2 -6 10 49.91 1.63
-6 8 7 293.74 6.43
8 -2 7 281.64 6.18
-2 -6 7 293.18 6.32
8 -2 7 286.13 6.22
-6 8 7 301.97 7.94
-2 -6 4 215.84 4.5
6 -8 -4 201.46 4.74
8 -2 4 209.44 4.5
8 -2 1 61.75 1.74
8 -2 -2 1001.82 20.79
-8 2 5 727.9 15.89
6 -8 8 38.38 1.21
-8 2 8 37.83 1.6
2 6 8 37.91 1.4
6 -8 8 38.65 1.29
-8 2 8 39.22 1.35
6 -8 8 38.2 1.37
-8 2 8 38.2 2.19
-8 2 11 41.2 1.32
-8 2 11 44.38 1.42
-3 -5 11 1.29 0.45
-5 8 11 1.18 0.59
-5 8 11 1.22 0.61
8 -3 8 22.4 0.93
-3 -5 8 22.46 1.09
-3 -5 5 24.1 0.75
-5 8 5 24.95 1.51
8 -3 5 24.02 0.79
-3 -5 5 22.7 1.08
-3 -5 2 12.76 0.45
8 -3 2 12.87 0.69
8 -3 -1 260.58 5.77
5 -8 4 252.99 5.74
-8 3 7 29.85 1.09
3 5 7 32.92 1.26
-8 3 7 32.27 1.23
5 -8 7 31.74 1.1
5 -8 7 28.91 1.08
5 -8 7 31.27 1.02
-8 3 7 31.46 1.89
-8 3 10 2.79 0.76
3 5 10 3.29 0.56
3 5 10 3.32 0.55
-8 3 10 3.29 0.67
-4 8 9 260.98 5.96
-4 -4 9 262.13 5.9
-4 -4 9 263.17 5.96
8 -4 9 264.9 5.8
8 -4 6 522.05 10.94
-4 8 6 515.76 12.22
8 -4 3 25.44 0.96
-4 8 3 26.95 1.2
-4 -4 3 27.77 0.94
8 -4 0 643.18 13.55
8 -4 -3 1079.12 22.36
4 -8 6 378 8.13
-8 4 6 389.86 9.26
-8 4 9 0.28 0.66
4 4 9 -0.41 0.52
4 4 9 0.41 0.51
4 -8 9 0.46 0.5
4 -8 9 0.09 0.68
-5 -3 10 22.67 1.18
-5 -3 10 22.54 1.07
-3 8 10 22.94 1.13
8 -5 7 205.46 4.54
-3 8 7 201.26 4.7
-5 -3 7 202.92 4.53
8 -5 7 198.4 4.51
-5 -3 4 133.38 3.25
-5 -3 4 131.45 2.79
8 -5 1 90.12 2.36
8 -5 -2 510.57 10.87
-8 5 5 247.74 6.09
3 -8 5 237.1 5.18
5 3 8 15.58 0.83
5 3 8 14.8 0.7
-8 5 8 16.29 1.2
3 -8 8 14.74 1
3 -8 8 15.77 0.78
3 -8 8 15.69 0.97
-8 5 8 16.16 0.96
-8 5 8 13.26 1.82
-8 5 11 15.09 0.8
-2 8 11 49.32 1.42
-2 8 11 47.98 1.41
-6 -2 11 47.5 1.4
-6 -2 11 49.14 1.47
-6 -2 8 129.62 3.08
-6 -2 8 127.72 3.09
-2 8 8 126.74 3.38
8 -6 8 124.65 3.05
8 -6 8 127.87 3.1
-6 -2 5 46.85 1.77
8 -6 2 74.47 2.06
-2 8 2 73.68 2.02
8 -6 -1 299.19 6.61
6 2 4 103.66 2.27
8 -6 -4 98.6 2.52
2 -8 7 5.93 0.53
-8 6 7 5.21 0.64
2 -8 7 5.5 0.55
-8 6 7 6.36 1.31
6 2 7 5.73 0.47
2 -8 10 60.9 1.71
2 -8 10 64.59 1.86
-8 6 10 61.63 1.83
-7 -1 12 0.33 0.29
8 -7 9 134.39 3.23
-1 8 9 131.5 3.33
-7 -1 9 135.91 3.32
-7 -1 9 137.41 3.25
-7 -1 6 491.48 11.22
8 -7 3 153.68 3.77
-1 8 3 159.83 3.94
-1 8 0 520.22 10.93
8 -7 0 566.98 11.42
8 -7 -3 1135.38 23.56
-8 7 6 300.15 7.62
1 -8 6 289.99 6.31
-8 7 9 6.75 0.84
-8 7 9 8.66 1.15
7 1 9 7.16 0.58
7 1 9 6.73 0.53
1 -8 9 6.55 0.69
-8 7 12 83.56 2.05
0 8 10 3.8 0.67
0 8 10 4.66 0.61
-8 0 10 4.64 0.8
8 -8 7 101.34 2.48
-8 0 7 93.98 3.29
-8 0 7 97.94 2.61
0 8 7 99.58 2.67
-8 0 7 102.54 2.51
-8 0 4 173.1 4.2
0 8 4 168.65 4.38
8 -8 4 161.31 3.99
8 -8 1 44.62 1.64
0 8 1 49.08 1.36
8 -8 -2 69.45 2.03
-8 8 5 225.81 5.78
8 0 5 213.22 4.61
0 -8 5 214.76 4.68
-8 8 8 29.1 2.18
8 0 8 27.9 0.96
-8 8 8 29.84 1.43
-8 8 8 29.43 1.17
0 -8 8 28.85 1.16
0 -8 8 29.59 1.22
-8 8 11 13.98 0.86
-8 9 10 143.05 3.53
-1 -8 10 140.41 3.37
-1 -8 10 148.67 3.47
-8 9 7 63.74 3.46
-8 9 7 61.25 1.94
-1 -8 7 61.94 1.79
-1 -8 7 62.78 1.9
-1 -8 7 64.7 1.69
9 -1 4 80.78 1.81
-1 -8 4 76.6 1.83
9 -1 1 768.1 16.12
1 8 2 790.51 16.41
8 -9 2 761.47 16.5
-9 1 5 4.99 0.79
1 8 8 172.11 3.85
8 -9 8 167.33 3.85
1 8 8 167.63 4.14
-9 1 8 168.81 3.87
-9 1 11 123.9 2.99
-9 1 11 126.66 2.98
-7 9 11 13.2 0.83
-2 -7 11 12 0.61
9 -2 8 44.29 1.32
-7 9 8 49.72 2.8
-2 -7 8 46.7 1.5
-7 9 8 44.04 1.78
-2 -7 8 46.54 1.56
9 -2 5 5.68 0.4
-7 9 5 4.31 0.97
-2 -7 5 5.25 0.38
9 -2 2 80.34 2.15
9 -2 -1 265.44 5.93
7 -9 4 73.83 2.16
7 -9 7 1.99 0.52
2 7 7 1.15 0.6
7 -9 7 2.06 0.36
-9 2 7 0.62 0.81
7 -9 7 1.46 0.47
-9 2 7 0.68 0.54
-9 2 7 1.17 0.5
-9 2 10 22.36 1.09
2 7 10 22.46 0.93
-6 9 12 91.67 2.13
-3 -6 9 203.59 4.61
-3 -6 9 199.23 4.55
9 -3 9 188.32 4.35
-3 -6 6 0.97 0.35
9 -3 6 0.53 0.32
-6 9 6 1.59 0.95
-3 -6 6 1.01 0.39
-3 -6 6 0.85 0.29
9 -3 3 733.14 14.86
-6 9 3 733.63 15.16
9 -3 0 1293.63 26.77
9 -3 -3 307.44 6.77
6 -9 6 23.31 0.89
-9 3 6 23.12 1.52
-9 3 9 215.42 4.83
6 -9 9 203.05 4.67
3 6 9 211.47 4.79
3 6 9 210.37 4.67
6 -9 9 217.1 4.83
-9 3 12 108.76 2.5
-4 -5 10 132.57 3.21
-4 -5 10 125.34 3.14
-5 9 10 131.29 3.27
-5 9 7 44.51 2.86
9 -4 7 43.21 1.28
-4 -5 7 47.43 1.35
-4 -5 7 43.56 1.37
9 -4 7 45.87 1.34
5 -9 -4 165.64 3.88
-4 -5 4 163.41 3.46
9 -4 4 153.93 3.72
-4 -5 4 159.09 3.8
9 -4 1 1312.19 27.17
9 -4 -2 851.12 17.79
-9 4 5 28.03 1.53
-9 4 8 87.81 2.56
-9 4 8 86.49 3.6
-9 4 8 87.93 2.37
5 -9 8 87.91 2.31
5 -9 8 88.14 2.36
4 5 8 89.69 2.35
5 -9 8 89.63 2.32
-9 4 11 100.88 2.5
-9 4 11 100.73 2.55
-4 9 11 24.19 0.99
-5 -4 11 24.09 0.91
-5 -4 11 23.97 0.97
-4 9 11 25.86 1
9 -5 8 1.04 0.58
-5 -4 8 0.76 0.67
-4 9 8 0.39 0.92
-5 -4 5 80.36 2.41
9 -5 5 82.61 1.99
-4 9 2 243.37 5.68
9 -5 2 263.52 5.74
9 -5 -1 226.76 5.17
9 -5 -4 3.88 0.44
4 -9 7 70.44 1.9
-9 5 7 65.95 2.99
-9 5 7 71.71 2.01
5 4 7 67.65 1.8
4 -9 7 70.75 1.85
4 -9 7 69.99 1.91
-9 5 7 71.17 1.88
5 4 10 57.22 1.55
-9 5 10 58.19 1.72
-9 5 10 61.99 1.75
-6 -3 9 192.88 4.51
-3 9 9 190.18 4.51
-3 9 9 190.1 4.78
9 -6 9 191.23 4.34
9 -6 6 23.96 0.89
-6 -3 6 22.46 1.26
-3 9 3 284.43 6.53
9 -6 3 284.69 6.39
9 -6 0 975.44 20.37
9 -6 -3 316.25 6.97
-9 6 6 31.16 1.79
3 -9 6 28.64 1.01
-9 6 9 220.28 5.23
3 -9 9 213.85 4.84
6 3 9 203.12 4.75
-9 6 9 215.18 4.95
3 -9 9 223.33 4.95
6 3 9 218.67 4.78
-7 -2 10 122.28 3.01
-2 9 10 118.09 2.98
-7 -2 10 115.76 2.94
9 -7 7 138.13 3.29
9 -7 7 134.29 3.23
-2 9 7 144.35 3.44
-7 -2 7 140.76 3.27
-2 9 4 3.02 0.78
9 -7 4 2.12 0.46
-7 -2 4 3.04 0.58
-2 9 1 241.08 5.35
9 -7 1 250.4 5.64
9 -7 -2 314.07 6.97
-9 7 5 9.81 1.14
2 -9 5 8.94 0.52
-9 7 8 69.24 1.98
-9 7 8 68.4 2.18
7 2 8 69.79 1.84
2 -9 8 71.81 1.95
-9 7 11 84.39 2.12
-8 -1 11 61.71 1.69
-1 9 11 61.21 1.61
-8 -1 11 60.69 1.67
-8 -1 8 2.11 0.59
9 -8 8 2.06 0.59
-1 9 8 2.08 0.89
-8 -1 5 226.71 5.62
-1 9 5 235.1 5.99
9 -8 2 577.99 12.4
-1 9 2 575.17 12.3
9 -8 -1 93.72 2.59
9 -8 -4 115.18 2.94
8 1 4 116.81 2.55
1 -9 7 290.89 6.41
1 -9 7 292.55 6.47
1 -9 7 296.66 6.39
-9 8 7 293.41 8.17
-9 8 7 288.64 6.5
1 -9 10 92.59 2.34
-9 8 10 94.93 2.49
-9 0 12 44.93 1.14
0 9 9 186.5 4.38
-9 0 9 188.57 4.36
-9 0 6 49.52 2.11
-9 0 6 52.69 1.45
9 -9 3 247.13 5.86
0 9 3 254.2 5.95
9 -9 0 1138.8 23.89
9 -9 -3 475.25 10.34
-9 9 6 0.26 0.93
0 -9 6 1.27 0.37
0 -9 6 0.78 0.42
0 -9 6 1.16 0.42
-9 9 9 130.7 3.51
0 -9 9 122.9 3.07
-9 9 9 125.41 3.19
0 -9 9 124.19 3.12
-9 9 12 56.48 1.48
-9 10 11 41.29 1.36
-9 10 11 42.08 1.31
-9 10 8 16.91 1.17
-1 -9 8 19.38 1.01
-9 10 8 17.92 1.84
-1 -9 8 18.38 0.96
-9 10 5 46.59 2.18
-1 -9 5 44.84 1.23
10 -1 5 44.35 1.18
9 -10 -2 393.33 8.81
10 -1 -1 262.69 5.94
9 -10 4 8.93 0.78
9 -10 7 36.96 1.23
-10 1 7 35.27 1.34
-10 1 7 36.33 1.99
9 -10 7 32.68 1.02
1 9 7 37.97 1.41
-10 1 7 35.67 1.5
-10 1 10 42.68 1.46
1 9 10 43.64 1.36
-8 10 12 39.96 1.12
-2 -8 9 2.09 0.67
-8 10 9 3.41 1.1
-8 10 9 2.37 0.77
-2 -8 9 2.03 0.73
-2 -8 6 329.83 6.88
-8 10 6 343.26 8.46
10 -2 6 322.91 6.86
8 -10 -3 694.37 14.89
10 -2 0 147.49 3.59
8 -10 3 232.52 5.56
-10 2 6 466.29 9.9
8 -10 6 469.25 9.98
-10 2 6 454.67 10.88
8 -10 6 472.66 9.89
-10 2 9 147.5 3.55
-10 2 9 156.72 3.58
2 8 9 148.55 3.6
-10 2 12 0.31 0.33
-3 -7 10 18.5 0.91
-3 -7 10 17.58 0.96
10 -3 7 108.11 2.55
-3 -7 7 101.35 2.77
-7 10 7 109.85 4.22
7 -10 -4 740.33 15.52
-3 -7 4 722.09 15
10 -3 4 733.77 15.03
10 -3 1 752.03 15.88
10 -3 -2 10.42 0.71
-10 3 5 280.94 6.92
-10 3 8 301.97 6.65
7 -10 8 292.75 6.48
7 -10 8 282.42 6.32
3 7 8 286.07 6.38
-10 3 8 293.52 6.45
7 -10 8 304.14 6.45
-10 3 8 270.55 7.74
-10 3 11 36.68 1.26
-10 3 11 37.35 1.22
-6 10 11 2.48 0.62
-6 10 11 2.91 0.62
-4 -6 11 2.79 0.48
-4 -6 8 14.2 0.9
10 -4 8 13.7 0.71
-4 -6 8 14.19 0.93
-4 -6 5 97.79 2.22
10 -4 5 95.82 2.29
10 -4 2 144.79 3.3
-4 -6 2 126.62 2.8
10 -4 -1 5.95 0.64
6 -10 4 83.94 2.45
6 -10 7 109.69 2.72
-10 4 7 104.97 3.91
6 -10 7 111.35 2.7
-10 4 7 107.79 2.79
4 6 7 106.31 2.78
-10 4 7 105.96 2.7
6 -10 7 104.94 2.58
4 6 10 19.5 0.81
-10 4 10 19.19 0.99
-10 4 10 20.01 0.9
-5 -5 9 2.77 0.72
-5 10 9 2.68 0.76
-5 10 9 3.74 1.09
-5 -5 9 3.2 0.79
10 -5 6 389.68 8.09
-5 -5 6 381.77 8.05
-5 -5 6 367.48 8.03
10 -5 3 852.79 17.62
-5 -5 3 816.31 17.35
-5 10 3 868.1 17.83
10 -5 0 265.31 6
10 -5 -3 123.53 3.1
-10 5 6 357.89 8.81
5 -10 6 351.93 7.63
-10 5 6 344.85 7.57
5 -10 6 366.19 7.62
5 5 9 163.28 3.74
5 -10 9 168.31 3.86
5 -10 9 161.2 3.72
5 5 9 152.94 3.66
-10 5 9 167.87 3.86
-10 5 12 6.01 0.55
-6 -4 10 24.87 1.15
-6 -4 10 25.12 1.08
-4 10 10 24.63 1.17
-4 10 7 75.68 2.2
10 -6 7 73.81 1.92
10 -6 7 79.02 2.02
-6 -4 7 74.11 2.03
-6 -4 7 78.93 2.02
-4 10 4 740.49 15.48
-6 -4 4 694.94 14.95
10 -6 4 704.44 14.96
10 -6 1 653.77 13.96
10 -6 -2 9.44 0.7
-10 6 5 337.37 8.23
6 4 8 210.32 4.77
-10 6 8 212.17 4.88
4 -10 8 213.31 4.8
4 -10 8 216.7 4.87
-10 6 8 210.48 5.05
4 -10 8 214.54 4.82
-10 6 8 198.18 6.3
-10 6 11 18.42 0.95
-7 -3 11 0.75 0.55
-3 10 11 0.76 0.51
-7 -3 11 0.17 0.5
-3 10 11 0.59 0.48
10 -7 8 103.04 2.55
10 -7 8 104.9 2.6
-3 10 8 103.4 2.91
-7 -3 8 103.49 2.65
-3 10 5 348.38 8.11
-7 -3 5 319.44 7.56
10 -7 2 223.62 5.06
-3 10 2 207.23 4.93
10 -7 -1 75.28 2.15
10 -7 -4 394.85 8.62
-10 7 7 162.05 4.01
3 -10 7 169.34 3.86
7 3 7 163.87 3.76
3 -10 7 168.42 3.85
-10 7 10 2.72 0.66
-8 -2 9 7.9 0.85
-2 10 9 8.86 1.14
-2 10 9 9.48 0.83
-8 -2 6 110.18 2.64
10 -8 6 110.44 2.7
-8 -2 6 105.82 3.28
-2 10 6 114.47 2.68
-2 10 6 115.67 3.83
-2 10 3 704.41 15.62
10 -8 3 751.48 15.56
10 -8 0 728.21 15.22
-2 10 0 709.33 14.71
10 -8 -3 14.71 0.88
2 -10 6 378.71 8.15
-10 8 6 384.64 9.51
2 -10 6 381.62 8.14
2 -10 6 381.55 8.17
-10 8 9 202.85 4.89
8 2 9 194.24 4.33
2 -10 9 197.01 4.5
-10 8 9 199.34 4.63
-9 -1 10 35.68 1.3
-1 10 10 36.4 1.28
-1 10 10 34.96 1.12
-9 -1 10 35.74 1.33
-9 -1 7 8.51 1.08
10 -9 7 8.67 0.59
10 -9 7 8.82 0.68
-1 10 7 9.49 1.05
-1 10 4 259.69 6.39
10 -9 4 261 6.07
-1 10 1 385.86 8.33
10 -9 1 394.08 8.73
10 -9 -2 30.9 1.29
1 -10 5 104.1 2.47
-10 9 5 104.4 3.46
-10 9 8 178.32 4.16
-10 9 8 169.73 5.75
1 -10 8 179.46 4.15
-10 9 8 178.73 4.43
1 -10 8 178.54 4.19
-10 9 11 27.21 0.99
-10 0 11 7.86 0.66
-10 0 11 9.05 0.68
-10 0 8 224.39 5.07
0 10 8 231.04 5.38
-10 0 5 368.24 8.1
10 -10 5 331.27 7.64
10 -10 2 33.11 1.46
0 10 2 31.84 1.27
10 -10 -1 449.64 10.03
10 0 4 651.83 13.44
10 -10 -4 658.24 14.03
0 -10 7 154.68 3.78
0 -10 7 153.92 3.77
0 -10 7 159.82 3.67
-10 10 7 167.2 3.86
-10 10 7 165.17 5.37
0 -10 10 3.46 0.57
-10 10 10 3.43 0.76
-10 11 12 9.54 0.49
-10 11 9 151.82 3.96
-1 -10 9 144.71 3.5
-10 11 9 143.01 3.58
-1 -10 9 142.48 3.47
-10 11 6 223.14 6.35
-10 11 6 215.13 5.26
11 -1 6 225.98 4.81
-1 -10 6 227.72 4.89
-1 -10 6 212.07 4.93
10 -11 -3 4.84 0.71
11 -1 0 412.22 9.33
10 -11 0 448.72 9.68
10 -11 3 613.18 13.42
1 10 6 104.04 2.58
-11 1 6 104.56 2.52
-11 1 6 104.62 3.34
-11 1 9 16.62 0.94
1 10 9 16.23 0.9
-2 -9 10 74.15 2.01
-9 11 10 79.74 2.2
-9 11 7 359.09 9.53
-9 11 7 363.49 7.82
-2 -9 7 348.82 7.76
9 -11 -4 215.02 5.26
-2 -9 4 217.71 4.72
11 -2 4 223.88 4.71
11 -2 1 33.03 1.3
11 -2 -2 671.38 14.29
-11 2 5 535.42 11.98
9 -11 5 524.52 11.51
9 -11 8 33.8 1.27
2 9 8 33.45 1.15
-11 2 8 31.51 1.17
-11 2 11 51.61 1.47
-11 2 11 50.66 1.48
-3 -8 11 0.7 0.4
-8 11 11 0.53 0.61
-3 -8 8 39.12 1.39
-3 -8 8 39.56 1.42
-8 11 8 40.65 2.61
11 -3 5 157.59 3.45
-3 -8 5 151.94 3.41
11 -3 2 135.19 3.43
11 -3 -1 4.89 0.65
8 -11 4 71.55 2.3
-11 3 7 38.42 2.54
8 -11 7 39.11 1.16
8 -11 7 40.84 1.56
8 -11 7 39.73 1.37
-11 3 7 37.63 1.6
3 8 7 39.51 1.42
-11 3 7 37.17 1.65
-11 3 10 0.07 0.67
3 8 10 0.11 0.43
-4 -7 9 189.75 4.46
-4 -7 9 193.02 4.48
-4 -7 6 379.06 8.24
11 -4 6 391.66 8.2
-7 11 3 12.25 1.04
11 -4 3 12.05 0.78
11 -4 0 687.99 14.64
11 -4 -3 732.84 15.52
-11 4 6 149.5 4.48
7 -11 6 151.08 3.41
-11 4 6 144.64 3.37
-11 4 6 143.15 3.41
7 -11 6 147.56 3.48
4 7 9 2.87 0.53
-11 4 9 3.83 0.65
-11 4 12 52.41 1.3
-5 -6 10 92.88 2.44
-5 -6 10 92.06 2.41
-6 11 10 96.08 2.58
-6 11 7 495.13 10.76
-5 -6 7 498.56 10.7
11 -5 7 504.46 10.58
-6 11 4 328.61 7.59
-5 -6 4 314.67 6.6
11 -5 4 315.88 7.04
11 -5 1 57.69 1.83
11 -5 -2 803.25 16.94
-11 5 5 531.06 11.69
6 -11 5 488.87 10.93
6 -11 8 27.78 1.13
-11 5 8 25.89 1.13
-11 5 8 29.23 1.35
5 6 8 28 1.04
6 -11 8 28.07 1.02
6 -11 8 27.2 1.1
-11 5 11 38.59 1.27
-11 5 11 39.72 1.3
-5 11 11 40.54 1.26
-5 11 11 41.04 1.31
-6 -5 11 41.04 1.21
-6 -5 8 138.32 3.39
-5 11 8 134.83 3.6
11 -6 8 138.36 3.25
-5 11 5 73.81 2.75
-5 11 2 89.42 2.46
11 -6 2 89.49 2.52
11 -6 -1 459.6 10
11 -6 -4 289.82 6.55
5 -11 7 12.89 1.2
-11 6 7 10.95 2.09
6 5 7 12.49 0.62
-11 6 7 11.39 1.38
5 -11 7 12.78 0.75
-11 6 7 12.37 1.28
-11 6 10 31.16 1.15
-11 6 10 30.88 1.13
-7 -4 9 116.62 2.98
-4 11 9 116 3.28
-4 11 9 115.99 3.01
-7 -4 6 365.17 7.74
11 -7 6 357.83 7.8
-4 11 6 362.99 9.13
-7 -4 6 365.91 7.72
11 -7 3 218.15 4.93
-4 11 3 190.18 4.91
11 -7 0 85.81 2.44
11 -7 -3 526 11.35
-11 7 6 320.05 8.12
4 -11 6 311.88 6.68
4 -11 6 304.28 6.73
-11 7 9 8.12 1.06
4 -11 9 8.02 0.65
-11 7 9 7.66 0.79
7 4 9 7.21 0.49
-8 -3 10 46.03 1.51
-8 -3 10 45.91 1.51
-3 11 10 47.66 1.58
-8 -3 7 356.64 7.7
-3 11 7 353.7 7.89
-8 -3 7 359.35 7.69
11 -8 7 351.01 7.72
-8 -3 4 319.11 7.17
-3 11 4 329.26 7.66
11 -8 4 313.42 7.21
-3 11 1 0.3 0.39
11 -8 1 0.29 0.61
11 -8 -2 433.53 9.51
-11 8 5 482.65 11.3
3 -11 8 32.84 1.17
-11 8 8 31.95 1.24
-11 8 8 30.75 1.45
3 -11 8 32.49 1.13
-11 8 8 30.1 2.24
-11 8 11 33.64 1.21
-9 -2 11 71.05 1.84
-2 11 11 70.91 1.81
-9 -2 11 72.21 1.83
11 -9 8 172.16 4.07
-9 -2 8 173.8 4.06
-2 11 8 176.51 4.33
11 -9 5 25.92 1.04
-9 -2 5 25.23 1.25
-2 11 5 27.46 1.58
11 -9 2 440.28 9.46
-2 11 2 410.33 9.27
11 -9 -1 1117.9 23.48
11 -9 -4 277.63 6.35
2 -11 7 10.53 0.91
2 -11 7 11.24 0.89
-11 9 7 9.2 1.67
-11 9 7 9.14 0.97
2 -11 7 10.73 0.66
-11 9 10 130.27 3.17
-10 -1 9 58.47 1.78
-1 11 9 56.46 1.76
-10 -1 6 336.8 7.27
11 -10 6 345.16 7.4
-10 -1 6 329.03 8.13
-1 11 6 341.59 7.33
-1 11 3 268.34 6.57
11 -10 3 292.8 6.65
11 -10 0 91.88 2.73
11 -10 -3 565.81 12.31
-11 10 6 353.7 9.1
1 -11 6 366.23 7.67
1 -11 6 351.28 7.67
1 -11 6 351.44 7.66
-11 10 9 22.79 1.47
-11 10 9 22.48 1.12
1 -11 9 21.71 0.98
-11 10 12 12.27 0.55
-11 0 10 26.28 1.09
0 11 10 27.06 1.03
-11 0 7 220.89 4.94
0 11 7 221.74 5.16
11 -11 4 193.94 4.89
11 -11 -2 365.1 8.36
-11 11 5 373.33 9.12
0 -11 5 379.08 7.89
11 0 5 364.98 7.75
0 -11 8 38.57 1.34
0 -11 8 37.56 1.36
-11 11 8 38.64 1.66
-11 11 8 38.4 2.46
-11 11 11 16.3 0.79
-11 12 10 206.32 4.72
-1 -11 10 204.26 4.57
-11 12 7 79.78 3.73
-11 12 7 83.7 2.43
-1 -11 7 79.43 2.3
-1 -11 7 83.88 2.08
12 -1 4 151.87 3.27
-1 -11 4 151.89 3.34
11 -12 -1 1363.16 28.75
11 -12 2 1111.55 23.66
-12 1 5 30.42 1.53
11 -12 5 29.42 1.29
1 11 8 163.44 4
-12 1 8 159.87 3.72
-12 1 11 152.92 3.44
-12 1 11 152.78 3.48
-10 12 11 14.21 0.8
-10 12 11 13.01 0.84
-10 12 8 87.29 3.79
-10 12 8 84.79 2.56
-2 -10 8 82.32 2.27
-2 -10 8 85.58 2.3
12 -2 5 67.59 1.65
-2 -10 5 66.89 1.68
10 -12 -2 7.26 0.93
12 -2 2 7.88 0.71
12 -2 -1 300.94 6.86
10 -12 4 224.56 5.58
-12 2 7 8.74 1.53
-12 2 7 9.09 0.75
-12 2 7 7.52 1.39
10 -12 7 8.62 0.77
2 10 7 8.35 1
-12 2 10 19.81 0.97
2 10 10 19.55 0.8
-3 -9 9 134.64 3.32
-9 12 9 138.95 3.82
-3 -9 9 135.15 3.33
-9 12 9 138.86 3.44
-3 -9 6 4.79 0.55
-3 -9 6 2.98 0.49
-3 -9 6 2.74 0.35
-9 12 6 3.7 0.85
12 -3 6 3.28 0.39
9 -12 -3 264.33 6.35
12 -3 0 353.42 7.91
9 -12 3 33.1 1.53
3 9 6 73.82 1.99
-12 3 6 74.28 1.97
-12 3 6 73.58 2.84
-12 3 6 75.09 1.93
9 -12 9 166.06 3.96
-12 3 9 166.61 3.86
3 9 9 160.19 3.87
-4 -8 10 243.31 5.34
-4 -8 10 235.48 5.31
12 -4 7 139.98 3.22
-4 -8 7 137.32 3.38
8 -12 -4 61.58 2.06
-8 12 4 62.85 2.32
-4 -8 4 58.77 1.42
12 -4 1 889.39 18.82
12 -4 -2 669.96 14.32
-12 4 5 7.89 1.06
8 -12 5 5.78 0.64
-12 4 8 161.64 3.78
-12 4 8 162.84 3.96
4 8 8 161.4 3.72
8 -12 8 162.82 3.87
-12 4 11 168.45 3.84
-12 4 11 170.36 3.84
-7 12 11 52.75 1.51
-5 -7 11 51.99 1.41
-7 12 11 52.97 1.56
-5 -7 8 51.17 1.65
-7 12 5 0.49 0.87
12 -5 5 0.5 0.32
12 -5 2 66.15 2.04
12 -5 -1 143.08 3.61
7 -12 4 8.25 0.78
-12 5 7 42.9 1.53
7 -12 7 44.11 1.4
-12 5 7 45.38 2.61
7 -12 7 40.96 1.43
-12 5 7 42.57 1.9
-12 5 10 65.17 1.76
-12 5 10 65.94 1.83
-6 -6 9 100.12 2.64
-6 12 9 100.64 2.71
-6 12 9 98.56 2.99
12 -6 6 0.63 0.38
-6 -6 6 0.59 0.42
-6 12 6 1.03 0.92
-6 12 3 396.83 8.9
-6 -6 3 377.23 8.29
12 -6 0 602.9 12.99
12 -6 -3 130.13 3.34
6 -12 6 17.6 0.73
-12 6 6 17.87 0.75
6 -12 6 18.55 0.81
-12 6 6 16.36 1.52
-12 6 6 17.4 0.71
6 -12 6 16.84 0.82
6 6 9 96.81 2.37
-12 6 9 99.41 2.54
-12 6 12 42.44 1.08
-7 -5 10 217.71 4.93
-7 -5 10 217.13 4.95
-5 12 10 224.53 5.11
12 -7 7 113.61 2.78
-7 -5 7 112.56 2.88
-5 12 7 114.46 2.95
-5 12 4 113.24 3.22
12 -7 4 104.08 2.79
-5 12 1 1301.43 26.88
12 -7 -2 948.74 19.99
5 -12 5 0.67 0.48
-12 7 5 1.87 0.94
5 -12 8 222.86 5.06
-12 7 8 227.09 5.29
7 5 8 219.53 4.92
5 -12 8 226.49 5
-12 7 8 225.86 5.1
-12 7 11 187.38 4.23
-4 12 11 58.91 1.64
-8 -4 11 61.28 1.6
-4 12 8 4.37 0.94
-8 -4 8 4.69 0.75
12 -8 8 3.93 0.54
-4 12 5 259.34 6.24
12 -8 5 216.03 5.22
-4 12 2 1088.07 23.37
12 -8 2 1159.84 23.6
12 -8 -1 813.59 15.19
-4 12 -1 688.91 14.41
12 -8 -4 1.3 0.47
4 -12 7 202.07 4.62
4 -12 7 204.83 4.66
-12 8 7 201.23 6.26
-12 8 7 202.86 4.74
-12 8 7 205.82 4.63
-12 8 10 105.6 2.62
-3 12 9 109.16 3.09
-9 -3 9 109.55 2.81
-3 12 9 108.4 2.84
-9 -3 6 58.14 1.55
-3 12 6 61.31 2.68
12 -9 6 57.74 1.66
12 -9 3 40.3 1.61
-3 12 3 42.67 1.67
12 -9 0 456.61 10.13
-3 12 0 455.44 9.53
12 -9 -3 502.92 11
-12 9 6 24.02 1.85
3 -12 6 21.26 0.9
3 -12 6 23.66 0.9
3 -12 6 22.87 0.91
-12 9 9 61.88 1.85
-12 9 9 60.51 2.11
3 -12 9 59.78 1.71
-2 12 10 127.3 3.13
-10 -2 10 127.76 3.08
-10 -2 7 74.31 1.95
-2 12 7 71 2.17
12 -10 7 72.75 2.05
-10 -2 7 74.48 1.94
12 -10 4 67.29 2.2
-10 -2 4 63.77 2.02
-2 12 4 65.25 2.34
-2 12 1 792.06 16.56
12 -10 -2 725.02 15.6
-12 10 5 29.61 1.82
2 -12 8 97.06 2.48
2 -12 8 94.69 2.36
-12 10 8 88.17 3.94
-12 10 8 90.97 2.44
-12 10 8 95.11 2.73
2 -12 8 92.48 2.42
-12 10 11 123.37 2.99
-12 10 11 126.44 2.88
-11 -1 11 42.83 1.22
-11 -1 11 41.24 1.26
-11 -1 8 8.71 0.75
12 -11 8 8.7 0.75
12 -11 5 381.67 8.74
-11 -1 5 403.2 9
12 -11 2 769.99 16.32
-1 12 2 739.82 16
12 -11 -1 99.74 2.97
12 -11 -4 227.56 5.47
1 -12 7 465.89 10.21
1 -12 7 482.28 10.15
1 -12 7 473.54 10.21
-12 11 7 501.51 12.33
-12 11 7 485.09 10.28
-12 11 10 126.97 3.09
-12 0 9 138.27 3.37
0 12 9 139.4 3.37
-12 0 6 71.64 1.83
0 12 6 68.32 1.9
-12 0 6 66.59 2.51
12 -12 3 64 2.27
12 -12 0 524.28 11.82
12 -12 -3 347.22 8.04
0 -12 6 19.47 0.78
-12 12 6 19.49 2.13
-12 12 6 19.95 1.25
0 -12 6 19.73 0.86
0 -12 9 28.41 1.14
-12 12 9 28.14 1.7
-12 12 9 29.19 1.29
-12 13 11 66.15 1.71
-12 13 8 59.67 2.07
-12 13 8 56.76 2.99
-1 -12 8 57.16 1.73
13 -1 5 24.41 0.74
-1 -12 5 23.5 0.87
-12 13 5 25.35 1.31
-1 -12 5 23.47 0.9
-1 -12 5 24.91 0.83
12 -13 -2 489.68 11.13
12 -13 4 3.45 0.75
1 12 7 91.17 2.58
-13 1 7 96.09 2.4
-13 1 10 91.45 2.3
-13 1 10 92.27 2.34
1 12 10 89.34 2.22
-11 13 9 8.09 0.94
-11 13 9 8.77 1.47
-2 -11 9 7.55 0.8
13 -2 6 148.37 3.27
-11 13 6 145.62 3.86
-2 -11 6 140.86 3.4
-2 -11 6 141.25 3.42
-2 -11 6 149.01 3.32
11 -13 -3 188.18 4.89
13 -2 0 12.76 0.92
11 -13 0 13.85 1.2
11 -13 3 123.32 3.61
13 -2 -6 195.09 4.17
2 11 6 178.93 4.28
-13 2 6 193.28 5.29
-13 2 6 184.36 4.19
-13 2 9 47.53 1.52
11 -13 9 49.34 1.57
2 11 9 46.63 1.47
-3 -10 10 26.48 1.02
-10 13 10 27.79 1.24
-3 -10 7 161.25 3.87
13 -3 4 1035.62 21.26
-10 13 4 1081.5 22.48
10 -13 -4 1007.02 22.03
13 -3 1 815.39 17.38
13 -3 -2 1.7 0.54
10 -13 5 484.33 11
-13 3 5 509.59 11.49
3 10 8 429.67 9.17
10 -13 8 432.04 9.39
-13 3 8 427.58 9.17
-13 3 11 42.73 1.32
-13 3 11 43.57 1.29
-9 13 11 17.39 0.89
-4 -9 8 0.79 0.65
-9 13 8 0.19 1.16
-4 -9 5 31.32 0.91
13 -4 5 34.19 1
-9 13 5 32.55 1.89
13 -4 2 124.02 3.31
13 -4 -1 33.36 1.36
9 -13 4 22.06 1.3
9 -13 7 71.98 2.1
4 9 7 71.44 2.09
-13 4 7 70.9 3.1
-13 4 7 71.44 1.95
-13 4 7 69.86 2.11
-13 4 10 25.66 1.05
-5 -8 9 1.95 0.71
13 -5 6 201.91 4.4
-5 -8 6 192.34 4.45
-8 13 6 193.74 4.82
-5 -8 6 195.07 4.45
13 -5 3 382.14 8.61
-8 13 3 382.24 8.78
13 -5 0 21.43 1.12
13 -5 -3 233.96 5.52
-13 5 6 250.4 5.51
5 8 6 240.25 5.52
-13 5 6 261.76 6.91
8 -13 6 254.13 5.44
-13 5 6 250.11 5.47
-13 5 9 65.75 1.8
5 8 9 61.97 1.69
-6 -7 10 32.33 1.16
-6 -7 10 32.78 1.18
-7 13 10 32.23 1.4
-6 -7 7 146.45 3.58
-7 13 7 146.15 3.63
13 -6 7 149.6 3.44
-6 -7 7 145.52 3.55
-7 13 4 1120.48 23.07
13 -6 4 1043.24 22.53
13 -6 -2 60.1 1.93
-13 6 5 660.92 14.38
7 -13 5 603.98 13.67
7 -13 8 406.08 8.74
-13 6 8 400.61 8.84
-13 6 8 383.9 10.37
6 7 8 399.71 8.58
-13 6 8 403.85 8.67
-13 6 11 28.4 1.06
-13 6 11 28.01 1.06
-6 13 11 1.31 0.64
-7 -6 11 1.03 0.49
-6 13 11 1.31 0.5
-7 -6 8 90.15 2.43
-6 13 8 86.24 2.66
-7 -6 8 89.33 2.41
13 -7 8 90.93 2.28
-6 13 5 460.18 10.97
13 -7 2 439.01 9.58
-6 13 2 419.54 9.45
13 -7 -1 29.88 1.3
13 -7 -4 379.98 8.52
-13 7 7 192.95 4.52
6 -13 7 199.84 4.48
6 -13 7 199.39 4.6
-13 7 7 198.33 6.17
-13 7 7 201.85 4.64
-13 7 10 15.27 0.83
-13 7 10 16.6 0.79
-5 13 9 1.21 0.77
-8 -5 9 0.9 0.7
-5 13 9 1.42 1.02
-5 13 6 66.13 2.85
-8 -5 6 63 1.71
13 -8 6 64.95 1.77
13 -8 3 194.65 4.81
-5 13 3 193.07 4.86
-5 13 0 161.23 3.68
13 -8 0 171.25 4.22
13 -8 -3 0.56 0.48
-13 8 6 96.97 3.68
5 -13 6 98.48 2.47
5 -13 6 94.69 2.37
-13 8 9 77.15 2.36
-13 8 9 74.98 2.09
-9 -4 10 18.05 0.89
-4 13 10 18.64 1.03
-4 13 7 106.17 2.84
-9 -4 7 107.17 2.71
13 -9 7 109.34 2.73
13 -9 4 774.73 16.37
-9 -4 4 723.39 16.07
-4 13 1 594.48 12.58
13 -9 -2 18.34 1.07
-13 9 5 464.11 11.11
-13 9 8 324.93 9.4
4 -13 8 346.02 7.45
4 -13 8 341.23 7.42
-13 9 8 340.28 7.5
-13 9 8 343.36 7.69
-13 9 11 33.71 1.19
-10 -3 11 4.24 0.6
-3 13 11 5.59 0.54
13 -10 8 191.81 4.49
-10 -3 8 193.96 4.5
-3 13 8 197.35 4.75
-3 13 5 591 12.12
13 -10 5 477.56 11.13
13 -10 2 337.94 7.81
-3 13 2 334.29 7.57
13 -10 -1 227.21 5.53
13 -10 -4 769.01 16.48
3 -13 7 219.05 5.01
3 -13 7 218.29 4.98
-13 10 7 226.07 5.13
-13 10 7 222.19 6.89
-13 10 10 0.41 0.56
-11 -2 9 25.89 1.16
-2 13 9 26.2 1.17
11 2 -6 27.28 0.96
-2 13 6 25.37 0.95
-11 -2 6 25.65 0.88
-2 13 3 411.74 9.3
13 -11 3 405.38 9.36
13 -11 0 523.79 11.7
13 -11 -3 3.35 0.65
-13 11 6 142.14 4.97
2 -13 6 136.3 3.25
2 -13 6 137.21 3.26
2 -13 6 139.57 3.28
2 -13 9 123.77 3.04
-13 11 9 126.85 3.18
-13 11 9 131.66 3.52
-12 -1 10 21.04 0.98
-12 -1 10 21.59 0.92
-1 13 10 20.84 0.91
-12 -1 7 56.21 1.66
13 -12 7 54.8 1.76
-1 13 7 54.65 1.93
13 -12 4 520.67 11.73
13 -12 -2 16.58 1.14
-13 12 5 369.77 9.1
-13 12 5 367.26 8.1
1 -13 5 357.38 7.73
-13 12 8 285.44 6.29
-13 12 8 292.24 6.59
1 -13 8 280.99 6.26
-13 12 11 30.49 0.98
-13 0 11 20.36 0.76
-13 0 8 279.29 6.27
0 13 8 294.38 6.52
13 -13 5 308.33 7.72
-13 0 5 325.45 7.91
13 -13 2 6.6 0.96
13 -13 -1 1090.9 23.38
13 -13 -4 1092.14 23.3
-13 13 7 176.77 5.86
0 -13 7 176.62 4
-13 13 10 17.2 0.89
-13 14 9 40.9 1.89
-13 14 9 37.84 1.41
-1 -13 9 37.27 1.29
-1 -13 6 10.43 0.56
-1 -13 6 10.35 0.98
-13 14 6 9.36 1.94
13 -14 -3 38.33 1.77
13 -14 0 281.09 7.1
13 -14 3 261.31 6.6
1 13 6 37.3 1.23
-14 1 6 36.91 1.87
14 -1 -6 37.04 1.15
-14 1 6 40.14 1.14
-14 1 9 9.6 0.81
1 13 9 11.23 0.78
-12 14 10 142.44 3.89
-12 14 10 151.47 3.54
-2 -12 7 737.85 15.48
12 -14 -4 506.87 11.58
-12 14 4 524.83 11.96
12 -14 -1 48.13 2.08
12 -14 2 1109.56 23.83
-14 2 5 782.91 17.43
14 -2 -5 803.71 16.36
12 -14 5 748.73 17.13
-14 2 8 60.75 1.68
-14 2 8 59.06 1.64
-14 2 11 50.42 1.32
-11 14 11 0.86 0.58
-11 14 11 0.23 0.64
-3 -11 8 18.37 0.96
-11 14 8 15.58 1.75
-11 14 8 17.04 1.27
-11 14 5 77.4 3.03
-3 -11 5 73.41 1.87
-11 14 5 75 2.35
-3 -11 5 70.52 1.76
14 -3 5 73.37 1.78
-3 -11 5 73.12 1.91
11 -14 -2 16.73 1.28
14 -3 2 17.55 1.07
14 -3 -1 40.36 1.58
11 -14 4 159.36 4.41
-14 3 7 68.2 1.91
-14 3 7 68.19 2.02
3 11 7 68.86 2.01
11 -14 7 75.43 2.17
-14 3 7 65.63 2.9
-14 3 10 1.22 0.6
-10 14 9 90.34 2.53
-4 -10 6 164.31 3.94
-4 -10 6 167.2 3.91
14 -4 6 173.96 3.82
14 -4 3 21.39 1.12
10 -14 -3 24.37 1.39
14 -4 0 117.82 3.27
10 -14 3 222.7 5.68
4 10 6 46.57 1.41
-14 4 6 45.82 2.34
14 -4 -6 45.32 1.29
-14 4 6 47.38 1.42
-14 4 6 46.64 1.34
10 -14 9 4.75 0.64
-14 4 9 4.92 0.7
-14 4 9 4.13 0.59
4 10 9 5.18 0.53
-5 -9 10 138.67 3.25
-5 -9 7 701.35 14.81
14 -5 7 713.33 14.69
-5 -9 7 693.86 14.81
9 -14 -4 435.81 10.39
-9 14 4 480.14 10.7
14 -5 -2 1209.23 25.38
9 -14 5 721.13 15.76
9 -14 8 26.05 1.14
-14 5 8 23.93 1.19
-14 5 8 23.72 1
5 9 8 23.29 0.91
-14 5 11 69.67 1.8
-14 5 11 69.4 1.82
-8 14 11 14.33 0.87
-8 14 11 14.16 0.77
-6 -8 8 97.14 2.54
-6 -8 8 95.16 2.55
-8 14 8 97.14 2.83
-6 -8 5 68.53 1.76
-8 14 5 64.72 2.08
14 -6 5 64.92 1.71
-8 14 5 68.22 2.76
14 -6 2 43.93 1.71
14 -6 -1 246 5.84
14 -6 -4 149.17 3.85
8 -14 4 148.12 4.14
8 -14 7 11.3 0.83
-14 6 7 11.31 1.65
-14 6 7 10.47 1
-14 6 7 12.27 0.95
-14 6 10 11.04 0.74
-7 14 9 45.22 1.66
-7 -7 9 43.57 1.49
-7 14 9 44.16 1.96
14 -7 6 80.29 2.1
-7 14 6 84.57 3.46
-7 -7 6 83.87 2.14
14 -7 3 1.84 0.6
-7 14 3 0.8 0.72
14 -7 0 229.46 5.55
14 -7 -3 211.32 5.13
-14 7 6 52.96 1.49
-14 7 6 56.56 2.8
-14 7 6 55.89 1.52
7 -14 6 56.01 1.52
-14 7 9 2.19 0.63
-8 -6 10 107.06 2.6
-6 14 10 106.11 2.83
-8 -6 7 558.85 11.61
-6 14 7 537.32 11.66
14 -8 7 533.07 11.53
14 -8 4 299.67 7.09
-6 14 4 311.78 7.55
-6 14 1 105.59 2.71
14 -8 -2 1066.83 22.51
-14 8 5 722.79 16
6 -14 5 711.02 14.51
6 -14 8 27.93 1.09
-14 8 8 27.5 1.29
-14 8 8 26.34 2.19
-14 8 8 26.76 1.13
-14 8 11 61.93 1.7
-5 14 11 71.86 1.86
-9 -5 11 71.17 1.79
14 -9 8 218.94 5
-9 -5 8 225.05 5.07
-9 -5 8 223.06 5.09
-5 14 8 219.28 5.32
-5 14 5 70.55 2.73
-5 14 5 65.95 2.01
14 -9 5 64.92 2.04
-5 14 2 368.1 8.4
14 -9 2 389.11 8.7
-5 14 -1 1014.88 21.26
14 -9 -1 1261.22 22.25
14 -9 -4 440.75 9.85
-14 9 7 0.73 1.65
-14 9 7 1.39 0.91
5 -14 7 1.34 0.69
-14 9 7 0.84 0.76
5 -14 7 1.8 0.52
-14 9 10 63.1 1.7
-4 14 9 13 1.03
-10 -4 9 12.48 0.91
-10 -4 9 14.09 1
-4 14 9 13.88 1.25
14 -10 6 107.92 2.72
-10 -4 6 107.06 2.61
10 4 -6 109.21 2.67
14 -10 3 122.05 3.48
-4 14 3 122.45 3.46
-4 14 0 0.07 0.26
14 -10 0 0.38 0.71
14 -10 -3 72.44 2.33
-14 10 6 122.34 4.71
4 -14 6 119.31 2.96
4 -14 6 124.72 2.93
-14 10 9 11.23 1.2
-14 10 9 11.4 0.87
-11 -3 10 54.11 1.59
-11 -3 10 51.78 1.5
-3 14 10 54.08 1.63
14 -11 7 301.66 6.63
-11 -3 7 292.79 6.52
-3 14 7 298.05 6.67
-3 14 4 125.9 3.65
14 -11 4 127.68 3.49
-3 14 1 144.17 3.45
14 -11 -2 718.58 15.6
-14 11 5 430.25 10.53
-14 11 5 431.03 9.43
-14 11 8 21.92 1.01
-14 11 8 20.85 2.02
3 -14 8 21.95 0.87
-14 11 8 19.45 1.24
3 -14 8 20.71 0.96
-14 11 11 32.09 1.12
14 -12 8 140.43 3.4
-12 -2 8 134.68 3.31
-2 14 8 135.9 3.54
14 -12 5 1.54 0.47
12 2 -5 0.58 0.3
14 -12 2 776.53 16.73
-2 14 2 756.2 16.31
14 -12 -1 1174.68 25
14 -12 -4 147.54 3.98
-14 12 7 57.05 3.11
2 -14 7 62.2 1.73
2 -14 7 59.4 1.78
-14 12 10 155.22 3.59
14 -13 9 19.46 0.92
-13 -1 9 18.67 0.98
-1 14 9 20.47 1
-1 14 6 199.93 4.53
14 -13 3 257.74 6.45
14 -13 0 8.67 1.12
14 -13 -3 115.55 3.39
-14 13 6 156.11 4.54
-14 13 6 163.16 5.32
1 -14 6 162.33 3.72
-14 13 9 30.39 1.65
-14 13 9 31.98 1.26
-14 0 10 22.44 0.94
-14 0 10 21.74 0.86
0 14 7 188.28 4.46
14 -14 7 188.24 4.57
-14 0 7 188.03 4.24
14 0 -7 189.89 4.35
14 -14 4 184.15 5.02
14 -14 -2 514.41 11.75
0 -14 5 385 8.14
14 -14 -5 381.9 8.15
-14 14 5 389.48 8.66
0 -14 5 376.18 8.19
-14 14 8 30.04 1.51
0 -14 8 28.05 1.14
-14 14 11 14.24 0.57
-14 15 10 243.61 5.76
-14 15 10 247.12 5.42
-14 15 4 117.7 3.23
14 -15 -4 114.75 2.74
14 -15 -4 118.13 3.53
-1 -14 4 119.76 2.79
14 -15 -1 1258.38 27.02
14 -15 2 912.64 19.94
-15 1 5 9.12 0.96
15 -1 -5 8.46 0.51
14 -15 5 9.59 0.93
-15 1 8 199.71 4.52
-15 1 11 172.79 3.75
-13 15 11 8.77 0.59
-13 15 11 8.51 0.52
-13 15 8 70.98 2.4
13 -15 -5 67 1.75
-13 15 5 69.33 2.86
-2 -13 5 65.48 1.78
-13 15 5 64.2 2.29
13 -15 -2 12.95 1.23
13 -15 4 176.34 4.87
2 13 7 6.98 0.73
-15 2 7 6.37 0.52
-15 2 10 16.77 0.78
-15 2 10 17.78 0.86
-12 15 9 13.56 1.46
-12 15 9 12.32 0.95
-12 15 6 7.22 1.46
-3 -12 6 7.03 0.87
-12 15 6 5.82 1.56
-3 -12 6 6.88 1.2
15 -3 6 7.44 0.43
12 -15 -3 138.5 4.08
12 -15 0 189.81 5.14
15 -3 0 182.74 4.74
12 -15 3 19.14 1.36
-15 3 6 24.82 2.04
15 -3 -6 26.49 0.96
-15 3 6 25.64 0.91
12 -15 9 52.59 1.66
-15 3 9 52.07 1.57
3 12 9 51.11 1.48
-11 15 10 340.66 7.39
-4 -11 10 333.91 7.2
-11 15 7 139.93 5.05
-4 -11 7 152.41 3.53
-4 -11 7 144.19 3.54
15 -4 4 241.38 5.24
11 -15 -4 238.37 6.16
15 -4 1 1818.16 37.86
15 -4 -2 1200.22 25.3
15 -4 -5 16.08 0.69
11 -15 5 15.66 1.08
4 11 8 222.86 5.04
11 -15 8 226.37 5.32
-15 4 8 232.55 5.05
-15 4 11 216.04 4.64
-10 15 11 24.7 0.93
-5 -10 8 22.98 1.04
-5 -10 8 21.42 1.06
-5 -10 5 3.12 0.49
-5 -10 5 3.3 0.44
-10 15 5 3.21 0.98
15 -5 5 3.17 0.37
15 -5 2 46.6 1.78
15 -5 -1 55.38 1.95
10 -15 4 9.82 1.01
-15 5 7 8.74 1.64
10 -15 7 7.14 0.81
-15 5 7 6.33 0.64
-15 5 7 7.46 0.98
-15 5 10 21.2 0.91
-6 -9 9 38.51 1.34
-9 15 9 35.26 1.83
15 -6 6 1.52 0.39
-6 -9 6 0.42 1.18
-6 -9 6 0.44 0.56
-9 15 6 1.41 1.88
-9 15 6 1.75 1.58
15 -6 3 142.51 3.88
-9 15 3 146.88 4.02
15 -6 0 350.71 8.08
15 -6 -3 109.83 3.08
15 -6 -6 7.09 0.48
-15 6 6 7.35 2
-15 6 6 5.68 0.54
-15 6 6 7 0.53
9 -15 9 43.21 1.44
-15 6 9 46.47 1.39
-8 15 10 275.69 6.23
-8 15 7 136.17 4.81
15 -7 7 131.54 3.16
-8 15 7 138.22 3.35
-7 -8 7 129.25 3.27
-7 -8 7 136.61 3.27
-8 15 4 197.12 5.26
15 -7 4 192.21 4.86
15 -7 -2 1202.1 25.33
8 -15 5 14.32 1.08
15 -7 -5 16.94 0.71
8 -15 8 218.52 5.05
-15 7 8 223.16 4.95
-15 7 8 216.83 5.1
-15 7 11 192.65 4.24
-15 7 11 193.85 4.27
-7 15 11 25.76 0.99
-8 -7 11 25.65 0.86
-8 -7 8 0.36 0.68
-7 15 8 1.16 0.93
-8 -7 8 0.66 0.63
15 -8 8 0.12 0.37
-7 15 5 228.98 6.2
-7 15 5 221.35 5.29
15 -8 2 658.09 14.21
-7 15 2 644.45 14
15 -8 -1 305.03 7.14
15 -8 -4 2.73 0.57
-15 8 7 96.94 4.05
-15 8 7 94.2 2.56
7 -15 7 99.07 2.57
-15 8 7 95.02 2.46
-15 8 10 52.54 1.49
-15 8 10 53.5 1.45
-9 -6 9 42.19 1.45
-6 15 9 45.37 1.86
-9 -6 9 45.42 1.53
-6 15 6 12.89 1.92
15 -9 6 10.89 0.69
-9 -6 6 11.82 0.72
15 -9 3 4.8 0.74
-6 15 3 4.82 0.74
15 -9 0 4.34 0.83
-6 15 0 5.64 0.45
15 -9 -3 10.4 0.85
15 -9 -6 2.69 0.39
-15 9 6 2.63 1.95
6 -15 6 2.46 0.56
-15 9 9 25.59 1.35
-15 9 9 28.6 1.12
-10 -5 10 186.95 4.15
-10 -5 10 188.42 4.2
-5 15 10 179.2 4.34
-10 -5 7 88.68 2.35
-5 15 7 90.09 2.45
15 -10 7 87.79 2.33
-5 15 4 86.13 2.86
15 -10 4 78.36 2.58
-5 15 1 737.42 15.55
15 -10 -2 558.07 12.37
-15 10 5 5.87 0.72
5 -15 5 5.74 0.51
-15 10 8 137.47 3.46
5 -15 8 134.14 3.22
-15 10 8 134.67 3.28
-15 10 11 132.56 3.03
-4 15 11 44.9 1.2
-11 -4 8 1.52 0.7
-11 -4 8 0.65 0.64
15 -11 8 1.34 0.5
-4 15 8 2.1 0.88
-4 15 5 304.73 7.6
-4 15 5 294.34 6.59
11 4 -5 296.83 6.36
15 -11 2 709.89 15.3
-4 15 2 683.14 14.89
15 -11 -1 216.08 5.52
15 -11 -4 62.41 2.13
4 -15 7 230.7 5.23
-15 11 7 224.65 7.07
-15 11 7 238.65 5.31
4 -15 7 231.2 5.21
-15 11 10 67.63 1.77
-3 15 9 60.68 2.01
-3 15 9 63.27 1.85
-12 -3 9 59.54 1.75
-12 -3 9 58.78 1.8
-12 -3 6 102.55 2.58
12 3 -6 105.22 2.7
-3 15 6 110.13 2.65
-3 15 3 6.81 0.83
15 -12 3 8.45 0.88
15 -12 0 116.29 3.51
15 -12 -3 276.03 6.67
-15 12 6 45.38 2.65
3 -15 6 41.9 1.47
3 -15 6 43.6 1.35
-15 12 9 12.51 0.85
-15 12 9 12.48 1.18
-13 -2 10 96.23 2.29
-13 -2 10 97.47 2.38
-2 15 10 93.83 2.36
13 2 -7 47.65 1.52
-13 -2 7 46.79 1.47
-2 15 7 49.18 1.64
15 -13 7 48.77 1.64
15 -13 4 82.77 2.81
15 -13 -2 423.73 9.83
-15 13 5 4.04 0.86
-15 13 5 3.55 1.18
2 -15 5 4.13 0.45
2 -15 5 3.97 0.49
-15 13 8 102.83 2.86
-15 13 8 99.47 2.58
-15 13 11 97.37 2.29
-14 -1 11 57.08 1.41
-14 -1 8 12.45 0.82
-1 15 8 13.81 0.99
15 -14 8 12.27 0.86
14 1 -5 500.63 10.41
15 -14 5 473.64 11.17
15 -14 2 835.21 18.37
15 -14 -1 48.69 2.12
1 -15 4 281.89 6
15 -14 -4 271.35 5.94
-15 14 4 282.41 6.38
15 -14 -4 260.68 6.72
-15 14 7 346.99 9.75
1 -15 7 365.02 7.79
-15 14 10 61.85 1.67
-15 0 9 52.07 1.56
15 -15 9 57.58 1.68
-15 0 9 57.14 1.66
0 15 9 54.07 1.59
-15 0 6 78.37 1.98
15 0 -6 76.1 1.96
15 -15 3 3.77 0.84
15 -15 0 77.94 2.89
15 -15 -3 159.36 4.51
-15 15 6 57.4 2.63
0 -15 6 59 1.8
0 -15 6 59.39 1.59
-15 15 9 -0.03 1.06
-15 15 9 0.51 0.63
-15 16 8 37.39 1.72
-1 -15 5 6.59 0.94
-15 16 5 6.46 1.66
-15 16 5 5.96 2.03
15 -16 -5 5.65 0.58
15 -16 -2 314.21 7.88
15 -16 4 38.5 1.88
16 -1 -4 37.61 1.12
-16 1 7 40.12 1.25
16 -1 -7 41.88 1.35
1 15 7 40.45 1.4
-16 1 10 68 1.7
-16 1 10 72.79 1.83
-14 16 9 16.87 1.44
-14 16 9 18.09 0.97
-14 16 6 51.48 2.44
-14 16 6 56.48 2.92
-2 -14 6 50.92 1.64
14 -16 -3 13.19 1.15
14 -16 0 44.68 2.19
14 -16 3 140.24 4.18
16 -2 -6 83.58 2.14
-16 2 9 7.65 0.67
-13 16 10 34.03 1.61
-13 16 10 40.05 1.29
-13 16 7 184.91 5.86
-3 -13 7 178.85 4.18
-3 -13 4 1176.21 23.62
13 -16 -4 1117.98 24.6
-13 16 4 1074.31 24.08
-13 16 4 1226.97 24.96
13 -16 -4 1136.7 23.58
13 -16 -1 901.15 19.84
13 -16 2 4.24 0.96
16 -3 -5 578.44 12.04
13 -16 5 573.57 13.07
-16 3 5 559.66 13.25
13 -16 8 434.51 9.76
-16 3 8 450.09 9.44
-16 3 11 43.27 1.16
-12 16 11 5.75 0.51
-12 16 11 5.25 0.48
-4 -12 8 0.65 0.63
-12 16 5 21.93 1.67
-4 -12 5 19.63 0.85
16 -4 5 19.9 0.69
12 -16 -5 20.39 0.81
12 -16 -2 57.33 2.38
16 -4 -1 28.13 1.37
16 -4 -4 1.26 0.33
12 -16 4 2.21 0.74
16 -4 -7 29.55 0.97
-16 4 7 27.73 0.98
12 -16 7 27.78 1.34
-16 4 10 17.25 0.78
-11 16 9 0.23 0.75
-11 16 6 70.22 3.21
-5 -11 6 63.87 1.89
-5 -11 6 65.09 1.97
16 -5 6 67.13 1.71
-11 16 3 201.62 5.24
11 -16 -3 193.84 5.37
16 -5 0 78.51 2.54
11 -16 3 20.03 1.34
-16 5 6 66.87 3.04
16 -5 -6 65.02 1.84
-16 5 6 62.44 1.71
-16 5 9 16.01 0.82
11 -16 9 14.66 0.85
-6 -10 7 234.11 5.28
-6 -10 7 233.04 5.33
-10 16 7 224.96 6.91
16 -6 7 239.52 5.19
10 -16 -4 1431.2 31.51
-10 16 4 1548.5 31.77
16 -6 -2 6.38 0.78
10 -16 5 736.05 17.03
16 -6 -5 789.02 16.15
-16 6 8 522.74 11.34
-16 6 8 529.08 11.17
10 -16 8 537.51 11.42
-16 6 11 41.8 1.12
-9 16 11 0.07 0.46
-9 16 11 0.47 0.41
-7 -9 8 29.09 1.21
-7 -9 8 28.53 1.13
-9 16 8 27.67 1.5
7 9 -5 110 2.67
16 -7 5 111.27 2.64
-7 -9 5 111.49 2.64
-7 -9 5 108.43 2.68
-9 16 5 107.55 3.08
-9 16 2 78.51 2.47
16 -7 2 85.3 2.64
16 -7 -1 0.32 0.59
9 -16 4 31.99 1.66
-16 7 7 23.39 2.03
-16 7 7 24.69 1.12
-16 7 7 24.09 0.97
9 -16 7 25.44 1.18
-16 7 10 1.12 0.52
-8 -8 9 0.27 0.6
-8 -8 9 0.55 0.66
-8 16 9 1.79 1.06
-8 -8 6 29.64 1.28
-8 -8 6 29.47 1.36
-8 16 6 26.77 1.79
-8 16 6 28.41 2.11
16 -8 6 28.69 1.02
-8 16 3 90.12 2.83
16 -8 3 84.11 2.74
16 -8 0 33.68 1.55
16 -8 -3 24.95 1.25
-16 8 6 68.33 3.28
16 -8 -6 73.63 1.89
-16 8 6 68.36 1.9
-16 8 6 65.27 1.84
-16 8 9 25.52 1
-9 -7 10 30.79 1.06
-7 16 10 29.05 1.27
-9 -7 7 132.55 3.29
-7 16 7 129.26 3.32
-9 -7 7 139.89 3.26
16 -9 7 132.38 3.2
16 -9 4 947.31 20.78
-7 16 4 1006.55 21.26
-7 16 1 793.82 16.73
16 -9 -2 10.33 0.9
7 -16 5 298.71 7.6
-16 9 5 318.87 6.96
7 -16 8 339.96 7.46
-16 9 8 333.2 7.56
-16 9 8 344.7 7.41
-16 9 11 31.15 0.97
-16 9 11 29.14 0.95
-6 16 11 3.9 0.47
-6 16 8 110.55 3.06
-10 -6 8 109.72 2.78
16 -10 8 112.97 2.75
-10 -6 8 110.38 2.84
10 6 -5 200.93 4.57
-6 16 5 219.59 5.8
-6 16 5 210.31 4.87
16 -10 2 41.26 1.78
-6 16 2 36.99 1.49
16 -10 -1 183.21 4.76
16 -10 -4 357.08 8.27
-16 10 7 101.12 4.29
-16 10 7 106.21 2.75
-16 10 7 109.37 2.69
6 -16 7 107.72 2.75
-16 10 10 0.51 0.42
-11 -5 9 14.23 0.91
-5 16 9 15.81 1.17
-11 -5 9 15.54 0.83
11 5 -6 0.53 0.91
-11 -5 6 1.26 0.95
16 -11 6 -0.02 0.48
-5 16 3 51.36 1.98
16 -11 3 55.15 2.09
16 -11 0 146.08 4.09
16 -11 -3 11.41 0.92
5 -16 6 18.81 0.89
-16 11 6 19.3 1.91
16 -11 -6 20.69 1.01
-16 11 9 39.87 1.58
-16 11 9 39.65 1.32
-12 -4 10 19.48 0.86
-4 16 10 17.97 0.92
-4 16 7 72.15 2.1
16 -12 7 73.63 2.07
-12 -4 7 71.89 1.99
16 -12 4 520.24 11
-4 16 4 508.46 11.09
12 4 -4 501.94 10.06
-4 16 1 257.82 5.77
16 -12 -2 17 1.18
-16 12 5 264.77 7.32
-16 12 5 267.77 6.15
4 -16 8 208.06 4.67
-16 12 8 207.66 4.96
-16 12 8 207.76 4.77
-16 12 11 17.43 0.7
-13 -3 11 14.17 0.57
16 -13 8 224.81 5.08
-13 -3 8 225.87 5.06
-3 16 8 222.17 5.22
-13 -3 8 213.18 4.96
13 3 -5 313.01 6.64
-3 16 5 308.33 6.83
16 -13 2 20.46 1.37
16 -13 -1 286 7.07
-16 13 4 370.43 8.13
16 -13 -4 356.94 8.58
16 -13 -4 367.62 7.79
3 -16 7 50.31 1.49
-16 13 7 52.19 1.63
-16 13 10 16.53 0.73
-14 -2 9 52.1 1.6
-2 16 9 52.85 1.59
-14 -2 9 52.22 1.51
16 -14 9 53.7 1.56
-2 16 6 6.11 0.65
14 2 -6 5.91 0.72
16 -14 3 123.64 3.85
16 -14 0 431.78 10.24
16 -14 -3 113.91 3.52
-16 14 6 5.51 1.73
-16 14 6 5.97 1.82
2 -16 6 7.24 0.55
-16 14 9 52.87 1.94
-16 14 9 53.69 1.61
-15 -1 10 11.05 0.55
-15 -1 10 10.94 0.67
16 -15 7 60.53 1.93
15 1 -7 60.06 1.77
-15 -1 7 57.45 1.66
-1 16 7 59.62 1.83
15 1 -4 379.44 8.07
16 -15 4 381.71 9.19
16 -15 -2 0.46 0.69
1 -16 5 146.63 3.42
-16 15 5 147.61 4.1
1 -16 5 153.31 3.6
-16 15 8 135.81 3.28
-16 15 8 136.61 3.61
-16 15 11 9.6 0.55
-16 0 11 24.31 0.7
16 -16 8 395.04 8.68
-16 0 8 392.26 8.41
16 0 -5 598.82 12.58
16 -16 2 25.99 1.64
16 -16 -1 460.13 10.94
16 -16 -4 546.26 11.52
-16 16 4 557.94 12.05
16 -16 -4 544.92 12.54
0 16 -7 90.93 2.41
-16 16 10 19.69 0.79
-16 17 9 27.43 1.47
-16 17 9 27.08 1.06
-16 17 6 0.08 1.05
-1 -16 6 0.51 0.57
-16 17 6 -0.15 1.25
16 -17 -3 97.63 2.4
16 -17 -3 105.23 3.47
-16 17 3 100.24 2.82
16 -17 -3 100.8 2.42
16 -17 0 142.88 4.45
16 -17 3 13.36 1.24
17 -1 -3 13.33 0.6
17 -1 -6 17.41 0.78
-17 1 9 28.06 1.05
-17 1 9 26.04 0.92
-15 17 10 104.54 2.8
-15 17 10 101.45 2.47
-15 17 7 458.71 11.83
-2 -15 7 468.5 9.98
-15 17 4 314.77 7.9
15 -17 -4 310.47 6.65
-2 -15 4 316.35 6.67
-15 17 4 297.14 7.19
15 -17 -4 319.67 7.73
2 15 -4 296.28 6.64
15 -17 -1 77.29 2.97
15 -17 2 1077.86 23.48
-17 2 5 616.63 14.11
17 -2 -5 635.51 13
15 -17 5 607.94 12.89
-17 2 8 29.7 1.09
17 -2 -8 31.58 1.12
-17 2 11 49.19 1.19
-14 17 11 2.32 0.39
-14 17 11 2.37 0.34
-14 17 8 1.66 1.13
3 14 -8 1.22 0.62
-3 -14 8 0.42 0.65
-3 -14 5 46.58 1.7
-14 17 5 46.88 2.61
14 -17 -5 47.65 1.41
14 -17 -2 113.59 3.78
17 -3 -4 84.59 2.09
14 -17 4 83.55 3.01
14 -17 7 78.23 2.41
-17 3 10 17.28 0.68
-17 3 10 17.47 0.81
-13 17 9 11.9 1.39
-13 17 9 15.39 0.94
-4 -13 6 13.93 0.87
-13 17 6 14.18 1.82
-13 17 6 12.3 1.65
13 -17 -3 9.43 1.1
17 -4 0 126.45 3.63
13 -17 0 127.84 4.04
13 -17 3 96.8 3.3
-17 4 6 1.78 0.99
17 -4 -6 1.55 0.56
-17 4 9 12.42 0.72
13 -17 9 11 0.78
-12 17 10 123.77 3.02
-5 -12 7 662.28 14.06
-12 17 7 690.99 16.07
12 -17 -4 414.43 8.76
-12 17 4 421.62 9.97
5 12 -4 410.89 8.75
12 -17 -4 411.84 9.84
-5 -12 4 409.88 8.77
17 -5 1 142.51 3.95
17 -5 -2 1506.55 32.05
12 -17 2 1554.62 32.46
12 -17 5 841.02 20.07
17 -5 -5 950.19 19.15
17 -5 -8 51.19 1.48
12 -17 8 51.4 1.73
-17 5 8 47.77 1.38
-17 5 11 56.76 1.38
-17 5 11 67.74 1.51
-11 17 11 5.4 0.43
-6 -11 8 32.61 1.25
11 -17 -5 51.99 1.48
-11 17 5 51.99 2.55
-11 17 5 52.72 2.02
6 11 -5 52.74 1.47
-6 -11 5 52.96 1.54
17 -6 5 53.44 1.43
17 -6 2 33.5 1.57
17 -6 -1 2.61 0.71
11 -17 4 6.76 0.96
17 -6 -4 7.36 0.51
11 -17 7 2.9 0.76
-17 6 7 1.58 1.09
-17 6 7 2.75 0.49
-17 6 7 2.06 0.63
17 -6 -7 2.93 0.43
-17 6 10 0.06 0.48
-10 17 9 16.07 1.36
-7 -10 9 17.68 0.91
-7 -10 6 61.53 1.78
-10 17 6 63.11 3.03
-7 -10 6 59.67 1.89
-10 17 6 58.93 2.7
17 -7 6 64.87 1.68
17 -7 3 37.13 1.64
-10 17 3 36.56 1.71
17 -7 0 17.31 1.15
17 -7 -3 95.6 2.86
-17 7 6 33.73 2.33
17 -7 -6 36.57 1.18
-17 7 6 35.12 1.53
-17 7 6 31.97 1.37
10 -17 9 0.18 0.46
-17 7 9 0.01 0.42
-8 -9 10 149.26 3.4
-8 -9 7 707.1 14.68
-8 -9 7 699.1 14.74
-9 17 7 731.88 16.75
17 -8 7 687.2 14.62
-9 17 4 560.15 12.53
17 -8 4 550.55 12.16
-9 17 4 534.5 11.77
8 9 -4 539.17 11.42
9 -17 -4 537.9 12.47
-9 17 1 10.28 0.76
17 -8 -2 911.31 19.56
17 -8 -5 897 18.09
9 -17 5 788.13 19
9 -17 8 54.72 1.73
-17 8 8 55.17 1.78
-17 8 8 56.89 1.6
-17 8 11 56.78 1.39
-8 17 11 12.07 0.57
-9 -8 8 16.97 0.97
-9 -8 8 17.15 0.88
17 -9 8 17.5 0.75
-8 17 8 16.01 1.19
-8 17 5 3.22 0.97
9 8 -5 2.01 0.43
-8 17 5 2.22 0.84
-9 -8 5 2.1 0.47
-8 17 2 157.28 4.11
17 -9 2 160.46 4.34
17 -9 -1 231.96 5.75
17 -9 -4 67.14 2.26
-17 9 7 2.55 1.32
8 -17 7 2.76 0.61
-17 9 7 2.17 0.66
-17 9 7 2.17 0.55
-17 9 10 29.28 0.99
-10 -7 9 8.19 0.77
-7 17 9 8.23 1.03
-10 -7 6 52.27 1.65
-10 -7 6 51.29 1.66
-7 17 6 48.33 2.58
10 7 -6 49.96 1.7
17 -10 6 49.56 1.52
-7 17 3 24.7 1.38
17 -10 3 26.01 1.42
-7 17 0 16.46 0.71
17 -10 0 19.25 1.27
17 -10 -3 39.47 1.68
-17 10 6 20.43 2.05
17 -10 -6 23.21 1.07
-17 10 6 22.7 1.02
-17 10 9 1.38 0.51
-17 10 9 0.75 0.74
-11 -6 10 71.26 1.81
-6 17 10 68.35 1.96
-6 17 7 416.13 8.99
-11 -6 7 415.34 8.86
-11 -6 7 413.65 8.94
17 -11 7 405.38 8.91
17 -11 4 304.73 7.08
-6 17 4 296.52 7.21
-6 17 4 276.59 6.42
11 6 -4 278.63 6.22
-6 17 1 6.46 0.59
17 -11 -2 412.39 9.53
-17 11 5 400.82 8.8
-17 11 8 22.43 1
6 -17 8 21.9 0.92
-17 11 8 21.35 1.15
-17 11 11 45.53 1.21
-17 11 11 44.81 1.18
-5 17 11 59.88 1.39
17 -12 8 68.23 1.89
-12 -5 8 66.81 1.87
-5 17 8 70.27 2.16
-12 -5 8 68.65 1.98
12 5 -5 2.7 0.5
17 -12 5 1.95 0.56
-5 17 5 2.54 0.69
-5 17 5 1.94 0.89
-5 17 2 196.57 4.95
17 -12 2 216.92 5.49
17 -12 -1 182.15 4.89
-17 12 4 18.29 0.98
17 -12 -4 16.23 1.11
-17 12 7 31.26 2.42
-17 12 7 33.66 1.27
-17 12 7 34.37 1.17
5 -17 7 31.04 1.15
-17 12 10 70.06 1.74
-4 17 9 5.11 0.72
-13 -4 9 3.8 0.65
-4 17 9 3.91 0.81
-13 -4 9 4 0.54
13 4 -6 42.45 1.48
-4 17 3 217.16 5.51
17 -13 3 216.73 5.72
17 -13 0 74.76 2.78
17 -13 -3 25.4 1.39
-17 13 6 110.36 4.29
4 -17 6 110.45 2.75
-17 13 9 39.03 1.54
-17 13 9 39.39 1.28
-14 -3 10 61.72 1.61
-3 17 10 59.94 1.6
-14 -3 7 263.87 5.94
17 -14 7 275.56 6.17
-3 17 7 271.19 6.13
14 3 -7 275.39 6.04
14 3 -4 141.97 3.3
17 -14 4 152.5 4.32
14 3 -4 145.66 3.4
17 -14 -2 363.1 8.81
-3 17 -5 239.77 5.44
-17 14 5 248.3 5.89
-17 14 5 252.86 6.97
-17 14 8 10.26 1.07
-17 14 8 11.74 0.81
-17 14 11 31.33 0.9
-15 -2 11 112.19 2.44
-15 -2 8 165.67 3.94
-15 -2 8 181.23 4.08
-2 17 8 176.89 4.17
17 -15 8 174.12 4.14
15 2 -5 0.98 1.11
15 2 -5 0.01 0.92
17 -15 2 466.04 10.99
17 -15 -1 561.23 12.94
-2 17 -4 40.34 1.32
17 -15 -4 38.26 1.17
-17 15 4 40.71 1.6
-17 15 7 85.15 3.73
2 -17 7 86.79 2.17
-17 15 10 136.22 3.07
-16 -1 9 6.31 0.66
17 -16 9 7.08 0.58
-16 -1 9 6.37 0.52
-1 17 9 7.32 0.61
-1 17 6 33.43 1.26
16 1 -6 35.33 1.27
17 -16 3 184.97 5.09
16 1 -3 170.43 3.85
17 -16 0 93.06 3.34
-1 17 -3 15.11 0.82
17 -16 -3 14.73 1.29
17 -16 -3 15.44 0.69
-17 16 3 15.68 1
17 -16 -3 15.27 0.69
-17 16 6 103.63 3.2
1 -17 6 102.19 2.48
-1 17 -6 102.53 2.7
-17 16 9 59.22 2.01
-17 16 9 60.31 1.69
-17 0 10 58.17 1.54
17 0 -7 197.63 4.54
0 17 7 191.94 4.5
17 -17 7 196.66 4.75
17 0 -4 94.51 2.32
17 -17 4 95.78 2.28
17 -17 4 96.59 3.31
17 -17 -2 300.41 6.41
0 17 -2 290.4 6.55
17 -17 -2 295.88 6.42
0 17 -5 154.9 3.95
17 -17 -5 166.02 3.76
-17 17 5 164.86 5.13
-17 17 5 155.51 4.43
-17 17 8 1.52 1.05
-17 17 8 2.3 0.64
-17 18 10 120.11 2.73
1 17 -7 50.95 1.6
1 17 -4 118.21 3.16
1 17 -4 119.96 2.86
-17 18 4 125.55 4.17
-17 18 4 115.52 3.96
17 -18 -4 118.56 2.97
17 -18 -4 116.68 3.84
1 17 -1 865.83 18.1
1 17 -1 867.43 18.15
17 -18 -1 858 18.05
17 -18 2 729.67 15.31
17 -18 2 786.22 16.83
18 -1 -5 36.77 1.28
17 -18 5 34.9 1.1
17 -18 8 129.69 3.31
18 -1 -8 130.89 3.11
-16 18 8 33.92 1.65
-16 18 5 107.23 3.89
16 -18 -5 107.7 2.65
2 16 -2 4.87 0.47
2 16 -2 5.97 0.64
16 -18 -2 6.1 1.08
16 -18 -2 5.46 0.5
18 -2 -4 225.29 4.93
16 -18 4 219.81 4.89
16 -18 4 230.56 6.12
18 -2 -7 69.58 1.96
-18 2 10 -0.28 0.57
-15 18 9 -0.05 1.04
-15 18 9 0.12 0.61
-15 18 6 29.63 2.08
-15 18 6 29.5 1.94
-3 -15 6 32.78 1.2
15 -18 -3 62.1 1.68
3 15 -3 64.07 1.71
15 -18 -3 68.03 2.7
15 -18 -3 66.71 1.71
-15 18 3 60.94 2.1
15 -18 0 3.91 1.08
15 -18 3 55.72 1.51
15 -18 3 58.58 2.48
18 -3 -3 57.99 1.53
18 -3 -6 56.46 1.53
15 -18 6 50.97 1.44
15 -18 9 5.16 0.6
-18 3 9 5.98 0.54
-14 18 10 266.7 6.09
-14 18 10 268.58 5.82
-4 -14 7 148.66 3.5
-14 18 7 133.4 4.89
4 14 -4 168.77 3.79
14 -18 -4 158.48 4.79
-14 18 4 183.75 5.07
-14 18 4 153.35 4.34
14 -18 -4 163.49 3.79
-4 -14 4 172.77 3.82
14 -18 -1 1632.29 34.91
14 -18 2 1032.45 22.63
18 -4 -5 6.73 0.79
18 -4 -8 228.02 5.04
-18 4 8 230.29 4.96
-18 4 11 175.54 3.73
-13 18 11 2.62 0.34
-13 18 11 2.02 0.32
-5 -13 8 12.74 0.89
-13 18 5 8.44 1.44
-5 -13 5 7.74 1.21
13 -18 -5 8.98 0.76
13 -18 -2 8.33 1.17
18 -5 -1 60.77 2.21
13 -18 4 37.57 1.95
18 -5 -4 40.89 1.22
18 -5 -7 7.27 0.53
13 -18 7 6.39 0.88
-18 5 10 1.31 0.41
-18 5 10 0.1 0.56
-12 18 9 4.78 0.77
-6 -12 9 5.84 0.65
-6 -12 6 0.52 0.62
-12 18 6 1.22 1.16
18 -6 6 0.71 0.29
-12 18 3 20.4 1.38
12 -18 -3 24.83 1.6
-12 18 3 21.48 1.23
18 -6 0 46.57 1.89
12 -18 3 0.33 0.72
18 -6 -3 0.56 0.34
-18 6 6 11.99 1.77
18 -6 -6 13.95 0.8
-18 6 9 5.28 0.57
12 -18 9 4.52 0.58
-11 18 7 137.68 4.87
-7 -11 7 145.14 3.45
18 -7 7 140.31 3.25
11 -18 -4 147.49 4.42
11 -18 -4 143.3 3.36
-11 18 4 150.32 4.43
-11 18 4 140.04 3.81
7 11 -4 144.88 3.37
-7 -11 4 147.3 3.36
18 -7 1 1425.93 30.16
18 -7 -2 1064.39 22.74
11 -18 5 12.64 1.14
18 -7 -5 17.41 0.85
11 -18 8 272.7 6.22
-18 7 8 273.57 5.92
-18 7 11 228.72 4.85
-10 18 11 1.79 0.36
-8 -10 8 1.51 0.68
-10 18 8 1.39 0.98
-10 18 5 1.63 1.45
18 -8 5 1.08 0.37
-10 18 5 0.35 1.35
8 10 -5 1.66 0.43
-8 -10 5 1.48 0.65
18 -8 2 6.97 0.85
-10 18 2 8.47 0.81
18 -8 -1 10.74 0.97
10 -18 4 0.83 0.71
-18 8 7 10.93 1.61
-18 8 7 9.73 0.78
10 -18 7 10.67 0.87
-18 8 7 9.86 0.63
18 -8 -7 10.15 0.59
-18 8 10 4.13 0.52
-9 18 9 19.59 1.27
-9 -9 9 18.9 0.91
-9 -9 6 8.9 0.72
-9 18 6 7.69 1.28
9 9 -6 8.6 0.69
-9 18 6 7.69 1.58
-9 -9 6 8.4 0.79
18 -9 6 8.48 0.6
18 -9 3 12.55 1.04
-9 18 3 10.28 1
18 -9 0 54.74 2.04
-9 18 0 46.22 1.46
18 -9 -3 29.32 1.44
-18 9 6 1.62 0.58
-18 9 6 0.46 1.67
18 -9 -6 0.35 0.6
-18 9 9 2.42 0.44
-8 18 10 227.48 5.32
-10 -8 10 244.6 5.16
18 -10 7 144.42 3.47
-10 -8 7 148.33 3.58
-10 -8 7 149.32 3.48
-8 18 7 150.12 3.62
-10 -8 4 55.52 1.5
10 8 -4 52.03 1.54
18 -10 4 54.18 2.13
-8 18 4 55.43 2.3
-8 18 4 54.9 1.83
-8 18 1 826.04 17.49
18 -10 -2 840.82 18.24
8 -18 5 32.17 1.74
-18 10 5 34.97 1.3
8 -18 8 149.12 3.62
-18 10 8 153.1 3.73
-18 10 8 153.07 3.54
-18 10 11 135.26 2.93
-7 18 11 4.32 0.34
-11 -7 8 12.92 0.9
-7 18 8 13.97 1.11
18 -11 8 14.89 0.7
-11 -7 8 12.76 0.75
-11 -7 5 94.12 2.4
-7 18 5 92.03 2.72
-7 18 5 93.96 3.43
11 7 -5 96.14 2.44
-7 18 2 62.43 2.05
18 -11 2 54.66 2.2
18 -11 -1 0.75 0.67
18 -11 -4 63.57 2.28
-18 11 4 69.05 1.94
-18 11 7 106.65 2.74
7 -18 7 109.18 2.74
-18 11 7 107.48 2.66
-18 11 10 30 0.97
-12 -6 9 14.14 0.83
-6 18 9 14.26 1.01
-12 -6 6 36.17 1.3
12 6 -6 36.64 1.45
18 -12 6 35.26 1.26
12 6 -3 2.39 0.43
-6 18 3 2.08 0.64
18 -12 3 2.61 0.7
18 -12 0 33.68 1.72
18 -12 -3 75.73 2.58
6 -18 6 23.27 0.99
-18 12 6 23.57 2.11
18 -12 -6 24.12 1.12
-18 12 9 0.67 0.72
-18 12 9 0.1 0.45
-13 -5 10 167.59 3.75
-5 18 10 170.14 3.83
18 -13 7 85.24 2.34
-13 -5 7 90.3 2.37
13 5 -7 89.18 2.32
-13 -5 7 87.02 2.23
-5 18 7 86.54 2.41
13 5 -4 44.58 1.43
18 -13 4 46.1 2.01
-5 18 4 46.78 1.59
18 -13 -2 425.66 10
-18 13 5 5.69 1.45
-18 13 5 1.89 1.53
-18 13 8 140.98 3.57
-18 13 8 145.92 3.4
5 -18 8 137.48 3.28
-18 13 11 94.64 2.15
-18 13 11 99.52 2.18
-14 -4 8 28.92 1.05
18 -14 8 31.99 1.16
-14 -4 8 30.46 1.23
-4 18 5 232.27 5.5
14 4 -5 238.12 5.41
18 -14 2 175.22 4.97
18 -14 -1 0.89 0.82
-4 18 -4 133.05 3.19
-18 14 4 137.34 3.48
18 -14 -4 140.16 3.16
-18 14 7 161.36 5.62
-18 14 7 171.18 3.84
-18 14 7 159.16 3.89
4 -18 7 163.53 3.81
-18 14 10 21.65 0.74
-15 -3 9 22.56 0.81
-3 18 9 24.24 0.97
-15 -3 9 23.91 0.97
-3 18 6 161.32 3.78
15 3 -6 162.59 3.88
15 3 -3 112.65 2.68
15 3 -3 114.15 2.78
18 -15 0 8.65 1.17
-3 18 -3 159.22 3.74
18 -15 -3 162.99 3.65
-18 15 3 159.5 3.97
18 -15 -3 171.99 4.74
-18 15 6 81.86 3.6
-18 15 6 85.73 2.72
3 -18 6 87.91 2.22
-18 15 9 4.49 0.57
-18 15 9 2.55 0.82
-16 -2 10 85.66 2.07
16 2 -7 26.48 1.1
18 -16 7 27.8 1.23
-2 18 7 27.06 1.15
16 2 -4 75.12 1.98
18 -16 4 76 2.8
-2 18 -2 196.42 4.47
18 -16 -2 195.47 4.39
-2 18 -5 0.71 0.79
-18 16 5 -0.34 1.32
2 -18 5 1.06 0.38
-18 16 8 100.71 2.87
-18 16 8 105.45 2.63
-17 -1 8 25.02 1.05
17 1 -8 22.96 0.93
18 -17 8 24.7 1.08
17 1 -5 450.97 9.54
17 1 -5 442.96 9.63
18 -17 2 607.22 14.03
-1 18 -1 27.03 0.98
18 -17 -1 25.85 0.93
-1 18 -4 203.67 4.69
-18 17 4 201.19 5.19
18 -17 -4 199.98 4.59
18 -17 -4 199.07 5.52
-18 17 10 57.89 1.45
-18 0 9 0.57 0.49
18 -18 9 1.06 0.41
18 0 -6 65.77 1.91
18 0 -3 92.76 2.28
18 -18 3 92.61 2.24
18 -18 0 2.55 0.45
18 -18 0 3.27 0.98
18 -18 0 3.16 0.43
18 -18 -3 149.19 3.44
0 18 -3 146.24 3.57
18 -18 -3 156.78 4.73
-18 18 3 149.56 3.83
0 18 -3 146.4 3.43
18 -18 -3 147.65 3.42
-18 18 6 141.17 4.08
-18 18 6 134.95 4.76
0 18 -6 150.49 3.57
-18 18 9 23.52 1.24
-18 18 9 23.94 0.92
-18 19 8 78.49 2.43
-18 19 8 85.75 2.15
-18 19 5 2.52 1.06
18 -19 -5 3.38 0.64
-18 19 5 2.93 1.3
1 18 -5 2.5 0.72
1 18 -2 130.76 3.13
1 18 -2 131.08 3.22
18 -19 -2 132.06 3.09
18 -19 -2 129.97 3.1
18 -19 1 345.19 7.21
19 -1 -1 327.06 7.18
1 18 1 335.94 7.27
18 -19 4 121.87 2.87
19 -1 -4 121.36 2.9
18 -19 4 121.97 4.04
19 -1 -7 0.66 0.57
18 -19 7 -0.08 0.72
-19 1 10 33.99 0.95
-17 19 9 36.29 1.5
-17 19 9 33.72 1.15
2 17 -6 22.52 1.14
-17 19 6 19.45 1.72
-17 19 6 17.68 1.66
2 17 -3 36.19 1.18
17 -19 -3 37.36 1.17
2 17 -3 34.62 1.34
17 -19 -3 38.74 2.07
-17 19 3 37.8 1.6
17 -19 -3 35.08 1.14
2 17 0 239.99 5.39
2 17 0 237.27 5.41
17 -19 0 246.46 5.32
17 -19 3 67.78 2.73
19 -2 -3 64.61 1.68
17 -19 3 62 1.67
17 -19 6 7 0.49
19 -2 -6 8.49 0.58
-19 2 9 30.06 1.04
-16 19 10 12.51 0.65
3 16 -7 158.97 3.91
16 -19 -4 827.29 17.45
16 -19 -4 840.37 18.72
3 16 -4 832.63 17.46
-16 19 4 881.91 18.93
-16 19 4 850.7 18.19
3 16 -1 736.39 15.5
16 -19 -1 733.49 15.42
16 -19 2 3.26 0.45
16 -19 2 2.35 0.94
-19 3 5 432.65 10.53
19 -3 -5 452.3 9.33
16 -19 5 428.01 9.25
-19 3 8 382.23 8.17
19 -3 -8 388.43 8.27
4 15 -8 10.5 0.81
-15 19 8 9 1.21
-4 -15 5 1.46 0.86
4 15 -5 0.6 0.61
15 -19 -5 0.84 0.66
-15 19 5 0.21 1.15
-15 19 5 0.73 1.75
4 15 -2 24.72 0.93
15 -19 -2 24.81 0.88
15 -19 4 25.34 1.66
15 -19 4 27.55 0.93
19 -4 -4 27.25 1.05
-19 4 7 3.8 0.46
15 -19 7 3.31 0.39
15 -19 7 2.45 0.83
-19 4 10 19.73 0.84
-14 19 9 4.24 0.66
-14 19 6 6.97 1.32
-5 -14 6 8.86 0.73
5 14 -3 0.7 0.35
14 -19 -3 0.89 0.39
-14 19 3 1.19 0.79
14 -19 -3 0.82 0.81
14 -19 -3 0.61 0.4
14 -19 0 34.99 2.04
14 -19 3 26.21 0.91
19 -5 -3 25.68 0.91
14 -19 3 25.19 1.64
-19 5 6 -0.22 1
19 -5 -6 1.08 0.43
-19 5 9 3.4 0.5
14 -19 9 3.77 0.54
-13 19 10 37.66 1.26
-13 19 7 140.8 4.91
-6 -13 7 148.05 3.52
13 -19 -4 1024.87 21.35
-13 19 4 1063.19 22.75
6 13 -4 1026.69 21.34
13 -19 -4 1031.75 22.67
-6 -13 4 1035.45 21.33
13 -19 -1 824.22 18.23
19 -6 1 801.19 17.74
13 -19 2 12.15 0.62
13 -19 2 13.55 1.28
19 -6 -5 713.54 14.9
-19 6 8 536.22 10.96
19 -6 -8 515.58 11.04
13 -19 8 506.57 11.28
-7 -12 8 2.08 0.7
-12 19 8 2.43 1.08
7 12 -5 2.17 1.03
19 -7 5 2.3 0.35
-12 19 5 3.19 1.24
-12 19 5 2.3 1.35
12 -19 -5 2.28 1.08
-7 -12 5 2.03 0.72
-12 19 2 18.86 1.16
19 -7 2 17.4 1.22
19 -7 -1 20.24 1.27
12 -19 4 5.43 0.98
19 -7 -4 5.37 0.49
19 -7 -7 0.59 0.39
12 -19 7 0.8 0.73
-19 7 10 0.35 0.4
-8 -11 9 0.2 0.52
-11 19 9 0.47 0.95
-8 -11 6 5.31 0.69
8 11 -6 5.5 0.64
-11 19 6 4.31 1.26
-11 19 6 5.11 1.23
19 -8 6 5.87 0.47
19 -8 3 11.82 1.01
-11 19 3 11.18 1.06
-11 19 3 14.09 1.01
8 11 -3 11.21 0.63
19 -8 0 4.28 0.75
19 -8 -3 0.96 0.58
-19 8 6 0.09 1.18
19 -8 -6 0.32 0.45
-19 8 9 2.06 0.48
11 -19 9 2.11 0.45
-9 -10 7 156.54 3.68
19 -9 7 152.14 3.53
-10 19 7 144.98 5.05
9 10 -4 919.45 19.31
10 -19 -4 927.68 19.27
-10 19 4 950.56 20.53
10 -19 -4 907.25 20.59
-10 19 4 926.48 19.69
19 -9 4 972.13 20.24
-9 -10 4 928.11 19.25
19 -9 1 790.97 16.77
-10 19 1 741.43 16.18
19 -9 -2 1.4 0.62
19 -9 -5 468.79 10.01
-19 9 8 379.79 8.56
10 -19 8 403.51 8.62
-19 9 8 401.92 8.4
-19 9 11 24.49 0.71
-10 -9 8 11.01 0.89
-9 19 8 12.47 1.13
-9 19 5 5.32 1.24
-10 -9 5 5.47 1.13
10 9 -5 6 1.15
-9 19 5 4.51 1.44
-9 19 2 2.96 0.63
19 -10 2 3.35 0.76
19 -10 -1 78.36 2.66
19 -10 -4 103.79 3.15
19 -10 -7 25.43 0.9
-19 10 7 23.31 1.07
9 -19 7 25.47 1.11
-19 10 7 24.49 0.94
-19 10 10 0.45 0.45
-11 -8 9 13.74 0.77
-8 19 9 13.53 1.02
11 8 -6 1.71 0.56
-8 19 6 0.85 1.07
-11 -8 6 2.32 0.63
19 -11 6 1.48 0.47
19 -11 3 22.37 1.4
-8 19 3 24.09 1.35
-8 19 3 25.12 1.16
11 8 -3 22.66 0.91
19 -11 0 46.57 1.99
19 -11 -3 9.16 0.89
19 -11 -6 0.5 0.49
-19 11 6 0.57 1.18
-19 11 6 0.49 0.49
-19 11 9 7.88 0.53
-7 19 10 35.39 1.22
-12 -7 10 35.67 1.08
-12 -7 7 69.03 1.97
-12 -7 7 65.17 1.81
12 7 -7 70.55 1.88
-7 19 7 67.19 2
19 -12 7 70.97 1.91
12 7 -4 581.97 12.61
19 -12 4 614.23 13.59
-12 -7 4 610.59 12.54
-7 19 4 574.31 13.52
-7 19 4 602.12 12.87
19 -12 -2 1.24 0.65
-19 12 5 361.81 8.19
-19 12 8 277.94 6.46
7 -19 8 288.74 6.32
-19 12 8 296.41 6.31
-13 -6 8 87.98 2.2
-13 -6 8 89.78 2.37
-6 19 8 91.77 2.55
19 -13 8 89.56 2.28
-13 -6 5 32.02 1.33
13 6 -5 30.55 1.24
-6 19 5 29.14 1.59
13 6 -2 23.65 0.9
-6 19 2 22.05 1.09
19 -13 -1 175.07 4.89
-6 19 -4 105.71 2.56
19 -13 -4 103.52 3.29
-19 13 4 111.55 2.86
-19 13 7 5.21 1.47
-19 13 7 5.9 0.74
-19 13 7 5.12 0.6
6 -19 7 5.31 0.55
-19 13 10 12.49 0.64
-14 -5 9 46.33 1.37
-5 19 9 45.3 1.44
19 -14 6 37.71 1.36
14 5 -6 40.23 1.39
-14 -5 6 39.5 1.33
14 5 -3 7.49 0.59
19 -14 3 8.71 1.02
19 -14 3 7.14 0.46
19 -14 0 179.47 5.14
-19 14 3 97.84 2.62
-5 19 -3 98.15 2.41
19 -14 -3 101.07 3.25
5 -19 6 4.32 0.53
-19 14 6 4.76 1.35
-19 14 9 15.87 0.72
-19 14 9 15.43 0.96
-15 -4 10 2.96 0.5
-4 19 10 3.13 0.48
15 4 -7 104.43 2.65
-4 19 7 104.11 2.73
19 -15 7 105.05 2.73
-15 -4 7 101.85 2.64
15 4 -4 411.85 8.96
19 -15 4 408.48 9.93
-4 19 4 418.26 9.06
19 -15 -2 19.87 0.75
-4 19 -2 18.96 0.79
19 -15 -2 19.64 0.78
19 -15 -2 20.96 1.46
-4 19 -5 250.08 5.62
-19 15 5 257.93 7.22
-19 15 5 258.52 6.08
-19 15 8 156.22 3.99
-19 15 8 170.29 3.84
19 -16 8 152.32 3.59
-16 -3 8 144.76 3.52
-3 19 8 153.49 3.64
16 3 -5 145.03 3.56
19 -16 2 0.78 0.78
-3 19 -1 314.69 6.87
19 -16 -1 314.07 6.78
19 -16 -1 314.74 6.83
19 -16 -4 363.77 9.21
-19 16 4 393.07 8.76
-3 19 -4 385.34 8.33
19 -16 -4 389.26 8.31
-19 16 7 60.59 1.77
3 -19 7 55.5 1.54
-19 16 10 10.73 0.51
-17 -2 9 63.44 1.68
-2 19 9 63.75 1.66
17 2 -6 63.96 1.9
-2 19 6 63.75 1.8
17 2 -3 7.8 0.51
19 -17 3 8.42 1.09
19 -17 3 8.43 0.48
17 2 -3 8.94 0.64
17 2 0 187.69 4.26
-2 19 0 182.62 4.22
-2 19 -3 142.51 3.37
-19 17 3 152.27 3.78
-2 19 -3 144.38 3.5
19 -17 -3 150.76 3.42
-2 19 -6 7.31 0.64
-19 17 6 8.36 1.26
-19 17 9 19.78 1.1
-19 17 9 20.88 0.82
-18 -1 10 0.91 0.34
18 1 -7 63.28 1.85
-18 -1 7 65.54 1.81
19 -18 7 67.11 2.03
18 1 -4 217.47 4.88
18 1 -4 215.02 4.75
19 -18 4 207.16 4.63
19 -18 4 213.4 5.96
18 1 -1 96.84 2.4
18 1 -1 93.48 2.28
19 -18 1 99.18 3.57
19 -18 1 94.64 2.28
19 -18 1 96.55 2.32
-1 19 -2 29.09 1
-1 19 -2 29.48 1.08
19 -18 -2 30.69 1.95
19 -18 -2 30.22 1.04
-19 18 5 246.77 7.13
-19 18 5 266.69 6.31
-1 19 -5 259.79 5.86
-19 18 8 151.92 3.8
-19 18 8 154.58 3.57
-19 0 8 231.2 5.13
19 -19 8 230.88 5.29
19 0 -8 234.68 5.12
19 0 -5 199.67 4.73
19 0 -5 212.84 4.66
19 -19 2 8.93 0.55
19 0 -2 9.85 0.54
0 19 -1 391.32 8.36
0 19 -1 400.22 8.42
19 0 1 366.72 8.2
19 0 1 398.02 8.37
19 -19 -1 396.8 8.36
0 19 -4 419.34 9.06
0 19 -4 435.93 9.26
-19 19 4 422.52 10.46
-19 19 4 436.93 9.67
19 -19 -4 399.38 10.24
19 -19 -4 423.99 9.09
0 19 -7 65.74 1.78
-19 19 10 8.47 0.37
-19 20 9 0.43 0.77
-19 20 9 0.17 0.44
-19 20 6 88.64 3.01
1 19 -6 94.69 2.48
19 -20 -3 237.21 5.33
1 19 -3 237.1 5.48
1 19 -3 231.54 5.42
-19 20 3 241.12 5.78
19 -20 -3 244.37 5.36
20 -1 0 44.72 1.34
19 -20 0 44.72 2.54
19 -20 0 43.4 1.29
20 -1 0 44.41 1.23
19 -20 0 43.54 1.33
19 -20 3 30.43 1.97
20 -1 -3 30.58 1.05
19 -20 3 29.88 1.14
20 -1 -6 95.1 2.51
-20 1 9 31.78 0.97
19 -20 9 30.55 0.97
-18 20 10 48.34 1.18
2 18 -7 288.23 6.38
2 18 -4 226.8 5.16
-18 20 4 223.51 6.39
-18 20 4 236.2 5.81
18 -20 -4 233.58 5.18
2 18 -4 227.94 5.41
18 -20 -4 226.09 6.35
20 -2 1 10.93 0.62
18 -20 -1 10.83 1.42
2 18 -1 9.78 0.64
18 -20 -1 9.48 0.65
18 -20 2 522.89 11.98
20 -2 -2 490.97 10.39
18 -20 2 489.8 10.39
18 -20 5 439.52 9.5
20 -2 -5 466.13 9.6
-20 2 8 72.27 1.89
20 -2 -8 71.17 1.88
3 17 -8 2.21 0.48
-17 20 8 2.24 0.98
3 17 -5 18.57 0.91
3 17 -5 18.71 1.16
-17 20 5 18.19 1.62
-17 20 5 16.8 1.61
17 -20 -5 19.09 0.92
3 17 -2 138.13 3.4
3 17 -2 138.22 3.27
17 -20 -2 132.22 3.19
17 -20 1 80.34 2.02
17 -20 1 86.14 3.31
20 -3 -1 80.5 1.98
17 -20 4 1.01 0.59
17 -20 4 1.32 0.96
20 -3 -4 0.84 0.56
20 -3 -7 41.96 1.4
-20 3 10 32.85 0.91
-16 20 9 0.47 0.88
-16 20 9 0.61 0.53
-16 20 6 11.23 1.43
-16 20 6 10.33 1.62
4 16 -3 28.87 1.04
-16 20 3 26.73 1.65
16 -20 -3 31.8 1.95
-16 20 3 29.1 1.51
16 -20 -3 28.62 1.01
16 -20 -3 28.02 1.01
16 -20 0 6.07 1.18
4 16 0 5.82 0.57
20 -4 0 5.06 0.41
4 16 0 5.36 0.53
16 -20 3 49.23 1.42
16 -20 3 51.7 2.4
20 -4 -3 49.67 1.42
20 -4 -6 46.49 1.35
16 -20 6 43.52 1.29
-20 4 9 7.85 0.61
16 -20 9 7.9 0.57
-15 20 10 89.53 2.13
15 -20 -4 471.28 10.01
5 15 -4 458.02 10
15 -20 -4 479.7 11.35
-15 20 4 484.78 11.36
5 15 -1 54.18 1.55
5 15 -1 55.28 1.67
15 -20 -1 57.41 2.67
15 -20 -1 52.97 1.47
15 -20 -1 51.87 1.43
15 -20 2 1162.98 23.68
5 15 2 1130.45 23.67
15 -20 2 1166.99 25.28
20 -5 -5 748.56 15.55
15 -20 5 742.57 15.51
20 -5 -8 37.61 1.25
-20 5 8 35.68 1.15
15 -20 8 39.89 1.45
6 14 -8 1.42 0.79
6 14 -5 15.92 0.86
-14 20 5 16.26 1.72
-6 -14 5 16.72 0.94
14 -20 -5 16.75 1.04
6 14 -2 37.48 1.19
14 -20 -2 40.62 2.2
14 -20 -2 36.74 1.13
14 -20 -2 37.58 1.14
6 14 1 10.13 0.62
20 -6 -1 10.3 0.56
14 -20 4 0.87 0.8
20 -6 -4 0.59 0.88
20 -6 -7 6.72 0.52
14 -20 7 5.6 0.49
14 -20 7 6.29 0.86
-20 6 10 10.01 0.62
7 13 -9 0.34 0.43
-13 20 9 0.09 0.91
-13 20 9 -0.33 0.63
-7 -13 6 4.64 0.66
7 13 -6 3.75 0.52
-13 20 6 3.76 1.14
-13 20 6 3.88 1.38
-7 -13 3 8.25 0.52
-13 20 3 9.69 1.02
13 -20 -3 7.36 1.18
-13 20 3 9.6 1.01
7 13 -3 8 0.55
13 -20 0 1.38 0.42
20 -7 0 0.74 0.66
13 -20 3 0.19 0.77
20 -7 -3 0.42 0.37
-20 7 6 1.39 1.06
20 -7 -6 0.43 0.42
-20 7 9 0.53 0.42
13 -20 9 0.29 0.4
-12 20 10 119.86 2.84
-8 -12 7 550.07 11.68
8 12 -4 329.41 7.27
12 -20 -4 350.42 8.7
12 -20 -4 331.04 7.25
-12 20 4 329.9 8.41
-12 20 4 342.85 7.83
-8 -12 4 340.75 7.24
8 12 -1 65.32 1.72
-12 20 1 63.44 2.09
12 -20 -1 62.4 1.67
20 -8 -2 893.3 19.78
8 12 2 920.39 18.96
20 -8 -5 604.69 12.75
12 -20 8 22.38 1.04
-9 -11 8 2.31 0.62
-11 20 8 1.82 0.97
9 11 -5 4.47 0.63
-9 -11 5 3.62 0.69
-11 20 5 3.38 1.05
-11 20 5 4.05 1.73
20 -9 5 3.51 0.43
11 -20 -2 7.01 0.5
-11 20 2 7.27 0.8
9 11 -2 7.17 0.53
20 -9 2 5.62 0.86
11 -20 1 6.74 0.53
20 -9 -1 6.46 0.87
20 -9 -4 0.05 0.61
11 -20 4 -0.38 0.75
20 -9 -7 5.48 0.49
11 -20 7 5.53 0.72
-20 9 10 2.43 0.46
-10 -10 9 0.81 0.5
-10 20 9 0.11 0.79
-10 -10 6 2.82 0.62
-10 20 6 3.27 1.02
10 10 -6 2.13 0.52
-10 20 6 0.93 1.11
20 -10 6 2.48 0.43
10 10 -3 12.38 0.69
20 -10 3 12.73 1.1
-10 20 3 10.29 1.01
20 -10 0 13.66 1.12
20 -10 -3 1.22 0.59
-20 10 6 12.38 1.74
20 -10 -6 14.5 0.77
-20 10 6 14.06 0.74
-20 10 9 28.23 0.92
-9 20 10 80.74 2.08
-11 -9 7 437.22 9.34
-9 20 7 446.43 9.41
20 -11 7 422.97 9.25
-11 -9 4 307.64 6.53
-9 20 4 303.1 7.64
-9 20 4 301.26 6.91
11 9 -4 292.74 6.63
20 -11 4 301.52 7.5
20 -11 1 42.57 1.98
20 -11 -2 759.66 16.21
20 -11 -2 723.98 15.1
20 -11 -5 620.19 13.11
-20 11 8 27.02 1.21
-20 11 8 29.82 0.99
9 -20 8 29.59 1.07
-12 -8 8 3.45 0.66
-8 20 8 3.75 0.86
20 -12 8 4.17 0.43
-12 -8 5 24.68 1.04
-8 20 5 22.7 1.64
-8 20 5 24.43 1.57
12 8 -5 23.6 1.16
12 8 -2 126.12 2.95
20 -12 2 130.72 3.86
20 -12 -1 75.07 2.69
20 -12 -1 74.75 1.85
-20 12 4 0.42 0.58
20 -12 -4 -0.05 0.62
20 -12 -7 27.82 0.97
-20 12 7 27.96 1.16
-20 12 7 28.87 1.02
8 -20 7 27.94 1.08
-20 12 10 25.82 0.88
-7 20 9 5.51 0.73
-13 -7 9 5.2 0.55
13 7 -6 12.25 0.8
-13 -7 6 12.45 0.81
20 -13 6 11.71 0.72
13 7 -3 83.47 2.23
20 -13 3 89.42 3.09
-7 20 3 91.89 2.43
20 -13 3 86.7 2.08
20 -13 0 64.01 2.55
20 -13 -3 3.29 0.77
-7 20 -3 2.12 0.36
-20 13 3 2.59 0.59
-20 13 6 23.9 2.08
20 -13 -6 27.3 1.05
7 -20 6 24.81 1.03
-20 13 9 39.12 1.34
-20 13 9 42.02 1.14
-6 20 10 73.16 1.78
-14 -6 10 70.6 1.72
20 -14 7 340.78 7.62
-14 -6 7 347.14 7.6
-6 20 7 346.26 7.67
14 6 -7 360.57 7.59
20 -14 4 226.54 6
-6 20 4 234.99 5.24
20 -14 4 222.12 4.84
14 6 -1 20.16 0.85
20 -14 1 22.15 1.55
20 -14 1 20.91 0.77
20 -14 -2 456.71 9.66
20 -14 -2 471.98 10.89
-6 20 -2 460.19 9.72
-20 14 5 311.99 8.52
-20 14 5 315.01 7.23
-20 14 8 5.74 0.84
-20 14 8 7.15 0.64
6 -20 8 6.36 0.47
-15 -5 8 5.46 0.66
-5 20 8 5.22 0.8
20 -15 8 7.21 0.57
-15 -5 5 79.03 2.11
15 5 -5 73.06 2.11
-5 20 5 80.95 2.42
20 -15 5 74.66 1.87
20 -15 2 400.5 9.35
20 -15 2 370.35 7.97
20 -15 -1 254.95 5.66
-5 20 -1 267.96 5.76
20 -15 -4 5.6 1.15
-5 20 -4 7.77 0.69
-20 15 4 7.5 1.79
20 -15 -7 49.75 1.41
-20 15 7 46.18 1.53
-20 15 7 48.68 1.44
5 -20 7 45.14 1.37
-20 15 10 46.09 1.19
-16 -4 9 37.16 1.12
-4 20 9 34.92 1.14
-16 -4 6 3.31 0.6
-4 20 6 3.45 0.54
16 4 -6 4.12 0.67
16 4 -3 158.25 3.75
20 -16 3 157.4 4.74
20 -16 3 156.25 3.55
20 -16 0 189.42 4.25
16 4 0 193.69 4.38
20 -16 0 194.26 4.32
20 -16 -3 15.69 1.39
-20 16 3 18.51 1.04
-4 20 -3 17.4 0.79
-20 16 6 39.75 2.49
4 -20 6 39.28 1.23
-20 16 9 72.94 2.04
-20 16 9 74.26 1.82
-17 -3 10 30.38 0.84
17 3 -7 116.65 2.85
-17 -3 7 113.22 2.8
-3 20 7 115.72 2.87
20 -17 7 110.16 2.93
17 3 -4 30.06 1.33
20 -17 4 30.1 1.84
17 3 -1 103.41 2.6
17 3 -1 102.62 2.45
20 -17 1 102.51 2.5
20 -17 1 108.02 3.79
-3 20 -2 406.87 8.91
20 -17 -2 419.61 8.87
-3 20 -5 210.34 4.77
-20 17 5 208.48 5.18
-20 17 8 4.16 0.56
-20 17 8 3.52 0.79
-18 -2 8 75.72 1.97
18 2 -8 77.93 1.93
20 -18 8 74.68 2.04
18 2 -5 2.28 0.63
18 2 -2 295.8 6.45
18 2 -2 288.45 6.29
20 -18 2 287.77 6.23
20 -18 2 310.56 7.82
18 2 1 453.84 9.73
-2 20 -1 462.3 9.76
20 -18 -1 456.8 9.71
20 -18 -1 443.64 9.66
-2 20 -4 55.66 1.73
20 -18 -4 50.43 2.34
-20 18 4 54.61 2.32
20 -18 -4 53.53 1.65
-20 18 7 49.51 1.62
-19 -1 9 41.41 1.16
19 1 -6 1.16 0.59
-19 -1 6 1.59 0.5
19 1 -3 94.77 2.46
19 1 -3 93.1 2.31
20 -19 3 90.28 2.21
20 -19 3 86.58 3.37
20 -19 0 228.38 6.41
19 1 0 216.01 4.93
19 1 0 221.92 4.78
20 -19 0 212.72 4.87
20 -19 -3 37.11 1.29
-1 20 -3 36.34 1.38
-1 20 -3 33.45 1.33
-20 19 3 37.31 1.79
20 -19 -3 37.79 2.23
-1 20 -6 29.02 1.08
-20 19 6 25.44 1.63
-20 19 9 75.19 2.07
-20 19 9 74.41 1.81
20 0 -7 63.52 1.85
-20 0 7 66.32 1.78
20 -20 7 66.51 2
20 0 -4 10.4 0.79
20 0 -4 11.14 0.67
20 -20 4 10.51 0.68
20 -20 4 10.14 1.32
20 0 -1 83 2.16
20 -20 1 85.51 3.68
20 -20 1 81.13 2.03
20 0 -1 78.74 2.02
0 20 -2 306.81 6.76
0 20 -2 301.83 6.86
20 -20 -2 307.97 6.79
0 20 -5 138.96 3.38
-20 20 5 129.82 4.46
-20 20 5 136.23 3.81
-20 20 8 0.64 0.75
-20 20 8 1.18 0.49
-20 21 10 70.67 1.57
1 20 -7 55.51 1.57
1 20 -4 39.38 1.24
1 20 -4 37.34 1.39
-20 21 4 35 2.05
-20 21 4 37.53 1.79
20 -21 -4 37.13 1.28
21 -1 1 305.18 6.85
1 20 -1 321.34 6.99
21 -1 1 314.3 6.73
20 -21 -1 317.48 6.93
20 -21 2 232.81 6.61
20 -21 2 230.2 5.17
21 -1 -2 226.79 5.18
21 -1 -5 14.59 0.87
21 -1 -5 13.65 0.72
20 -21 5 12.83 0.61
-21 1 8 47.68 1.34
21 -1 -8 47.55 1.33
20 -21 8 49.18 1.46
-19 21 8 32.75 1.37
-19 21 8 32.66 1.07
2 19 -5 127.38 3.28
-19 21 5 128.3 4.44
-19 21 5 127.75 3.74
19 -21 -5 131.82 3.12
2 19 -2 54.92 1.94
19 -21 -2 56.39 1.7
19 -21 -2 57.48 2.88
19 -21 -2 56.53 1.96
2 19 -2 54.63 1.86
2 19 1 7.5 0.63
19 -21 1 6.55 1.83
21 -2 -1 5.67 0.49
19 -21 1 4.85 0.57
21 -2 -4 88.9 2.23
19 -21 4 87.92 2.2
19 -21 4 85.68 3.31
21 -2 -7 65.53 1.88
-18 21 9 18.63 1.06
-18 21 9 17.08 0.75
3 18 -6 19.98 1.06
-18 21 6 16.12 1.59
3 18 -3 10.31 0.92
3 18 -3 10.19 1
18 -21 -3 11.38 0.81
-18 21 3 11.13 1.37
18 -21 -3 11 0.99
18 -21 -3 9.85 1.47
3 18 0 117.88 2.92
3 18 0 116.06 2.92
18 -21 0 121.06 2.84
21 -3 0 120.1 2.79
18 -21 0 128.87 4.5
18 -21 0 121.02 2.85
18 -21 3 147.34 4.64
18 -21 3 146.3 3.38
21 -3 -3 141.56 3.35
21 -3 -6 16.42 0.88
18 -21 6 14.49 0.64
-21 3 9 8.5 0.55
-17 21 10 146.52 3.17
4 17 -7 115.67 2.98
17 -21 -4 83.68 2.24
4 17 -4 88.04 2.26
4 17 -4 79.53 2.47
-17 21 4 82.06 3.22
-17 21 4 86.35 2.87
4 17 -1 863.01 17.79
17 -21 -1 843.47 17.67
21 -4 1 844.42 17.6
21 -4 1 858.26 17.69
17 -21 -1 841.37 17.7
17 -21 2 659.52 13.53
21 -4 -2 629.52 13.5
17 -21 2 670.51 15.16
17 -21 5 30.17 1.05
21 -4 -5 32.95 1.09
17 -21 8 119.67 2.86
21 -4 -8 103.02 2.61
5 16 -8 2.16 0.56
-16 21 5 12.84 1.41
5 16 -5 14.32 0.8
16 -21 -5 13.83 0.82
5 16 -2 17.54 0.83
16 -21 -2 18.81 1.76
16 -21 -2 16.73 0.77
5 16 1 4.37 0.5
16 -21 1 5.54 0.56
21 -5 -1 4.41 0.44
16 -21 1 5.06 1.2
16 -21 4 11.16 1.32
16 -21 4 12.44 0.78
21 -5 -4 11.96 0.81
16 -21 7 30.57 0.96
21 -5 -7 34 1.18
16 -21 7 35.06 1.44
-21 5 10 5.92 0.39
-15 21 9 13.73 0.77
6 15 -6 4.41 0.53
-15 21 6 2.5 1.03
-15 21 3 11.92 1.21
15 -21 -3 11.02 0.8
15 -21 -3 11.63 1.74
15 -21 -3 13.01 0.67
6 15 -3 10.78 0.79
15 -21 0 16.68 1.59
6 15 0 17.03 0.83
15 -21 0 17.16 0.78
21 -6 0 19.6 0.73
15 -21 3 3.9 0.6
21 -6 -3 3.11 0.84
15 -21 3 4.45 1.27
15 -21 6 3.44 0.5
21 -6 -6 3.31 0.5
15 -21 9 6.68 0.52
-14 21 10 221.05 4.76
-7 -14 7 138.46 3.32
14 -21 -4 134.84 3.25
-14 21 4 144.69 4.37
-14 21 4 142.43 3.89
14 -21 -4 126.9 4.55
7 14 -4 128.4 3.19
7 14 -1 1076.75 22.76
14 -21 -1 1085.52 22.5
7 14 -1 1078.45 22.61
21 -7 1 1096.45 22.48
7 14 2 681.22 14.27
14 -21 2 717.46 15.87
14 -21 2 679.69 14.29
21 -7 -5 2.4 0.49
21 -7 -8 218.05 4.86
-21 7 8 213.84 4.75
14 -21 8 225.01 5.04
-8 -13 8 0.42 0.52
-13 21 8 0.42 0.87
8 13 -5 3.01 0.54
13 -21 -5 3.38 0.82
-13 21 5 3.56 1.28
-8 -13 5 3.42 0.58
-13 21 5 3.03 1.21
13 -21 -2 4.82 1.07
13 -21 -2 4.64 0.49
-13 21 2 5.34 0.78
13 -21 -2 5.38 0.48
8 13 -2 4.29 0.49
21 -8 2 4.56 0.83
8 13 -2 3.65 0.46
8 13 1 9.54 0.58
21 -8 -1 8.51 0.96
8 13 1 10.29 0.63
13 -21 4 1.44 1.15
21 -8 -4 1.71 0.54
21 -8 -7 5 0.49
13 -21 7 4.61 0.74
-21 8 10 7.19 0.5
9 12 -9 3.47 0.55
-12 21 9 3.53 0.83
-12 21 9 3.85 0.64
-9 -12 6 3.64 0.64
-12 21 6 2.18 0.95
-12 21 6 2.42 1.21
21 -9 6 3.25 0.36
9 12 -3 0.57 0.43
-12 21 3 -0.05 0.63
-12 21 3 0.62 0.8
21 -9 3 0.58 0.69
12 -21 -3 1.21 1.01
9 12 0 0.94 0.41
9 12 0 1.47 0.51
12 -21 0 1.16 0.43
21 -9 0 1.12 0.7
12 -21 3 11.68 1.29
-21 9 6 21.92 2
21 -9 -6 28.11 1.01
-21 9 9 8.84 0.53
10 11 -7 79.17 2.05
21 -10 7 75.2 1.95
-10 -11 7 79.07 2.13
11 -21 -4 154.12 3.75
11 -21 -4 154.17 5.16
-11 21 4 159.49 4.76
-11 21 4 170.44 4.28
10 11 -4 159.99 3.8
-10 -11 4 161.16 3.7
21 -10 1 955.27 20.72
11 -21 -1 944.12 19.57
10 11 2 596.56 12.54
21 -10 -2 592.94 13.47
21 -10 -5 3.77 0.61
11 -21 8 157.62 3.71
-10 21 8 20.21 1.14
-11 -10 8 20.23 0.91
11 10 -5 46.99 1.51
-11 -10 5 48.07 1.51
-10 21 5 44.75 2.31
-10 21 5 46.11 1.96
21 -11 5 47.12 1.41
21 -11 2 21.59 1.43
-10 21 2 17.56 1.07
10 -21 -2 19.77 0.78
21 -11 2 19.07 0.69
11 10 -2 21.14 0.85
21 -11 -1 2.28 0.71
11 10 1 2.77 0.45
21 -11 -1 2.33 0.32
10 -21 1 2.57 0.46
10 -21 4 27.04 1.9
21 -11 -7 18.38 0.76
-21 11 7 16.91 0.9
10 -21 7 17.45 0.9
-21 11 10 0.59 0.36
-9 21 9 6.99 0.77
-12 -9 9 7.66 0.57
21 -12 6 68.47 1.87
12 9 -6 67.74 1.91
-12 -9 6 68.2 1.91
21 -12 3 103.52 3.34
12 9 -3 95.55 2.46
-9 21 3 92.77 3
-9 21 3 100.93 2.69
21 -12 3 94.07 2.27
12 9 0 16.17 0.74
12 9 0 18.5 0.75
21 -12 0 15.51 1.28
9 -21 0 16.25 0.76
21 -12 0 16.75 0.67
21 -12 -3 25.61 1.48
21 -12 -6 62.15 1.72
-21 12 6 61.63 1.68
9 -21 6 60.05 1.8
-8 21 10 171.68 3.77
13 8 -7 116.58 2.79
-13 -8 7 114.55 2.84
-8 21 7 116.57 2.92
21 -13 7 111.18 2.78
21 -13 4 58.88 2.5
-13 -8 4 58.39 1.62
-8 21 4 53.36 2.24
-8 21 4 57.73 2.2
13 8 -4 57.09 1.76
13 8 -1 731.7 15.09
21 -13 1 719.97 16.25
8 -21 -1 719.64 14.98
21 -13 1 712.6 14.94
13 8 2 580.31 11.97
21 -13 -2 583.09 13.07
21 -13 -2 555.46 11.84
-21 13 5 7.73 1.16
-21 13 8 119.91 3.08
-21 13 8 129.96 2.9
8 -21 8 124.38 2.95
-7 21 8 46.36 1.56
-14 -7 8 46.71 1.4
21 -14 8 44.4 1.3
-14 -7 5 159.59 3.73
14 7 -5 160.02 3.85
-7 21 5 161.41 4.08
7 -21 -2 57.36 1.54
21 -14 2 57.95 2.45
-7 21 2 58.13 1.75
21 -14 2 54.83 1.51
14 7 1 32.38 1.07
14 7 1 33.03 1.06
21 -14 -1 33.38 1.83
21 -14 -1 32.31 0.98
21 -14 -1 31.54 1.03
21 -14 -4 150.02 4.42
-7 21 -4 143.63 3.42
-21 14 4 149.55 3.95
21 -14 -7 75.12 1.87
-21 14 7 68.84 1.99
-21 14 7 69.36 1.86
7 -21 7 69.29 1.89
-21 14 10 0.9 0.35
-15 -6 9 2.44 0.46
-6 21 9 3.07 0.52
15 6 -6 67.81 1.95
-15 -6 6 67.55 1.88
21 -15 6 67.98 1.95
21 -15 3 89.19 3.25
-6 21 3 88.41 2.38
21 -15 3 83.92 2.1
15 6 0 0.87 0.41
21 -15 0 0.88 0.8
6 -21 0 1.35 0.41
21 -15 0 1.36 0.34
21 -15 0 1.7 0.43
-6 21 -3 124.34 2.94
21 -15 -3 122.53 3.99
-21 15 3 123.52 3.19
-21 15 6 166.92 5.67
6 -21 6 173.36 4.12
-21 15 9 39.89 1.31
-21 15 9 41.43 1.09
16 5 -7 20.95 0.93
-5 21 7 21.18 1.02
-16 -5 7 20.69 0.93
21 -16 7 20.36 0.92
16 5 -4 112.62 2.96
21 -16 4 115.52 3.79
-5 21 4 113.49 3.03
21 -16 4 112.18 2.7
16 5 -1 530.31 11.48
21 -16 1 541.03 11.31
5 -21 -1 553.31 11.38
21 -16 1 528.61 11.38
21 -16 -2 308.92 6.6
16 5 2 302.47 6.65
-5 21 -2 309.19 6.65
16 5 2 298.69 6.58
-5 21 -5 0.07 0.43
-21 16 5 0.55 1.01
-21 16 5 0.38 0.9
-21 16 8 80.2 2.26
-21 16 8 84.31 2.07
-17 -4 8 22.65 0.89
21 -17 8 22.66 0.89
17 4 -5 187.62 4.37
-17 -4 5 194.56 4.24
21 -17 5 179.45 4.13
21 -17 2 255.8 6.73
21 -17 2 232.27 5.2
21 -17 -1 9.37 0.57
-4 21 -1 10.79 0.63
17 4 1 9.81 0.57
17 4 1 9.55 0.61
21 -17 -1 9.67 1.4
21 -17 -1 9.75 0.62
-21 17 4 99.18 3.08
21 -17 -4 99.96 3.41
-4 21 -4 98.59 2.58
21 -17 -4 103.81 2.54
21 -17 -7 118.53 2.86
-21 17 7 121.71 2.99
-21 17 7 122.98 2.9
-21 17 10 13.13 0.5
-18 -3 9 1.77 0.41
18 3 -6 120.13 2.98
-18 -3 6 123.89 2.86
-3 21 6 120.64 2.87
18 3 -3 226.74 5.24
21 -18 3 223.94 4.92
21 -18 3 237.97 6.41
21 -18 3 230.09 5.03
18 3 0 29.55 1.07
21 -18 0 28.57 0.97
3 -21 0 31.31 1.01
-3 21 -3 73.79 2.06
21 -18 -3 72.77 1.97
-21 18 3 72.39 2.37
21 -18 -3 72.29 2.99
-3 21 -6 166.26 3.79
-21 18 6 163.53 4.28
-21 18 9 41.39 1.36
-21 18 9 42.44 1.11
-19 -2 7 18.3 0.85
19 2 -7 16.79 0.9
21 -19 7 16.98 0.92
21 -19 4 27.12 1.84
19 2 -4 31.23 1.27
19 2 -1 206.71 4.84
19 2 -1 214.9 4.69
21 -19 1 206.98 4.75
-2 21 -2 128.74 3.24
21 -19 -2 129.22 3.17
21 -19 -2 132.07 4.44
-2 21 -5 -0.02 0.53
-21 19 5 0.82 0.95
-21 19 5 1.23 1.05
-21 19 8 55.66 1.76
-21 19 8 59.25 1.57
20 1 -8 15.2 0.64
-20 -1 8 14.74 0.67
21 -20 8 13.93 0.72
20 1 -5 238.1 5.46
20 1 -2 377.82 8
21 -20 2 366.52 7.95
20 1 -2 375.8 8.16
21 -20 2 387.76 9.59
21 -20 2 371.37 8
20 1 1 22.64 0.91
21 -20 -1 19.32 1.16
-1 21 -1 21.66 1.21
21 -20 -1 21.33 1.27
21 -20 -1 23.67 1.99
-1 21 -4 140.59 3.4
-21 20 4 130.05 4.42
21 -20 -4 124.83 4.28
-21 20 4 137.17 3.74
21 -20 -4 145.39 3.33
-21 20 7 189.24 4.36
-21 0 9 0.18 0.37
-21 0 6 59.3 1.57
21 0 -6 55.88 1.72
21 -21 6 55.43 1.47
21 -21 3 190.26 4.27
21 -21 3 198.29 5.7
21 0 0 91.73 2.47
21 0 0 86.66 2.26
21 -21 0 90 2.36
21 -21 -3 6.7 0.7
0 21 -3 5.39 0.73
21 -21 -3 5.95 1.32
-21 21 3 6.08 1.09
0 21 -6 113.01 2.78
-21 21 6 108.8 3.28
-21 21 9 51.89 1.51
-21 21 9 49.95 1.26
-21 22 8 70.88 1.98
-21 22 8 71.46 1.78
-21 22 5 44.66 1.98
1 21 -5 47.19 1.53
21 -22 -2 14.05 0.87
1 21 -2 12.68 0.89
21 -22 -2 13.65 0.84
21 -22 1 190.42 5.94
22 -1 -1 189.32 4.49
21 -22 1 193.01 4.35
22 -1 -1 194.31 4.34
22 -1 -4 117.05 2.75
21 -22 4 114.6 2.66
22 -1 -4 109.96 2.88
22 -1 -7 2.94 0.55
-22 1 7 2.97 0.46
21 -22 7 2.66 0.59
-20 22 9 16.72 0.9
-20 22 9 16.07 0.65
2 20 -6 2.15 0.62
-20 22 6 1.95 1.31
20 -22 -3 94.29 2.4
2 20 -3 90.67 2.41
2 20 -3 91.87 2.5
-20 22 3 92.97 2.83
22 -2 0 160.89 3.84
22 -2 0 158.98 3.67
2 20 0 156.91 3.8
20 -22 0 163.33 3.8
20 -22 3 19.14 0.86
20 -22 3 19.82 1.72
22 -2 -6 13.78 0.89
-22 2 9 39.29 1.04
3 19 -7 77.12 2.06
19 -22 -4 328.72 7.08
3 19 -4 325.71 7.11
3 19 -4 325.1 7.28
-19 22 4 305.59 8.3
-19 22 4 328.26 7.62
22 -3 1 208.02 4.68
3 19 -1 202.16 4.76
19 -22 -1 219.39 6.29
22 -3 1 207.94 4.53
19 -22 -1 203.26 4.74
19 -22 2 0.31 0.58
19 -22 2 1.74 1.11
22 -3 -2 -0.1 0.5
22 -3 -5 145.01 3.29
19 -22 5 135.94 3.2
-22 3 8 139.37 3.11
22 -3 -8 132.64 3.12
4 18 -8 22.54 0.81
-18 22 8 20.72 1.15
4 18 -5 40.98 1.32
4 18 -5 41.86 1.57
-18 22 5 40.18 2.23
-18 22 5 38 1.98
18 -22 -5 44.12 1.38
4 18 -2 23.57 1.14
18 -22 -2 24.64 1.03
4 18 -2 22.74 1.2
18 -22 -2 23.3 1.95
18 -22 -2 24.06 1.27
4 18 1 16.78 0.9
18 -22 1 19.64 1.22
22 -4 -1 19.45 0.87
18 -22 1 17.14 1.9
22 -4 -4 61.51 1.67
18 -22 4 62.22 1.69
22 -4 -7 6.66 0.71
18 -22 7 7.67 0.79
-17 22 9 1.64 0.83
-17 22 9 0.93 0.5
5 17 -6 25.64 1.26
-17 22 6 24.41 1.75
17 -22 -3 66.68 1.89
5 17 -3 65.7 2.22
17 -22 -3 67.89 3.02
-17 22 3 65.09 2.67
-17 22 3 71.73 2.57
17 -22 -3 68.29 1.88
5 17 -3 63.27 1.9
5 17 0 18.95 0.92
5 17 0 19.56 0.9
22 -5 0 20.07 0.76
17 -22 3 27.66 1.89
17 -22 3 31.74 1.15
22 -5 -3 30.18 1.16
22 -5 -6 65.14 1.7
17 -22 6 58.74 1.61
-22 5 9 29.28 0.93
17 -22 9 27.49 0.91
-16 22 10 37.56 0.98
6 16 -7 81.82 2.39
16 -22 -4 675.4 14
6 16 -4 663.01 14.05
-16 22 4 659.43 15.38
16 -22 -4 653.21 15.47
6 16 -1 625.72 13.33
6 16 -1 623.48 13.41
16 -22 -1 638.56 13.23
22 -6 1 624.11 13.15
16 -22 -1 633.78 13.21
16 -22 2 2.94 0.92
16 -22 2 3.31 1.58
22 -6 -2 2.61 0.79
-22 6 5 353.76 9.38
22 -6 -5 381.09 8.04
16 -22 5 372.7 8.01
22 -6 -8 311.82 6.84
16 -22 8 323.6 7
7 15 -8 0.32 0.6
7 15 -5 0.7 0.53
15 -22 -5 0.94 0.57
-15 22 5 0.38 0.95
7 15 -2 3.28 0.7
-15 22 2 2.3 0.7
15 -22 -2 2.77 2.13
15 -22 -2 3.61 0.48
7 15 1 11.6 0.71
7 15 1 12.33 0.66
15 -22 1 12.4 1.71
22 -7 -1 12.19 0.63
15 -22 4 47.16 2.33
15 -22 4 47.86 1.46
22 -7 -4 47.2 1.42
15 -22 7 23.98 0.89
15 -22 7 25.01 1.22
-22 7 10 2.76 0.35
8 14 -9 1.83 0.36
-14 22 9 1.71 0.76
-14 22 9 1.5 0.55
-8 -14 6 2.8 0.6
8 14 -6 3.56 0.57
-14 22 6 2.46 1.29
8 14 -3 11.2 0.98
14 -22 -3 11.2 1.21
-14 22 3 12.09 1.18
14 -22 -3 11.42 2.05
-14 22 3 13.5 1.58
8 14 0 2.08 0.51
14 -22 0 2.46 1.12
14 -22 0 2.23 0.47
22 -8 0 2.01 0.82
22 -8 0 2.34 0.38
14 -22 3 7.82 1.53
14 -22 3 9.02 0.89
22 -8 -3 8.12 0.74
14 -22 6 3.67 0.55
22 -8 -6 3.87 0.5
-13 22 10 13.9 0.6
9 13 -7 185.75 4.19
-9 -13 7 182.36 4.22
13 -22 -4 765.23 16.23
9 13 -4 794.53 16.25
-13 22 4 762.68 17.52
-13 22 4 768.99 16.72
9 13 -4 785.97 16.27
13 -22 -4 720.73 17.67
-9 -13 4 785.42 16.18
22 -9 1 410.87 9.9
9 13 -1 419.75 8.94
13 -22 -1 412.61 8.83
13 -22 2 9.65 1.46
9 13 2 12.42 0.67
22 -9 -2 10.83 1.24
9 13 2 12.54 0.61
22 -9 -5 407.51 8.75
-22 9 8 279.18 5.95
22 -9 -8 273.37 6.06
13 -22 8 285.39 6.18
-10 -12 8 0.78 0.5
-12 22 8 0.62 0.77
12 -22 -5 10.54 0.74
-12 22 5 9.98 1.26
-12 22 5 10.57 1.27
-10 -12 5 10.42 0.71
10 12 -5 9.72 0.68
10 12 -2 54.95 1.59
22 -10 2 56.42 2.37
10 12 -2 53.49 1.57
12 -22 -2 55.12 1.53
-12 22 2 52.14 1.97
12 -22 -2 58.95 1.52
22 -10 -1 28.06 1.65
10 12 1 32.99 1.11
10 12 1 30.13 1.05
12 -22 1 29.98 1.08
12 -22 4 -0.84 0.97
22 -10 -4 -0.05 0.66
22 -10 -7 7.5 0.53
12 -22 7 6.2 0.7
-22 10 10 4.06 0.42
11 11 -9 8.04 0.69
-11 22 9 9.5 0.81
-11 22 6 24.18 1.52
11 11 -6 25.37 1
22 -11 6 25.02 0.89
-11 -11 6 25.68 1.03
11 11 -3 4.96 1.14
-11 22 3 4.91 0.8
-11 22 3 6.43 1.37
22 -11 3 5.14 1.23
11 11 0 22.47 0.92
11 11 0 21.53 1.01
11 11 0 23.65 0.88
11 -22 0 22.22 0.88
22 -11 0 21.78 1.48
22 -11 -3 68.98 2.81
-22 11 6 16.33 1.79
22 -11 -6 21.24 0.88
-22 11 9 1.68 0.39
-10 22 10 16.27 0.63
-12 -10 7 110.71 2.72
-10 22 7 111.86 2.8
22 -12 7 108.01 2.61
22 -12 4 689.22 15.01
10 -22 -4 650.61 13.81
12 10 -4 658.82 13.92
-10 22 4 625.4 14.8
-10 22 4 686.09 14.24
10 -22 -4 630.04 15.31
-12 -10 4 660.72 13.77
12 10 -1 453.94 9.76
10 -22 -1 455.97 9.69
22 -12 1 455 9.61
22 -12 -2 2.74 0.95
12 10 2 2.27 0.45
22 -12 -5 361.2 7.87
-22 12 8 265.66 5.88
10 -22 8 269.29 5.85
13 9 -8 36.36 1.1
-9 22 8 36.42 1.35
-13 -9 8 34.95 1.15
13 9 -5 7.6 0.7
-9 22 5 6.98 1.05
-13 -9 5 7.43 0.65
13 9 -2 39.18 1.32
22 -13 2 42.29 2.17
9 -22 -2 41.01 1.22
22 -13 2 39.34 1.16
13 9 1 121.71 2.94
13 9 1 121.3 2.91
22 -13 -1 124.97 3.94
9 -22 1 125.14 2.89
22 -13 -1 113.18 2.74
13 9 1 123.25 2.87
-22 13 4 32.15 1.46
22 -13 -4 25.96 1.56
-22 13 7 3.38 0.63
22 -13 -7 3.58 0.45
9 -22 7 2.72 0.49
-14 -8 9 36.26 1.07
-8 22 9 40.35 1.22
14 8 -6 45.04 1.45
-14 -8 6 46.09 1.42
22 -14 6 44.53 1.42
14 8 -3 2.7 0.83
22 -14 3 3.35 1.14
-8 22 3 3.83 0.85
22 -14 3 1.89 0.4
14 8 0 169.78 3.9
14 8 0 176.75 3.9
22 -14 0 179.3 5.08
8 -22 0 167.78 3.85
22 -14 0 164.48 3.73
22 -14 0 166.5 3.8
22 -14 -3 197.44 5.57
-22 14 3 197.05 4.64
8 -22 6 28.97 1.09
22 -14 -6 30.99 1.11
-22 14 6 30.82 1.05
-7 22 10 11.88 0.45
15 7 -7 88.32 2.2
-15 -7 7 83.79 2.19
-7 22 7 82.69 2.28
22 -15 7 84.26 2.19
22 -15 4 511.14 12.19
15 7 -4 518.21 11.16
-7 22 4 540.11 11.34
22 -15 4 514.86 10.93
15 7 -1 388.3 8.28
22 -15 1 381.13 8.06
7 -22 -1 376.79 8.14
22 -15 1 377.2 8.14
15 7 2 1.11 0.4
22 -15 -2 0.87 0.41
22 -15 -2 1.42 1.58
-22 15 5 233.33 6.71
-22 15 5 223.18 5.32
-22 15 8 165.08 3.87
22 -16 8 90.73 2.23
-16 -6 8 93.3 2.25
16 6 -5 39.45 1.41
-16 -6 5 40.28 1.25
22 -16 5 38.23 1.14
22 -16 2 42.73 1.18
6 -22 -2 43.08 1.26
22 -16 2 41.04 2.44
-6 22 2 44.82 1.48
22 -16 2 41 1.28
16 6 1 273.86 5.89
22 -16 -1 262.53 5.79
16 6 1 263.74 5.89
-6 22 -4 144.48 3.35
-22 16 4 141.15 3.74
-22 16 7 0.48 0.65
22 -16 -7 0.93 0.41
-22 16 7 1.42 0.46
6 -22 7 0.9 0.34
-5 22 9 62.31 1.57
-17 -5 9 60.25 1.51
-17 -5 6 118.43 2.84
17 5 -6 117.35 2.95
22 -17 6 116.87 2.98
-5 22 6 116.67 2.85
17 5 -3 2.85 0.92
22 -17 3 4.61 1.04
22 -17 3 4.12 0.59
-5 22 3 4.14 0.72
17 5 0 187.58 4.28
22 -17 0 181.07 4.12
22 -17 0 184.02 4.2
5 -22 0 186.74 4.17
-5 22 -3 341.88 7.47
22 -17 -3 347.17 8.69
-22 17 3 346.93 7.77
22 -17 -6 86.94 2.29
-22 17 9 3.97 0.6
-18 -4 7 39.3 1.25
22 -18 7 37.88 1.31
18 4 -7 42.36 1.32
18 4 -4 210.79 4.99
22 -18 4 220.31 6.07
22 -18 4 219.57 4.81
18 4 -1 137.66 3.55
22 -18 1 144.04 3.3
4 -22 -1 150.29 3.35
22 -18 1 151.21 4.89
22 -18 1 143.35 3.48
18 4 2 3.08 0.38
22 -18 -2 3.09 0.67
-4 22 -2 3.14 0.73
22 -18 -2 3.28 1.14
-4 22 -5 119.24 2.9
-22 18 5 122.68 3.33
-22 18 8 77.84 2.16
-22 18 8 80.9 1.95
-19 -3 8 95.91 2.25
19 3 -8 96.71 2.23
22 -19 8 91.52 2.31
19 3 -5 125.39 3.21
22 -19 5 133.93 3.04
22 -19 2 2.9 1.13
19 3 -2 1.39 0.79
22 -19 2 2.51 0.64
19 3 1 165.79 3.81
19 3 1 163.01 3.75
-3 22 -1 159.39 3.87
22 -19 -1 162.37 3.84
22 -19 -1 163.27 3.8
22 -19 -1 175.69 5.33
-3 22 -4 213.22 4.82
-22 19 4 209.1 5.15
22 -19 -4 210.43 4.77
22 -19 -7 16.81 0.75
-22 19 7 18.32 0.91
-22 19 7 18.16 0.79
20 2 -9 44.93 1.16
-20 -2 9 50.55 1.19
20 2 -6 115.62 2.9
22 -20 6 108.1 2.63
22 -20 3 22.68 0.88
22 -20 3 21.71 1.7
22 -20 3 24.28 0.95
20 2 0 76.98 2.17
22 -20 0 73.91 2
2 -22 0 76.51 2.04
22 -20 0 76.58 3.3
-2 22 -3 266.52 6.01
22 -20 -3 275.31 5.95
-22 20 3 271.08 6.32
-2 22 -6 86.3 2.19
-22 20 9 2.64 0.64
-22 20 9 2.63 0.31
21 1 -7 41.6 1.29
-21 -1 7 40.3 1.17
22 -21 7 38.53 1.34
21 1 -4 97.97 2.67
22 -21 4 98.06 2.33
22 -21 4 104.23 2.44
21 1 -1 31.05 1.12
21 1 -1 32.07 1.39
22 -21 1 29.9 2.32
-1 22 -2 13.47 0.88
22 -21 -2 14.7 0.88
22 -21 -2 13.94 1.69
-1 22 -5 67.42 1.9
-22 21 5 65.39 2.32
-22 21 8 19.83 0.95
-22 21 8 19.46 0.73
22 0 -8 118.85 2.68
-22 0 8 119.21 2.65
22 -22 8 118.5 2.78
22 0 -5 165.81 4.02
22 -22 5 171.04 3.8
22 0 -2 2.13 0.66
22 -22 2 2.34 0.51
22 -22 2 1.01 0.88
22 0 -2 2.85 0.48
22 -22 2 2.22 0.6
22 0 1 177.51 4.19
22 0 1 180.35 4.1
0 22 -1 181.74 4.24
22 -22 -1 183.06 4.17
22 -22 -1 180.46 4.21
0 22 -4 283.22 6.23
-22 22 4 271.94 6.56
22 -22 -4 283.68 6.15
0 22 -7 55.18 1.44
-22 22 7 53.56 1.59
-22 22 7 55.03 1.47
-22 23 9 0.51 0.43
1 22 -6 73.3 1.94
-22 23 6 68.01 2.36
22 -23 -3 182.59 4.07
1 22 -3 171.4 4.13
-22 23 3 172.27 4.43
22 -23 -3 177.64 5.44
23 -1 0 29.04 1.17
22 -23 0 30.02 1.08
23 -1 0 29.37 1.01
22 -23 0 30.53 1.21
22 -23 0 30.91 2.17
22 -23 3 33.36 1.09
22 -23 3 32.7 1.93
22 -23 3 36.61 1.2
23 -1 -6 113.78 2.85
22 -23 6 117.41 2.68
2 21 -7 139.03 3.23
-21 23 7 143.02 3.34
2 21 -4 41.38 1.47
-21 23 4 38.66 2.11
-21 23 4 42.98 1.88
21 -23 -4 44.56 1.39
23 -2 1 49.17 1.5
23 -2 1 46.36 1.33
21 -23 -1 49.9 1.56
21 -23 -1 51.67 2.67
21 -23 2 202.93 6.1
23 -2 -2 211.43 4.83
21 -23 2 214.24 4.69
23 -2 -2 206.45 4.69
23 -2 -5 73.86 2.12
21 -23 5 75.59 1.83
-23 2 8 0.23 0.32
23 -2 -8 0.86 0.35
21 -23 8 0.69 0.36
-20 23 8 28.37 1.14
-20 23 8 26.27 0.9
3 20 -5 0.36 0.43
3 20 -5 0.96 0.67
-20 23 5 0.85 1.18
3 20 -2 118 3.04
20 -23 -2 120.26 4.37
3 20 -2 122.14 3.11
20 -23 -2 124.68 3.02
20 -23 -2 130.06 3.05
23 -3 -1 107.8 2.79
20 -23 1 112.43 4.22
20 -23 1 110.36 2.75
23 -3 -1 109.68 2.67
20 -23 1 112.63 2.74
20 -23 4 3.33 0.51
20 -23 4 4.67 0.86
23 -3 -4 3.33 0.48
23 -3 -7 13.64 0.75
-23 3 7 16.98 0.72
-19 23 9 3.69 0.66
-19 23 9 3.46 0.42
4 19 -6 28.45 1.21
-19 23 6 25.46 1.83
19 -23 -3 14 1.55
4 19 -3 13.85 0.82
4 19 -3 13.02 0.96
19 -23 -3 15.66 0.86
-19 23 3 14.18 1.4
-19 23 3 15.13 1.29
19 -23 -3 15.76 0.82
23 -4 0 15.26 0.88
4 19 0 15.09 0.9
19 -23 0 15.13 0.92
19 -23 0 12.94 1.72
23 -4 0 14.91 0.73
19 -23 0 14.48 0.92
19 -23 3 43.98 2.37
19 -23 3 52.05 1.5
23 -4 -6 55.93 1.67
19 -23 6 52.5 1.39
-23 4 9 12.62 0.53
5 18 -7 295.56 6.53
18 -23 -4 226.14 5.02
5 18 -4 220.75 5.06
5 18 -4 215.62 5.25
-18 23 4 226.58 6.34
-18 23 4 229.84 5.56
23 -5 1 8.22 0.58
5 18 -1 8.1 0.77
5 18 -1 7.26 0.8
18 -23 -1 9.15 1.51
23 -5 1 7.67 0.49
18 -23 -1 6.98 0.8
18 -23 2 396.3 8.39
18 -23 2 384.37 9.92
23 -5 -2 384.78 8.34
23 -5 -5 283.5 6.15
18 -23 5 279.9 6.11
-23 5 8 14.8 0.68
18 -23 8 14.88 0.75
6 17 -8 5.16 0.54
6 17 -5 14.71 0.81
-17 23 5 12.6 1.4
6 17 -5 15.07 1.09
17 -23 -5 14.97 0.82
6 17 -2 1.79 0.7
-17 23 2 1.33 0.85
17 -23 -2 1.8 1.17
17 -23 -2 1.36 0.71
6 17 1 27.22 1.31
17 -23 1 30.36 1.24
23 -6 -1 28.25 1.16
17 -23 1 29.56 2.14
17 -23 4 22.24 0.94
23 -6 -4 22.1 0.88
23 -6 -7 2.09 0.57
17 -23 7 1.88 0.65
-16 23 9 15.49 0.77
7 16 -6 55.26 1.6
7 16 -3 9.25 0.93
16 -23 -3 10.86 0.9
-16 23 3 8.35 1.1
16 -23 -3 10.58 0.75
7 16 0 37.3 1.37
16 -23 0 39.75 1.68
23 -7 0 37.59 1.17
16 -23 3 42.85 1.46
23 -7 -3 41.43 1.34
16 -23 3 40.32 2.3
23 -7 -6 13.46 0.69
16 -23 6 11.39 0.68
-23 7 9 1.12 0.47
-15 23 10 63.32 1.46
15 -23 -4 314.13 6.74
8 15 -4 302.18 6.8
-15 23 4 296.66 7.93
15 -23 -4 286.95 8.11
-15 23 4 326.46 7.29
8 15 -1 31.44 1.55
15 -23 -1 32.31 2.49
8 15 -1 30.58 1.47
15 -23 -1 30.04 1.39
23 -8 1 28.53 0.96
15 -23 -1 28.89 1.03
15 -23 2 690.11 15.56
15 -23 2 664.65 13.83
23 -8 -2 644.87 13.8
15 -23 5 446.07 9.45
23 -8 -5 443.05 9.47
23 -8 -8 18.89 0.82
15 -23 8 20.65 0.87
9 14 -8 15.46 0.91
-14 23 8 13.49 0.97
9 14 -5 22.41 0.97
-14 23 5 19.95 1.59
-14 23 5 21.07 1.56
14 -23 -5 23.43 0.97
9 14 -2 0.29 0.8
14 -23 -2 0.08 1.34
-14 23 2 0.54 0.58
14 -23 -2 0.63 0.52
9 14 1 27.43 1.13
9 14 1 26.26 0.99
14 -23 1 27.6 1.28
14 -23 1 23.44 2.31
23 -9 -1 28.23 1.04
23 -9 -1 30.7 1.98
14 -23 4 32.9 1.14
23 -9 -4 31.28 1.13
23 -9 -7 9.71 0.6
14 -23 7 7.97 0.62
14 -23 7 9.41 0.78
-23 9 10 0.05 0.27
10 13 -9 7.4 0.51
-13 23 9 8.31 0.78
-13 23 9 8.44 0.67
10 13 -6 5.8 0.59
-13 23 6 5.35 1.22
-10 -13 6 5.75 0.62
10 13 -3 1.8 0.73
10 13 -3 2.21 0.7
-13 23 3 1.05 0.68
-13 23 3 1.59 1.1
13 -23 -3 1.59 1.16
23 -10 0 27.96 2.07
10 13 0 25.86 1.06
10 13 0 27.89 1.1
13 -23 0 27.06 1.06
13 -23 3 10.13 0.94
23 -10 -3 9.84 0.89
23 -10 -6 -0.25 0.43
11 12 -7 393.64 8.7
-11 -12 7 406.69 8.71
12 -23 -4 190.27 5.84
12 -23 -4 201.46 4.47
11 12 -4 194.83 4.49
-12 23 4 195.26 4.86
-11 -12 4 195.81 4.4
23 -11 1 83.92 3.31
12 -23 -1 80.69 2.09
23 -11 -2 603.59 14.44
11 12 2 650.03 13.47
12 -23 2 640.45 13.45
23 -11 -5 450.68 9.65
12 -23 8 27.49 0.88
12 -23 8 27.9 0.97
-11 23 8 7.24 0.8
12 11 -5 67.27 1.9
-11 23 5 67.63 2.29
23 -12 5 68.16 1.8
-12 -11 5 65.83 1.81
12 11 -2 62.95 1.96
23 -12 2 67.46 2.77
11 -23 -2 64.77 1.83
23 -12 2 62.68 1.62
23 -12 -1 1.91 1.61
12 11 1 1.73 0.5
12 11 1 1.69 0.43
11 -23 1 1.58 0.68
11 -23 4 18.03 1.75
23 -12 -4 23.15 1.01
23 -12 -7 18.15 0.76
11 -23 7 18.22 0.87
-23 12 10 2.07 0.32
-10 23 9 12.63 0.73
-10 23 9 13.66 0.74
13 10 -6 1.27 0.52
-13 -10 6 1.54 0.52
23 -13 6 1.39 0.4
13 10 -3 110.94 2.86
23 -13 3 108.24 3.7
-10 23 3 116.67 3.1
23 -13 3 108.57 2.59
13 10 0 203.22 4.53
13 10 0 207.87 4.58
23 -13 0 216.03 5.9
13 10 0 194.94 4.67
10 -23 0 196.94 4.5
23 -13 0 194.16 4.34
23 -13 -3 51.93 2.26
10 -23 6 2.44 0.54
-23 13 6 3.08 0.52
23 -13 -6 2.25 0.52
-23 13 9 15.16 0.58
-9 23 10 44.28 1.07
-9 23 7 323.26 6.94
23 -14 7 308.64 6.78
-14 -9 7 315.99 6.82
23 -14 4 233.61 6.33
-9 23 4 236.5 5.59
14 9 -4 234.54 5.36
14 9 -1 18.55 0.99
23 -14 1 19.29 0.68
9 -23 -1 19.95 0.85
23 -14 1 18.9 0.76
14 9 2 477.44 10.23
23 -14 -2 491.92 11.47
23 -14 -5 438.7 9.47
9 -23 8 27.51 0.87
-23 14 8 27.85 1.03
-15 -8 8 2.95 0.47
15 8 -8 3.91 0.44
-8 23 8 3.72 0.64
15 8 -5 45.8 1.49
-8 23 5 44.55 1.7
-15 -8 5 42.67 1.31
23 -15 2 155.93 4.75
8 -23 -2 150.78 3.48
-8 23 2 149.3 3.69
23 -15 2 146.54 3.47
15 8 1 28.16 1.06
23 -15 -1 26.4 1.99
8 -23 1 27.34 1.28
23 -15 -1 25.82 0.91
15 8 1 29.35 1
23 -15 -4 34.5 1.9
-23 15 4 35.66 1.49
23 -15 -7 94.92 2.23
-23 15 7 91.94 2.36
-7 23 9 37.09 1.11
16 7 -6 0.84 0.58
-16 -7 6 1.5 0.51
-7 23 6 1.37 0.48
23 -16 6 1.39 0.47
23 -16 3 149.63 4.73
-7 23 3 159.27 3.86
23 -16 3 149.85 3.54
16 7 -3 159.38 3.78
16 7 0 240.71 5.36
16 7 0 248.48 5.33
23 -16 0 233.82 5.18
23 -16 0 247.14 6.73
7 -23 0 233.39 5.28
23 -16 0 234.75 5.29
-23 16 3 22.6 1.26
23 -16 -3 24.56 1.66
23 -16 -6 57 1.6
7 -23 6 48.72 1.48
7 -23 9 82.91 1.91
17 6 -7 173.68 3.84
23 -17 7 163.04 3.85
-17 -6 7 165.42 3.77
17 6 -4 90.35 2.46
23 -17 4 84.94 3.2
-6 23 4 94.82 2.57
23 -17 4 89.45 2.24
17 6 -1 43.55 1.58
23 -17 1 43.86 1.25
6 -23 -1 41.64 1.38
23 -17 1 44.28 1.54
23 -17 -2 366.25 9.17
17 6 2 355.71 7.81
-23 17 2 358.61 8.09
23 -17 -2 366.51 7.75
-6 23 -5 232.47 5.13
-23 17 5 231.87 6.73
-23 17 5 235.72 5.53
6 -23 5 233.52 5.19
-23 17 8 12.91 0.8
23 -18 8 12.95 0.57
-18 -5 8 11.47 0.57
18 5 -5 25.75 1.12
23 -18 5 25.39 0.88
23 -18 2 174 5.22
23 -18 2 166.37 3.75
23 -18 2 165.3 3.85
18 5 1 94.79 2.46
23 -18 -1 91.08 2.34
18 5 1 95.34 2.44
23 -18 -1 95.3 3.61
-5 23 -4 4.04 0.53
-23 18 4 3.57 0.93
23 -18 -7 70.91 1.82
-23 18 7 73.7 1.98
19 4 -6 0.52 0.64
-19 -4 6 0.53 0.42
23 -19 6 -0.18 0.49
19 4 -3 191.97 4.56
23 -19 3 192.82 5.63
23 -19 3 197.41 4.42
19 4 0 451.18 9.8
23 -19 0 453.15 9.65
4 -23 0 452.3 9.71
-4 23 -3 111.86 2.75
23 -19 -3 106.36 3.77
-23 19 3 106.75 3.05
-4 23 -6 23.31 0.85
23 -19 -6 27.15 1.05
20 3 -7 112.62 2.65
-20 -3 7 105.54 2.53
23 -20 7 110.02 2.7
20 3 -4 77.31 2.22
23 -20 4 73.48 2.94
20 3 -1 2.71 0.91
23 -20 1 2.68 0.55
23 -20 1 2.78 1.35
23 -20 1 2.87 0.78
23 -20 -2 32.86 1.18
-3 23 -2 31.63 1.2
20 3 2 31.57 1.05
-23 20 2 33.8 1.54
23 -20 -2 33.73 2.12
-3 23 -5 26.69 1.03
-23 20 5 26.59 1.45
-23 20 8 -0.22 0.57
-23 20 8 0.42 0.31
23 -21 8 40.4 1.15
-21 -2 8 40.01 1.05
21 2 -8 40.95 1.07
21 2 -5 12.6 0.86
23 -21 5 11.17 0.64
23 -21 2 297.65 6.37
21 2 -2 288.68 6.61
23 -21 2 295.42 7.94
23 -21 2 297.48 6.47
21 2 1 381.86 8.25
23 -21 -1 383.33 8.2
21 2 1 374.3 8.2
-2 23 -1 379.04 8.26
23 -21 -1 383.45 8.24
23 -21 -1 397.43 10
23 -21 -4 36.91 1.29
-2 23 -4 37.44 1.3
-23 21 4 36.24 2.07
-23 21 4 35.8 1.65
-23 21 7 36.99 1.25
-23 21 7 38.96 1.13
22 1 -6 4.62 0.65
23 -22 6 5.25 0.47
23 -22 3 97.56 3.63
23 -22 3 108.1 2.63
22 1 0 324.53 7.21
23 -22 0 331.18 7.09
23 -22 0 327.02 7.18
23 -22 0 322.63 8.75
-1 23 -3 113.58 2.85
-23 22 3 107.81 3.14
23 -22 -3 115.94 2.79
-1 23 -6 6.88 0.61
-23 22 9 59.28 1.47
23 0 -7 13.6 0.68
23 -23 7 13.49 0.7
23 0 -4 7.42 0.82
23 -23 4 7.81 0.63
23 0 -1 139.56 3.51
23 -23 1 145.63 3.35
0 23 -2 149.17 3.69
-23 23 2 151.34 3.95
23 -23 -2 158.48 3.64
23 -23 -2 159.24 5.08
-23 23 5 5.83 1.2
0 23 -5 5.19 0.65
-23 23 8 22.39 0.97
-23 23 8 20.44 0.65
-23 24 7 11.02 0.69
-23 24 7 12.79 0.57
1 23 -4 47.45 1.52
-23 24 4 46.57 1.91
23 -24 -4 48.49 1.49
24 -1 1 207.28 4.72
23 -24 -1 207.47 4.71
1 23 -1 209.21 4.78
23 -24 -1 207.78 4.75
23 -24 -1 197.82 6.17
24 -1 -2 79.79 2.28
24 -1 -2 81.39 2.11
23 -24 2 78.91 3.2
23 -24 2 84.31 2.19
24 -1 -5 5.68 0.74
23 -24 5 5.98 0.6
24 -1 -8 74.28 1.71
-22 24 8 4.94 0.75
-22 24 8 5.31 0.43
2 22 -5 129.95 3.14
-22 24 5 123.29 3.55
2 22 -2 135.62 3.41
-22 24 2 140.57 3.69
22 -24 -2 143.17 3.35
22 -24 -2 130.04 4.69
22 -24 -2 140.96 3.37
24 -2 -1 3.49 0.63
22 -24 1 5.18 1.2
24 -2 -1 4.07 0.46
22 -24 1 4.82 0.71
24 -2 -4 42.08 1.51
24 -2 -4 44.84 1.36
22 -24 4 45.59 1.27
24 -2 -7 50.79 1.46
22 -24 7 52.5 1.52
-21 24 9 24.16 0.86
3 21 -6 67.11 1.85
-21 24 6 62.9 2.26
21 -24 -3 23.75 1.03
3 21 -3 22.33 0.97
3 21 -3 22.22 1.09
-21 24 3 21.42 1.55
-21 24 3 20.57 1.41
21 -24 -3 22.63 1.72
24 -3 0 5.7 0.68
3 21 0 5.44 0.69
24 -3 0 5.8 0.5
21 -24 0 5.55 0.72
21 -24 0 5.89 1.26
21 -24 3 73.91 1.92
21 -24 3 75.08 3.08
24 -3 -6 28.82 1.14
4 20 -7 9.13 0.62
-20 24 7 9.52 0.74
4 20 -4 120.89 2.92
4 20 -4 116.7 3.02
-20 24 4 112.17 3.96
-20 24 4 119.4 3.39
20 -24 -4 117.98 2.89
24 -4 1 330.51 7.18
4 20 -1 332.55 7.22
20 -24 -1 345.04 8.97
24 -4 1 319.36 7.01
20 -24 -1 332.08 7.17
20 -24 2 109.42 2.6
24 -4 -2 101.76 2.54
20 -24 2 100.24 3.81
24 -4 -5 2.97 0.63
20 -24 5 3.02 0.45
24 -4 -5 3.02 0.51
-24 4 8 67.92 1.63
24 -4 -8 68.38 1.68
5 19 -8 2.06 0.35
-19 24 8 2.04 0.67
-19 24 8 2.05 0.44
5 19 -5 6.22 0.6
5 19 -5 6.85 0.81
-19 24 5 5.8 1.24
19 -24 -5 6.13 0.66
5 19 -2 26.57 1.13
19 -24 -2 28.63 1.11
19 -24 -2 24.88 1.99
-19 24 2 26.52 1.62
19 -24 -2 27.69 1.09
19 -24 1 35.41 1.23
19 -24 1 31.94 2.23
24 -5 -1 33.19 1.11
5 19 1 35.78 1.25
19 -24 4 3.51 0.54
19 -24 4 2.46 0.86
24 -5 -4 2.92 0.47
24 -5 -7 5.18 0.6
-24 5 7 5.58 0.5
19 -24 7 5.94 0.64
-18 24 9 27.51 0.84
6 18 -6 9.95 0.63
6 18 -6 10.15 0.97
6 18 -3 16.15 0.9
18 -24 -3 16.69 0.87
6 18 -3 17.44 1.07
18 -24 -3 15.44 1.55
-18 24 3 15.07 1.37
18 -24 -3 17.32 0.82
6 18 0 72.6 2.13
6 18 0 71.93 2.11
24 -6 0 71.52 1.88
18 -24 0 77.93 3.51
18 -24 0 73.46 2.05
18 -24 3 75.74 3.15
18 -24 3 81.23 2.11
24 -6 -6 10.93 0.65
18 -24 6 9.71 0.58
-24 6 9 4.92 0.36
7 17 -7 133.28 3.28
17 -24 -4 21.17 0.94
7 17 -4 20.77 0.97
7 17 -4 20.66 1.2
7 17 -1 431.7 9.47
7 17 -1 436 9.51
17 -24 -1 439.61 9.34
24 -7 1 432.08 9.24
17 -24 -1 449.38 11.21
17 -24 -1 444.34 9.34
17 -24 2 391.87 8.28
24 -7 -2 380.62 8.24
17 -24 2 366.34 9.81
24 -7 -5 8.17 0.61
17 -24 5 9.12 0.66
24 -7 -8 114.1 2.75
17 -24 8 125.02 2.86
8 16 -8 30.35 1.05
-16 24 8 29.82 1.21
8 16 -5 6.92 0.67
-16 24 5 5.79 1.23
16 -24 -5 7.14 0.66
8 16 -2 3.82 0.8
8 16 -2 3.98 1.01
16 -24 -2 4.69 1.6
16 -24 -2 3.34 0.65
8 16 1 16.99 0.98
8 16 1 17.1 0.9
24 -8 -1 16.34 0.83
16 -24 4 2.93 0.95
16 -24 4 4.03 0.61
24 -8 -4 3.52 0.54
16 -24 7 2.98 0.44
16 -24 7 2.75 0.59
9 15 -9 10.57 0.47
-15 24 9 10.89 0.81
-15 24 9 11.07 0.63
9 15 -6 0.89 0.5
-15 24 6 -0.5 1.23
9 15 -3 23.52 1.04
15 -24 -3 20.35 0.93
-15 24 3 24.74 1.46
15 -24 -3 24.06 2.06
9 15 0 40.09 1.57
15 -24 0 40.38 2.53
15 -24 0 40.65 1.4
24 -9 0 41.06 1.39
15 -24 3 27.14 1.09
24 -9 -3 24.95 1.01
15 -24 3 23.55 1.91
15 -24 6 1.55 0.53
24 -9 -6 1.08 0.45
-24 9 9 2.12 0.49
10 14 -7 60.41 1.67
-14 24 7 63.26 1.79
10 14 -4 166.65 3.98
-14 24 4 173.79 4.39
14 -24 -4 169.86 3.92
10 14 -1 868.95 18.2
10 14 -1 879.82 18.34
14 -24 -1 877.84 18.06
14 -24 -1 915.01 20.06
24 -10 1 841.27 18.04
24 -10 1 901.72 19.42
10 14 2 571.18 11.81
14 -24 2 565.39 13.6
24 -10 -2 547.89 11.88
14 -24 5 15.47 0.8
24 -10 -5 13.99 0.76
24 -10 -8 103.05 2.47
14 -24 8 103.1 2.49
11 13 -8 22.42 1.06
-13 24 8 21.14 1.01
11 13 -5 1.53 0.51
13 -24 -5 1.84 0.52
-13 24 5 1.89 1.05
11 13 -2 37.12 1.45
24 -11 2 43.22 2.13
13 -24 -2 40.37 1.3
13 -24 -2 39.52 2.44
24 -11 2 37.03 1.16
13 -24 -2 40.25 1.55
11 13 -2 38.66 1.41
24 -11 -1 114.4 3.77
11 13 1 113.03 2.93
11 13 1 114.33 2.81
13 -24 1 118.89 2.89
24 -11 -4 42.57 1.41
13 -24 4 39.36 2.25
13 -24 7 0.88 0.48
24 -11 -7 0.56 0.38
13 -24 7 0.55 0.47
12 12 -9 0.33 0.49
-12 24 9 0.1 0.62
12 12 -6 31.57 1.14
12 12 -3 89.13 2.33
-12 24 3 88.65 2.66
12 -24 -3 89.07 3.77
12 12 -3 85.11 2.33
24 -12 3 94.21 3.34
24 -12 0 44.38 2.19
12 12 0 40.04 1.58
12 12 0 43.25 1.47
12 -24 0 42.13 1.55
12 -24 3 1.37 1.31
24 -12 -6 12.66 0.71
13 11 -7 62.59 1.72
-11 24 7 62.7 1.79
-13 -11 7 64.14 1.69
11 -24 -4 73.82 1.97
-11 24 4 77.68 2.39
13 11 -4 74.08 2.07
13 11 -1 574.62 12.46
13 11 -1 589.47 12.5
11 -24 -1 589.26 12.41
24 -13 -2 450.82 10.82
13 11 2 449.14 9.69
11 -24 2 455.4 9.68
24 -13 -5 12.58 0.78
11 -24 8 97.73 2.23
11 -24 8 92.09 2.24
14 10 -8 29.92 0.93
-10 24 8 29.8 1.11
14 10 -5 38.79 1.3
-10 24 5 33.91 1.56
24 -14 5 36.2 1.18
-14 -10 5 36.26 1.15
24 -14 2 0.38 0.96
10 -24 -2 0.9 0.63
-10 24 2 1.79 0.86
24 -14 2 0.68 0.49
14 10 1 73.83 2.08
24 -14 -1 76.54 2.97
14 10 1 69.55 1.9
10 -24 1 71.51 2.01
10 -24 4 67.08 2.92
24 -14 -7 11.19 0.58
10 -24 7 11.08 0.62
15 9 -9 4.86 0.65
-9 24 9 5.3 0.51
24 -15 6 105.54 2.65
-15 -9 6 107.6 2.62
15 9 -3 158.19 3.84
24 -15 3 160.35 4.93
-9 24 3 164.2 4.06
24 -15 3 159.52 3.65
15 9 0 8.94 0.82
15 9 0 10.99 0.88
15 9 0 9.72 0.79
24 -15 0 11.22 1.44
9 -24 0 9.88 0.96
24 -15 0 11.08 0.62
24 -15 -3 63.68 2.71
-24 15 6 94.53 2.4
9 -24 6 96.37 2.46
-24 15 9 14.63 0.56
-8 24 7 58.61 1.67
24 -16 7 56.63 1.53
-16 -8 7 56.37 1.52
16 8 -4 48.25 1.59
-8 24 4 48.78 1.72
24 -16 4 48.08 1.34
24 -16 1 455.38 9.68
16 8 -1 454.59 9.91
24 -16 1 488.12 11.44
8 -24 -1 470.52 9.81
24 -16 1 459.86 9.78
16 8 2 350.2 7.65
24 -16 -2 368.05 9.02
-24 16 2 353.44 7.82
24 -16 -2 349.31 7.56
-24 16 5 5.01 1.21
-24 16 5 5.07 0.85
24 -16 -5 4.19 0.68
-24 16 8 76.63 1.96
17 7 -8 37.57 1.07
-17 -7 8 36.46 1.03
17 7 -5 108.05 2.78
24 -17 2 20.24 1.79
7 -24 -2 21.01 0.9
-7 24 2 23.62 1.12
24 -17 2 21.69 1.09
17 7 1 43.24 1.37
17 7 1 41.64 1.4
24 -17 -1 41.84 2.37
7 -24 1 42.02 1.42
24 -17 -1 42.43 1.29
-24 17 4 120.68 3.2
24 -17 -7 47.87 1.32
-24 17 7 48.05 1.47
-6 24 9 0.7 0.32
24 -18 6 131.25 3.24
-18 -6 6 132.49 3.08
-6 24 3 317.97 6.98
24 -18 3 314.53 6.76
18 6 -3 307.83 6.95
18 6 0 59.86 1.83
24 -18 0 63.16 1.69
18 6 0 64.25 1.8
24 -18 0 63.82 3.07
6 -24 0 62.07 1.78
24 -18 0 60.46 1.87
24 -18 -3 69.07 2.85
-24 18 3 71.59 2.22
24 -18 -6 185.65 4.27
6 -24 9 31.65 0.84
19 5 -7 20.32 0.81
24 -19 7 19.88 0.8
-19 -5 7 19.2 0.71
19 5 -4 21.51 1.09
24 -19 4 22.46 0.88
19 5 -1 172.07 4.09
24 -19 1 172.04 3.88
5 -24 -1 169.87 3.9
24 -19 1 180.33 5.48
24 -19 1 170.22 3.97
19 5 2 133.87 3.21
24 -19 -2 136.55 4.48
-24 19 2 133.16 3.49
24 -19 -2 135.18 3.18
-24 19 5 3.65 0.93
-24 19 8 26.58 0.99
-20 -4 8 15.52 0.54
20 4 -5 86.14 2.3
24 -20 5 82.32 2.05
20 4 -2 41.19 1.47
24 -20 2 40.06 1.2
24 -20 2 36.72 2.15
24 -20 2 38.94 1.32
20 4 1 24.12 1.1
24 -20 -1 26.77 1.03
20 4 1 25.32 1.13
24 -20 -1 28.33 1.98
4 -24 1 27.77 1.07
24 -20 -1 25.42 1.06
-4 24 -4 157.49 3.66
-24 20 4 151.96 3.97
24 -20 -7 94.02 2.24
-24 20 7 98.87 2.41
21 3 -6 109.79 2.73
24 -21 6 109.01 2.76
24 -21 3 220.11 4.79
24 -21 3 225.77 4.95
24 -21 0 23.8 0.97
21 3 0 24.41 1.07
3 -24 0 25.51 1.05
24 -21 0 24.91 1.9
-3 24 -3 112.97 2.83
24 -21 -3 112.52 3.89
-24 21 3 113.7 3.16
24 -21 -6 250.8 5.56
3 -24 9 58.79 1.35
22 2 -7 0.33 0.41
24 -22 7 0.22 0.38
22 2 -4 36.55 1.4
24 -22 4 40.29 1.24
22 2 -1 69.85 2.04
24 -22 1 73.42 1.89
24 -22 1 70.4 3.13
24 -22 1 72.06 2
24 -22 -2 8.19 0.73
-2 24 -2 6.74 0.72
24 -22 -2 8.42 1.2
-24 22 2 8.92 1.06
-2 24 -5 11.02 0.71
-24 22 5 10.87 1.22
-24 22 8 20.04 0.89
23 1 -5 186.64 4.34
24 -23 5 186.61 4.15
23 1 -2 229.37 5.48
24 -23 2 248.96 5.32
24 -23 2 234.12 6.74
24 -23 2 248.69 5.44
23 1 1 17.73 0.84
24 -23 -1 15.33 0.85
23 1 1 17.37 0.79
1 -24 1 16.37 0.8
24 -23 -1 17.17 0.95
24 -23 -1 18.04 1.63
-1 24 -4 68.21 1.88
-24 23 4 62.45 2.22
-24 23 7 100.88 2.45
24 0 -6 175.38 4.04
24 -24 6 178.8 4.1
24 -24 3 391.27 8.45
24 -24 3 413.55 8.6
24 0 0 109.25 2.81
24 -24 0 112.34 2.73
24 -24 0 112.14 2.82
24 -24 0 105.57 4.05
0 24 -3 34.54 1.28
-24 24 3 35.27 1.65
24 -24 -3 36.11 1.26
0 24 -6 156.65 3.54
-24 25 8 33.06 0.99
1 24 -5 59 1.66
-24 25 5 57.49 2.01
1 24 -2 7.62 0.73
-24 25 2 7.76 1.1
25 -1 -1 24.85 1.09
24 -25 1 27.84 1.01
24 -25 1 24.74 1.85
25 -1 -4 56.37 1.78
24 -25 4 58.33 1.65
25 -1 -7 20.83 0.75
24 -25 7 18.88 0.74
2 23 -6 20.63 0.84
23 -25 -3 67.3 1.86
2 23 -3 62.7 1.89
-23 25 3 66.87 2.27
25 -2 0 319.3 7.19
23 -25 0 327.59 7.11
23 -25 0 336.35 7.2
23 -25 0 330.58 8.92
25 -2 -3 119.54 3.12
23 -25 3 123.62 2.89
23 -25 3 128.31 3.01
25 -2 -6 3.58 0.58
23 -25 6 4.66 0.45
23 -25 6 4.4 0.57
3 22 -7 68.22 1.67
-22 25 7 64.52 1.76
3 22 -4 153.58 3.66
-22 25 4 150.42 3.99
22 -25 -4 151.28 3.55
25 -3 1 21.65 0.93
22 -25 -1 24.57 1.86
22 -25 -1 23.46 1.05
25 -3 -2 67.72 2
22 -25 2 71.4 1.85
25 -3 -2 68.83 1.83
22 -25 2 67.53 3
25 -3 -5 163.47 3.95
22 -25 5 161.81 3.66
25 -3 -8 46.75 1.18
-21 25 8 18.29 0.93
-21 25 8 18.01 0.7
4 21 -5 43.44 1.47
-21 25 5 42.56 1.97
4 21 -2 9.63 0.82
21 -25 -2 10.63 0.79
-21 25 2 9.33 1.08
-21 25 2 11.07 1.16
21 -25 -2 9.68 0.73
21 -25 -2 9.01 1.36
25 -4 -1 24.73 1.04
21 -25 1 25.08 1.92
21 -25 1 25.07 1
25 -4 -1 25.35 0.92
21 -25 1 26.94 1.1
25 -4 -4 63.66 1.69
21 -25 4 63.5 1.65
25 -4 -7 24.1 0.91
-20 25 9 18.09 0.7
5 20 -6 -0.03 0.57
-20 25 6 0.71 1.12
20 -25 -3 35.23 2.09
20 -25 -3 35.35 1.25
5 20 -3 35.65 1.25
5 20 -3 33.69 1.34
-20 25 3 31.71 1.81
-20 25 3 33.99 1.66
25 -5 0 101.65 2.61
5 20 0 107.41 2.68
20 -25 0 104.1 4
25 -5 0 98.94 2.47
20 -25 0 105.95 2.65
20 -25 3 19.14 1.6
20 -25 3 22.66 0.92
25 -5 -6 7.6 0.71
6 19 -7 72.77 1.92
6 19 -4 270.47 5.96
19 -25 -4 266.89 5.89
6 19 -4 264.25 6.1
25 -6 1 169.36 3.96
6 19 -1 169.65 4.04
6 19 -1 172.41 4.07
19 -25 -1 170.23 5.53
25 -6 1 166.67 3.81
19 -25 -1 175.4 3.98
19 -25 2 1.45 0.9
19 -25 2 2.04 0.59
25 -6 -2 1.61 0.45
25 -6 -5 178.9 4.07
19 -25 5 180.77 4.03
25 -6 -8 110.68 2.59
-25 6 8 115.49 2.53
19 -25 8 112.93 2.64
7 18 -8 1.67 0.4
7 18 -5 11.4 0.7
7 18 -5 10.09 0.97
18 -25 -5 10.72 0.71
7 18 -2 63.91 1.9
18 -25 -2 67.52 1.85
18 -25 -2 67.19 1.83
7 18 1 43.87 1.39
25 -7 -1 41.98 1.3
18 -25 1 42.85 2.49
18 -25 4 2.93 0.58
18 -25 4 2.85 0.84
25 -7 -4 2.69 0.47
25 -7 -7 4.28 0.58
18 -25 7 5.18 0.58
-17 25 9 2.6 0.51
-17 25 9 2.85 0.39
8 17 -6 17.3 0.83
8 17 -6 17.4 1.11
-17 25 6 17.26 1.43
8 17 -3 131.13 3.3
17 -25 -3 131.01 3.21
17 -25 -3 136.03 4.65
-17 25 3 137.84 3.66
17 -25 -3 137.58 3.16
8 17 0 161.6 3.89
17 -25 0 166.74 3.8
25 -8 0 160.26 3.75
17 -25 0 166.9 5.45
17 -25 3 6.74 1.18
17 -25 3 9.36 0.73
25 -8 -6 20.49 0.83
17 -25 6 20.02 0.84
9 16 -7 87.83 2.41
-16 25 7 91.03 2.31
16 -25 -4 533.91 11.1
9 16 -4 511.68 11.19
-16 25 4 525.48 11.55
16 -25 -1 481.94 11.72
9 16 -1 443.9 9.78
9 16 -1 450.64 9.84
16 -25 -1 461.71 9.66
25 -9 1 442.93 9.58
16 -25 -1 460.3 9.65
16 -25 2 3.72 1.16
25 -9 -2 2.5 0.51
25 -9 -5 275.77 5.99
16 -25 5 271.54 5.99
25 -9 -8 226.31 4.96
16 -25 8 228.69 4.98
10 15 -8 0.35 0.49
-15 25 8 1.03 0.61
10 15 -5 46.71 1.55
-15 25 5 49.43 1.99
15 -25 -5 52.53 1.48
15 -25 -2 82.26 3.63
10 15 -2 84.2 2.29
10 15 -2 83.83 2.48
15 -25 -2 83.01 2.21
10 15 1 10.97 0.85
15 -25 1 10.18 0.83
25 -10 -1 9.5 0.78
15 -25 1 9.67 1.71
10 15 1 10.47 0.74
15 -25 4 10.45 0.76
25 -10 -4 11.06 0.7
15 -25 7 22.78 0.84
15 -25 7 24.33 0.97
11 14 -9 13.57 0.51
-14 25 9 14.4 0.67
-14 25 9 14.38 0.62
11 14 -6 58.48 1.7
11 14 -3 53.11 1.67
14 -25 -3 53.18 1.54
14 -25 -3 55.37 2.81
-14 25 3 50.42 1.93
11 14 0 9.61 0.97
11 14 0 9.76 0.81
14 -25 0 6.91 1.73
14 -25 0 10.51 0.98
25 -11 0 9.29 0.7
25 -11 0 9.26 1.39
14 -25 3 9.85 1.31
25 -11 -3 8.81 0.7
25 -11 -6 33.84 1.12
14 -25 6 32.72 1.15
-25 11 9 14.49 0.57
12 13 -7 96.36 2.4
-13 25 7 99.06 2.46
13 -25 -4 501.18 10.5
12 13 -4 490.13 10.59
-13 25 4 492.59 10.9
25 -12 1 352.64 8.83
12 13 -1 340.2 7.79
13 -25 -1 352.07 7.5
25 -12 1 342 7.49
12 13 2 1.01 0.57
13 -25 2 1.19 0.64
25 -12 -2 1.23 0.88
13 -25 2 1.11 1.14
13 -25 5 248.7 5.59
25 -12 -5 259.86 5.66
25 -12 -8 196.24 4.23
13 -25 8 187.13 4.18
13 12 -8 0.49 0.62
-12 25 8 1.14 0.58
13 12 -5 34.39 1.22
-12 25 5 34.38 1.58
13 12 -2 133.18 3.23
12 -25 -2 134.64 3.11
-12 25 2 137.29 3.45
25 -13 2 137.6 4.28
13 12 -2 133.26 3.21
13 12 1 69.53 2.11
25 -13 -1 68.88 2.92
13 12 1 71.42 1.91
12 -25 1 70.12 2.02
12 -25 4 -1 0.9
25 -13 -4 0.18 0.54
25 -13 -7 22.05 0.78
12 -25 7 21.97 0.83
12 -25 7 20.87 0.85
14 11 -9 21.89 0.76
-11 25 9 24.56 0.77
14 11 -6 46.27 1.43
11 -25 -3 3.71 1.14
14 11 -3 2.7 0.61
-11 25 3 3.98 0.91
25 -14 3 3.44 0.89
25 -14 0 57.84 2.74
14 11 0 55.01 1.83
14 11 0 58.19 1.75
11 -25 0 52.84 1.79
25 -14 -3 108.23 3.61
11 -25 3 110.37 2.75
25 -14 -6 47.02 1.39
11 -25 6 43.53 1.37
15 10 -7 60.01 1.62
-10 25 7 58.46 1.68
15 10 -4 359.06 7.84
-10 25 4 356.56 8.03
15 10 -1 291.81 6.54
15 10 -1 300.92 6.58
10 -25 -1 297.68 6.48
25 -15 1 289.28 6.29
25 -15 -2 0.98 0.88
15 10 2 1.58 0.62
10 -25 2 0.86 0.63
25 -15 -5 180.7 4.22
10 -25 8 148.06 3.28
16 9 -8 18.04 0.68
16 9 -5 0.14 0.59
-9 25 5 1.23 0.8
25 -16 5 0.28 0.39
25 -16 2 49.74 2.41
9 -25 -2 47.52 1.45
-9 25 2 49.13 1.79
25 -16 2 49.89 1.44
16 9 1 74.06 2.1
25 -16 -1 75.45 3.09
9 -25 1 71.72 2.02
25 -16 -1 70.76 1.91
-25 16 4 12.11 0.93
9 -25 4 8.22 1.2
25 -16 -7 9.54 0.52
-25 16 7 9.09 0.67
9 -25 7 8.12 0.47
17 8 -9 78.3 1.87
-8 25 9 76.84 1.78
17 8 -6 166.11 3.74
-8 25 6 166.49 3.67
25 -17 6 156.82 3.68
-17 -8 6 152.65 3.55
17 8 -3 19.12 1.02
25 -17 3 18.21 1.47
-8 25 3 21.23 1.14
25 -17 3 21.23 0.86
17 8 0 90.85 2.38
17 8 0 90.48 2.44
17 8 0 88.36 2.44
8 -25 0 89.99 2.37
25 -17 0 88.27 2.23
25 -17 -3 167.04 5.01
-25 17 3 169.47 4.13
-25 17 6 23.53 0.92
8 -25 6 21.22 0.81
-18 -7 7 29.24 0.87
25 -18 7 28.38 0.92
18 7 -4 180.76 4.34
25 -18 4 170.92 5.17
25 -18 4 182.17 4.1
18 7 -1 127.47 3.21
25 -18 1 129.93 3.02
25 -18 1 125.51 4.37
7 -25 -1 129.97 3.09
-7 25 1 129.54 3.23
25 -18 1 131.01 3.09
25 -18 -2 6.1 1.12
18 7 2 4.31 0.55
25 -18 -2 5.28 0.6
-25 18 2 4.29 0.86
-25 18 5 127.28 3.31
-25 18 8 86.89 2.1
19 6 -8 31.37 0.93
19 6 -5 0.41 0.65
25 -19 5 0.76 0.32
19 6 -2 87.77 2.41
25 -19 2 86.78 2.12
25 -19 2 82.92 3.31
25 -19 2 89.85 2.26
25 -19 -1 169.71 3.92
19 6 1 175.2 4.06
25 -19 -1 179.56 5.42
6 -25 1 170.06 3.99
19 6 1 174.3 4
-25 19 4 52.78 1.86
-25 19 7 1.86 0.54
25 -19 -7 2.11 0.34
20 5 -6 135.07 3.25
25 -20 6 140.02 3.29
25 -20 3 10.07 1.22
25 -20 3 10.42 0.69
20 5 0 167.62 3.95
25 -20 0 165.88 3.81
20 5 0 165.92 3.93
25 -20 0 175.51 5.38
5 -25 0 165.29 3.85
25 -20 0 170.25 3.9
25 -20 -3 297.93 7.93
-25 20 3 306.07 6.95
25 -20 -6 66.8 1.81
5 -25 9 5.31 0.32
21 4 -7 28.46 0.91
25 -21 7 26.77 0.9
21 4 -4 78.92 2.21
25 -21 4 78.9 2.02
21 4 -1 33.34 1.29
25 -21 1 34.89 1.12
25 -21 1 34.41 2.12
25 -21 1 34.68 1.24
25 -21 -2 1.45 0.59
25 -21 -2 1.23 0.92
-25 21 2 1.73 0.88
-25 21 5 24.19 1.37
-25 21 8 16.62 0.8
22 3 -8 57.42 1.41
22 3 -5 35.31 1.28
25 -22 5 33.3 1.05
25 -22 2 13.38 0.67
22 3 -2 13.48 0.9
25 -22 2 14.4 1.36
25 -22 2 14.2 0.83
22 3 1 160.01 3.74
25 -22 -1 159.97 3.71
22 3 1 159.43 3.76
3 -25 1 159.75 3.7
25 -22 -1 157.02 5.12
25 -22 -1 161.45 3.77
-25 22 4 134.82 3.56
-25 22 7 14.91 0.75
23 2 -6 181.58 4.12
25 -23 6 182.42 4.17
25 -23 3 14.09 0.63
25 -23 3 15.25 0.81
23 2 0 152.13 3.66
25 -23 0 149.64 3.54
23 2 0 156.3 3.6
2 -25 0 153.17 3.5
25 -23 0 151.16 5.02
-2 25 -3 336.89 7.28
-25 23 3 326.65 7.57
25 -23 -6 108.54 2.6
24 1 -7 25.43 0.83
25 -24 7 24.74 0.83
24 1 -4 17.78 0.99
25 -24 4 19.16 0.87
24 1 -1 4.36 0.67
25 -24 1 5.27 0.57
25 -24 1 5.14 1.11
-25 24 2 78.99 2.45
-25 24 5 70.77 2.22
-25 24 8 7.62 0.5
25 0 -8 45.22 1.11
25 0 -5 72.91 1.97
25 -25 5 71.04 1.79
25 0 -2 0.97 0.64
25 -25 2 0.89 0.45
25 -25 2 0.95 0.65
25 0 1 73.15 1.94
25 -25 -1 72.86 1.98
0 -25 1 71.8 1.88
25 -25 -1 73.42 2.03
0 25 -4 97.36 2.45
-25 25 4 94.1 2.78
-25 25 7 18.32 0.81
25 -26 -6 86.35 2.06
1 25 -3 361.83 7.91
-25 26 3 347.59 8.18
26 -1 0 128.75 3.15
25 -26 0 131.33 3.11
26 -1 0 127.65 3.07
25 -26 0 133.17 3.19
26 -1 -3 38.01 1.41
25 -26 3 39.33 1.15
26 -1 -6 205.91 4.51
25 -26 6 201.48 4.53
-24 26 7 54.22 1.49
2 24 -4 16.76 0.88
-24 26 4 16.89 1.3
24 -26 -4 17.24 0.89
26 -2 1 40.9 1.28
24 -26 -1 42.48 1.41
26 -2 -2 148.13 3.68
24 -26 2 156.61 3.51
26 -2 -5 49.93 1.53
24 -26 5 51.85 1.41
-23 26 8 18.09 0.74
3 23 -5 5.68 0.63
-23 26 5 4.95 1.07
23 -26 -2 34.46 1.24
3 23 -2 31.13 1.25
-23 26 2 32.97 1.56
23 -26 -2 34.47 1.19
26 -3 -1 107.48 2.84
26 -3 -1 115.67 2.69
23 -26 1 113.21 2.82
23 -26 1 103.97 4.03
23 -26 4 56.11 1.5
23 -26 4 59.65 1.65
26 -3 -7 1.02 0.43
23 -26 7 1.65 0.35
4 22 -6 65.54 1.76
22 -26 -3 201.2 4.43
4 22 -3 186.74 4.49
-22 26 3 189.46 4.8
26 -4 0 69.48 1.97
22 -26 0 71.97 3.16
26 -4 0 69.22 1.81
22 -26 0 71.71 2.01
26 -4 -3 5.67 0.73
22 -26 3 5.33 0.57
22 -26 3 5.24 0.63
26 -4 -6 54.29 1.6
22 -26 6 58.3 1.47
5 21 -7 113.11 2.57
-21 26 7 106.69 2.61
5 21 -4 17.12 0.84
5 21 -4 17.28 0.97
-21 26 4 15.8 1.4
21 -26 -4 18.15 0.89
26 -5 1 114.81 2.89
5 21 -1 124.31 3.02
21 -26 -1 119.74 2.93
26 -5 1 119.31 2.76
21 -26 -1 119.07 2.94
26 -5 -2 338.91 7.42
21 -26 2 320.37 8.76
21 -26 2 344.2 7.3
26 -5 -2 322.14 7.27
21 -26 2 355.04 7.35
26 -5 -5 97.44 2.58
21 -26 5 99 2.37
26 -5 -8 0.24 0.32
6 20 -8 19.89 0.63
-20 26 8 20.6 0.73
6 20 -5 38.99 1.26
6 20 -5 39.97 1.44
6 20 -2 10.83 0.8
20 -26 -2 10.26 0.79
20 -26 -2 10.92 0.74
20 -26 -2 11.76 1.45
20 -26 1 5.06 1.17
20 -26 1 3.86 0.65
20 -26 1 5.19 0.69
26 -6 -1 4.08 0.48
26 -6 -4 32.07 1.08
20 -26 4 31.86 1.09
26 -6 -7 12.22 0.67
20 -26 7 12.97 0.54
20 -26 7 14.11 0.68
7 19 -6 69.52 1.81
7 19 -6 73.69 2.01
19 -26 -3 116.04 2.84
7 19 -3 114.51 2.9
19 -26 -3 106.39 4
7 19 -3 116.54 3
26 -7 0 3.85 0.56
19 -26 0 4 1.22
7 19 0 3.76 0.64
26 -7 0 2.81 0.43
19 -26 0 4.16 0.67
19 -26 3 53.52 2.62
19 -26 3 61.48 1.7
26 -7 -6 80.06 2.19
19 -26 6 82.38 2.01
8 18 -7 219.72 4.86
-18 26 7 215.65 4.83
18 -26 -4 152.45 3.52
8 18 -4 147.25 3.59
8 18 -4 154.99 3.8
-18 26 4 148.27 3.97
26 -8 1 10.82 0.65
8 18 -1 10.44 0.81
8 18 -1 10.94 0.82
18 -26 -1 8.53 1.38
26 -8 1 10.54 0.57
18 -26 -1 9.59 0.73
18 -26 2 333.13 6.97
26 -8 -2 314.93 6.93
26 -8 -5 221.06 4.93
18 -26 5 223.29 4.91
26 -8 -8 5.53 0.47
-26 8 8 4.84 0.37
9 17 -8 32.75 1
-17 26 8 32.2 1.17
9 17 -5 73.22 2.01
9 17 -5 74.25 2.3
-17 26 5 70.32 2.47
17 -26 -5 75.7 1.94
9 17 -2 18.3 0.96
9 17 -2 18.94 1.07
-17 26 2 20.01 1.29
17 -26 -2 15.93 1.65
17 -26 -2 17.91 0.85
9 17 1 3.19 0.57
17 -26 1 2.42 1.07
26 -9 -1 3.57 0.53
17 -26 4 17.63 0.89
26 -9 -4 18.47 0.81
26 -9 -7 8.97 0.66
17 -26 7 8.49 0.6
-16 26 9 22.73 0.76
-16 26 9 23.63 0.72
10 16 -6 64.88 1.79
10 16 -6 63.9 2.02
10 16 -3 26.07 1.13
16 -26 -3 26.72 1.04
-16 26 3 27.01 1.47
16 -26 -3 24.05 1.9
16 -26 0 15.91 1.71
10 16 0 15.48 0.87
16 -26 0 15.09 0.87
26 -10 0 14.72 0.74
16 -26 3 86.24 2.24
16 -26 3 79.33 3.34
26 -10 -6 49.21 1.37
16 -26 6 44.69 1.34
11 15 -7 248.34 5.4
11 15 -7 257.47 5.65
-15 26 7 245.93 5.48
15 -26 -4 189.7 4.27
11 15 -4 186.51 4.4
-15 26 4 186.41 4.68
15 -26 -1 29.81 2.18
11 15 -1 27.66 1.25
15 -26 -1 27.58 1.08
26 -11 1 31.48 1.04
15 -26 -1 28.13 1.04
15 -26 2 495.12 12.74
26 -11 -2 526.67 11.09
15 -26 5 363.49 7.91
26 -11 -5 374.12 7.93
26 -11 -8 20 0.75
12 14 -8 30.37 1.06
-14 26 8 30.44 1.07
12 14 -5 50.46 1.6
-14 26 5 49.86 1.91
14 -26 -5 52.76 1.45
12 14 -2 0.95 0.62
12 14 -2 2.68 0.88
-14 26 2 1.6 0.85
14 -26 -2 2.43 1.16
14 -26 -2 1.47 0.5
26 -12 2 2.05 0.39
12 14 1 57.66 1.74
12 14 1 56.93 1.65
14 -26 1 55.32 1.69
14 -26 1 58.88 2.94
26 -12 -1 56.8 1.7
14 -26 4 120.26 2.98
26 -12 -4 124.37 3
26 -12 -7 44.07 1.19
14 -26 7 42.16 1.21
14 -26 7 42.81 1.28
13 13 -6 6.4 0.63
13 13 -3 18.22 0.98
13 -26 -3 16.18 1.7
13 -26 -3 16.62 0.8
-13 26 3 18.28 1.21
26 -13 0 89.61 3.38
13 13 0 91.95 2.5
13 13 0 92.72 2.47
13 -26 0 92.44 2.38
13 -26 3 69.48 3.14
26 -13 -3 72.11 2.02
26 -13 -6 9.75 0.61
13 -26 6 9.65 0.68
13 -26 6 9.1 0.64
-26 13 9 4.84 0.32
14 12 -7 204.45 4.57
-12 26 7 207.71 4.62
12 -26 -4 152.66 3.47
14 12 -4 148.18 3.61
-12 26 4 146.53 3.83
14 12 -4 150.75 3.59
14 12 -1 7.66 0.75
14 12 -1 8.9 0.93
12 -26 -1 7.08 0.67
26 -14 1 7.3 1.12
26 -14 -2 248.64 6.89
14 12 2 263.86 5.84
12 -26 2 262.85 5.83
12 -26 5 226.42 5.12
26 -14 -5 234.08 5.19
26 -14 -8 10.44 0.55
12 -26 8 10.46 0.5
15 11 -8 14.42 0.54
15 11 -8 15.79 0.87
15 11 -5 63.2 1.81
-11 26 5 63.23 2.06
15 11 -5 63.86 1.81
26 -15 2 35.45 1.98
-11 26 2 35.32 1.46
15 11 1 3.46 0.63
15 11 1 5.29 0.59
11 -26 1 4.79 0.71
26 -15 -1 4.3 1.01
26 -15 -4 54.31 1.7
26 -15 -7 29.71 0.9
11 -26 7 30.44 0.98
11 -26 7 27.45 0.89
16 10 -9 27.01 0.79
-10 26 9 30.47 0.8
16 10 -6 0.19 0.47
-10 26 6 1.25 0.48
16 10 -3 102.49 2.7
26 -16 3 102.84 3.58
-10 26 3 105.61 2.85
16 10 0 184.98 4.39
26 -16 0 195.94 5.68
16 10 0 188.07 4.4
10 -26 0 184.6 4.27
26 -16 -3 42.28 2.07
10 -26 3 42.89 1.42
26 -16 -6 10.5 0.64
10 -26 6 9.1 0.56
17 9 -7 140.15 3.22
17 9 -4 128.39 3.18
-9 26 4 130.91 3.31
26 -17 4 126.53 2.92
17 9 -1 0.62 0.54
26 -17 1 0.44 0.87
17 9 -1 0.6 0.59
26 -17 1 0.85 0.39
9 -26 -1 0.44 0.54
-9 26 1 0.54 0.71
17 9 2 140.88 3.35
26 -17 -2 140.59 4.47
9 -26 2 137.53 3.35
26 -17 -5 127.98 3.02
9 -26 5 113.34 2.82
9 -26 8 2.28 0.43
18 8 -8 3.87 0.4
18 8 -5 68.44 1.93
26 -18 5 66.04 1.82
26 -18 2 109.46 3.82
8 -26 -2 105.86 2.56
-8 26 2 106.76 2.82
26 -18 2 107.36 2.61
18 8 1 20.45 0.96
26 -18 -1 19.44 1.64
8 -26 1 19.17 0.96
-26 18 1 19.96 1.12
26 -18 -1 19.43 0.82
-26 18 4 9.61 0.91
26 -18 -7 24.89 0.78
-26 18 7 24.53 0.91
19 7 -6 10.99 0.68
26 -19 6 10.71 0.6
19 7 -3 94.8 2.5
26 -19 3 84.39 3.22
-7 26 3 88.39 2.43
26 -19 3 92.26 2.28
19 7 0 259.65 5.86
19 7 0 261.57 5.91
26 -19 0 268.67 7.42
7 -26 0 267.84 5.8
26 -19 0 259.97 5.72
26 -19 -3 68.65 2.74
-26 19 3 65.15 2.08
26 -19 -6 18.08 0.8
-26 19 6 17.54 0.76
26 -20 7 36.71 1.04
20 6 -4 8.64 0.79
26 -20 4 8.69 0.57
20 6 -1 27.83 1.16
20 6 -1 28.4 1.12
26 -20 1 28.33 1.93
6 -26 -1 30.29 1.05
26 -20 1 31.16 1
26 -20 1 29.82 1.1
20 6 2 106.11 2.67
26 -20 -2 105.27 3.84
-26 20 2 108.23 2.97
6 -26 2 109.92 2.72
26 -20 -2 111.67 2.68
-26 20 5 71.31 2.21
6 -26 8 3.63 0.44
-26 20 8 3.38 0.48
21 5 -8 0.25 0.34
21 5 -5 42.73 1.41
21 5 -2 99.83 2.64
26 -21 2 98.26 2.35
26 -21 2 96.45 3.57
26 -21 2 99.32 2.49
26 -21 -1 23.84 0.95
21 5 1 26.2 1.04
26 -21 -1 23.33 1.77
21 5 1 26.72 0.99
5 -26 1 22.71 1.01
-26 21 4 9.84 1.01
26 -21 -7 41.35 1.09
-26 21 7 44.68 1.27
22 4 -6 0.49 0.45
26 -22 6 0.93 0.39
26 -22 3 177.55 4.05
22 4 0 323.01 7.15
26 -22 0 325.36 7.03
22 4 0 329.58 7.16
4 -26 0 323.62 7.03
26 -22 0 335.46 8.74
-26 22 3 67.35 2.18
26 -22 -6 26.52 0.94
23 3 -7 18.57 0.67
23 3 -4 0.31 0.71
26 -23 4 -0.15 0.5
23 3 -1 43.69 1.47
26 -23 1 43.41 1.3
26 -23 1 44.48 1.42
-26 23 2 81.09 2.47
3 -26 2 81.99 2.11
26 -23 -2 79.1 2.12
-26 23 5 21.83 1.22
-26 23 8 0.86 0.33
24 2 -8 9.33 0.41
24 2 -5 8 0.67
26 -24 5 7.67 0.51
24 2 -2 104.47 2.69
26 -24 2 102.3 2.46
26 -24 2 103.89 2.6
24 2 1 106.4 2.53
26 -24 -1 100.41 2.52
24 2 1 98.13 2.51
2 -26 1 100.44 2.48
-26 24 4 7.78 1.05
-26 24 7 8.04 0.64
25 1 -6 2.43 0.46
26 -25 6 3.06 0.41
25 1 -3 179.94 4.27
26 -25 3 178.5 3.98
26 -25 3 188.64 4.15
25 1 0 501.3 10.73
26 -25 0 506.64 10.65
25 1 0 499.79 10.7
26 -25 0 507.92 10.73
-26 25 3 170.38 4.27
26 -25 -6 2.06 0.38
26 0 -7 -0.01 0.31
26 -26 4 17.62 0.78
26 0 -1 34.53 1.25
26 -26 1 34.9 1.15
0 -26 2 8.4 0.61
-26 26 2 10.26 1.2
-26 26 5 3.03 0.84
-1 -26 7 1.89 0.32
-26 27 7 1.91 0.39
-26 27 4 25.71 1.29
26 -27 -1 91.85 2.38
-26 27 1 92.81 2.74
26 -27 -1 96.3 2.43
27 -1 -2 41.15 1.4
26 -27 2 40.32 1.23
26 -27 2 43.1 1.38
27 -1 -5 0.29 0.49
26 -27 5 0.11 0.37
-25 27 5 2.53 0.85
-2 -25 2 39.53 1.17
-25 27 2 42.41 1.77
27 -2 -1 45.79 1.46
25 -27 1 44.33 1.37
25 -27 1 45.12 1.49
25 -27 4 0.37 0.5
27 -2 -7 21.38 0.68
3 24 -6 175.03 3.58
24 -27 -6 147.72 3.51
24 -27 -3 57.95 1.67
3 24 -3 54.58 1.67
-24 27 3 53.55 2.03
27 -3 0 59.43 1.75
24 -27 0 63.07 1.75
27 -3 0 58.89 1.61
24 -27 3 264.97 5.64
24 -27 3 269.23 5.78
27 -3 -6 93.37 2.28
24 -27 6 91.17 2.13
24 -27 6 94.47 2.29
-23 27 7 2.07 0.58
-23 27 7 2.33 0.34
4 23 -4 80.28 2.12
-23 27 4 73.66 2.44
23 -27 -4 79.72 2.05
27 -4 1 211.37 4.86
23 -27 -1 225.22 4.93
27 -4 -2 49.87 1.59
27 -4 -2 46.68 1.39
27 -4 -5 15.83 0.85
23 -27 5 15.92 0.73
-22 27 8 15.31 0.66
5 22 -5 0.93 0.55
-22 27 5 1.62 0.99
22 -27 -2 70.97 1.95
-22 27 2 67.17 2.25
22 -27 -2 67.81 1.86
27 -5 -1 110.75 2.86
27 -5 -1 112.58 2.69
22 -27 1 115.92 2.85
27 -5 -4 11.27 0.67
22 -27 4 11.9 0.66
22 -27 4 12.06 0.75
27 -5 -7 23.46 0.85
22 -27 7 21.97 0.79
6 21 -6 76.72 2
6 21 -3 4.97 0.61
21 -27 -3 5.53 0.69
6 21 -3 4.52 0.75
-21 27 3 5.07 1.14
27 -6 0 44.69 1.44
6 21 0 45.68 1.45
21 -27 0 41.3 2.42
27 -6 0 43.93 1.29
21 -27 0 45.15 1.47
27 -6 -3 88.45 2.41
21 -27 3 93.43 2.28
27 -6 -6 14.66 0.8
21 -27 6 14.97 0.63
21 -27 6 12.78 0.73
7 20 -7 9.09 0.58
20 -27 -4 96.65 2.42
7 20 -4 96.09 2.46
7 20 -4 97.64 2.61
27 -7 1 315.22 7.07
7 20 -1 332.21 7.19
7 20 -1 332.88 7.21
27 -7 1 325.15 6.96
20 -27 -1 332.32 7.11
20 -27 2 134.66 4.6
20 -27 2 144.72 3.29
27 -7 -2 134.12 3.24
27 -7 -5 0.78 0.55
20 -27 5 1.35 0.45
27 -7 -5 0.28 0.44
27 -7 -8 57.27 1.36
8 19 -8 29.37 0.82
-19 27 8 31.27 1
-19 27 8 29.83 0.87
8 19 -5 10.83 0.72
8 19 -5 10.98 0.86
19 -27 -2 6.34 1.26
8 19 -2 7.08 0.74
19 -27 -2 8.61 0.74
8 19 -2 6.88 0.78
19 -27 -2 6.8 0.63
19 -27 1 70.6 3.16
27 -8 -1 68.2 1.81
19 -27 4 42 1.28
27 -8 -4 39.23 1.26
27 -8 -7 0.45 0.47
19 -27 7 0.38 0.35
9 18 -6 31.25 1.03
9 18 -6 32.52 1.22
9 18 -3 1.84 0.64
18 -27 -3 0.93 0.58
-18 27 3 1 0.98
9 18 0 99.06 2.56
18 -27 0 98.25 2.5
27 -9 0 100.72 2.42
18 -27 0 94.02 3.83
18 -27 0 94.24 2.45
18 -27 3 112.33 2.76
27 -9 -6 2.4 0.56
18 -27 6 2.58 0.43
27 -9 -6 2.62 0.43
18 -27 6 2.37 0.5
10 17 -7 47.62 1.42
-17 27 7 47.07 1.37
17 -27 -4 45.89 1.4
10 17 -4 47.09 1.51
10 17 -4 47.19 1.73
-17 27 4 46.41 1.86
10 17 -1 424.32 9.11
10 17 -1 436.39 9.13
27 -10 1 403.64 8.87
17 -27 -1 392.78 10.71
17 -27 -1 424.78 8.95
27 -10 -2 300.2 6.53
17 -27 2 290.3 8.12
17 -27 5 2.48 0.59
27 -10 -5 1.97 0.5
27 -10 -8 83.53 1.97
11 16 -8 31.98 0.99
-16 27 8 31.53 1.08
11 16 -5 0.29 0.61
16 -27 -5 0.15 0.48
11 16 -5 -0.51 0.94
-16 27 5 0.29 1
11 16 -2 68.55 1.99
11 16 -2 68.29 2.11
-16 27 2 67.86 2.2
16 -27 -2 67.12 1.8
16 -27 -2 62.58 3.07
16 -27 1 109.74 4.32
11 16 1 118.66 2.99
11 16 1 119.41 2.89
16 -27 1 120.13 2.93
27 -11 -1 117.46 2.9
16 -27 4 20.5 0.96
27 -11 -4 20.74 0.91
27 -11 -7 7.96 0.6
16 -27 7 7.91 0.47
16 -27 7 8.09 0.52
-15 27 9 4.48 0.29
12 15 -6 11.72 0.7
12 15 -6 11.56 0.98
12 15 -3 111.22 2.85
15 -27 -3 107.25 2.67
12 15 -3 112.15 3.05
-15 27 3 112.21 3.08
12 15 0 125.27 3.16
12 15 0 120.73 3.09
15 -27 0 118.64 4.52
15 -27 0 124.9 3.03
27 -12 0 128.04 3.03
15 -27 3 19.49 1.68
27 -12 -6 13.44 0.65
15 -27 6 12.16 0.69
15 -27 6 11.56 0.68
13 14 -7 70.02 1.73
13 14 -7 67.92 1.94
-14 27 7 66.45 1.78
14 -27 -4 19.37 0.84
13 14 -4 21.05 1.03
-14 27 4 19.86 1.26
13 14 -1 309.28 6.77
14 -27 -1 302.56 6.55
14 -27 -1 280.41 8.27
27 -13 1 295.97 6.55
14 -27 -1 299.77 6.5
14 -27 2 217.57 6.73
14 -27 2 224.76 5.18
14 -27 5 0.47 0.65
27 -13 -5 0.65 0.52
27 -13 -8 75.83 1.84
14 13 -8 20.04 0.86
-13 27 8 19.28 0.79
14 13 -5 0.54 0.61
-13 27 5 0.6 0.91
14 13 -2 49.53 1.63
14 13 -2 50.5 1.81
13 -27 -2 49.56 2.67
-13 27 2 51.69 1.79
27 -14 2 47.39 1.38
27 -14 -1 136.96 4.42
14 13 1 141 3.41
14 13 1 137.45 3.27
13 -27 1 136.67 3.33
13 -27 1 138.89 4.82
27 -14 -4 51.37 1.58
13 -27 7 1.1 0.43
27 -14 -7 0.83 0.31
13 -27 7 0.83 0.29
-12 27 9 0.63 0.22
15 12 -6 25.92 1
15 12 -3 68.48 2.05
12 -27 -3 69.89 1.85
12 -27 -3 69.44 3.11
-12 27 3 71.52 2.2
15 12 -3 73.03 2
27 -15 0 16.95 1.49
15 12 0 17.34 0.99
15 12 0 18.51 0.91
12 -27 0 18.39 0.92
12 -27 3 23.69 1.06
27 -15 -3 24.71 1.08
27 -15 -6 95.94 2.25
12 -27 6 92.67 2.26
16 11 -7 40.89 1.19
16 11 -4 14.1 0.86
-11 27 4 14.96 1.05
16 11 -4 14.33 0.87
27 -16 1 239.28 6.53
16 11 -1 227 5.24
16 11 -1 225.85 5.31
11 -27 -1 222.76 5.04
16 11 -1 229.59 5.15
27 -16 -2 213.76 6.08
16 11 2 218.03 4.96
11 -27 2 221.95 4.98
27 -16 -5 6.9 0.72
27 -16 -8 33.31 1.04
11 -27 8 39.05 1
17 10 -8 29.29 0.83
17 10 -8 35.07 1.09
17 10 -5 17.6 0.91
17 10 -5 17.5 0.9
-10 27 2 7.82 0.89
27 -17 2 5.95 1.07
17 10 1 53.81 1.67
10 -27 1 52.8 1.64
10 -27 4 30.05 1.18
27 -17 -4 32.56 1.27
10 -27 7 1.24 0.44
27 -17 -7 1.17 0.31
18 9 -6 74.21 1.93
9 -27 -3 230.19 5.08
-9 27 3 233.38 5.38
18 9 -3 237.05 5.32
18 9 0 87.58 2.35
27 -18 0 84.13 3.38
18 9 0 84.21 2.26
9 -27 0 84.21 2.23
27 -18 0 87.06 2.13
9 -27 3 27.19 1.12
27 -18 -6 149.03 3.41
19 8 -7 13.37 0.63
19 8 -4 10.49 0.85
27 -19 4 9.83 0.54
19 8 -1 102.25 2.62
19 8 -1 105.34 2.66
27 -19 1 100.85 3.74
19 8 -1 94.49 2.7
8 -27 -1 101.89 2.47
-8 27 1 97.03 2.61
27 -19 1 101.44 2.39
19 8 2 75.62 2.04
27 -19 -2 74.65 3.03
8 -27 2 77.87 2.1
-27 19 2 77.1 2.26
27 -19 -5 0.09 0.55
8 -27 8 35.1 0.95
20 7 -8 37.93 0.97
20 7 -5 71.6 1.91
27 -20 5 66.7 1.83
20 7 -2 7.39 0.78
27 -20 2 6.77 1.01
27 -20 2 6.21 0.62
20 7 1 31.43 1.16
27 -20 -1 30.63 1.97
7 -27 1 31.1 1.17
-27 20 1 27.92 1.31
27 -20 -1 30.14 1.05
-27 20 4 62.61 1.97
27 -20 -7 17.03 0.57
-27 20 7 17.55 0.71
21 6 -6 111.67 2.58
27 -21 6 104.99 2.54
27 -21 3 283.51 6.16
21 6 0 74.05 2.02
21 6 0 73.43 2.07
27 -21 0 71.68 3.14
6 -27 0 74.89 1.95
27 -21 0 72.19 1.9
-27 21 3 60.46 1.98
6 -27 3 61.24 1.75
27 -21 -6 226.38 4.7
-27 21 6 201.6 4.64
22 5 -7 -0.16 0.38
22 5 -4 31.49 1.22
27 -22 4 31.01 1.02
22 5 -1 81.49 2.23
27 -22 1 83.75 2.07
22 5 -1 81.85 2.21
27 -22 1 83.73 2.17
5 -27 2 31.87 1.16
-27 22 2 31.65 1.44
27 -22 -2 32.47 1.15
27 -22 -5 1.09 0.56
5 -27 8 14.02 0.5
23 4 -5 47.69 1.43
23 4 -2 27.11 1.13
27 -23 2 23.91 0.84
27 -23 2 24.75 1.01
23 4 1 0.64 0.46
27 -23 -1 0.62 0.53
4 -27 1 1.09 0.54
-27 23 1 0.86 0.82
-27 23 4 22.48 1.27
4 -27 7 20.05 0.76
-27 23 7 20.07 0.78
24 3 -6 154.12 3.38
27 -24 6 145.03 3.38
27 -24 3 375.53 8.03
24 3 0 121.73 2.96
27 -24 0 120.51 2.88
24 3 0 122.75 2.99
3 -27 0 119.75 2.82
-27 24 3 28.99 1.46
3 -27 3 27.3 1.06
27 -24 -6 168.82 3.74
-27 24 6 170.22 3.75
25 2 -7 4.37 0.38
25 2 -4 26.54 1.06
27 -25 4 26.79 0.92
25 2 -1 28.87 1.12
27 -25 1 31.66 1.04
25 2 -1 29.92 1.07
27 -25 1 30.51 1.19
27 -25 -2 1.7 0.65
2 -27 2 1.77 0.54
-27 25 2 2.31 1
-27 25 5 19.1 1.07
26 1 -5 25.88 0.94
27 -26 5 26.05 0.8
26 1 -2 34.18 1.22
27 -26 2 32.7 1.17
26 1 1 0.44 0.33
27 -26 -1 0.86 0.63
1 -27 1 0.73 0.44
-27 26 1 0.82 0.97
-27 26 4 23.54 1.25
1 -27 7 32.27 0.86
-27 26 7 31.35 0.92
27 0 -6 85.61 2.03
27 0 -3 284.7 6.39
27 -27 3 296.32 6.3
27 0 0 103.93 2.6
27 -27 0 105.75 2.59
27 -27 0 110.4 2.67
-27 27 3 47.05 1.7
0 -27 3 45.44 1.29
0 -27 6 222.74 4.39
-27 27 6 206.79 4.4
-1 -27 5 34.16 0.98
-1 -27 2 34.73 1.04
-27 28 2 37.99 1.56
28 -1 -1 0.2 0.49
28 -1 -1 0.19 0.43
27 -28 1 0.24 0.45
27 -28 4 23.33 0.82
28 -1 -7 17.47 0.54
26 -28 -6 9.53 0.42
-26 28 6 12.36 0.61
-26 28 3 99.8 2.84
-2 -26 3 102.51 2.42
28 -2 0 335.4 7.35
26 -28 0 338.94 7.33
26 -28 0 348.76 7.39
28 -2 -3 108.92 2.7
26 -28 3 106 2.48
26 -28 3 110.24 2.61
28 -2 -6 9.68 0.59
-25 28 7 31.55 0.93
3 25 -4 85.45 2.17
-25 28 4 85.06 2.46
-25 28 1 21.97 1.41
25 -28 -1 24.56 1.07
28 -3 -2 17.87 0.92
25 -28 2 17.11 0.79
28 -3 -5 68.42 1.81
25 -28 5 67.02 1.67
4 24 -5 59.6 1.6
-24 28 5 58 1.89
24 -28 -2 95.49 2.41
4 24 -2 88.95 2.41
-24 28 2 93.16 2.75
28 -4 -1 1.4 0.59
24 -28 1 1.1 0.58
24 -28 1 0.41 0.73
24 -28 4 73.4 1.9
28 -4 -7 67.81 1.61
5 23 -6 1.36 0.42
23 -28 -3 100.31 2.45
5 23 -3 94.03 2.5
-23 28 3 95.65 2.82
28 -5 0 189.62 4.5
23 -28 0 196.93 4.48
28 -5 -3 43.29 1.5
28 -5 -3 46.36 1.34
28 -5 -6 3.4 0.52
23 -28 6 3.74 0.4
6 22 -7 58.26 1.43
-22 28 7 56.71 1.53
-22 28 7 57.28 1.4
6 22 -4 173.85 4.04
-22 28 4 171.2 4.31
22 -28 -4 174.48 3.93
22 -28 -1 58.81 1.71
6 22 -1 57.02 1.74
22 -28 -1 57.06 1.68
28 -6 -2 26.37 1.1
22 -28 2 27.81 1.02
28 -6 -2 26.44 0.97
22 -28 2 26.93 1.1
28 -6 -5 132.24 3.24
22 -28 5 132.8 3
22 -28 5 141.38 3.1
7 21 -5 67.18 1.86
21 -28 -2 149.92 3.51
21 -28 -2 145.69 3.43
28 -7 -1 35.53 1.27
21 -28 1 38.88 1.26
28 -7 -1 37.27 1.16
21 -28 1 37.06 1.32
28 -7 -4 16.15 0.75
21 -28 4 15.68 0.74
28 -7 -7 55.62 1.49
8 20 -6 0.36 0.49
20 -28 -3 55.5 1.6
8 20 -3 52.28 1.64
28 -8 0 75.89 2.11
8 20 0 81.46 2.16
28 -8 0 78.77 1.99
20 -28 0 82.57 2.16
20 -28 3 0.54 0.58
28 -8 -6 44.21 1.36
20 -28 6 42.64 1.31
9 19 -7 69.58 1.74
-19 28 7 67.55 1.76
19 -28 -4 271.12 5.92
9 19 -4 272.29 6.03
9 19 -4 276.73 6.14
-19 28 4 264.94 6.32
9 19 -1 152.28 3.63
9 19 -1 152.77 3.62
28 -9 1 144.93 3.35
19 -28 -1 146.96 3.49
19 -28 2 5.36 0.68
28 -9 -2 6.09 0.56
28 -9 -5 171.29 3.8
19 -28 5 165.61 3.75
10 18 -8 0.59 0.24
-18 28 8 0.42 0.42
-18 28 8 0.43 0.31
10 18 -5 59.71 1.66
10 18 -5 59.34 1.82
-18 28 5 54.47 1.97
10 18 -2 120.75 3.09
18 -28 -2 125.22 2.98
10 18 -2 123.88 3.13
-18 28 2 122.44 3.3
18 -28 -2 121.54 2.91
28 -10 -1 16.09 0.76
18 -28 1 14.27 1.59
18 -28 4 24.67 1.01
28 -10 -4 24.46 0.95
28 -10 -7 48.13 1.35
18 -28 7 44.31 1.24
11 17 -6 30.67 1.01
11 17 -6 31.57 1.19
11 17 -3 82.66 2.3
17 -28 -3 85.62 2.17
11 17 -3 82.16 2.38
-17 28 3 80.21 2.52
11 17 0 25.73 1.14
11 17 0 26.17 1.09
17 -28 0 25.51 1.07
28 -11 0 28.47 0.97
17 -28 0 24.46 1.94
17 -28 0 25.65 1.01
17 -28 3 16.2 0.88
28 -11 -6 58.74 1.49
17 -28 6 53.99 1.45
17 -28 6 54.07 1.56
12 16 -7 17.17 0.61
12 16 -7 19.19 0.82
-16 28 7 17.85 0.77
16 -28 -4 206.69 4.57
12 16 -4 206.83 4.76
-16 28 4 201.29 4.97
12 16 -1 167.53 3.94
28 -12 1 159.01 3.7
16 -28 -1 165.08 3.75
16 -28 -1 156.58 5.38
28 -12 -2 4.98 0.61
16 -28 2 5.09 1.11
16 -28 5 187.16 4.22
28 -12 -5 188.98 4.23
28 -12 -8 110.27 2.54
16 -28 8 118.95 2.48
13 15 -8 0.57 0.34
-15 28 8 0.61 0.37
13 15 -5 60.36 1.76
13 15 -5 62.21 2
-15 28 5 60.21 1.98
15 -28 -5 59.64 1.56
13 15 -2 108.76 2.89
13 15 -2 113.79 2.98
-15 28 2 111.22 3.03
13 15 1 14.37 0.88
15 -28 1 14.53 1.63
13 15 1 13.93 0.72
15 -28 1 13.27 0.85
28 -13 -1 12.34 0.78
15 -28 4 35.96 1.31
28 -13 -4 39.55 1.29
28 -13 -7 83.42 2.05
15 -28 7 85.77 1.92
14 14 -6 63.58 1.72
14 14 -6 62.8 1.93
14 14 -3 32.18 1.28
14 -28 -3 33.11 1.12
14 14 -3 32.29 1.46
-14 28 3 32.45 1.45
14 14 0 11.35 0.85
14 14 0 12.75 0.78
14 -28 0 10.84 0.79
14 -28 0 10.45 1.45
28 -14 0 10.87 0.72
14 -28 6 58.61 1.57
14 -28 6 55.96 1.57
15 13 -7 20.85 0.75
15 13 -7 22.06 0.96
-13 28 7 22.97 0.83
13 -28 -4 205.06 4.55
15 13 -4 208.35 4.8
-13 28 4 207.82 4.92
15 13 -1 169.69 4.07
15 13 -1 175.17 4.08
13 -28 -1 168.12 3.88
28 -15 1 170.64 3.91
13 -28 -1 166.49 3.82
28 -15 1 177 5.23
13 -28 2 1.27 0.87
13 -28 2 0.6 0.67
28 -15 -2 -0.66 0.55
13 -28 5 106.61 2.69
28 -15 -5 116.94 2.73
28 -15 -8 82.13 1.9
16 12 -8 0.37 0.37
16 12 -5 37.07 1.31
16 12 -2 103.26 2.8
-12 28 2 107.74 2.79
28 -16 2 99.65 3.55
28 -16 -1 34.63 1.97
16 12 1 33.94 1.27
12 -28 1 33.07 1.24
28 -16 -4 9.16 0.8
28 -16 -7 46.44 1.19
12 -28 7 47.24 1.26
17 11 -6 98.89 2.44
17 11 -3 29.66 1.2
11 -28 -3 28.56 0.99
-11 28 3 29.29 1.29
17 11 -3 30.09 1.18
28 -17 0 52.3 2.56
17 11 0 56.77 1.76
17 11 0 54.67 1.62
11 -28 0 55.48 1.63
11 -28 3 210.69 4.92
28 -17 -3 226.09 5.04
11 -28 6 96.4 2.38
28 -17 -6 101.64 2.37
18 10 -7 11.62 0.59
18 10 -4 107.48 2.72
-10 28 4 108 2.8
18 10 -4 104.75 2.71
28 -18 1 99.56 3.74
18 10 -1 103.77 2.76
18 10 -1 106.86 2.8
10 -28 -1 105.38 2.57
-10 28 1 104.91 2.77
18 10 -1 106.68 2.68
10 -28 2 0.42 0.66
28 -18 -5 57.41 1.67
28 -18 -8 38.16 1.05
10 -28 8 47.69 1.06
19 9 -8 7.16 0.49
19 9 -5 7.06 0.64
19 9 -5 7.13 0.61
19 9 -2 69.34 1.97
19 9 -2 67.33 1.97
-9 28 2 68.75 1.98
19 9 1 73.7 2.04
9 -28 1 72.53 2
9 -28 4 8.52 0.81
28 -19 -4 7.88 0.79
28 -19 -7 7.98 0.38
9 -28 7 7.86 0.56
20 8 -6 163.5 3.69
20 8 -3 55.17 1.7
20 8 0 73.79 2.1
8 -28 0 72.15 1.95
28 -20 0 74.54 1.89
-28 20 3 305.02 7.03
8 -28 3 324.71 6.91
28 -20 -6 152.07 3.29
-28 20 6 138.8 3.25
21 7 -7 15.52 0.68
21 7 -4 56.44 1.67
21 7 -1 13.6 0.82
21 7 -1 14.66 0.87
21 7 -1 13.01 0.83
7 -28 -1 14.42 0.71
28 -21 1 14.25 0.65
7 -28 2 21.44 0.99
-28 21 2 22.12 1.16
7 -28 5 65.75 1.75
28 -21 -5 65.86 1.82
7 -28 8 26.24 0.71
22 6 -8 24.25 0.75
22 6 -5 5.27 0.58
28 -22 5 4.82 0.44
22 6 -2 16.13 0.93
22 6 -2 16.58 0.86
28 -22 2 17.3 0.82
28 -22 2 15.59 0.61
22 6 1 53.26 1.59
6 -28 1 54.6 1.56
-28 22 1 53.1 1.78
28 -22 -1 51.55 1.5
-28 22 4 15.93 1.06
6 -28 4 15.66 0.83
-28 22 7 1.9 0.41
23 5 -6 209.37 4.62
23 5 -6 215.79 4.62
28 -23 3 41.39 1.27
23 5 0 133.84 3.24
5 -28 0 130.91 3.08
28 -23 0 130.63 3.08
23 5 0 135.83 3.18
-28 23 3 368.83 8.25
5 -28 3 374.84 7.99
5 -28 6 144 3.16
28 -23 -6 143.81 3.16
-28 23 6 135.03 3.15
24 4 -7 13.01 0.53
24 4 -4 31.84 1.16
28 -24 4 33.07 1
28 -24 1 11.65 0.63
24 4 -1 11.88 0.79
24 4 -1 11.34 0.74
28 -24 1 12.32 0.82
4 -28 2 6.92 0.69
-28 24 2 7.38 1.05
28 -24 -2 8.12 0.74
4 -28 5 28.96 0.96
28 -24 -5 28.28 1.03
25 3 -5 6.1 0.54
28 -25 5 5.17 0.44
25 3 -2 1.41 0.59
25 3 -2 1.99 0.56
28 -25 2 1.64 0.39
28 -25 2 2.01 0.59
3 -28 1 34.69 1.1
-28 25 1 34.5 1.52
28 -25 -1 33.1 1.15
-28 25 4 33.49 1.35
3 -28 4 32.75 1.06
3 -28 7 3.26 0.33
-28 25 7 2.71 0.34
26 2 -6 182.17 3.92
26 2 -6 177.24 3.91
26 2 -3 57.56 1.69
28 -26 3 60.59 1.6
26 2 0 78.9 2.04
28 -26 0 77.67 2
26 2 0 78.17 2.04
-28 26 3 354.07 7.85
2 -28 3 354.31 7.53
2 -28 6 158.56 3.25
-28 26 6 151.22 3.27
27 1 -7 6.35 0.34
28 -27 4 0.28 0.38
27 1 -1 28.27 1.04
28 -27 1 28.14 0.94
27 1 -1 28.55 1.02
1 -28 2 44.56 1.27
-28 27 2 47.45 1.69
28 -27 -2 48.13 1.38
1 -28 5 14.12 0.62
28 -27 -5 13.43 0.67
28 0 -5 23.97 0.85
28 0 -2 7.83 0.63
28 -28 2 7.63 0.48
28 0 -2 8.06 0.57
28 -28 2 8.2 0.65
-28 28 1 4.98 0.92
28 -28 -1 6.46 0.59
-28 28 4 32.86 1.28
0 -28 4 31.56 0.95
-1 -28 6 84.49 1.86
-28 29 6 84.96 1.92
-1 -28 3 234.72 5.08
-28 29 3 251.01 5.46
28 -29 0 67.6 1.74
-28 29 0 68.44 2.05
29 -1 -3 45.65 1.37
29 -1 -3 47.18 1.32
28 -29 3 48.37 1.31
29 -1 -6 145.03 3.13
-27 29 4 -0.18 0.72
-2 -27 4 0.48 0.36
27 -29 -1 38.56 1.2
-27 29 1 36.4 1.5
29 -2 -2 65.46 1.75
27 -29 2 61.09 1.58
29 -2 -5 25.98 0.89
27 -29 5 24.22 0.74
-3 -26 5 31.84 0.91
-26 29 2 0.85 0.91
29 -3 -1 56.17 1.63
26 -29 1 59.09 1.57
26 -29 1 57.44 1.66
26 -29 4 48.18 1.32
29 -3 -7 1 0.21
-25 29 6 85.55 2.01
-25 29 3 203.25 4.9
-4 -25 3 201.11 4.47
29 -4 0 57.73 1.62
25 -29 0 57.88 1.64
25 -29 0 58.43 1.68
29 -4 -3 24.52 1.04
25 -29 3 25.33 0.84
25 -29 3 26.36 1
29 -4 -6 120.57 2.75
-24 29 7 37.23 1.04
5 24 -4 11.43 0.71
-24 29 4 11.65 1.05
-24 29 1 27.31 1.48
24 -29 -1 29.92 1.13
29 -5 -2 112.87 2.81
24 -29 2 110.99 2.66
24 -29 2 114.04 2.77
29 -5 -5 46.03 1.36
24 -29 5 45.08 1.24
6 23 -5 80.67 2
-23 29 5 74.79 2.23
23 -29 -2 1.11 0.65
-23 29 2 1.11 1.01
29 -6 -1 98.3 2.59
29 -6 -1 104.08 2.47
23 -29 1 104.49 2.62
23 -29 4 150.55 3.44
29 -6 -7 21.97 0.7
7 22 -6 52.48 1.41
22 -29 -3 70.41 1.84
7 22 -3 65.21 1.92
29 -7 0 0.39 0.46
29 -7 0 0.34 0.34
22 -29 0 0.16 0.67
29 -7 -3 42.88 1.44
22 -29 3 44.22 1.29
29 -7 -3 42.8 1.29
29 -7 -6 48.25 1.37
22 -29 6 50.17 1.27
22 -29 6 47.39 1.33
8 21 -7 113.09 2.53
8 21 -4 33.23 1.24
21 -29 -4 34.42 1.1
21 -29 -1 54.57 1.64
8 21 -1 57.28 1.69
29 -8 1 54.36 1.43
21 -29 -1 54.55 1.61
29 -8 -2 248.55 5.55
21 -29 2 248.72 5.42
29 -8 -2 242.73 5.4
21 -29 2 245.29 5.45
29 -8 -5 136.96 3.34
21 -29 5 138.63 3.12
21 -29 5 146.01 3.19
-20 29 8 35.37 0.93
9 20 -5 72.19 1.94
-20 29 5 67.77 2.13
9 20 -2 1.24 0.62
20 -29 -2 0.97 0.64
9 20 -2 1.63 0.69
-20 29 2 1.21 1.02
20 -29 -2 1.06 0.5
29 -9 -1 74.81 2.06
29 -9 -1 75.31 1.96
20 -29 1 79.58 2.07
29 -9 -4 120.37 2.8
20 -29 4 116.45 2.76
29 -9 -7 26.58 0.9
20 -29 7 25.87 0.77
10 19 -6 19.11 0.84
19 -29 -3 21.57 0.95
10 19 -3 18.36 0.98
-19 29 3 17.97 1.33
29 -10 0 2.4 0.49
10 19 0 3.25 0.57
29 -10 0 1.75 0.4
19 -29 0 2.15 0.6
19 -29 3 48.27 1.46
29 -10 -6 34.75 1.15
19 -29 6 34.89 0.94
11 18 -7 117.3 2.63
-18 29 7 109.65 2.64
18 -29 -4 64.38 1.69
11 18 -4 63.37 1.82
-18 29 4 61.21 2.06
11 18 -1 27.66 1.18
11 18 -1 29.07 1.14
29 -11 1 25.86 0.88
18 -29 -1 27.63 1.03
29 -11 -2 265.05 5.83
29 -11 -5 189.61 4.16
18 -29 5 184.15 4.12
-17 29 8 43.77 1.18
-17 29 8 51.8 1.17
12 17 -5 112.35 2.74
12 17 -5 115.45 2.89
-17 29 5 110.81 2.97
12 17 -2 9.32 0.84
17 -29 -2 9.71 0.72
12 17 -2 9.75 0.81
-17 29 2 9.5 1.05
17 -29 -2 8.74 0.61
17 -29 1 73.81 2.02
29 -12 -1 75.89 1.99
17 -29 4 130.65 3.02
29 -12 -4 123.79 3
29 -12 -7 20.22 0.86
13 16 -6 20.81 0.8
13 16 -6 21.98 0.97
16 -29 -3 8.13 0.66
13 16 -3 6.89 0.84
13 16 -3 8.88 0.95
-16 29 3 7.99 1.03
13 16 0 122.6 3.07
13 16 0 122.39 2.98
16 -29 0 120.87 2.94
29 -13 0 121.72 2.91
16 -29 0 118.04 2.88
29 -13 -6 5.89 0.44
16 -29 6 4.89 0.47
16 -29 6 4.41 0.42
14 15 -7 100.23 2.3
14 15 -7 107.41 2.49
-15 29 7 104.08 2.42
15 -29 -4 89.97 2.18
14 15 -4 89.66 2.4
14 15 -4 90.27 2.56
-15 29 4 85.49 2.54
14 15 -1 7.13 0.71
-15 29 1 7.06 0.93
29 -14 1 7.26 0.54
15 -29 -1 7.34 0.6
15 -29 2 174.76 4.15
29 -14 -2 186.08 4.2
15 -29 5 133.41 3.15
29 -14 -5 139.11 3.17
15 -29 8 4.24 0.26
15 14 -8 31.21 0.84
15 14 -5 65.39 1.81
-14 29 5 62.78 1.94
15 14 -2 7.57 0.83
-14 29 2 4.87 0.88
15 14 1 61.26 1.81
15 14 1 59.38 1.63
14 -29 1 60.51 1.77
29 -15 -1 62.36 1.79
29 -15 -4 141.19 3.34
29 -15 -7 30.63 1.01
14 -29 7 29.82 0.88
16 13 -6 16.29 0.74
16 13 -6 16.23 0.94
-13 29 6 16.45 0.67
16 13 -3 30.53 1.28
13 -29 -3 30.64 1.03
16 13 -3 27.71 1.39
-13 29 3 27.64 1.32
16 13 0 139.56 3.48
16 13 0 138.8 3.35
13 -29 0 139.24 3.33
29 -16 0 145.8 3.4
13 -29 3 61.99 1.82
29 -16 -6 3.64 0.42
13 -29 6 4.47 0.52
17 12 -7 71.88 1.75
17 12 -7 75.17 1.93
17 12 -4 62.25 1.84
-12 29 4 61.19 1.92
17 12 -1 4.43 0.75
17 12 -1 5 0.67
12 -29 -1 4.34 0.61
-12 29 1 5.87 0.81
29 -17 1 5.04 0.55
12 -29 2 148.26 3.56
29 -17 -2 152.82 3.66
29 -17 -5 159.12 3.39
12 -29 5 134.61 3.26
18 11 -8 27.55 0.77
-11 29 8 26.69 0.72
18 11 -5 85.13 2.22
18 11 -2 26.84 1.17
18 11 -2 29.56 1.23
-11 29 2 25.64 1.16
18 11 1 21.33 0.95
11 -29 1 19.84 0.97
11 -29 4 78.97 2.12
29 -18 -4 82.11 2.18
29 -18 -7 17.28 0.59
11 -29 7 20.29 0.72
19 10 -6 17.09 0.75
19 10 -3 77.2 2.15
19 10 0 367.07 7.91
19 10 0 351.62 7.73
10 -29 0 363.66 7.75
-10 29 0 359.39 7.86
10 -29 3 222.28 5.12
29 -19 -3 235.06 5.25
29 -19 -6 1.4 0.36
20 9 -7 26.56 0.83
20 9 -4 9 0.76
20 9 -4 10.13 0.74
20 9 -1 19.47 0.98
20 9 -1 19.29 0.92
9 -29 -1 19.1 0.83
9 -29 2 95.21 2.45
9 -29 5 66.29 1.79
29 -20 -5 69.21 1.83
21 8 -5 28.09 1.02
21 8 -5 28.79 0.99
21 8 -2 50.54 1.61
21 8 -2 51.51 1.64
21 8 -2 49.47 1.66
21 8 1 3.56 0.57
8 -29 1 3.38 0.65
-29 21 1 2.97 0.74
-29 21 4 21.84 1.05
8 -29 4 23.38 0.98
29 -21 -4 25.23 1.06
29 -21 -7 21.48 0.59
22 7 -6 9.21 0.57
22 7 -3 159.73 3.75
22 7 0 509.11 10.79
7 -29 0 509.1 10.63
-29 22 0 493.5 10.84
-29 22 3 203.55 4.9
7 -29 3 218.15 4.75
7 -29 6 1.87 0.48
29 -22 -6 1.91 0.35
23 6 -7 18.51 0.61
23 6 -7 17.88 0.72
23 6 -4 6.76 0.62
23 6 -1 8.83 0.77
29 -23 1 9.74 0.55
23 6 -1 8.88 0.73
6 -29 2 38.42 1.27
-29 23 2 36.47 1.49
6 -29 5 14.65 0.71
29 -23 -5 14.57 0.73
24 5 -5 10.77 0.59
24 5 -5 10.39 0.61
29 -24 5 9.1 0.48
24 5 -2 36.16 1.24
24 5 -2 35.29 1.23
29 -24 2 36.5 1.17
5 -29 1 14.2 0.77
-29 24 1 14.81 1.1
29 -24 -1 13.58 0.75
-29 24 4 0.71 0.66
5 -29 4 0.07 0.51
5 -29 7 5.87 0.38
25 4 -6 10.84 0.58
25 4 -3 139.2 3.26
29 -25 3 144.87 3.17
25 4 0 438.09 9.38
-29 25 0 446.06 9.57
29 -25 0 437.23 9.27
-29 25 3 169.59 4.08
4 -29 3 170.86 3.83
4 -29 6 4.52 0.5
29 -25 -6 4.66 0.39
-29 25 6 3.6 0.48
26 3 -7 0.28 0.21
26 3 -4 4.57 0.5
29 -26 4 4.5 0.41
26 3 -1 14.4 0.74
26 3 -1 14.67 0.77
29 -26 1 14.41 0.65
3 -29 2 12.28 0.64
-29 26 2 11.93 0.98
3 -29 5 2.33 0.44
29 -26 -5 2.6 0.45
27 2 -5 0.02 0.44
27 2 -2 11.25 0.66
27 2 -2 11.04 0.65
29 -27 2 11.34 0.67
-29 27 1 21.62 1.17
29 -27 -1 22 0.86
-29 27 4 3.19 0.7
2 -29 4 2.32 0.43
28 1 -3 93.64 2.36
28 1 -3 99.68 2.35
29 -28 3 98.3 2.29
-29 28 0 362.63 7.9
29 -28 0 358.13 7.62
1 -29 3 156.26 3.47
-29 28 3 163.97 3.79
1 -29 6 3.79 0.3
-29 28 6 3.21 0.32
29 0 -4 36.95 1.07
29 -29 4 35.5 0.97
29 0 -1 30.55 0.98
29 -29 1 30.33 0.92
-29 29 2 0.27 0.74
0 -29 5 20.4 0.62
29 -29 -5 17.8 0.64
-1 -29 4 22.44 0.65
-29 30 4 23.51 1.07
-29 30 1 38.85 1.41
29 -30 -1 37.31 1.1
30 -1 -2 10.91 0.58
29 -30 2 11.22 0.61
30 -1 -5 1.08 0.3
30 -1 -5 0.91 0.31
-2 -28 5 0.84 0.29
28 -30 -5 0.48 0.31
-28 30 2 50.26 1.66
30 -2 -1 49.52 1.34
28 -30 1 47.13 1.29
28 -30 1 48.89 1.37
30 -2 -4 2.3 0.4
28 -30 4 1.81 0.38
-27 30 6 77.78 1.79
-27 30 3 14.91 0.99
27 -30 0 79.46 2
-27 30 0 77.92 2.3
27 -30 0 82.59 2.04
30 -3 -3 230.28 5.14
27 -30 3 236.04 5.06
30 -3 -6 85.05 1.96
30 -3 -6 90.39 1.98
-26 30 4 24.39 1.15
-4 -26 4 24.8 0.75
-26 30 1 59.22 1.94
30 -4 -2 22.73 0.91
26 -30 2 19.81 0.77
30 -4 -5 3.93 0.56
26 -30 5 4.38 0.43
-5 -25 5 2.84 0.35
25 -30 -2 95.21 2.31
-25 30 2 86.99 2.61
30 -5 -1 92.49 2.39
25 -30 1 97.53 2.34
25 -30 1 97.22 2.4
25 -30 4 2.35 0.48
-24 30 6 69 1.66
24 -30 -3 3.3 0.55
6 24 -3 2.84 0.56
-24 30 3 2.7 0.93
24 -30 0 66.43 1.83
30 -6 -3 102.82 2.58
24 -30 3 102.48 2.39
30 -6 -6 25.45 0.84
24 -30 6 23.22 0.72
7 23 -4 33.75 1.15
23 -30 -4 34.8 1.06
23 -30 -1 139.84 3.3
23 -30 -1 139.51 3.26
30 -7 -2 72.03 1.99
30 -7 -2 73.27 1.84
23 -30 2 68.4 1.91
30 -7 -5 0.45 0.47
23 -30 5 0.11 0.41
8 22 -5 2.86 0.5
22 -30 -2 141.23 3.3
8 22 -2 139.27 3.36
30 -8 -1 174.09 4.12
30 -8 -1 179.69 3.99
22 -30 1 179.12 4.08
30 -8 -4 26.16 0.89
22 -30 4 24.36 0.83
30 -8 -7 11.17 0.48
9 21 -6 11.36 0.63
21 -30 -3 1.41 0.54
-21 30 3 0.48 0.88
30 -9 0 48.85 1.31
21 -30 0 47.02 1.48
30 -9 -3 55.2 1.68
21 -30 3 57.25 1.56
30 -9 -3 56.64 1.55
21 -30 3 59.61 1.61
30 -9 -6 6.42 0.62
21 -30 6 7.19 0.49
10 20 -7 6.5 0.38
-20 30 7 6.17 0.46
10 20 -4 76.14 1.94
10 20 -4 73.26 2.01
-20 30 4 73.79 2.22
20 -30 -4 70.9 1.83
10 20 -1 291.9 6.31
20 -30 -1 293.15 6.24
30 -10 1 270.15 6.06
-20 30 1 290.62 6.56
20 -30 -1 288.37 6.2
30 -10 -2 178.95 4.03
20 -30 2 170.17 3.9
30 -10 -2 166.95 3.87
20 -30 2 171 3.91
30 -10 -5 5.42 0.6
30 -10 -5 5.24 0.47
20 -30 5 5.24 0.44
11 19 -5 -0.42 0.41
11 19 -5 0.89 0.56
-19 30 5 -0.73 0.76
11 19 -2 128.16 3.25
19 -30 -2 138.04 3.17
11 19 -2 135.7 3.27
-19 30 2 126.93 3.46
19 -30 -2 131.19 3.05
19 -30 1 210.62 4.74
30 -11 -1 207.84 4.69
19 -30 1 214.7 4.75
19 -30 4 26.06 0.94
30 -11 -4 27.2 0.94
30 -11 -7 15.13 0.62
19 -30 7 15.66 0.54
12 18 -6 -0.05 0.47
18 -30 -3 22.16 0.92
12 18 -3 23.94 1.05
12 18 -3 23.84 1.1
-18 30 3 23.02 1.3
30 -12 0 41.15 1.29
12 18 0 45.2 1.38
30 -12 0 42.9 1.26
18 -30 0 43.39 1.37
18 -30 3 6.23 0.67
30 -12 -6 7.52 0.61
18 -30 6 6.89 0.43
18 -30 6 6.4 0.43
13 17 -7 12.76 0.56
-17 30 7 11.49 0.59
17 -30 -4 31.63 0.99
13 17 -4 31.78 1.17
-17 30 4 30.42 1.37
13 17 -1 204.71 4.58
30 -13 1 193.43 4.35
-17 30 1 207.62 4.79
17 -30 -1 193.75 4.42
17 -30 2 145.23 3.42
30 -13 -2 145.02 3.43
17 -30 5 1.15 0.45
30 -13 -5 0.99 0.41
14 16 -5 1.46 0.51
14 16 -2 97.93 2.66
16 -30 -2 100.98 2.47
14 16 -2 98.67 2.63
-16 30 2 99.52 2.78
16 -30 1 178.2 4.11
30 -14 -1 180.7 4.14
16 -30 4 28.48 1.04
30 -14 -4 28.54 1
30 -14 -7 14.6 0.67
15 15 -6 23.26 0.81
15 15 -6 23.9 0.95
-15 30 6 21.65 0.77
15 -30 -3 121.92 2.9
15 15 -3 127.22 3.12
15 15 -3 122.75 3.13
-15 30 3 122.53 3.2
15 15 0 62.56 1.89
15 15 0 63.25 1.77
15 -30 0 65.9 1.8
30 -15 0 65.08 1.78
15 -30 0 62.55 1.71
15 -30 3 6.73 0.73
30 -15 -6 67.47 1.63
15 -30 6 63.89 1.62
16 14 -7 29.45 0.81
16 14 -7 32.2 0.95
14 -30 -4 12.61 0.6
16 14 -4 13.63 0.85
16 14 -4 13.28 0.97
-14 30 4 13.96 0.94
16 14 -1 201.13 4.66
16 14 -1 204.24 4.56
-14 30 1 200.68 4.7
30 -16 1 194.88 4.41
14 -30 -1 193.51 4.37
14 -30 2 199.36 4.55
30 -16 -2 200.75 4.6
14 -30 5 10.79 0.66
30 -16 -5 11.87 0.62
14 -30 5 9.98 0.53
17 13 -5 2.37 0.55
17 13 -5 2.33 0.7
17 13 -2 74.72 2.11
-13 30 2 71.99 2.14
17 13 1 154.96 3.73
13 -30 1 156.5 3.68
30 -17 -1 160.37 3.76
30 -17 -4 25.54 1
30 -17 -7 11.41 0.57
13 -30 7 11.58 0.48
18 12 -6 59.75 1.56
12 -30 -3 246.57 5.34
18 12 -3 248.59 5.59
18 12 -3 244.02 5.64
-12 30 3 247.59 5.6
18 12 0 147.56 3.53
18 12 0 143.91 3.35
12 -30 0 148.82 3.38
-12 30 0 143.57 3.52
30 -18 0 145.05 3.46
12 -30 0 138.71 3.26
12 -30 3 4.02 0.7
30 -18 -6 101.01 2.35
12 -30 6 103.68 2.38
19 11 -7 4.26 0.32
19 11 -7 4.23 0.45
19 11 -4 17.76 0.92
19 11 -4 17.04 1.02
19 11 -1 109.67 2.81
19 11 -1 111.49 2.71
-11 30 1 108.56 2.78
30 -19 1 104.06 2.63
11 -30 2 108.49 2.73
30 -19 -2 111.59 2.85
30 -19 -5 7.69 0.55
20 10 -5 5.49 0.59
20 10 -5 5.35 0.71
20 10 -2 23.98 1.09
20 10 -2 24.29 1.09
20 10 1 84.68 2.23
10 -30 1 85.29 2.21
10 -30 4 32.1 1.13
30 -20 -4 32.19 1.17
10 -30 7 0.33 0.29
21 9 -6 110.35 2.53
21 9 -6 106.16 2.63
21 9 -3 353.98 7.77
21 9 0 199.01 4.55
9 -30 0 195.82 4.39
9 -30 3 8.88 0.72
30 -21 -3 7.8 0.77
30 -21 -6 151.68 3.33
22 8 -7 2.09 0.28
22 8 -4 15.51 0.75
22 8 -1 68.37 1.95
8 -30 2 33.59 1.16
-30 22 2 32.99 1.29
8 -30 5 0.54 0.48
30 -22 -5 0.73 0.43
23 7 -5 18.31 0.78
23 7 -2 0.82 0.52
23 7 -2 0.91 0.54
23 7 1 18.58 0.83
7 -30 1 19.69 0.84
-30 23 1 17.63 1.08
7 -30 4 26.8 0.98
30 -23 -4 29.43 1.07
24 6 -6 125.67 2.8
24 6 -6 122.75 2.87
24 6 -3 376.55 7.92
24 6 -3 358.57 7.94
24 6 0 114.72 2.79
6 -30 0 115.12 2.64
-30 24 0 110.21 2.89
-30 24 3 56.5 1.72
6 -30 3 56.52 1.54
6 -30 6 223.76 4.72
30 -24 -6 220.22 4.69
25 5 -4 2.69 0.49
25 5 -4 2.24 0.47
25 5 -1 7.33 0.62
30 -25 1 7.25 0.47
25 5 -1 7.61 0.59
5 -30 2 4.63 0.52
-30 25 2 5.48 0.76
5 -30 5 0.03 0.44
-30 25 5 0.42 0.3
30 -25 -5 0.54 0.4
26 4 -5 4.98 0.56
26 4 -2 4.58 0.52
26 4 -2 4.5 0.54
4 -30 1 0.03 0.37
-30 26 1 -0.06 0.72
4 -30 4 6.34 0.5
30 -26 -4 6.46 0.61
27 3 -6 89.67 1.84
27 3 -6 71.39 1.79
27 3 -3 294.77 6.35
27 3 -3 295.56 6.37
-30 27 0 120.9 3.01
30 -27 0 119.3 2.75
3 -30 3 28.42 0.88
-30 27 3 28.51 1.16
3 -30 6 163.41 3.46
28 2 -4 4.41 0.5
28 2 -1 1.26 0.39
30 -28 1 0.88 0.34
2 -30 2 10.28 0.47
-30 28 2 10.78 0.84
2 -30 5 7.11 0.4
30 -28 -5 7.04 0.42
-30 28 5 6.4 0.39
29 1 -5 10.03 0.47
29 1 -2 19.53 0.74
29 1 -2 19.22 0.74
-30 29 1 10.18 0.85
1 -30 4 0.36 0.33
30 -29 -4 0.45 0.5
30 0 -3 241.75 5.24
30 0 -3 247.14 5.25
-30 30 0 83.72 2.19
30 -30 0 80.91 1.93
-30 30 3 24.85 1.06
-30 31 2 37.61 1.29
-30 31 -1 9.43 0.75
30 -31 1 7.85 0.42
31 -1 -4 3.8 0.33
31 -1 -4 4.22 0.34
-29 31 3 68.88 1.92
-29 31 0 212.22 4.84
29 -31 0 214.18 4.6
31 -2 -3 89.2 2.11
29 -31 3 88.25 2.05
-28 31 4 26.07 1.08
28 -31 -1 2.33 0.46
-28 31 1 2.94 0.79
31 -3 -2 14.81 0.65
28 -31 2 13.71 0.55
31 -3 -5 20.58 0.66
31 -3 -5 21.55 0.66
27 -31 -5 35.65 0.93
-27 31 2 48.22 1.62
27 -31 -2 50.44 1.37
31 -4 -1 0.44 0.37
27 -31 1 0.36 0.4
27 -31 1 0.26 0.49
31 -4 -4 31 1.02
27 -31 4 30.29 0.91
-26 31 6 -0.13 0.3
-26 31 3 74.12 2.16
26 -31 -3 78.81 1.91
26 -31 0 163.45 3.67
-26 31 0 161.35 3.96
26 -31 0 164.67 3.69
31 -5 -3 49.21 1.4
26 -31 3 46.46 1.21
31 -5 -6 4.26 0.32
31 -5 -6 4.12 0.31
-25 31 4 43.66 1.49
-25 31 1 19.53 1.19
31 -6 -2 6.12 0.58
25 -31 2 5.15 0.48
25 -31 2 4.85 0.59
31 -6 -5 39.4 1.17
25 -31 5 38.26 1.05
-7 -24 5 72.92 1.65
24 -31 -2 105.62 2.54
31 -7 -1 2.84 0.51
24 -31 1 3.31 0.53
24 -31 1 2.85 0.59
31 -7 -4 50.07 1.47
24 -31 4 52.51 1.39
23 -31 -3 73.16 1.85
23 -31 0 84.88 2.16
31 -8 -3 4.68 0.62
23 -31 3 5.36 0.59
31 -8 -6 14.38 0.61
23 -31 6 13.85 0.5
-22 31 7 25.3 0.72
9 22 -4 144.82 3.26
22 -31 -4 141.65 3.14
22 -31 -1 74.13 1.94
22 -31 -1 70.96 1.87
31 -9 -2 2.07 0.56
31 -9 -2 2.12 0.43
22 -31 2 1.54 0.56
31 -9 -5 53.34 1.5
22 -31 5 53.49 1.39
10 21 -5 142.24 3.18
-21 31 5 133.03 3.33
21 -31 -2 182.37 4.05
10 21 -2 173.45 4.1
-21 31 2 180.59 4.36
31 -10 -1 7.1 0.66
21 -31 1 8.27 0.7
31 -10 -4 68.87 1.9
31 -10 -4 71.56 1.76
21 -31 4 67.38 1.7
31 -10 -7 82.08 1.84
11 20 -6 8.75 0.56
-20 31 6 7.84 0.53
20 -31 -3 29.71 1
11 20 -3 29.41 1.13
-20 31 3 28.45 1.32
31 -11 0 22.31 0.82
20 -31 0 22.85 0.97
31 -11 -3 1.16 0.55
20 -31 3 1.49 0.5
31 -11 -3 1.51 0.46
20 -31 3 1.71 0.5
31 -11 -6 8.91 0.65
20 -31 6 10.42 0.54
12 19 -7 37.2 0.94
-19 31 7 35.8 0.97
12 19 -4 151.4 3.47
-19 31 4 148.54 3.66
19 -31 -4 149.74 3.34
12 19 -1 84.69 2.24
19 -31 -1 86.85 2.19
-19 31 1 85.99 2.49
19 -31 -1 83.28 2.13
31 -12 -2 1.59 0.46
19 -31 2 1.18 0.52
31 -12 -5 71.64 1.93
31 -12 -5 77.47 1.85
19 -31 5 74.73 1.78
13 18 -5 124.37 2.86
13 18 -5 123.34 2.94
13 18 -2 223.11 5.04
18 -31 -2 227.59 4.92
13 18 -2 221.56 5.01
-18 31 2 226.96 5.23
18 -31 -2 213.79 4.78
18 -31 1 33.81 1.18
31 -13 -1 33.9 1.11
18 -31 1 34.47 1.17
18 -31 4 43.95 1.27
31 -13 -4 44.99 1.28
31 -13 -7 83.34 1.89
18 -31 7 81.07 1.82
14 17 -6 35.04 1.11
-17 31 6 34.77 1
17 -31 -3 27.66 0.96
14 17 -3 27.66 1.13
14 17 -3 28.59 1.14
-17 31 3 28.33 1.28
14 17 0 7.4 0.61
31 -14 0 7.92 0.56
17 -31 0 6.67 0.67
31 -14 -6 56.76 1.53
17 -31 6 53.76 1.34
15 16 -7 19.24 0.64
15 16 -4 147.74 3.44
15 16 -4 148.75 3.48
-16 31 4 144.2 3.52
16 -31 -4 142.59 3.21
15 16 -1 110.55 2.78
15 16 -1 111.04 2.69
31 -15 1 102.4 2.5
-16 31 1 113.57 2.9
16 -31 -1 106.08 2.54
16 -31 2 0.27 0.6
31 -15 -2 -0.09 0.49
16 -31 5 68.1 1.64
31 -15 -5 71.75 1.66
16 15 -5 83.06 2.09
15 -31 -2 129.27 3.06
16 15 -2 132.83 3.2
-15 31 2 133.86 3.34
15 -31 1 9.92 0.77
31 -16 -1 9.94 0.73
31 -16 -4 60.56 1.62
31 -16 -7 86.93 1.92
15 -31 7 79.55 1.78
17 14 -6 113.96 2.6
14 -31 -3 49.43 1.32
17 14 -3 45.78 1.53
17 14 -3 46.96 1.51
-14 31 3 44.95 1.55
17 14 0 26.48 1.14
17 14 0 27.26 0.93
14 -31 0 27.43 1.05
-14 31 0 26.44 1.2
31 -17 0 24.95 1
14 -31 0 23.82 0.94
14 -31 3 137.36 3.22
31 -17 -6 51.42 1.32
14 -31 6 52.18 1.33
18 13 -7 13.31 0.52
18 13 -4 112.6 2.78
18 13 -4 111.95 2.81
18 13 -1 115.24 2.86
18 13 -1 112.52 2.73
-13 31 1 116.59 2.9
31 -18 1 105.7 2.63
13 -31 2 5.11 0.67
31 -18 -2 5.38 0.65
31 -18 -5 34.69 1.05
19 12 -5 61.29 1.66
19 12 -5 63.35 1.74
19 12 -2 123.25 3.08
12 -31 -2 124.51 2.86
19 12 -2 122.94 3.01
12 -31 1 22.89 0.97
31 -19 -1 21.15 0.99
12 -31 4 21.31 0.89
31 -19 -4 22.06 0.88
31 -19 -7 40.2 1.1
12 -31 7 44.93 1.03
20 11 -6 160.36 3.58
20 11 -6 165.76 3.65
20 11 -3 74.39 2.03
20 11 0 33.23 1.2
11 -31 0 31.55 1.1
31 -20 0 31.29 1.14
11 -31 3 229.27 5.06
31 -20 -6 111.66 2.49
21 10 -4 46.94 1.43
21 10 -4 47.56 1.47
21 10 -1 33.86 1.22
31 -21 1 30.87 1.05
10 -31 2 0.92 0.55
31 -21 -2 0.5 0.57
10 -31 5 25.41 0.88
31 -21 -5 25.56 0.86
22 9 -5 4.8 0.52
22 9 -5 4.65 0.57
22 9 -2 27.42 1.09
9 -31 -2 26.85 0.85
22 9 -2 27.38 0.99
9 -31 1 17.29 0.8
9 -31 4 0.67 0.5
31 -22 -4 0.69 0.48
23 8 -6 205.67 4.44
23 8 -6 209.44 4.48
23 8 -3 61.21 1.72
23 8 -3 63.04 1.71
23 8 0 79.72 2.06
8 -31 0 79.74 1.93
-31 23 0 74.97 2.09
8 -31 3 296.28 6.49
31 -23 -3 313.01 6.65
8 -31 6 110.6 2.36
31 -23 -6 102.73 2.32
24 7 -4 11.02 0.66
24 7 -1 9.36 0.66
-31 24 -1 8.97 0.72
7 -31 2 0.53 0.46
-31 24 2 0.25 0.59
7 -31 5 8.29 0.56
31 -24 -5 7.71 0.54
25 6 -5 0.52 0.46
25 6 -2 5.78 0.57
6 -31 1 12.53 0.59
-31 25 1 11.78 0.81
6 -31 4 2.09 0.42
31 -25 -4 2.08 0.48
26 5 -6 139.69 3.02
26 5 -3 29.71 1.01
-31 26 0 102.06 2.59
5 -31 3 300.52 6.23
-31 26 3 283.98 6.39
5 -31 6 89.26 1.95
27 4 -4 2.09 0.49
27 4 -1 4.6 0.47
-31 27 -1 4.47 0.65
4 -31 2 0.98 0.34
-31 27 2 1.05 0.62
4 -31 5 0.35 0.3
31 -27 -5 0.33 0.27
28 3 -5 3.48 0.36
28 3 -2 2.25 0.41
-31 28 1 1.18 0.61
3 -31 4 4.37 0.42
31 -28 -4 4.67 0.51
29 2 -3 33.33 1.01
-31 29 0 69.78 1.91
2 -31 3 216.98 4.65
-31 29 3 236.47 4.91
30 1 -4 4.4 0.36
-31 30 -1 13.12 0.76
-31 30 2 2.89 0.65
-31 31 -2 3.91 0.62
-31 31 1 2.28 0.66
31 -31 -4 7.33 0.37
-31 32 3 123.18 2.63
31 -32 -3 109.99 2.56
-31 32 0 63.06 1.69
-31 32 -3 9.47 0.49
30 -32 -4 0.66 0.26
-30 32 1 16.7 0.94
-30 32 -2 13.36 0.79
-29 32 2 2.99 0.79
-29 32 -1 29.71 1.14
29 -32 1 29.99 0.85
32 -3 -4 53.8 1.31
-28 32 3 100.92 2.55
28 -32 0 36.21 1.02
-28 32 0 32.02 1.27
32 -4 -3 16.5 0.71
28 -32 3 15.79 0.67
-27 32 4 -0.75 0.63
-27 32 1 17.91 1.04
32 -5 -2 32.87 1
27 -32 2 30.2 0.9
27 -32 2 32.7 0.99
32 -5 -5 6.44 0.35
27 -32 5 6.23 0.3
26 -32 -5 14.64 0.48
26 -32 -2 0.56 0.43
-26 32 2 1.08 0.74
26 -32 1 75.6 1.86
26 -32 1 76.63 1.9
32 -6 -4 93.35 2.21
26 -32 4 89.89 2.12
-25 32 3 74.82 2.17
25 -32 -3 81.43 1.92
-25 32 0 7.01 0.9
25 -32 0 5.66 0.56
32 -7 -3 34.69 1.11
25 -32 3 32.86 0.93
32 -7 -6 46.62 1.11
24 -32 -1 5.61 0.57
32 -8 -2 42.05 1.26
24 -32 2 39.8 1.15
24 -32 2 39.24 1.21
24 -32 5 15.02 0.59
23 -32 -2 0.94 0.5
23 -32 1 112.85 2.63
23 -32 1 115.95 2.67
32 -9 -4 152.05 3.41
23 -32 4 146.91 3.22
-22 32 6 24.13 0.73
-22 32 3 21.67 1.16
22 -32 -3 23.28 0.83
22 -32 0 -0.05 0.53
32 -10 0 -0.37 0.31
22 -32 0 0.33 0.5
32 -10 -3 26.77 1.04
32 -10 -3 27.96 0.89
22 -32 3 25.25 0.93
32 -10 -6 35.52 0.94
22 -32 6 30.66 0.83
-21 32 4 19.53 1.02
21 -32 -1 13.59 0.76
-21 32 1 14.65 1.06
21 -32 -1 13.49 0.67
32 -11 -2 84.82 2.22
32 -11 -2 88.04 2.1
21 -32 2 84.52 2.15
12 20 -5 127.57 2.93
20 -32 -2 4.97 0.57
12 20 -2 4.85 0.59
-20 32 2 4.91 0.86
32 -12 -1 128.69 3.14
32 -12 -1 138.03 3.08
20 -32 1 133.08 3.11
32 -12 -4 216.89 4.81
32 -12 -4 214.51 4.68
20 -32 4 212.97 4.64
20 -32 4 217.65 4.67
13 19 -6 10.34 0.5
-19 32 6 10.63 0.5
13 19 -3 0.09 0.49
19 -32 -3 0.09 0.42
13 19 -3 -0.16 0.51
-19 32 3 -0.13 0.74
32 -13 0 21.46 0.76
-19 32 0 22.96 1.16
19 -32 0 22.38 0.88
32 -13 -3 42.72 1.34
32 -13 -3 42 1.22
19 -32 3 41.98 1.22
32 -13 -6 10.4 0.57
19 -32 6 10.75 0.47
14 18 -4 21.23 0.85
14 18 -4 18.79 0.87
-18 32 4 20.67 1
18 -32 -4 20.66 0.69
14 18 -1 12.27 0.71
18 -32 -1 13.35 0.73
-18 32 1 13.57 0.99
18 -32 -1 12.09 0.63
18 -32 2 99.71 2.47
32 -14 -2 103.71 2.47
18 -32 2 103.54 2.46
32 -14 -5 75.38 1.76
18 -32 5 69.63 1.71
15 17 -5 103.88 2.43
15 17 -2 2.51 0.64
17 -32 -2 2.96 0.52
15 17 -2 2.4 0.54
-17 32 2 2.96 0.75
17 -32 1 120.88 2.91
32 -15 -1 125.85 2.92
17 -32 1 124.89 2.91
17 -32 4 185.21 4.13
32 -15 -4 191.37 4.15
16 16 -6 8.05 0.49
16 -32 -3 30.72 0.97
16 16 -3 33.43 1.17
16 16 -3 30.9 1.11
-16 32 3 31.41 1.24
32 -16 0 130.79 3
-16 32 0 127.44 3.23
16 -32 0 130.03 3
16 -32 3 64.58 1.71
32 -16 -6 0.35 0.4
16 -32 6 0.34 0.29
17 15 -7 49.61 1.14
17 15 -4 72.84 1.89
17 15 -4 69.31 1.88
17 15 -1 0.29 0.57
17 15 -1 0.64 0.44
-15 32 1 0.9 0.71
15 -32 2 66.82 1.79
32 -17 -2 67.14 1.79
15 -32 5 85.61 2.03
32 -17 -5 86.95 2.04
18 14 -5 72.55 1.81
18 14 -5 71.18 1.84
14 -32 -2 2.13 0.46
18 14 -2 2.59 0.51
-14 32 2 2.48 0.64
14 -32 1 81.94 2.12
32 -18 -1 86.89 2.18
14 -32 1 85.49 2.06
14 -32 4 131.22 3.02
32 -18 -4 133.36 3.04
19 13 -6 10.78 0.47
13 -32 -3 49.87 1.28
19 13 -3 50.93 1.46
19 13 0 208.06 4.6
13 -32 0 206.16 4.47
32 -19 0 206.76 4.51
13 -32 0 192.09 4.39
13 -32 3 100.93 2.44
13 -32 6 0.58 0.3
32 -19 -6 0.85 0.27
20 12 -4 26.59 0.98
20 12 -4 25.68 0.95
20 12 -1 0.34 0.54
32 -20 1 0.17 0.33
12 -32 2 28 1
32 -20 -2 28.04 1.05
12 -32 5 35.96 1.07
32 -20 -5 37.95 1.06
21 11 -5 35.75 1.11
21 11 -5 38.09 1.12
21 11 -2 2.91 0.58
11 -32 -2 2.63 0.39
21 11 -2 2.88 0.46
11 -32 1 34.9 1.11
32 -21 -1 36.4 1.2
11 -32 1 34.84 1.01
11 -32 4 65.8 1.71
32 -21 -4 70.03 1.75
22 10 -6 10.75 0.46
22 10 -6 11.02 0.49
22 10 -3 81.13 2.08
22 10 -3 79.69 2.01
22 10 0 280.79 6.08
10 -32 0 278.9 5.95
32 -22 0 274.24 6.05
10 -32 3 118.97 2.76
32 -22 -6 1.25 0.22
23 9 -4 22.11 0.81
23 9 -1 1.22 0.48
32 -23 1 0.38 0.34
9 -32 2 10.62 0.62
32 -23 -2 11.43 0.72
9 -32 5 14.97 0.65
32 -23 -5 15.83 0.63
24 8 -5 9.09 0.52
24 8 -5 9.83 0.52
24 8 -2 8.95 0.64
8 -32 1 0.2 0.38
8 -32 4 10.66 0.57
32 -24 -4 11.82 0.63
25 7 -6 8.48 0.35
25 7 -3 97.41 2.36
-32 25 0 266.84 5.82
7 -32 3 98.14 2.29
32 -25 -3 102.55 2.43
7 -32 6 6.6 0.3
26 6 -4 1.15 0.48
26 6 -1 0.28 0.37
-32 26 -1 0.46 0.49
6 -32 2 -0.27 0.34
-32 26 2 0.3 0.49
6 -32 5 0.65 0.28
32 -26 -5 0.61 0.26
27 5 -2 0.3 0.38
-32 27 -2 0.38 0.45
-32 27 1 0.48 0.52
5 -32 4 -0.13 0.35
32 -27 -4 -0.32 0.38
28 4 -3 95.51 2.19
-32 28 -3 89.19 2.15
-32 28 0 256.32 5.59
4 -32 3 95.78 2.12
-32 28 3 91.69 2.26
29 3 -4 2.58 0.32
-32 29 -1 0.74 0.5
-32 29 2 8.04 0.63
-32 30 -2 2.56 0.56
-32 30 1 6.62 0.66
32 -30 -4 3.79 0.31
-32 31 -3 61.97 1.46
-32 31 0 202.64 4.44
32 -31 -3 55.13 1.35
-32 32 -1 1.72 0.43
-32 32 2 2.74 0.39
-32 33 1 2.78 0.4
-31 33 2 20.01 0.74
-31 33 -1 53.85 1.42
-30 33 3 13.96 0.66
-30 33 0 20.29 0.89
-30 33 -3 78.88 1.87
29 -33 -4 8.64 0.37
-29 33 1 11.94 0.87
29 -33 -1 13.13 0.59
-29 33 -2 0.37 0.58
-28 33 2 82.45 2.18
28 -33 1 105.71 2.4
-28 33 -1 111.11 2.67
33 -5 -4 12.44 0.49
-27 33 3 4.57 0.76
27 -33 0 36.9 1.04
-27 33 0 35.31 1.31
33 -6 -3 75.39 1.83
-26 33 4 13.52 0.75
-26 33 1 27.68 1.19
33 -7 -2 8.49 0.51
26 -33 2 7.9 0.46
26 -33 2 8.87 0.55
26 -33 5 1.93 0.23
25 -33 -2 127.03 2.87
25 -33 1 161.96 3.59
25 -33 1 162.99 3.61
33 -8 -4 23.51 0.83
24 -33 -3 0.27 0.39
24 -33 0 49.85 1.35
33 -9 -3 54.56 1.46
24 -33 3 50.94 1.31
24 -33 3 52.37 1.38
-23 33 4 8.44 0.87
23 -33 -1 51.37 1.41
-23 33 1 50.47 1.69
33 -10 -2 18.63 0.77
23 -33 2 16.75 0.69
23 -33 2 18.76 0.77
23 -33 5 2.86 0.33
22 -33 -2 204.86 4.42
-22 33 2 195.39 4.64
33 -11 -1 283.13 5.98
22 -33 1 275.8 6.01
33 -11 -4 35.15 1.12
22 -33 4 32.99 0.9
22 -33 4 33 1.01
-21 33 6 0.25 0.26
12 21 -3 11.4 0.65
-21 33 3 10.19 0.85
21 -33 -3 12.28 0.58
21 -33 0 32.59 1.08
-21 33 0 35.49 1.34
21 -33 0 33.5 1.06
33 -12 -3 20.4 0.87
33 -12 -3 21.41 0.75
21 -33 3 19.96 0.79
33 -12 -6 0.64 0.29
21 -33 6 0.43 0.23
-20 33 4 15.63 0.87
20 -33 -1 68.39 1.77
-20 33 1 68.49 2.01
20 -33 -1 67.85 1.68
33 -13 -2 41.58 1.3
33 -13 -2 44.12 1.23
20 -33 2 43.06 1.26
19 -33 -2 174.79 3.8
14 19 -2 168 3.85
-19 33 2 166.61 4.01
33 -14 -1 259.55 5.54
19 -33 1 253.5 5.55
33 -14 -4 40.01 1.27
19 -33 4 41.38 1.14
19 -33 4 42.67 1.17
15 18 -6 5.7 0.37
18 -33 -3 57.11 1.42
15 18 -3 56.99 1.56
15 18 -3 52.78 1.52
-18 33 3 53.63 1.65
33 -15 0 48.87 1.32
-18 33 0 52.58 1.63
18 -33 0 52 1.38
33 -15 -3 0.81 0.39
18 -33 3 0.36 0.42
33 -15 -6 17.22 0.63
16 17 -4 2.9 0.48
16 17 -4 3.03 0.49
16 17 -1 75.75 1.91
17 -33 -1 75.04 1.91
-17 33 1 77.88 2.13
17 -33 2 79.35 1.98
33 -16 -2 80.37 1.98
17 -33 2 79.07 1.96
33 -16 -5 4.41 0.42
17 -33 5 3.69 0.43
17 -33 5 4.35 0.44
17 16 -5 1.16 0.42
17 16 -5 1.05 0.45
16 -33 -2 127.42 2.86
17 16 -2 121.54 2.9
-16 33 2 125 3.04
16 -33 1 167.49 3.72
33 -17 -1 168.6 3.73
-16 33 -1 159.48 3.84
16 -33 1 165.43 3.7
33 -17 -4 17.48 0.69
15 -33 -3 122.35 2.76
18 15 -3 129.67 2.98
18 15 -3 123.67 2.9
33 -18 0 41.88 1.16
15 -33 0 39.5 1.13
15 -33 3 13.9 0.69
33 -18 -6 56.79 1.43
15 -33 6 57.59 1.31
15 -33 6 57.81 1.32
19 14 -4 -0.12 0.46
19 14 -4 0.3 0.42
19 14 -1 44.04 1.37
14 -33 2 72.18 1.81
33 -19 -2 73.66 1.85
14 -33 2 68.7 1.73
33 -19 -5 17.02 0.62
20 13 -5 0.37 0.38
20 13 -5 0.08 0.38
20 13 -2 78.94 2.06
13 -33 -2 81.11 1.89
20 13 -2 76.7 1.93
13 -33 1 132.25 2.97
33 -20 -1 135.76 3.03
13 -33 4 22.5 0.81
33 -20 -4 22.93 0.8
21 12 -6 46.27 1.13
21 12 -6 50.77 1.15
21 12 -3 160.67 3.58
33 -21 0 59.06 1.55
12 -33 3 16.39 0.71
33 -21 -6 75.38 1.74
22 11 -4 1.38 0.38
22 11 -1 12.27 0.68
11 -33 2 24.85 0.87
33 -22 -2 28.09 0.96
11 -33 5 3.66 0.37
33 -22 -5 3.88 0.34
23 10 -5 0.35 0.31
23 10 -5 0.42 0.28
23 10 -2 15.83 0.74
10 -33 1 36.52 1.07
33 -23 -1 39.49 1.17
10 -33 4 9.43 0.58
33 -23 -4 9.1 0.56
24 9 -3 210.94 4.63
33 -24 0 66.62 1.69
9 -33 3 23.65 0.78
25 8 -4 1.99 0.41
25 8 -1 1.14 0.39
8 -33 2 8.28 0.46
33 -25 -2 8.8 0.57
8 -33 5 4.94 0.33
33 -25 -5 5.67 0.32
26 7 -2 0.89 0.38
33 -26 -1 3.51 0.45
7 -33 4 1.21 0.31
33 -26 -4 0.82 0.32
27 6 -3 207.4 4.48
-33 27 0 57.41 1.49
33 -27 0 57.7 1.47
6 -33 3 19.09 0.63
33 -27 -3 20.61 0.76
28 5 -4 1.73 0.3
-33 28 -1 8.6 0.54
-33 28 2 4.79 0.45
33 -28 -2 3.73 0.51
-33 29 -2 0.93 0.44
-33 29 1 1.65 0.47
33 -29 -1 1.2 0.44
33 -29 -4 0.48 0.22
-33 30 0 52.11 1.26
33 -30 0 40.24 1.14
33 -30 -3 13.87 0.51
-33 31 -1 5.79 0.4
33 -31 -2 3.06 0.33
33 -32 -1 5.13 0.32
-31 34 1 14.97 0.61
-31 34 -2 34.08 0.91
-30 34 2 78.02 1.87
-30 34 -1 16.77 0.71
-29 34 3 27.18 0.87
-29 34 0 71.89 1.87
29 -34 0 72.79 1.66
-29 34 -3 20.94 0.74
-28 34 1 2.14 0.67
-28 34 -2 18.62 0.8
28 -34 2 17.52 0.54
-27 34 2 100.56 2.48
27 -34 1 5.47 0.47
-27 34 -1 4.71 0.77
34 -7 -4 37.92 0.97
27 -34 4 39.82 0.94
34 -8 -3 8.82 0.49
26 -34 3 8.72 0.46
25 -34 -1 7.53 0.53
25 -34 2 6.93 0.46
25 -34 2 6.26 0.53
-24 34 5 119.28 2.57
-24 34 2 212.83 4.89
24 -34 -2 219.84 4.68
24 -34 1 18.92 0.73
-24 34 -1 19.1 0.98
24 -34 1 20.54 0.75
34 -10 -4 57.66 1.44
-23 34 3 19.45 1
23 -34 -3 19.03 0.69
23 -34 0 15.02 0.67
-23 34 0 12.84 0.9
23 -34 0 13.86 0.6
34 -11 -3 0.64 0.46
23 -34 3 0.57 0.39
23 -34 3 0.25 0.48
-22 34 4 24.84 0.95
22 -34 -1 9.37 0.58
-22 34 1 9.21 0.81
34 -12 -2 4.24 0.43
22 -34 2 5.22 0.46
22 -34 2 5.03 0.5
-21 34 5 133.03 2.86
21 -34 -2 209.38 4.51
-21 34 2 206.96 4.72
34 -13 -1 15.7 0.6
-21 34 -1 16.41 0.9
21 -34 1 15.29 0.68
34 -13 -4 70.55 1.79
21 -34 4 70.34 1.64
21 -34 4 72.93 1.71
14 20 -3 20.3 0.77
-20 34 3 19.92 0.93
20 -34 -3 20.47 0.68
20 -34 0 1.56 0.46
-20 34 0 1.74 0.64
20 -34 0 1.6 0.39
34 -14 -3 6.77 0.57
34 -14 -3 7.92 0.48
20 -34 3 6.9 0.53
15 19 -4 47.29 1.29
19 -34 -1 42.03 1.2
-19 34 1 40.96 1.38
34 -15 -2 0.77 0.41
34 -15 -2 1.01 0.36
19 -34 2 0.82 0.43
19 -34 5 11.51 0.48
16 18 -5 105.52 2.36
18 -34 -2 158.14 3.44
16 18 -2 151.73 3.46
-18 34 2 156.22 3.61
34 -16 -1 12.47 0.56
-18 34 -1 13.44 0.79
18 -34 1 13.02 0.61
34 -16 -4 49.44 1.43
34 -16 -4 53.91 1.34
18 -34 4 52.92 1.35
17 17 -3 16.1 0.66
17 -34 -3 16.49 0.57
34 -17 0 12.74 0.52
-17 34 0 13.62 0.79
17 -34 0 12.38 0.55
34 -17 -3 63.04 1.64
17 -34 3 64.8 1.58
34 -17 -3 62.19 1.58
17 -34 3 61.92 1.56
18 16 -4 27.82 0.92
18 16 -4 26.75 0.88
16 -34 -1 58.87 1.52
16 -34 2 11.32 0.6
34 -18 -2 11.88 0.56
16 -34 2 10.54 0.57
34 -18 -5 5.5 0.34
16 -34 5 4.93 0.35
16 -34 5 4.7 0.36
19 15 -5 55.71 1.34
15 -34 -2 96.06 2.22
19 15 -2 98.84 2.37
34 -19 -1 8.62 0.5
15 -34 1 8.4 0.49
15 -34 4 31.4 0.95
34 -19 -4 33.02 0.95
15 -34 4 32.33 0.92
20 14 -3 16.98 0.63
34 -20 0 28.25 0.85
14 -34 3 111.19 2.47
14 -34 3 105.88 2.42
21 13 -4 12.49 0.61
21 13 -4 12.6 0.54
21 13 -1 23.33 0.87
13 -34 -1 22.79 0.75
13 -34 2 4.39 0.46
34 -21 -2 4.19 0.43
13 -34 2 4.2 0.37
13 -34 5 3.67 0.33
34 -21 -5 3.79 0.3
13 -34 5 3.86 0.29
22 12 -5 40.41 0.98
22 12 -5 36.5 0.93
22 12 -2 70.82 1.8
34 -22 -1 8.95 0.53
12 -34 4 13.76 0.57
34 -22 -4 16.38 0.59
23 11 -3 16.03 0.72
34 -23 0 54.41 1.37
11 -34 3 183.82 3.89
11 -34 3 177.74 3.82
24 10 -1 30.25 0.88
10 -34 -1 24.55 0.73
10 -34 2 21.37 0.71
34 -24 -2 23.04 0.79
10 -34 5 0.53 0.21
34 -24 -5 0.53 0.19
25 9 -5 9.37 0.34
25 9 -2 18.19 0.71
34 -25 -1 3.56 0.41
9 -34 4 3.23 0.3
34 -25 -4 3.17 0.32
9 -34 4 2.49 0.21
26 8 -3 27.43 0.84
34 -26 0 38.27 1.03
8 -34 3 160.32 3.41
27 7 -4 1.95 0.27
34 -27 -2 3.09 0.42
34 -28 -1 1.03 0.35
34 -28 -4 1.53 0.2
34 -29 0 32.77 0.87
34 -30 -2 0.88 0.27
34 -31 -1 0.51 0.22
-30 35 1 27.36 0.84
-29 35 2 0.62 0.4
-29 35 -1 58.67 1.45
29 -35 1 53.82 1.25
-28 35 0 16.66 0.74
28 -35 0 14.97 0.53
-28 35 -3 6.54 0.45
27 -35 2 6.38 0.32
26 -35 1 91.7 2.07
-25 35 3 14.41 0.72
-25 35 0 2.55 0.76
35 -10 -3 8.31 0.41
25 -35 3 7.95 0.35
-25 35 -3 9.63 0.58
25 -35 3 9.16 0.42
24 -35 -1 9.1 0.57
-24 35 1 8.78 0.84
24 -35 2 31.05 0.9
-24 35 -2 33.9 1.15
24 -35 2 31.68 0.93
23 -35 -2 1.49 0.45
-23 35 2 0.98 0.72
-23 35 -1 144.15 3.38
23 -35 1 145.99 3.19
35 -12 -4 175.92 3.81
23 -35 4 178.6 3.77
-22 35 3 0.4 0.55
22 -35 0 1.61 0.45
-22 35 0 1.66 0.63
22 -35 0 2.18 0.36
35 -13 -3 8.85 0.51
22 -35 3 8.06 0.44
22 -35 3 8.31 0.5
21 -35 -1 3 0.44
-21 35 1 2.82 0.62
35 -14 -2 20.63 0.69
-21 35 -2 18.93 0.85
21 -35 2 17.92 0.72
35 -14 -5 10.3 0.39
20 -35 -2 0.71 0.39
-20 35 2 0.3 0.53
20 -35 1 119.39 2.68
35 -15 -1 120.83 2.63
-20 35 -1 115.46 2.8
20 -35 1 115.71 2.64
35 -15 -4 142.93 3.16
20 -35 4 140.83 3.06
20 -35 4 147.82 3.11
19 -35 -3 0.9 0.32
19 -35 0 20.41 0.74
-19 35 0 19.71 0.85
19 -35 0 17.77 0.61
35 -16 -3 17.76 0.74
35 -16 -3 19.97 0.68
19 -35 3 18.39 0.71
17 18 -4 24.5 0.72
18 -35 -1 6.21 0.49
35 -17 -2 9.04 0.47
18 -35 2 7.64 0.5
35 -17 -5 17.88 0.57
18 -35 5 18.27 0.53
18 17 -5 63.51 1.42
17 -35 -2 4.97 0.39
35 -18 -1 60.14 1.46
17 -35 1 59.34 1.45
35 -18 -4 82.21 1.98
17 -35 4 87.37 1.92
19 16 -3 32.97 0.91
16 -35 0 93.87 2.18
16 -35 3 29.71 0.87
35 -19 -3 30.93 0.87
16 -35 3 27.98 0.86
20 15 -4 14.95 0.5
15 -35 -1 4.37 0.4
35 -20 -2 4.13 0.4
15 -35 2 3.45 0.36
35 -20 -5 12.89 0.47
15 -35 5 13.7 0.41
14 -35 -2 1.66 0.26
35 -21 -1 43.12 1.13
35 -21 -4 56.98 1.45
14 -35 4 64.71 1.42
35 -21 -4 63.82 1.44
14 -35 4 58.14 1.39
22 13 -3 54.66 1.39
13 -35 3 56.19 1.29
13 -35 3 49.52 1.24
12 -35 -1 9.77 0.42
35 -23 -2 1.33 0.39
35 -24 -1 23.8 0.75
11 -35 4 26.45 0.68
35 -24 -4 25.83 0.7
25 10 -3 67.42 1.58
10 -35 0 165.93 3.52
35 -26 -2 4.5 0.35
35 -27 -1 6.56 0.37
35 -29 -2 6.27 0.31
35 -30 -1 0.19 0.17
-29 36 1 0.28 0.29
28 -36 1 87.19 1.89
-26 36 1 15.32 0.71
26 -36 -1 14.63 0.51
26 -36 2 6.53 0.32
-26 36 -2 7.91 0.54
-25 36 2 129.31 2.93
25 -36 1 173.45 3.73
-25 36 -1 178.48 3.89
24 -36 0 5.92 0.41
-24 36 0 5.14 0.59
24 -36 3 4.14 0.26
-24 36 -3 4.1 0.43
24 -36 3 4.23 0.32
23 -36 -1 22.77 0.73
-23 36 1 22.78 0.88
23 -36 2 7.13 0.39
-23 36 -2 7.4 0.54
23 -36 2 7.29 0.4
-22 36 2 151.19 3.39
22 -36 -2 152.29 3.26
22 -36 1 187.75 3.94
-22 36 -1 181.16 4.05
22 -36 1 180.06 3.9
22 -36 4 13.7 0.42
21 -36 0 6.03 0.5
-21 36 0 6.34 0.63
21 -36 3 0.34 0.25
21 -36 3 0.63 0.3
20 -36 -1 17.04 0.67
20 -36 2 21.77 0.7
19 -36 -2 108.56 2.39
19 -36 1 151.56 3.13
19 -36 1 135.1 3.04
36 -17 -4 13.02 0.47
19 -36 4 13.73 0.42
19 -36 4 14.16 0.45
18 -36 0 14.8 0.65
36 -18 -3 1.93 0.28
36 -18 -3 2.36 0.28
18 -36 3 2.2 0.31
17 -36 -1 1.44 0.4
36 -19 -2 19.99 0.62
17 -36 2 17.46 0.6
16 -36 -2 50.17 1.16
16 -36 1 91.5 1.96
36 -20 -1 78.98 1.89
15 -36 0 24.18 0.77
36 -21 -3 5.15 0.32
15 -36 3 4.31 0.26
14 -36 -1 0.31 0.3
36 -22 -2 10.16 0.43
36 -23 -1 44.06 1.08
12 -36 0 30.04 0.78
36 -24 -3 18.45 0.55
36 -25 -2 7.27 0.34
36 -26 -1 12.66 0.41
-26 37 0 4.87 0.43
-25 37 1 4.43 0.42
25 -37 -1 3.68 0.29
-24 37 -1 6.66 0.46
23 -37 0 0.45 0.28
-23 37 0 -0.05 0.35
22 -37 -1 1.66 0.29
-22 37 1 1.53 0.32
22 -37 2 4.37 0.28
21 -37 -2 102.96 2.21
21 -37 1 5.04 0.36
20 -37 0 1.07 0.3
20 -37 3 7.44 0.31
19 -37 -1 13.04 0.46
19 -37 2 10.19 0.43
18 -37 1 9.51 0.42
17 -37 0 19.04 0.58
17 -37 3 38.5 0.91
16 -37 2 14.6 0.49
37 -21 -2 14.22 0.44
15 -37 1 0.85 0.26
14 -37 0 19.77 0.53
13 -37 2 17.92 0.49
37 -24 -2 17.22 0.48
22 -38 0 3.95 0.24
20 -38 1 77.86 1.7
19 -38 0 19.63 0.53
loop_
_geom_angle_atom_site_label_1
_geom_angle_atom_site_label_2
_geom_angle_atom_site_label_3
_geom_angle
_geom_angle_site_symmetry_1
_geom_angle_site_symmetry_3
_geom_angle_publ_flag
N3 Pt1 O1 79.77(11) . . ?
N1 Pt1 O1 95.44(11) . . ?
N1 Pt1 N3 174.38(12) . . ?
N1 Pt1 C1 80.09(14) . . ?
C1 Pt1 O1 175.50(13) . . ?
C1 Pt1 N3 104.67(14) . . ?
C19 O1 Pt1 114.2(2) . . ?
C18 N3 Pt1 113.9(2) . . ?
C18 N3 C14 117.4(3) . . ?
C14 N3 Pt1 128.6(3) . . ?
C7 N1 Pt1 116.3(3) . . ?
C7 N1 C8 107.3(3) . . ?
C8 N1 Pt1 136.0(2) . . ?
C13 N2 H2 126.6 . . ?
C7 N2 H2 126.6 . . ?
C7 N2 C13 106.7(3) . . ?
C2 C1 Pt1 131.8(3) . . ?
C2 C1 C6 114.4(3) . . ?
C6 C1 Pt1 113.8(3) . . ?
O1 C19 C18 115.8(3) . . ?
O2 C19 O1 126.2(3) . . ?
O2 C19 C18 117.9(3) . . ?
N3 C18 C19 115.8(3) . . ?
N3 C18 C17 122.8(3) . . ?
C17 C18 C19 121.2(3) . . ?
N2 C13 C8 106.6(3) . . ?
C12 C13 N2 131.6(3) . . ?
C12 C13 C8 121.8(3) . . ?
C1 C2 H2A 118.9 . . ?
C3 C2 C1 122.1(4) . . ?
C3 C2 H2A 118.9 . . ?
C1 C6 C7 111.7(3) . . ?
C5 C6 C1 123.8(4) . . ?
C5 C6 C7 124.3(4) . . ?
C18 C17 H17 120.4 . . ?
C18 C17 C16 119.3(4) . . ?
C16 C17 H17 120.4 . . ?
C13 C12 H12 121.6 . . ?
C11 C12 C13 116.8(4) . . ?
C11 C12 H12 121.6 . . ?
C10 C9 H9 121.4 . . ?
C10 C9 C8 117.1(3) . . ?
C8 C9 H9 121.4 . . ?
N1 C7 N2 112.1(3) . . ?
N1 C7 C6 116.6(3) . . ?
N2 C7 C6 131.2(3) . . ?
C9 C10 H10 119.2 . . ?
C9 C10 C11 121.6(4) . . ?
C11 C10 H10 119.2 . . ?
N1 C8 C13 107.4(3) . . ?
N1 C8 C9 131.5(3) . . ?
C9 C8 C13 121.1(3) . . ?
N3 C14 H14 118.9 . . ?
N3 C14 C15 122.1(4) . . ?
C15 C14 H14 118.9 . . ?
C14 C15 H15 119.6 . . ?
C14 C15 C16 120.7(4) . . ?
C16 C15 H15 119.6 . . ?
C6 C5 H5 120.6 . . ?
C4 C5 C6 118.7(4) . . ?
C4 C5 H5 120.6 . . ?
C2 C3 H3 119.5 . . ?
C4 C3 C2 121.0(4) . . ?
C4 C3 H3 119.5 . . ?
C17 C16 H16 121.3 . . ?
C15 C16 C17 117.5(4) . . ?
C15 C16 H16 121.3 . . ?
C12 C11 C10 121.5(4) . . ?
C12 C11 H11 119.3 . . ?
C10 C11 H11 119.3 . . ?
C5 C4 C3 119.8(4) . . ?
C5 C4 H4 120.1 . . ?
C3 C4 H4 120.1 . . ?
H20A C20B H20B 107.4 . . ?
C21B C20B H20A 108.3 3_665 . ?
C21B C20B H20A 108.3 . . ?
C21B C20B H20B 108.3 . . ?
C21B C20B H20B 108.3 3_665 . ?
C21B C20B C21B 116(3) . 3_665 ?
C20B C21B H21A 108.6 . . ?
C20B C21B H21A 108.6 2_655 . ?
C20B C21B H21B 108.6 . . ?
C20B C21B H21B 108.6 2_655 . ?
H21A C21B H21B 107.6 . . ?
H20C C20A H20D 107.3 . . ?
C21A C20A H20C 108.2 . . ?
C21A C20A H20C 108.2 3_665 . ?
C21A C20A H20D 108.2 3_665 . ?
C21A C20A H20D 108.2 . . ?
C21A C20A C21A 116.4(9) . 3_665 ?
C20A C21A C20A 118.2(9) . 2_655 ?
C20A C21A H21C 107.8 . . ?
C20A C21A H21C 107.8 2_655 . ?
C20A C21A H21D 107.8 2_655 . ?
C20A C21A H21D 107.8 . . ?
H21C C21A H21D 107.1 . . ?
loop_
_geom_bond_atom_site_label_1
_geom_bond_atom_site_label_2
_geom_bond_distance
_geom_bond_site_symmetry_2
_geom_bond_publ_flag
Pt1 O1 2.105(2) . ?
Pt1 N3 2.028(3) . ?
Pt1 N1 1.999(3) . ?
Pt1 C1 2.021(3) . ?
O1 C19 1.272(4) . ?
O2 C19 1.234(4) . ?
N3 C18 1.342(5) . ?
N3 C14 1.355(5) . ?
N1 C7 1.317(5) . ?
N1 C8 1.384(5) . ?
N2 H2 0.8800 . ?
N2 C13 1.388(5) . ?
N2 C7 1.347(5) . ?
C1 C2 1.393(5) . ?
C1 C6 1.435(6) . ?
C19 C18 1.512(5) . ?
C18 C17 1.381(5) . ?
C13 C12 1.387(6) . ?
C13 C8 1.400(5) . ?
C2 H2A 0.9500 . ?
C2 C3 1.390(6) . ?
C6 C7 1.461(5) . ?
C6 C5 1.383(5) . ?
C17 H17 0.9500 . ?
C17 C16 1.386(5) . ?
C12 H12 0.9500 . ?
C12 C11 1.387(6) . ?
C9 H9 0.9500 . ?
C9 C10 1.380(5) . ?
C9 C8 1.391(5) . ?
C10 H10 0.9500 . ?
C10 C11 1.402(6) . ?
C14 H14 0.9500 . ?
C14 C15 1.362(6) . ?
C15 H15 0.9500 . ?
C15 C16 1.380(6) . ?
C5 H5 0.9500 . ?
C5 C4 1.377(6) . ?
C3 H3 0.9500 . ?
C3 C4 1.382(7) . ?
C16 H16 0.9500 . ?
C11 H11 0.9500 . ?
C4 H4 0.9500 . ?
C20B H20A 0.9900 . ?
C20B H20B 0.9900 . ?
C20B C21B 1.450(17) . ?
C20B C21B 1.460(17) 3_665 ?
C21B H21A 0.9900 . ?
C21B H21B 0.9900 . ?
C20A H20C 0.9900 . ?
C20A H20D 0.9900 . ?
C20A C21A 1.460(10) . ?
C20A C21A 1.461(10) 3_665 ?
C21A H21C 0.9900 . ?
C21A H21D 0.9900 . ?
loop_
_geom_torsion_atom_site_label_1
_geom_torsion_atom_site_label_2
_geom_torsion_atom_site_label_3
_geom_torsion_atom_site_label_4
_geom_torsion
_geom_torsion_site_symmetry_1
_geom_torsion_site_symmetry_2
_geom_torsion_site_symmetry_3
_geom_torsion_site_symmetry_4
_geom_torsion_publ_flag
Pt1 O1 C19 O2 -179.4(3) . . . . ?
Pt1 O1 C19 C18 -2.4(4) . . . . ?
Pt1 N3 C18 C19 7.1(4) . . . . ?
Pt1 N3 C18 C17 -178.1(3) . . . . ?
Pt1 N3 C14 C15 179.9(3) . . . . ?
Pt1 N1 C7 N2 173.8(2) . . . . ?
Pt1 N1 C7 C6 -10.2(4) . . . . ?
Pt1 N1 C8 C13 -171.6(3) . . . . ?
Pt1 N1 C8 C9 10.5(6) . . . . ?
Pt1 C1 C2 C3 179.2(3) . . . . ?
Pt1 C1 C6 C7 7.4(4) . . . . ?
Pt1 C1 C6 C5 -178.1(3) . . . . ?
O1 C19 C18 N3 -3.0(5) . . . . ?
O1 C19 C18 C17 -178.0(3) . . . . ?
O2 C19 C18 N3 174.2(3) . . . . ?
O2 C19 C18 C17 -0.8(5) . . . . ?
N3 C18 C17 C16 -2.8(6) . . . . ?
N3 C14 C15 C16 0.3(7) . . . . ?
N2 C13 C12 C11 -178.6(4) . . . . ?
N2 C13 C8 N1 -1.0(4) . . . . ?
N2 C13 C8 C9 177.2(3) . . . . ?
C1 C2 C3 C4 0.7(6) . . . . ?
C1 C6 C7 N1 1.7(5) . . . . ?
C1 C6 C7 N2 176.7(4) . . . . ?
C1 C6 C5 C4 -1.7(6) . . . . ?
C19 C18 C17 C16 171.8(3) . . . . ?
C18 N3 C14 C15 -3.8(6) . . . . ?
C18 C17 C16 C15 -0.8(6) . . . . ?
C13 N2 C7 N1 -0.3(4) . . . . ?
C13 N2 C7 C6 -175.5(4) . . . . ?
C13 C12 C11 C10 0.9(6) . . . . ?
C2 C1 C6 C7 -170.3(3) . . . . ?
C2 C1 C6 C5 4.2(5) . . . . ?
C2 C3 C4 C5 2.0(7) . . . . ?
C6 C1 C2 C3 -3.6(5) . . . . ?
C6 C5 C4 C3 -1.5(6) . . . . ?
C12 C13 C8 N1 179.1(3) . . . . ?
C12 C13 C8 C9 -2.7(6) . . . . ?
C9 C10 C11 C12 -1.8(6) . . . . ?
C7 N1 C8 C13 0.8(4) . . . . ?
C7 N1 C8 C9 -177.1(4) . . . . ?
C7 N2 C13 C12 -179.3(4) . . . . ?
C7 N2 C13 C8 0.8(4) . . . . ?
C7 C6 C5 C4 172.1(4) . . . . ?
C10 C9 C8 N1 179.5(4) . . . . ?
C10 C9 C8 C13 1.8(5) . . . . ?
C8 N1 C7 N2 -0.3(4) . . . . ?
C8 N1 C7 C6 175.6(3) . . . . ?
C8 C13 C12 C11 1.2(6) . . . . ?
C8 C9 C10 C11 0.3(6) . . . . ?
C14 N3 C18 C19 -169.8(3) . . . . ?
C14 N3 C18 C17 5.0(5) . . . . ?
C14 C15 C16 C17 2.0(7) . . . . ?
C5 C6 C7 N1 -172.8(3) . . . . ?
C5 C6 C7 N2 2.2(6) . . . . ?
C21B C20B C21B C20B -42(8) 3_665 . . 2_655 ?
C21A C20A C21A C20A -32(3) 3_665 . . 2_655 ?
