#------------------------------------------------------------------------------
#$Date: 2021-01-07 06:50:47 +0200 (Thu, 07 Jan 2021) $
#$Revision: 260677 $
#$URL: file:///home/coder/svn-repositories/cod/cif/7/12/72/7127299.cif $
#------------------------------------------------------------------------------
#
# This file is available in the Crystallography Open Database (COD),
# http://www.crystallography.net/
#
# All data on this site have been placed in the public domain by the
# contributors.
#
data_7127299
loop_
_publ_author_name
'Schneider, Matthew L.'
'Linder-Patton, Oliver M'
'Bloch, Witold M.'
_publ_section_title
;
 A covalent deprotection strategy for assembling supramolecular
 coordination polymers from metal-organic cages.
;
_journal_issue                   85
_journal_name_full
'Chemical communications (Cambridge, England)'
_journal_page_first              12969
_journal_page_last               12972
_journal_paper_doi               10.1039/d0cc05349j
_journal_volume                  56
_journal_year                    2020
_chemical_formula_moiety         'C19 H13 N3 O2 Pt'
_chemical_formula_sum            'C19 H13 N3 O2 Pt'
_chemical_formula_weight         510.41
_space_group_crystal_system      monoclinic
_space_group_IT_number           14
_space_group_name_Hall           '-P 2ybc'
_space_group_name_H-M_alt        'P 1 21/c 1'
_atom_sites_solution_hydrogens   geom
_atom_sites_solution_primary     dual
_audit_creation_date             2019-07-02
_audit_creation_method
;
Olex2 1.2
(compiled 2018.05.29 svn.r3508 for OlexSys, GUI svn.r5506)
;
_audit_update_record
;
2020-05-14 deposited with the CCDC.	2020-09-21 downloaded from the CCDC.
;
_cell_angle_alpha                90
_cell_angle_beta                 98.4350(10)
_cell_angle_gamma                90
_cell_formula_units_Z            8
_cell_length_a                   11.00340(10)
_cell_length_b                   12.65020(10)
_cell_length_c                   23.9841(2)
_cell_measurement_reflns_used    20215
_cell_measurement_temperature    150
_cell_measurement_theta_max      77.4810
_cell_measurement_theta_min      3.9300
_cell_volume                     3302.36(5)
_computing_cell_refinement       'CrysAlisPro 1.171.39.46 (Rigaku OD, 2018)'
_computing_data_collection       'CrysAlisPro 1.171.39.46 (Rigaku OD, 2018)'
_computing_data_reduction        'CrysAlisPro 1.171.39.46 (Rigaku OD, 2018)'
_computing_molecular_graphics    'Olex2 (Dolomanov et al., 2009)'
_computing_publication_material  'Olex2 (Dolomanov et al., 2009)'
_computing_structure_refinement  'ShelXL (Sheldrick, 2015)'
_computing_structure_solution    'ShelXT (Sheldrick, 2015)'
_diffrn_ambient_temperature      150
_diffrn_detector                 'CCD plate'
_diffrn_detector_type            HyPix
_diffrn_measured_fraction_theta_full 1.000
_diffrn_measured_fraction_theta_max 1.000
_diffrn_measurement_details
;
List of Runs (angles in degrees, time in seconds):

  # Type    Start    End  Width  t~exp~   \w     \q     \k     \f   Frames
#--------------------------------------------------------------------------
  1  \w    -65.00 -38.00   0.50    0.89    --  -46.37 125.00 -78.00   54
  2  \w   -106.00 -81.00   0.50    0.89    --  -46.37-125.00-156.00   50
  3  \w    -81.00 -56.00   0.50    0.89    --  -46.37-146.00  37.00   50
  4  \w     13.00  95.00   0.50    0.89    --   46.37-125.00-156.00  164
  5  \w     56.00  88.00   0.50    0.89    --   46.37 146.00  88.00   64
  6  \w    -88.00 -63.00   0.50    0.95    --  -84.50 125.00 -78.00   50
  7  \w   -131.00-106.00   0.50    0.95    --  -84.50-146.00  37.00   50
  8  \w     52.00  77.00   0.50    0.95    --  108.56-125.00-156.00   50
  9  \w    100.00 125.00   0.50    0.95    --  108.56 125.00 -78.00   50
 10  \w     83.00 126.00   0.50    0.95    --  108.56-146.00  37.00   86
 11  \w     63.00 125.00   0.50    0.95    --  108.56 146.00  88.00  124
 12  \w   -105.00 -74.00   0.50    0.89    --  -46.37-125.00 -90.00   62
 13  \w     24.00 117.00   0.50    0.89    --   46.37  77.00 -90.00  186
 14  \w     55.00 114.00   0.50    0.89    --   46.37  57.00-180.00  118
 15  \w    -65.00 -27.00   0.50    0.95    --  -84.50  37.00 120.00   76
 16  \w     49.00 107.00   0.50    0.95    --  108.56 -99.00  60.00  116
 17  \w     35.00  69.00   0.50    0.95    --  108.56 -37.00  30.00   68
 18  \w     70.00 122.00   0.50    0.95    --  108.56 -57.00   0.00  104
 19  \w     37.00  68.00   0.50    0.95    --  108.56 -37.00  60.00   62
 20  \w     42.00 108.00   0.50    0.95    --  108.56 -99.00   0.00  132
 21  \w     41.00  66.00   0.50    0.95    --  108.56 -37.00   0.00   50
 22  \w     37.00  62.00   0.50    0.95    --  108.56 -37.00-180.00   50
 23  \w     71.00 178.00   0.50    0.95    --  108.56 125.00 -60.00  214
 24  \w     37.00  63.00   0.50    0.95    --  108.56 -37.00-150.00   52
 25  \w     36.00  61.00   0.50    0.95    --  108.56 -19.00-180.00   50
 26  \w     47.00  72.00   0.50    0.95    --  108.56 -99.00-180.00   50
 27  \w     34.00  74.00   0.50    0.95    --  108.56 -19.00-150.00   80
 28  \w     76.00 107.00   0.50    0.95    --  108.56 -99.00-180.00   62
 29  \w     42.00  74.00   0.50    0.95    --  108.56 -19.00 -60.00   64
;
_diffrn_measurement_device       'four-circle diffractometer'
_diffrn_measurement_device_type
'XtaLAB Synergy, Single source at home/near, HyPix'
_diffrn_measurement_method       '\w scans'
_diffrn_orient_matrix_type
'CrysAlisPro convention (1999,Acta A55,543-557)'
_diffrn_orient_matrix_UB_11      0.0816344000
_diffrn_orient_matrix_UB_12      0.0560809000
_diffrn_orient_matrix_UB_13      -0.0378655000
_diffrn_orient_matrix_UB_21      -0.0514945000
_diffrn_orient_matrix_UB_22      0.1076578000
_diffrn_orient_matrix_UB_23      0.0152896000
_diffrn_orient_matrix_UB_31      0.1035926000
_diffrn_orient_matrix_UB_32      0.0094355000
_diffrn_orient_matrix_UB_33      0.0504796000
_diffrn_radiation_monochromator  mirror
_diffrn_radiation_probe          x-ray
_diffrn_radiation_type           CuK\a
_diffrn_radiation_wavelength     1.54184
_diffrn_reflns_av_R_equivalents  0.0293
_diffrn_reflns_av_unetI/netI     0.0222
_diffrn_reflns_Laue_measured_fraction_full 1.000
_diffrn_reflns_Laue_measured_fraction_max 1.000
_diffrn_reflns_limit_h_max       13
_diffrn_reflns_limit_h_min       -13
_diffrn_reflns_limit_k_max       15
_diffrn_reflns_limit_k_min       -15
_diffrn_reflns_limit_l_max       28
_diffrn_reflns_limit_l_min       -27
_diffrn_reflns_number            24028
_diffrn_reflns_point_group_measured_fraction_full 1.000
_diffrn_reflns_point_group_measured_fraction_max 1.000
_diffrn_reflns_theta_full        67.078
_diffrn_reflns_theta_max         67.078
_diffrn_reflns_theta_min         3.726
_diffrn_source                   'micro-focus sealed X-ray tube'
_diffrn_source_type              'PhotonJet (Cu) X-ray Source'
_exptl_absorpt_coefficient_mu    16.048
_exptl_absorpt_correction_T_max  1.00000
_exptl_absorpt_correction_T_min  0.45272
_exptl_absorpt_correction_type   multi-scan
_exptl_absorpt_process_details
;
CrysAlisPro 1.171.39.46 (Rigaku Oxford Diffraction, 2018)
Empirical absorption correction using spherical harmonics,
 implemented in SCALE3 ABSPACK scaling algorithm.
;
_exptl_crystal_colour            yellow
_exptl_crystal_colour_primary    yellow
_exptl_crystal_density_diffrn    2.053
_exptl_crystal_description       block
_exptl_crystal_F_000             1936
_exptl_crystal_size_max          0.1
_exptl_crystal_size_mid          0.1
_exptl_crystal_size_min          0.05
_refine_diff_density_max         2.205
_refine_diff_density_min         -2.098
_refine_diff_density_rms         0.120
_refine_ls_extinction_method     none
_refine_ls_goodness_of_fit_ref   1.073
_refine_ls_hydrogen_treatment    constr
_refine_ls_matrix_type           full
_refine_ls_number_parameters     451
_refine_ls_number_reflns         5890
_refine_ls_number_restraints     0
_refine_ls_restrained_S_all      1.073
_refine_ls_R_factor_all          0.0269
_refine_ls_R_factor_gt           0.0258
_refine_ls_shift/su_max          0.002
_refine_ls_shift/su_mean         0.000
_refine_ls_structure_factor_coef Fsqd
_refine_ls_weighting_details
'w=1/[\s^2^(Fo^2^)+(0.0375P)^2^+7.4059P] where P=(Fo^2^+2Fc^2^)/3'
_refine_ls_weighting_scheme      calc
_refine_ls_wR_factor_gt          0.0682
_refine_ls_wR_factor_ref         0.0689
_reflns_Friedel_coverage         0.000
_reflns_number_gt                5662
_reflns_number_total             5890
_reflns_threshold_expression     'I > 2\s(I)'
_iucr_refine_instructions_details
;
TITL 02187-3_2_a.res in P2(1)/c
    02187-3_2.res
    created by SHELXL-2018/3 at 17:52:49 on 02-Jul-2019
REM Old TITL 02187-3_2_a.res in P2(1)/c
REM SHELXT solution in P2(1)/c: R1 0.059, Rweak 0.004, Alpha 0.090
REM <I/s> 1.370 for 303 systematic absences, Orientation as input
REM Formula found by SHELXT: C38 N6 O4 Pt2
CELL 1.54184 11.0034 12.6502 23.9841 90 98.435 90
ZERR 8 0.0001 0.0001 0.0002 0 0.001 0
LATT 1
SYMM -X,0.5+Y,0.5-Z
SFAC C H N O Pt
UNIT 152 104 24 16 8

L.S. 20
PLAN  20
SIZE 0.1 0.1 0.05
TEMP -123.15
BOND
list 4
fmap 2
acta
REM <olex2.extras>
REM <HklSrc "%.\\02187-3_2.hkl">
REM </olex2.extras>

WGHT    0.037500    7.405900
FVAR       0.18283
PT1   5    0.675034    1.005417    0.504588    11.00000    0.02815    0.03264 =
         0.02334   -0.00056    0.00390   -0.00096
PT2   5    0.842492    0.312738    0.658034    11.00000    0.02760    0.02248 =
         0.03739   -0.00190    0.00293    0.00000
O3    4    0.795743    0.439946    0.601973    11.00000    0.04280    0.02832 =
         0.03607   -0.00141    0.00620    0.00517
O1    4    0.647240    1.088328    0.427096    11.00000    0.04821    0.03385 =
         0.02786    0.00080    0.00433    0.00294
O2    4    0.639130    1.255486    0.396661    11.00000    0.06595    0.03933 =
         0.03228    0.00505    0.00745    0.00767
O4    4    0.827694    0.498138    0.517584    11.00000    0.07780    0.04469 =
         0.04764    0.00830    0.02037    0.01072
N1    3    0.713871    0.863606    0.474181    11.00000    0.03113    0.03833 =
         0.02618   -0.00076    0.00517   -0.00070
N6    3    0.914865    0.260488    0.590574    11.00000    0.02584    0.03323 =
         0.04298   -0.00949    0.00714   -0.00351
N2    3    0.753911    0.693556    0.487989    11.00000    0.03365    0.03444 =
         0.03253   -0.00009    0.00605   -0.00081
AFIX  43
H2    2    0.768821    0.632648    0.505376    11.00000   -1.20000
AFIX   0
N3    3    0.620347    1.146988    0.531008    11.00000    0.02466    0.03740 =
         0.02858   -0.00355    0.00183   -0.00080

N4    3    0.743313    0.360376    0.716970    11.00000    0.02977    0.02701 =
         0.03526   -0.00118    0.00424    0.00289
N5    3    0.665505    0.326618    0.795005    11.00000    0.03975    0.03694 =
         0.03265    0.00644    0.00315    0.00289
AFIX  43
H5   2    0.654781    0.297171    0.827167    11.00000   -1.20000
AFIX   0
C27   1    0.649854    0.432244    0.719673    11.00000    0.03171    0.03005 =
         0.03652   -0.00222   -0.00143    0.00206

C1    1    0.723387    0.926618    0.576616    11.00000    0.02813    0.04219 =
         0.02874    0.00146    0.00469   -0.00521
C7    1    0.733834    0.786427    0.511851    11.00000    0.02545    0.04087 =
         0.03169    0.00177    0.00574   -0.00045
C38   1    0.837420    0.431018    0.555346    11.00000    0.04128    0.03631 =
         0.03817   -0.00162    0.00493   -0.00425
C19   1    0.635394    1.187552    0.433644    11.00000    0.03882    0.03987 =
         0.02899    0.00009    0.00358    0.00232
C18   1    0.610420    1.222912    0.491148    11.00000    0.02791    0.03787 =
         0.03281   -0.00329    0.00405    0.00097
C20   1    0.898038    0.206001    0.718631    11.00000    0.02842    0.02305 =
         0.05045   -0.00255   -0.00307   -0.00240
C37   1    0.898941    0.328303    0.546080    11.00000    0.02876    0.04172 =
         0.04203   -0.00859    0.00814   -0.00756
C2    1    0.755177    0.967843    0.631481    11.00000    0.04039    0.04620 =
         0.02539   -0.00010    0.00533   -0.00648
AFIX  43
H2A   2    0.749870    1.041769    0.637664    11.00000   -1.20000
AFIX   0

C28   1    0.603292    0.514554    0.683486    11.00000    0.04793    0.03621 =
         0.02851    0.00053   -0.00079    0.00743
AFIX  43
H28   2    0.637344    0.531070    0.650362    11.00000   -1.20000
AFIX   0
C32   1    0.599654    0.411243    0.768956    11.00000    0.03772    0.03246 =
         0.03290   -0.00166   -0.00156    0.00028

C3    1    0.794491    0.900485    0.676862    11.00000    0.04855    0.06111 =
         0.02671    0.00259    0.00099   -0.00455
AFIX  43
H3    2    0.815549    0.929758    0.713481    11.00000   -1.20000
AFIX   0
C8    1    0.721186    0.819461    0.421801    11.00000    0.02751    0.03999 =
         0.02973   -0.00599    0.00519    0.00104

C31   1    0.501382    0.467633    0.784068    11.00000    0.04375    0.05157 =
         0.03606   -0.00915    0.00521    0.00397
AFIX  43
H31   2    0.467660    0.451863    0.817373    11.00000   -1.20000
AFIX   0

C6    1    0.743017    0.817250    0.571153    11.00000    0.03338    0.04332 =
         0.02822    0.00416    0.00636   -0.00330
C14   1    0.584797    1.170965    0.580812    11.00000    0.02759    0.04394 =
         0.03439   -0.00830    0.00585   -0.00522
AFIX  43
H14   2    0.585998    1.117185    0.608534    11.00000   -1.20000
AFIX   0

C25   1    0.836810    0.213369    0.766924    11.00000    0.03206    0.02921 =
         0.04321    0.00337   -0.00129   -0.00322
C15   1    0.546805    1.270744    0.592873    11.00000    0.03037    0.05183 =
         0.03584   -0.01351    0.00573   -0.00349
AFIX  43
H15   2    0.524463    1.285564    0.628853    11.00000   -1.20000
AFIX   0

C26   1    0.748218    0.298154    0.762181    11.00000    0.03634    0.02820 =
         0.03510    0.00281   -0.00388   -0.00202
C13   1    0.746615    0.712045    0.430160    11.00000    0.03112    0.03969 =
         0.03579   -0.00247    0.00707   -0.00028
C9    1    0.704503    0.863405    0.368208    11.00000    0.04088    0.04776 =
         0.03112    0.00135    0.00769    0.00520
AFIX  43
H9    2    0.687669    0.936494    0.362132    11.00000   -1.20000
AFIX   0

C33   1    0.960473    0.163839    0.582276    11.00000    0.03458    0.03224 =
         0.06403   -0.01323    0.01049   -0.00183
AFIX  43
H33   2    0.970906    0.114986    0.612687    11.00000   -1.20000
AFIX   0
C24   1    0.862514    0.147137    0.813338    11.00000    0.04535    0.04049 =
         0.04867    0.00911   -0.00215   -0.00057
AFIX  43
H24   2    0.817666    0.153470    0.844136    11.00000   -1.20000
AFIX   0

C17   1    0.572544    1.324350    0.500728    11.00000    0.03965    0.03628 =
         0.04614   -0.00181    0.00189    0.00402
AFIX  43
H17   2    0.568133    1.376350    0.471924    11.00000   -1.20000
AFIX   0
C10   1    0.713828    0.794343    0.323862    11.00000    0.04785    0.06293 =
         0.02732   -0.00201    0.00979    0.00434
AFIX  43
H10   2    0.702423    0.821290    0.286486    11.00000   -1.20000
AFIX   0
C4    1    0.803344    0.793795    0.669841    11.00000    0.05680    0.05914 =
         0.03064    0.00960    0.00548    0.00420
AFIX  43
H4    2    0.825741    0.749476    0.701667    11.00000   -1.20000
AFIX   0

C22   1    1.019641    0.066464    0.769731    11.00000    0.03742    0.03077 =
         0.07532    0.00604   -0.00536    0.01087
AFIX  43
H22   2    1.084085    0.016184    0.770859    11.00000   -1.20000
AFIX   0
C34   1    0.992389    0.133503    0.531415    11.00000    0.03866    0.04369 =
         0.07115   -0.02188    0.01238   -0.00409
AFIX  43
H34   2    1.025278    0.064948    0.527406    11.00000   -1.20000
AFIX   0

C5    1    0.779532    0.749682    0.615947    11.00000    0.04575    0.04655 =
         0.03751    0.00832    0.00806   -0.00181
AFIX  43
H5A    2    0.788079    0.675910    0.610210    11.00000   -1.20000
AFIX   0
C12   1    0.755743    0.643068    0.385932    11.00000    0.04490    0.04374 =
         0.04080   -0.00739    0.01057    0.00409
AFIX  43
H12   2    0.772296    0.569917    0.391930    11.00000   -1.20000
AFIX   0

C21   1    0.994078    0.132853    0.722905    11.00000    0.03572    0.03189 =
         0.06226   -0.00137    0.00217    0.00328
AFIX  43
H21   2    1.042892    0.128157    0.693448    11.00000   -1.20000
AFIX   0
C30   1    0.454986    0.548399    0.747854    11.00000    0.04781    0.05020 =
         0.04808   -0.00978   -0.00010    0.01904
AFIX  43
H30   2    0.388039    0.589541    0.756576    11.00000   -1.20000
AFIX   0

C16   1    0.541104    1.349203    0.552863    11.00000    0.03582    0.04293 =
         0.05162   -0.01348    0.00538    0.00190
AFIX  43
H16   2    0.516159    1.418780    0.560883    11.00000   -1.20000
AFIX   0

C36   1    0.929735    0.301891    0.493582    11.00000    0.04102    0.05414 =
         0.04919   -0.01218    0.01060   -0.00396
AFIX  43
H36   2    0.918805    0.351000    0.463294    11.00000   -1.20000
AFIX   0

C11   1    0.739159    0.687620    0.332219    11.00000    0.05450    0.06084 =
         0.03814   -0.01482    0.01418    0.00128
AFIX  43
H11   2    0.745347    0.643862    0.300567    11.00000   -1.20000
AFIX   0

C29   1    0.505169    0.570283    0.698676    11.00000    0.05347    0.04528 =
         0.04315   -0.00011   -0.00292    0.02134
AFIX  43
H29   2    0.470313    0.625711    0.674789    11.00000   -1.20000
AFIX   0
C35   1    0.977292    0.200835    0.486702    11.00000    0.03748    0.07101 =
         0.06635   -0.03418    0.01562   -0.00798
AFIX  43
H35   2    0.998662    0.179642    0.451399    11.00000   -1.20000
AFIX   0
C23   1    0.953847    0.071988    0.814324    11.00000    0.04381    0.04458 =
         0.05874    0.01765   -0.00722    0.00116
AFIX  43
H23   2    0.971077    0.024790    0.845284    11.00000   -1.20000
AFIX   0
HKLF 4




REM  02187-3_2_a.res in P2(1)/c
REM wR2 = 0.0689, GooF = S = 1.073, Restrained GooF = 1.073 for all data
REM R1 = 0.0258 for 5662 Fo > 4sig(Fo) and 0.0269 for all 5890 data
REM 451 parameters refined using 0 restraints

END  
     
WGHT      0.0374      7.4363 

REM Highest difference peak  2.205,  deepest hole -2.098,  1-sigma level  0.120
Q1    1   0.8662  0.3125  0.6279  11.00000  0.05    2.20
Q2    1   0.9121  0.0675  0.3717  11.00000  0.05    1.37
Q3    1   1.1014 -0.0427  0.6027  11.00000  0.05    1.07
Q4    1   0.8486  0.2205  0.6511  11.00000  0.05    0.72
Q5    1   0.7928  0.2560  0.6593  11.00000  0.05    0.70
Q6    1   0.9074  0.2595  0.6716  11.00000  0.05    0.69
Q7    1   0.6108  0.9567  0.5046  11.00000  0.05    0.67
Q8    1   0.7270  1.0168  0.4832  11.00000  0.05    0.66
Q9    1   0.7910  0.3692  0.6576  11.00000  0.05    0.63
Q10   1   0.7558  0.2608  0.6295  11.00000  0.05    0.61
Q11   1   0.6180  1.0596  0.5009  11.00000  0.05    0.59
Q12   1   0.9059  0.3670  0.6706  11.00000  0.05    0.56
Q13   1   0.6683  1.0914  0.5020  11.00000  0.05    0.53
Q14   1   0.8651  0.4009  0.6503  11.00000  0.05    0.53
Q15   1   0.4979  1.0718  0.5044  11.00000  0.05    0.53
Q16   1   0.6880  0.9133  0.4830  11.00000  0.05    0.51
Q17   1   0.5422  1.0027  0.4988  11.00000  0.05    0.45
Q18   1   0.7672  0.9551  0.5321  11.00000  0.05    0.42
Q19   1   0.9926 -0.1007  0.8410  11.00000  0.05    0.40
Q20   1   0.8441  0.2278  0.6896  11.00000  0.05    0.40

  REM The information below was added by Olex2.
  REM
  REM R1 = 0.0258 for 5662 Fo > 4sig(Fo) and 0.0269 for all 24815 data
  REM n/a parameters refined using n/a restraints
  REM Highest difference peak 2.20, deepest hole -2.10
  REM Mean Shift 0, Max Shift 0.002.

  REM +++ Tabular Listing of Refinement Information +++
  REM R1_all = 0.0269
  REM R1_gt = 0.0258
  REM wR_ref = 0.0689
  REM GOOF = 1.073
  REM Shift_max = 0.002
  REM Shift_mean = 0
  REM Reflections_all = 24815
  REM Reflections_gt = 5662
  REM Parameters = n/a
  REM Hole = -2.10
  REM Peak = 2.20
  REM Flack = n/a

  
;
_cod_data_source_file            d0cc05349j2.cif
_cod_data_source_block           1N
_cod_depositor_comments
'Adding full bibliography for 7127299--7127303.cif.'
_cod_database_code               7127299
_shelx_shelxl_version_number     2018/3
_chemical_oxdiff_formula         C19H13N3O2Pt
_chemical_oxdiff_usercomment     150K
_shelx_space_group_comment
;
The symmetry employed for this shelxl refinement is uniquely defined
by the following loop, which should always be used as a source of
symmetry information in preference to the above space-group names.
They are only intended as comments.
;
_shelx_estimated_absorpt_t_max   0.501
_shelx_estimated_absorpt_t_min   0.297
_reflns_odcompleteness_completeness 100.00
_reflns_odcompleteness_iscentric 1
_reflns_odcompleteness_theta     66.97
_olex2_refinement_description
;
1. Fixed Uiso
 At 1.2 times of:
  All C(H) groups, All N(H) groups
2.a Aromatic/amide H refined with riding coordinates:
 N2(H2), N5(H5), C2(H2A), C28(H28), C3(H3), C31(H31), C14(H14), C15(H15),
 C9(H9), C33(H33), C24(H24), C17(H17), C10(H10), C4(H4), C22(H22), C34(H34),
 C5(H5A), C12(H12), C21(H21), C30(H30), C16(H16), C36(H36), C11(H11), C29(H29),
 C35(H35), C23(H23)
;
_olex2_submission_special_instructions 'No special instructions were received'
_oxdiff_exptl_absorpt_empirical_details
;
Empirical correction (ABSPACK) includes:
- Absorption correction using spherical harmonics
- Frame scaling
;
_oxdiff_exptl_absorpt_empirical_full_max 1.878
_oxdiff_exptl_absorpt_empirical_full_min 0.716
loop_
_space_group_symop_operation_xyz
'x, y, z'
'-x, y+1/2, -z+1/2'
'-x, -y, -z'
'x, -y-1/2, z-1/2'
loop_
_atom_site_label
_atom_site_type_symbol
_atom_site_fract_x
_atom_site_fract_y
_atom_site_fract_z
_atom_site_U_iso_or_equiv
_atom_site_adp_type
_atom_site_occupancy
_atom_site_site_symmetry_order
_atom_site_calc_flag
_atom_site_refinement_flags_posn
_atom_site_refinement_flags_adp
_atom_site_refinement_flags_occupancy
_atom_site_disorder_assembly
_atom_site_disorder_group
Pt1 Pt 0.67503(2) 1.00542(2) 0.50459(2) 0.02803(7) Uani 1 1 d . . . . .
Pt2 Pt 0.84249(2) 0.31274(2) 0.65803(2) 0.02934(7) Uani 1 1 d . . . . .
O3 O 0.7957(3) 0.4399(2) 0.60197(13) 0.0357(7) Uani 1 1 d . . . . .
O1 O 0.6472(3) 1.0883(2) 0.42710(12) 0.0368(7) Uani 1 1 d . . . . .
O2 O 0.6391(3) 1.2555(3) 0.39666(13) 0.0458(8) Uani 1 1 d . . . . .
O4 O 0.8277(4) 0.4981(3) 0.51758(17) 0.0556(10) Uani 1 1 d . . . . .
N1 N 0.7139(3) 0.8636(3) 0.47418(14) 0.0318(8) Uani 1 1 d . . . . .
N6 N 0.9149(3) 0.2605(3) 0.59057(16) 0.0338(8) Uani 1 1 d . . . . .
N2 N 0.7539(3) 0.6936(3) 0.48799(15) 0.0334(8) Uani 1 1 d . . . . .
H2 H 0.768821 0.632648 0.505376 0.040 Uiso 1 1 calc R . . . .
N3 N 0.6203(3) 1.1470(3) 0.53101(14) 0.0304(7) Uani 1 1 d . . . . .
N4 N 0.7433(3) 0.3604(3) 0.71697(15) 0.0307(7) Uani 1 1 d . . . . .
N5 N 0.6655(4) 0.3266(3) 0.79501(16) 0.0367(8) Uani 1 1 d . . . . .
H5 H 0.654781 0.297171 0.827167 0.044 Uiso 1 1 calc R . . . .
C27 C 0.6499(4) 0.4322(4) 0.71967(19) 0.0334(9) Uani 1 1 d . . . . .
C1 C 0.7234(4) 0.9266(4) 0.57662(17) 0.0330(9) Uani 1 1 d . . . . .
C7 C 0.7338(4) 0.7864(4) 0.51185(18) 0.0325(9) Uani 1 1 d . . . . .
C38 C 0.8374(4) 0.4310(4) 0.55535(19) 0.0387(10) Uani 1 1 d . . . . .
C19 C 0.6354(4) 1.1876(4) 0.43364(18) 0.0360(10) Uani 1 1 d . . . . .
C18 C 0.6104(4) 1.2229(4) 0.49115(18) 0.0329(9) Uani 1 1 d . . . . .
C20 C 0.8980(4) 0.2060(3) 0.7186(2) 0.0349(10) Uani 1 1 d . . . . .
C37 C 0.8989(4) 0.3283(4) 0.5461(2) 0.0372(10) Uani 1 1 d . . . . .
C2 C 0.7552(4) 0.9678(4) 0.63148(18) 0.0373(10) Uani 1 1 d . . . . .
H2A H 0.749870 1.041769 0.637664 0.045 Uiso 1 1 calc R . . . .
C28 C 0.6033(5) 0.5146(4) 0.6835(2) 0.0382(11) Uani 1 1 d . . . . .
H28 H 0.637344 0.531070 0.650362 0.046 Uiso 1 1 calc R . . . .
C32 C 0.5997(4) 0.4112(4) 0.76896(18) 0.0350(10) Uani 1 1 d . . . . .
C3 C 0.7945(5) 0.9005(5) 0.67686(19) 0.0459(12) Uani 1 1 d . . . . .
H3 H 0.815549 0.929758 0.713481 0.055 Uiso 1 1 calc R . . . .
C8 C 0.7212(4) 0.8195(4) 0.42180(18) 0.0323(9) Uani 1 1 d . . . . .
C31 C 0.5014(5) 0.4676(4) 0.7841(2) 0.0439(11) Uani 1 1 d . . . . .
H31 H 0.467660 0.451863 0.817373 0.053 Uiso 1 1 calc R . . . .
C6 C 0.7430(4) 0.8172(4) 0.57115(18) 0.0348(10) Uani 1 1 d . . . . .
C14 C 0.5848(4) 1.1710(4) 0.58081(19) 0.0352(10) Uani 1 1 d . . . . .
H14 H 0.585998 1.117185 0.608534 0.042 Uiso 1 1 calc R . . . .
C25 C 0.8368(4) 0.2134(4) 0.7669(2) 0.0355(10) Uani 1 1 d . . . . .
C15 C 0.5468(4) 1.2707(4) 0.59287(19) 0.0393(11) Uani 1 1 d . . . . .
H15 H 0.524463 1.285564 0.628853 0.047 Uiso 1 1 calc R . . . .
C26 C 0.7482(4) 0.2982(3) 0.76218(19) 0.0341(10) Uani 1 1 d . . . . .
C13 C 0.7466(4) 0.7120(4) 0.43016(19) 0.0353(10) Uani 1 1 d . . . . .
C9 C 0.7045(4) 0.8634(4) 0.36821(18) 0.0397(11) Uani 1 1 d . . . . .
H9 H 0.687669 0.936494 0.362132 0.048 Uiso 1 1 calc R . . . .
C33 C 0.9605(4) 0.1638(4) 0.5823(2) 0.0433(11) Uani 1 1 d . . . . .
H33 H 0.970906 0.114986 0.612687 0.052 Uiso 1 1 calc R . . . .
C24 C 0.8625(5) 0.1471(4) 0.8133(2) 0.0457(12) Uani 1 1 d . . . . .
H24 H 0.817666 0.153470 0.844136 0.055 Uiso 1 1 calc R . . . .
C17 C 0.5725(5) 1.3243(4) 0.5007(2) 0.0411(11) Uani 1 1 d . . . . .
H17 H 0.568133 1.376350 0.471924 0.049 Uiso 1 1 calc R . . . .
C10 C 0.7138(5) 0.7943(5) 0.3239(2) 0.0456(12) Uani 1 1 d . . . . .
H10 H 0.702423 0.821290 0.286486 0.055 Uiso 1 1 calc R . . . .
C4 C 0.8033(5) 0.7938(5) 0.6698(2) 0.0490(13) Uani 1 1 d . . . . .
H4 H 0.825741 0.749476 0.701667 0.059 Uiso 1 1 calc R . . . .
C22 C 1.0196(5) 0.0665(4) 0.7697(3) 0.0492(13) Uani 1 1 d . . . . .
H22 H 1.084085 0.016184 0.770859 0.059 Uiso 1 1 calc R . . . .
C34 C 0.9924(5) 0.1335(5) 0.5314(3) 0.0507(13) Uani 1 1 d . . . . .
H34 H 1.025278 0.064948 0.527406 0.061 Uiso 1 1 calc R . . . .
C5 C 0.7795(5) 0.7497(4) 0.6159(2) 0.0431(11) Uani 1 1 d . . . . .
H5A H 0.788079 0.675910 0.610210 0.052 Uiso 1 1 calc R . . . .
C12 C 0.7557(5) 0.6431(4) 0.3859(2) 0.0427(11) Uani 1 1 d . . . . .
H12 H 0.772296 0.569917 0.391930 0.051 Uiso 1 1 calc R . . . .
C21 C 0.9941(4) 0.1329(4) 0.7229(2) 0.0438(11) Uani 1 1 d . . . . .
H21 H 1.042892 0.128157 0.693448 0.053 Uiso 1 1 calc R . . . .
C30 C 0.4550(5) 0.5484(5) 0.7479(2) 0.0494(13) Uani 1 1 d . . . . .
H30 H 0.388039 0.589541 0.756576 0.059 Uiso 1 1 calc R . . . .
C16 C 0.5411(4) 1.3492(4) 0.5529(2) 0.0436(11) Uani 1 1 d . . . . .
H16 H 0.516159 1.418780 0.560883 0.052 Uiso 1 1 calc R . . . .
C36 C 0.9297(5) 0.3019(4) 0.4936(2) 0.0477(12) Uani 1 1 d . . . . .
H36 H 0.918805 0.351000 0.463294 0.057 Uiso 1 1 calc R . . . .
C11 C 0.7392(5) 0.6876(5) 0.3322(2) 0.0504(13) Uani 1 1 d . . . . .
H11 H 0.745347 0.643862 0.300567 0.061 Uiso 1 1 calc R . . . .
C29 C 0.5052(5) 0.5703(4) 0.6987(2) 0.0483(13) Uani 1 1 d . . . . .
H29 H 0.470313 0.625711 0.674789 0.058 Uiso 1 1 calc R . . . .
C35 C 0.9773(5) 0.2008(5) 0.4867(3) 0.0575(16) Uani 1 1 d . . . . .
H35 H 0.998662 0.179642 0.451399 0.069 Uiso 1 1 calc R . . . .
C23 C 0.9538(5) 0.0720(4) 0.8143(2) 0.0505(13) Uani 1 1 d . . . . .
H23 H 0.971077 0.024790 0.845284 0.061 Uiso 1 1 calc R . . . .
loop_
_atom_site_aniso_label
_atom_site_aniso_U_11
_atom_site_aniso_U_22
_atom_site_aniso_U_33
_atom_site_aniso_U_23
_atom_site_aniso_U_13
_atom_site_aniso_U_12
Pt1 0.02815(11) 0.03264(11) 0.02334(10) -0.00056(6) 0.00390(7) -0.00096(7)
Pt2 0.02760(11) 0.02248(10) 0.03739(11) -0.00190(7) 0.00293(7) 0.00000(6)
O3 0.0428(17) 0.0283(16) 0.0361(16) -0.0014(12) 0.0062(13) 0.0052(13)
O1 0.0482(18) 0.0339(17) 0.0279(15) 0.0008(12) 0.0043(13) 0.0029(14)
O2 0.066(2) 0.0393(19) 0.0323(16) 0.0051(14) 0.0075(15) 0.0077(17)
O4 0.078(3) 0.045(2) 0.048(2) 0.0083(16) 0.0204(19) 0.0107(18)
N1 0.0311(18) 0.038(2) 0.0262(17) -0.0008(15) 0.0052(14) -0.0007(16)
N6 0.0258(18) 0.033(2) 0.043(2) -0.0095(16) 0.0071(15) -0.0035(15)
N2 0.034(2) 0.034(2) 0.0325(19) -0.0001(15) 0.0060(15) -0.0008(15)
N3 0.0247(17) 0.037(2) 0.0286(17) -0.0036(15) 0.0018(13) -0.0008(15)
N4 0.0298(18) 0.0270(18) 0.0353(18) -0.0012(15) 0.0042(14) 0.0029(15)
N5 0.040(2) 0.037(2) 0.0327(19) 0.0064(16) 0.0032(16) 0.0029(17)
C27 0.032(2) 0.030(2) 0.037(2) -0.0022(18) -0.0014(17) 0.0021(18)
C1 0.028(2) 0.042(3) 0.029(2) 0.0015(18) 0.0047(16) -0.0052(19)
C7 0.025(2) 0.041(2) 0.032(2) 0.0018(18) 0.0057(16) -0.0005(18)
C38 0.041(3) 0.036(3) 0.038(2) -0.002(2) 0.005(2) -0.004(2)
C19 0.039(3) 0.040(3) 0.029(2) 0.0001(19) 0.0036(18) 0.0023(19)
C18 0.028(2) 0.038(2) 0.033(2) -0.0033(19) 0.0041(17) 0.0010(18)
C20 0.028(2) 0.023(2) 0.050(3) -0.0025(19) -0.0031(19) -0.0024(17)
C37 0.029(2) 0.042(3) 0.042(2) -0.009(2) 0.0081(18) -0.0076(19)
C2 0.040(3) 0.046(3) 0.025(2) -0.0001(19) 0.0053(18) -0.006(2)
C28 0.048(3) 0.036(2) 0.029(2) 0.0005(18) -0.001(2) 0.007(2)
C32 0.038(2) 0.032(2) 0.033(2) -0.0017(18) -0.0016(18) 0.0003(19)
C3 0.049(3) 0.061(3) 0.027(2) 0.003(2) 0.001(2) -0.005(2)
C8 0.028(2) 0.040(2) 0.030(2) -0.0060(18) 0.0052(17) 0.0010(18)
C31 0.044(3) 0.052(3) 0.036(2) -0.009(2) 0.005(2) 0.004(2)
C6 0.033(2) 0.043(3) 0.028(2) 0.0042(18) 0.0064(17) -0.0033(19)
C14 0.028(2) 0.044(3) 0.034(2) -0.0083(19) 0.0058(17) -0.0052(19)
C25 0.032(2) 0.029(2) 0.043(2) 0.0034(19) -0.0013(19) -0.0032(19)
C15 0.030(2) 0.052(3) 0.036(2) -0.014(2) 0.0057(18) -0.003(2)
C26 0.036(2) 0.028(2) 0.035(2) 0.0028(17) -0.0039(18) -0.0020(18)
C13 0.031(2) 0.040(2) 0.036(2) -0.0025(19) 0.0071(18) -0.0003(19)
C9 0.041(3) 0.048(3) 0.031(2) 0.001(2) 0.0077(19) 0.005(2)
C33 0.035(2) 0.032(2) 0.064(3) -0.013(2) 0.010(2) -0.002(2)
C24 0.045(3) 0.040(3) 0.049(3) 0.009(2) -0.002(2) -0.001(2)
C17 0.040(3) 0.036(3) 0.046(3) -0.002(2) 0.002(2) 0.004(2)
C10 0.048(3) 0.063(3) 0.027(2) -0.002(2) 0.010(2) 0.004(2)
C4 0.057(3) 0.059(3) 0.031(2) 0.010(2) 0.005(2) 0.004(3)
C22 0.037(3) 0.031(3) 0.075(4) 0.006(2) -0.005(2) 0.011(2)
C34 0.039(3) 0.044(3) 0.071(4) -0.022(3) 0.012(2) -0.004(2)
C5 0.046(3) 0.047(3) 0.038(2) 0.008(2) 0.008(2) -0.002(2)
C12 0.045(3) 0.044(3) 0.041(3) -0.007(2) 0.011(2) 0.004(2)
C21 0.036(2) 0.032(2) 0.062(3) -0.001(2) 0.002(2) 0.003(2)
C30 0.048(3) 0.050(3) 0.048(3) -0.010(2) 0.000(2) 0.019(2)
C16 0.036(3) 0.043(3) 0.052(3) -0.013(2) 0.005(2) 0.002(2)
C36 0.041(3) 0.054(3) 0.049(3) -0.012(2) 0.011(2) -0.004(2)
C11 0.054(3) 0.061(4) 0.038(3) -0.015(2) 0.014(2) 0.001(3)
C29 0.053(3) 0.045(3) 0.043(3) 0.000(2) -0.003(2) 0.021(2)
C35 0.037(3) 0.071(4) 0.066(4) -0.034(3) 0.016(3) -0.008(3)
C23 0.044(3) 0.045(3) 0.059(3) 0.018(2) -0.007(2) 0.001(2)
loop_
_atom_type_symbol
_atom_type_description
_atom_type_scat_dispersion_real
_atom_type_scat_dispersion_imag
_atom_type_scat_source
C C 0.0181 0.0091 'International Tables Vol C Tables 4.2.6.8 and 6.1.1.4'
H H 0.0000 0.0000 'International Tables Vol C Tables 4.2.6.8 and 6.1.1.4'
N N 0.0311 0.0180 'International Tables Vol C Tables 4.2.6.8 and 6.1.1.4'
O O 0.0492 0.0322 'International Tables Vol C Tables 4.2.6.8 and 6.1.1.4'
Pt Pt -4.5932 6.9264 'International Tables Vol C Tables 4.2.6.8 and 6.1.1.4'
loop_
_geom_angle_atom_site_label_1
_geom_angle_atom_site_label_2
_geom_angle_atom_site_label_3
_geom_angle
_geom_angle_site_symmetry_1
_geom_angle_site_symmetry_3
_geom_angle_publ_flag
N1 Pt1 O1 97.76(13) . . ?
N1 Pt1 N3 174.71(14) . . ?
N3 Pt1 O1 79.91(13) . . ?
C1 Pt1 O1 172.86(15) . . ?
C1 Pt1 N1 79.88(16) . . ?
C1 Pt1 N3 102.99(17) . . ?
N6 Pt2 O3 80.03(14) . . ?
N4 Pt2 O3 96.50(13) . . ?
N4 Pt2 N6 170.35(14) . . ?
N4 Pt2 C20 80.28(17) . . ?
C20 Pt2 O3 172.37(15) . . ?
C20 Pt2 N6 104.22(18) . . ?
C38 O3 Pt2 113.9(3) . . ?
C19 O1 Pt1 112.6(3) . . ?
C7 N1 Pt1 115.7(3) . . ?
C7 N1 C8 107.1(4) . . ?
C8 N1 Pt1 137.1(3) . . ?
C37 N6 Pt2 113.7(3) . . ?
C33 N6 Pt2 128.0(4) . . ?
C33 N6 C37 117.7(4) . . ?
C7 N2 C13 106.8(4) . . ?
C18 N3 Pt1 113.9(3) . . ?
C14 N3 Pt1 128.1(3) . . ?
C14 N3 C18 117.7(4) . . ?
C27 N4 Pt2 135.9(3) . . ?
C26 N4 Pt2 115.8(3) . . ?
C26 N4 C27 107.0(4) . . ?
C26 N5 C32 107.3(4) . . ?
N4 C27 C28 131.8(4) . . ?
N4 C27 C32 107.6(4) . . ?
C32 C27 C28 120.6(4) . . ?
C2 C1 Pt1 128.3(4) . . ?
C6 C1 Pt1 115.7(3) . . ?
C6 C1 C2 115.4(4) . . ?
N1 C7 N2 112.1(4) . . ?
N1 C7 C6 116.5(4) . . ?
N2 C7 C6 131.0(4) . . ?
O3 C38 C37 115.9(4) . . ?
O4 C38 O3 125.4(5) . . ?
O4 C38 C37 118.7(4) . . ?
O1 C19 C18 116.1(4) . . ?
O2 C19 O1 125.4(4) . . ?
O2 C19 C18 118.5(4) . . ?
N3 C18 C19 115.4(4) . . ?
N3 C18 C17 122.7(4) . . ?
C17 C18 C19 121.8(4) . . ?
C25 C20 Pt2 114.4(3) . . ?
C21 C20 Pt2 130.1(4) . . ?
C21 C20 C25 115.2(4) . . ?
N6 C37 C38 116.1(4) . . ?
N6 C37 C36 122.5(5) . . ?
C36 C37 C38 121.2(5) . . ?
C3 C2 C1 120.4(5) . . ?
C29 C28 C27 116.3(5) . . ?
N5 C32 C27 106.3(4) . . ?
C31 C32 N5 130.9(4) . . ?
C31 C32 C27 122.8(4) . . ?
C4 C3 C2 121.7(5) . . ?
N1 C8 C13 107.4(4) . . ?
C9 C8 N1 131.3(4) . . ?
C9 C8 C13 121.3(4) . . ?
C32 C31 C30 116.4(5) . . ?
C1 C6 C7 111.2(4) . . ?
C5 C6 C1 124.4(4) . . ?
C5 C6 C7 124.0(5) . . ?
N3 C14 C15 122.1(5) . . ?
C20 C25 C26 112.3(4) . . ?
C24 C25 C20 123.1(4) . . ?
C24 C25 C26 124.6(5) . . ?
C14 C15 C16 120.0(4) . . ?
N4 C26 N5 111.7(4) . . ?
N4 C26 C25 116.7(4) . . ?
N5 C26 C25 131.6(4) . . ?
C8 C13 N2 106.7(4) . . ?
C12 C13 N2 130.8(5) . . ?
C12 C13 C8 122.5(4) . . ?
C8 C9 C10 116.2(5) . . ?
N6 C33 C34 122.3(5) . . ?
C23 C24 C25 119.4(5) . . ?
C18 C17 C16 119.0(5) . . ?
C11 C10 C9 122.4(5) . . ?
C3 C4 C5 120.1(5) . . ?
C23 C22 C21 121.8(5) . . ?
C35 C34 C33 120.5(5) . . ?
C6 C5 C4 117.7(5) . . ?
C13 C12 C11 116.0(5) . . ?
C20 C21 C22 121.2(5) . . ?
C31 C30 C29 121.2(5) . . ?
C15 C16 C17 118.4(5) . . ?
C37 C36 C35 118.1(6) . . ?
C10 C11 C12 121.6(5) . . ?
C28 C29 C30 122.7(5) . . ?
C34 C35 C36 118.9(5) . . ?
C22 C23 C24 119.0(5) . . ?
loop_
_geom_bond_atom_site_label_1
_geom_bond_atom_site_label_2
_geom_bond_distance
_geom_bond_site_symmetry_2
_geom_bond_publ_flag
Pt1 O1 2.117(3) . ?
Pt1 N1 2.006(4) . ?
Pt1 N3 2.021(4) . ?
Pt1 C1 1.998(4) . ?
Pt2 O3 2.112(3) . ?
Pt2 N6 2.017(4) . ?
Pt2 N4 2.001(4) . ?
Pt2 C20 2.012(5) . ?
O3 C38 1.274(6) . ?
O1 C19 1.274(5) . ?
O2 C19 1.240(6) . ?
O4 C38 1.235(6) . ?
N1 C7 1.326(6) . ?
N1 C8 1.388(5) . ?
N6 C37 1.360(6) . ?
N6 C33 1.347(6) . ?
N2 C7 1.339(6) . ?
N2 C13 1.397(6) . ?
N3 C18 1.348(6) . ?
N3 C14 1.345(6) . ?
N4 C27 1.381(6) . ?
N4 C26 1.335(6) . ?
N5 C32 1.389(6) . ?
N5 C26 1.337(6) . ?
C27 C28 1.403(6) . ?
C27 C32 1.402(7) . ?
C1 C2 1.411(6) . ?
C1 C6 1.409(7) . ?
C7 C6 1.464(6) . ?
C38 C37 1.497(7) . ?
C19 C18 1.513(6) . ?
C18 C17 1.379(7) . ?
C20 C25 1.426(7) . ?
C20 C21 1.397(7) . ?
C37 C36 1.392(7) . ?
C2 C3 1.400(7) . ?
C28 C29 1.382(7) . ?
C32 C31 1.387(7) . ?
C3 C4 1.365(8) . ?
C8 C13 1.396(6) . ?
C8 C9 1.388(6) . ?
C31 C30 1.389(8) . ?
C6 C5 1.385(7) . ?
C14 C15 1.374(7) . ?
C25 C26 1.443(6) . ?
C25 C24 1.389(7) . ?
C15 C16 1.376(8) . ?
C13 C12 1.389(7) . ?
C9 C10 1.392(7) . ?
C33 C34 1.373(8) . ?
C24 C23 1.381(8) . ?
C17 C16 1.382(7) . ?
C10 C11 1.387(8) . ?
C4 C5 1.397(7) . ?
C22 C21 1.398(7) . ?
C22 C23 1.378(8) . ?
C34 C35 1.360(9) . ?
C12 C11 1.393(8) . ?
C30 C29 1.401(8) . ?
C36 C35 1.400(8) . ?
loop_
_refln_index_h
_refln_index_k
_refln_index_l
_refln_F_squared_meas
_refln_F_squared_sigma
0 0 1 0.01 0.06
0 0 2 2357.55 58.77
0 0 2 2265.96 58.78
0 0 3 0.54 0.41
0 0 4 1962.38 50.35
0 0 5 1.52 0.75
0 0 6 7110 180.79
0 0 7 1.24 0.79
0 0 8 1558.81 41.12
0 0 9 0.47 0.82
0 0 10 763.74 21.56
0 0 11 0.9 1.07
0 0 12 5632.38 145.13
0 0 13 0.5 1.13
0 0 14 2001.86 54.11
0 0 15 1.08 1.28
0 0 16 5.59 1.51
0 0 16 6.35 1.72
0 0 16 6.21 1.59
0 0 16 5.52 1.6
0 0 16 4.76 1.58
0 0 17 -0.17 1.26
0 0 17 -0.85 1.26
0 0 17 0.65 1.25
0 0 17 0.35 1.34
0 0 17 -0.95 1.45
0 0 17 1.19 1.47
0 0 18 1527.66 43.39
0 0 18 1627.25 43.72
0 0 18 1568.07 42.78
0 0 18 1562.72 44.21
0 0 18 1585.43 43.62
0 0 19 1 1.44
0 0 19 -1.13 1.81
0 0 19 -0.63 2.05
0 0 19 1.1 1.12
0 0 19 -0.39 2.13
0 0 20 518.8 17.7
0 0 20 503.23 17.91
0 0 20 508.39 17.35
0 0 20 500.22 17.63
0 0 20 500.35 17.37
0 0 20 465.23 15.95
0 0 21 0.5 1.57
0 0 21 0.95 1.85
0 0 21 -0.47 1.93
0 0 -21 0.84 1.44
0 0 21 1.35 1.88
0 0 -22 2.7 1.66
0 0 22 2.08 1.82
0 0 22 1.7 2.11
0 0 22 6.2 1.83
0 0 22 1.19 1.9
0 0 23 -0.23 1.68
0 0 23 -0.48 1.91
0 0 23 0.48 2.1
0 0 24 322.99 12.94
0 0 24 328.39 13.09
0 0 24 317.91 12.94
0 0 25 1.95 2.05
0 0 25 0.83 1.62
0 0 25 0.83 1.87
0 0 25 1.26 1.78
0 0 26 391.37 13.59
0 0 26 380.83 13.73
0 0 26 346.57 13.37
0 0 27 0.8 1.63
0 0 27 1.46 1.54
0 0 27 0.77 1.61
0 0 28 11.72 1.82
0 0 28 11.15 2.05
0 1 0 0.25 0.13
0 -1 1 2096.01 52.76
0 1 1 2024.83 52.75
0 1 -1 2155.73 52.89
0 -1 2 3107.62 81.86
0 1 -2 3331.77 82.02
0 1 2 3121.96 81.94
0 1 2 3369.38 81.89
0 -1 3 5302.51 134.46
0 -1 4 144.34 4.47
0 -1 5 1063.26 27.91
0 -1 6 146 4.9
0 -1 7 841.88 22.8
0 -1 8 1822.67 47.85
0 -1 9 2731.87 71.03
0 -1 10 249.8 8.4
0 -1 11 1134.77 31.23
0 -1 12 442.4 13.92
0 -1 13 867.06 25.09
0 -1 14 916.74 26.62
0 -1 15 1590.48 44.08
0 1 16 7.06 1.81
0 -1 16 6.56 1.78
0 1 16 8.56 1.56
0 -1 16 11.75 2.25
0 1 16 7.79 1.73
0 -1 16 6.38 1.45
0 1 17 675.58 20.16
0 -1 17 617.5 20.25
0 1 17 607.5 19.44
0 1 17 626.51 19.59
0 1 17 635.63 19.88
0 -1 17 620.05 20.16
0 1 17 613.53 19.91
0 1 18 684.64 20.71
0 1 18 622.52 19.88
0 -1 18 654.1 20.93
0 1 18 631.98 20.35
0 1 -18 666.3 20.72
0 1 18 590.78 19.93
0 -1 18 643.92 21.05
0 1 18 617.57 20.3
0 1 -19 27.52 3.26
0 1 19 32.35 3.35
0 1 19 26.84 3.36
0 1 19 26.76 2.96
0 -1 19 28.09 3.38
0 1 19 29.91 3.53
0 1 19 31.03 3.52
0 -1 20 165.59 8.64
0 -1 20 160.18 8.34
0 1 20 167.03 8.07
0 1 -20 174.01 8.29
0 1 20 179.21 8.22
0 1 20 182.14 8.57
0 1 20 175.89 8.5
0 1 20 175.19 7.77
0 -1 20 178.91 8.8
0 1 20 164.73 8.6
0 -1 21 254.16 11.13
0 1 21 263.9 10.75
0 1 21 262.25 11.48
0 1 21 245.02 9.87
0 1 21 277.52 11.32
0 1 21 258.11 11.04
0 -1 21 259.85 11.41
0 -1 21 251.01 11.34
0 1 -21 244.91 10.46
0 1 22 23.55 3.27
0 1 -22 22.88 2.93
0 1 22 23.93 3.15
0 -1 22 17.36 2.99
0 1 22 16.9 2.3
0 -1 22 24.77 3.27
0 1 22 17.75 2.98
0 -1 22 21.92 3.41
0 -1 23 476.31 17.44
0 -1 23 451.58 17.09
0 1 23 468.99 17.27
0 1 23 487.73 17.14
0 -1 23 456.15 17.23
0 1 23 512.37 17.49
0 -1 24 81.01 5.83
0 -1 24 76.65 5.55
0 1 24 85.32 5.83
0 -1 24 73.83 5.61
0 1 24 90.88 5.78
0 1 24 79.61 5.49
0 -1 25 97.95 6.06
0 -1 25 95.64 6.1
0 1 25 105.01 5.95
0 1 25 95.82 5.99
0 -1 25 84.63 5.82
0 1 26 49.84 4.08
0 -1 26 51.97 4.13
0 -1 26 54.14 4.25
0 1 26 55.72 3.97
0 1 27 160.15 6.6
0 -1 27 147.46 6.84
0 1 27 148.54 6.82
0 -1 27 140.7 6.77
0 1 28 12.09 1.71
0 -1 28 13.3 2.07
0 1 28 15.61 2.13
0 2 0 475.37 12.46
0 2 1 1358.34 34.11
0 2 -1 1419.45 34.1
0 -2 1 1344.71 33.68
0 2 1 1279.93 33.66
0 2 2 1387.18 35.9
0 2 2 1346.2 36.34
0 2 -2 1450.24 36.19
0 -2 2 1432.36 35.93
0 2 2 1407.93 36.45
0 2 3 418.2 11.61
0 2 3 398.29 11.51
0 2 3 448.86 11.33
0 -2 3 423.59 11.33
0 2 -3 421.78 11.5
0 2 -4 5260.88 139.18
0 -2 4 5320.71 139.02
0 2 4 5423.47 139.18
0 2 5 771.14 20.74
0 2 5 824.54 20.66
0 2 -5 744.68 20.84
0 -2 5 755.92 20.65
0 2 6 277.29 8.45
0 -2 6 271.72 8.45
0 2 -6 292.58 8.78
0 2 6 304.4 8.52
0 2 -7 199.88 7.03
0 -2 7 211.58 6.85
0 -2 8 1998.69 51.82
0 2 8 1961.67 51.71
0 -2 9 11.72 1.48
0 2 9 11.68 1.41
0 2 10 2810.39 74.41
0 -2 10 2903.45 74.51
0 -2 11 1191.97 33.37
0 2 11 1245.47 33.34
0 2 12 18.57 1.95
0 -2 12 11.8 1.76
0 2 13 4.95 1.42
0 -2 13 8.15 1.52
0 2 -13 8.53 1.7
0 -2 14 561.7 17.59
0 2 14 583.82 17.69
0 2 -14 546.88 17.67
0 2 15 204.83 8.48
0 -2 15 212.76 8.29
0 -2 15 208.24 8.55
0 2 -15 207.23 8.5
0 2 15 213.42 8.28
0 2 16 2053.44 56.05
0 2 16 2016.63 56.62
0 2 16 2093.82 57.06
0 -2 16 2172.29 57.15
0 2 16 2081.13 56.36
0 2 16 2116.3 56.57
0 2 -16 2092.7 56.94
0 -2 16 2106.98 56.44
0 -2 16 2020.56 56.64
0 -2 16 2096.62 56.59
0 2 -17 449.87 14.99
0 2 17 454.94 14.94
0 -2 17 424.92 15.1
0 2 17 413.88 14.15
0 2 17 419.83 14.7
0 2 17 418.67 14.42
0 2 17 412.32 14.23
0 2 17 415.88 14.99
0 -2 17 439.29 14.83
0 -2 17 442.22 15
0 2 18 94.95 5.5
0 2 18 93.52 5.22
0 -2 18 91.29 5.42
0 2 18 84.28 5.05
0 2 18 87.93 5.81
0 -2 18 94.3 6.1
0 2 -18 98.06 5.83
0 2 18 95.12 5.45
0 -2 18 97.51 6.15
0 2 18 92.81 5.37
0 2 19 63.77 4.79
0 2 19 69.65 4.72
0 -2 19 61.03 5.06
0 2 19 59.02 4.27
0 -2 19 64.72 4.83
0 2 19 54.84 4.33
0 2 19 52.18 4.2
0 2 19 41.39 4.2
0 2 -19 61.96 4.49
0 -2 19 59.07 4.46
0 -2 19 65.71 4.87
0 2 19 50.63 4.06
0 2 20 165.2 7.79
0 2 -20 163.01 7.9
0 -2 20 159.25 8.04
0 -2 20 163.8 8.21
0 2 20 160.55 7.56
0 2 20 163.36 7.69
0 -2 20 165.23 8.51
0 2 20 174.05 8.18
0 2 20 174.22 8.3
0 2 20 157.75 8.32
0 -2 20 158.3 8.25
0 2 20 166.62 8.26
0 2 21 274.8 11.25
0 2 21 289.31 11.57
0 -2 21 265.33 11.23
0 2 21 270.61 11.72
0 2 21 261.98 10.71
0 -2 21 272.11 11.44
0 2 -21 264.69 10.85
0 2 21 262.14 10.67
0 -2 21 256.59 11.46
0 2 21 272.93 11.54
0 2 21 282.35 10.64
0 -2 22 858.47 27.08
0 2 -22 850.38 25.86
0 2 22 855.99 26.77
0 -2 22 831.48 26.59
0 2 22 800.77 24.97
0 2 22 791.13 26.67
0 2 22 914.16 26.92
0 2 22 848.58 26.26
0 -2 22 865.09 26.66
0 -2 22 781.95 26.55
0 2 22 832.04 25.64
0 -2 23 61.2 5.12
0 2 23 64.27 5.06
0 2 23 63.08 4.13
0 2 23 67.23 4.99
0 -2 23 62.87 4.94
0 2 23 69.32 5.16
0 -2 23 62.38 4.99
0 2 23 60.87 4.73
0 -2 24 79.9 5.79
0 2 24 80.19 5.37
0 2 24 79.05 5.15
0 -2 24 77.59 5.28
0 -2 24 78.45 5.51
0 2 24 77.62 5.5
0 2 24 72.11 5.32
0 -2 25 1.77 1.77
0 2 25 0.51 1.58
0 -2 25 1.27 1.87
0 2 25 0.2 1.93
0 2 25 2.74 1.92
0 -2 26 20.31 2.81
0 2 26 20.47 2.7
0 2 26 23.84 2.56
0 -2 26 21.51 3.03
0 2 26 23.92 2.8
0 -2 27 47.65 3.72
0 2 27 44.49 3.43
0 2 27 42.74 3.28
0 -2 27 47.62 3.5
0 2 28 266.6 9.12
0 -2 28 272.42 9.69
0 3 0 1.28 0.5
0 3 1 2982.15 75.04
0 3 -1 2924.5 75.02
0 3 -1 2914.81 74.89
0 3 2 385.85 10.05
0 3 -2 399.29 10.64
0 3 2 379.25 10.78
0 -3 2 382.9 10.07
0 3 3 4.75 0.5
0 3 -3 3.76 0.69
0 -3 3 4.44 0.52
0 3 3 4.79 0.9
0 -3 4 735.26 19.14
0 3 4 697.64 19.49
0 3 -4 702.08 19.4
0 3 4 721.25 19.63
0 3 4 751.45 19.09
0 3 5 2539.32 61.79
0 3 -5 2335.3 61.6
0 3 5 2376.97 61.26
0 -3 5 2335.43 61.33
0 -3 6 0.56 0.62
0 3 6 2.98 0.82
0 3 -6 1.01 0.79
0 3 6 2.57 0.74
0 3 7 7874.07 190.49
0 3 -7 7248.07 190.77
0 3 7 7449.78 190.67
0 -3 7 7326.2 190.45
0 3 -8 68.73 3.39
0 -3 8 65.41 3.15
0 3 8 74.59 3.18
0 -3 9 95.99 4.21
0 3 9 106.61 4.27
0 3 -9 100.56 4.51
0 3 -10 943.69 27.22
0 3 10 1016.02 26.87
0 -3 10 954.47 26.85
0 3 -11 796.92 23.74
0 3 11 866.38 23.56
0 -3 11 816.71 23.43
0 3 -12 212.86 8.19
0 3 12 216.89 7.88
0 -3 12 212.78 7.95
0 -3 13 3285.11 85.74
0 3 13 3358.9 85.68
0 3 -13 3134.83 85.78
0 -3 14 97.84 5.07
0 -3 14 94.27 4.79
0 3 -14 99.76 5.18
0 3 14 95.49 4.78
0 3 14 96.25 4.95
0 -3 15 174.61 7.21
0 3 15 170.59 7.1
0 -3 15 166.89 7.37
0 3 -15 167.32 7.41
0 -3 15 162.88 7.25
0 3 15 172 7.43
0 3 16 8.66 1.67
0 3 16 7.95 1.7
0 3 16 7.24 1.8
0 3 16 6.83 1.76
0 3 -16 7.17 1.75
0 -3 16 10.18 1.94
0 -3 16 10.62 1.94
0 -3 16 10.02 1.83
0 3 16 7.86 1.73
0 3 16 10.59 1.82
0 3 17 408.49 13.56
0 3 17 439.16 14.26
0 3 17 395.3 13.99
0 3 -17 402.75 14.24
0 -3 17 416.43 14.49
0 -3 17 416.27 14.54
0 3 17 412.35 14.48
0 -3 17 413.38 14.11
0 3 17 395.67 14.05
0 3 17 388.83 13.62
0 3 17 382.27 13.6
0 -3 18 20.4 2.58
0 3 18 16.62 2.86
0 3 18 18.62 2.99
0 3 18 15.48 2.28
0 -3 18 22.45 3.24
0 3 -18 15.38 2.95
0 3 18 16.19 3.2
0 -3 18 15.97 3.43
0 3 18 21.4 2.68
0 -3 18 17.65 2.79
0 3 18 16.35 2.61
0 3 18 16.1 2.91
0 3 19 2288.13 62.02
0 3 19 2448.04 63.15
0 -3 19 2328.49 62.92
0 3 19 2196.07 62.27
0 3 19 2198.83 62.22
0 -3 19 2257.7 63.3
0 3 19 2263.97 63.36
0 3 19 2297.35 63.08
0 3 19 2379.48 62.79
0 -3 19 2241.79 62.9
0 -3 19 2256.65 63.46
0 3 -19 2401.68 63.07
0 -3 20 3.98 2.06
0 -3 20 3.41 2.15
0 -3 20 4.22 2.25
0 3 20 2.23 1.59
0 -3 20 3.04 1.68
0 3 20 3.25 1.74
0 3 20 3.67 1.78
0 3 20 3.27 1.72
0 3 20 3.59 1.82
0 3 -20 2.19 1.47
0 3 20 3.35 1.64
0 3 20 4.31 1.9
0 -3 20 1.8 1.58
0 3 21 216.03 9.17
0 3 21 233.29 9.97
0 -3 21 215.59 9.79
0 3 21 213.96 9.05
0 3 21 216.43 9.36
0 3 -21 218.9 9.43
0 3 21 223.37 10.11
0 3 21 220.79 9.21
0 -3 21 214.26 9.59
0 -3 21 234.67 10.51
0 -3 21 213.79 9.91
0 3 21 223.15 9.92
0 -3 21 219.38 10.2
0 -3 22 16.31 3.13
0 3 22 22.44 2.92
0 3 22 23.4 3.12
0 3 22 21.85 2.78
0 3 22 25.74 3.05
0 -3 22 23.19 3.16
0 -3 22 22.96 3.01
0 3 22 24.47 2.9
0 3 22 23.68 3.12
0 -3 22 26.4 3.67
0 3 23 79.35 5.33
0 -3 23 74.4 5.15
0 -3 23 78.51 5.79
0 3 23 89.93 4.94
0 3 23 76.26 5.39
0 3 23 79.74 5.39
0 -3 23 79.79 5.69
0 -3 23 81.62 5.5
0 3 23 79.14 4.98
0 3 24 42.55 3.53
0 3 24 36.37 3.02
0 -3 24 49.41 4.51
0 -3 24 43.06 4
0 3 24 42.8 3.95
0 3 24 38.41 3.67
0 -3 24 43.17 4.17
0 3 25 614.96 19.28
0 -3 25 583.91 19.72
0 3 25 592.04 19
0 -3 25 599.76 19.64
0 -3 25 563.39 18.99
0 -3 26 4.02 1.97
0 3 26 4.04 1.58
0 -3 26 4.04 1.73
0 3 26 5.76 1.79
0 -3 26 4.83 1.98
0 -3 27 67.79 4.37
0 3 27 78.73 4.03
0 -3 27 72.39 4.51
0 4 0 1468.82 38.07
0 4 -1 1316.59 34.15
0 4 1 1311.85 34.32
0 4 -2 1923.91 48.97
0 4 -2 1911.83 48.82
0 4 2 1833.96 49.15
0 -4 3 6.82 0.5
0 4 3 5.96 0.46
0 4 3 5.71 1.08
0 4 -3 4.85 0.86
0 4 3 5.53 1.04
0 4 4 1280.11 34.4
0 4 4 1403.42 35.5
0 4 4 1315.45 35.43
0 -4 4 1375.6 34.5
0 4 -4 1354.22 35.16
0 4 -5 1660.47 45.05
0 -4 5 1738.32 44.55
0 4 5 1755.64 44.48
0 4 5 1722.35 45.18
0 4 5 1719.25 45.32
0 -4 6 1709.19 45.01
0 4 6 1779.17 44.97
0 4 -6 1694.63 45.48
0 4 6 1744.11 45.64
0 4 7 1635.27 40.09
0 4 -7 1426.48 40.4
0 -4 7 1479.35 40.06
0 4 7 1566.99 40.64
0 -4 8 2710.65 70.48
0 4 8 2773.72 70.37
0 4 -8 2612.91 70.83
0 4 8 2772.8 70.89
0 -4 9 754.37 21.21
0 4 -9 735.4 21.54
0 4 9 784.76 21.13
0 -4 10 2009.46 53.81
0 4 10 2154.37 53.83
0 4 -10 2001.38 54.23
0 4 10 1992.94 53.41
0 4 11 1145.2 30.29
0 4 -11 1079.51 31.02
0 -4 11 1055.01 30.27
0 4 11 1157.23 30.58
0 -4 11 1103.12 30.64
0 4 12 1913.41 49.01
0 -4 12 1800.17 48.77
0 -4 12 1727.79 48.94
0 4 -12 1783.97 49.46
0 4 12 1889.88 48.74
0 -4 13 182.58 7.43
0 4 13 188.46 7.13
0 4 -13 186.8 7.71
0 4 13 190.28 7.39
0 -4 13 186.58 7.2
0 4 -14 713.6 21.62
0 -4 14 720.76 21.03
0 4 14 730.61 21.27
0 4 14 731.47 20.97
0 4 14 665.67 20.86
0 -4 14 681.51 21.22
0 4 15 262 10.16
0 4 15 281.87 9.97
0 4 15 264.66 9.86
0 4 15 266.31 9.66
0 -4 15 278.99 10.44
0 4 15 300.65 10.5
0 -4 15 289.19 10.58
0 -4 15 271.23 10
0 4 -15 284.7 10.63
0 4 16 724.2 21.89
0 -4 16 709.47 21.57
0 -4 16 654.08 21.7
0 4 16 699.41 21.05
0 4 16 760.05 21.7
0 4 16 704.9 21.57
0 4 -16 725.09 22.13
0 4 16 704.29 21.82
0 4 16 724.67 21.5
0 -4 16 679.22 21.91
0 -4 17 243.89 9.84
0 4 17 238.54 9.84
0 -4 17 249.8 9.79
0 4 17 263.82 10.01
0 -4 17 249.27 10.59
0 -4 17 256.4 10.29
0 4 17 255.78 10.07
0 4 17 248.07 10.07
0 4 -17 264.93 10.41
0 4 17 233.66 9.2
0 4 17 241.37 9.74
0 4 17 264.18 9.9
0 4 18 598.72 18.75
0 -4 18 569.82 19.23
0 4 18 576.82 18.76
0 4 18 584.06 18.73
0 4 18 575.35 18.06
0 4 18 562.19 18.12
0 -4 18 563.19 18.58
0 -4 18 559.52 19.25
0 4 18 583.8 18.56
0 4 18 588.7 18.9
0 -4 18 567.69 18.96
0 -4 18 569.5 18.74
0 4 -18 579.03 18.94
0 4 18 572.98 18.97
0 4 19 4.48 1.8
0 4 19 4.76 1.85
0 -4 19 2.88 1.81
0 -4 19 6.21 2.15
0 4 19 5.47 1.96
0 -4 19 5.17 1.93
0 4 19 6.16 1.78
0 4 19 4.56 1.84
0 4 19 4.95 1.75
0 -4 19 3.51 1.71
0 -4 19 6.43 2.21
0 4 -19 4.22 2.04
0 4 19 3.98 1.75
0 -4 20 464.05 16.31
0 4 20 470.99 16.35
0 4 20 475.56 15.56
0 -4 20 515.12 17.41
0 -4 20 447.2 16.4
0 4 -20 486.48 16.3
0 4 20 472.83 16.01
0 4 20 444.52 15.53
0 4 20 497.53 16.46
0 -4 20 456.3 16.76
0 4 20 445.99 16.37
0 -4 20 487.1 16.35
0 4 20 465.69 15.98
0 4 21 608.05 19.42
0 4 21 552.88 18.28
0 -4 21 524.85 19.07
0 4 21 565.15 18.2
0 4 21 624.25 19.39
0 4 21 542.96 19.21
0 4 21 563.14 18.67
0 -4 21 592.82 19.27
0 -4 21 602.79 19.23
0 -4 21 588.5 19.82
0 -4 21 592.59 20.06
0 4 21 565.82 18.59
0 -4 22 247.91 11.06
0 4 22 254.7 10.47
0 4 22 260.35 10.09
0 -4 22 246.13 10.35
0 4 22 231.41 9.55
0 -4 22 256.23 10.54
0 4 22 244.13 10.31
0 4 22 279.12 10.17
0 -4 22 267.75 11.12
0 4 22 255.06 10.48
0 4 22 250.3 9.71
0 4 23 91.57 5.16
0 -4 23 91.54 6.04
0 4 23 90.56 5.02
0 -4 23 95.74 6.23
0 -4 23 96.18 5.7
0 4 23 92.55 5.57
0 4 23 93.71 5.48
0 4 23 93.95 5.07
0 -4 24 157.17 8.02
0 4 24 158.58 6.78
0 4 24 164.67 7.3
0 -4 24 147.28 7.24
0 4 24 158.53 7.35
0 -4 24 152.49 7.72
0 -4 25 -0.58 1.96
0 -4 25 -0.37 1.74
0 -4 25 -0.16 1.56
0 4 25 1.36 1.45
0 4 25 -0.11 1.04
0 -4 26 73.57 4.62
0 -4 26 75.11 4.75
0 -4 27 156.53 6.77
0 5 0 -0.05 0.55
0 5 1 149.98 5.26
0 5 -1 161.22 5.14
0 5 2 987.87 26.78
0 5 -2 995.7 26.35
0 5 -3 4073.03 107.15
0 5 3 4068.51 107.71
0 5 -3 4230.84 107.44
0 -5 4 101.52 3.12
0 5 4 103.91 3.1
0 5 4 118.76 4.55
0 5 -4 117.66 4.1
0 5 4 105.53 4.36
0 5 -4 114.85 4.18
0 5 5 905.3 23.65
0 5 -5 942.62 24.74
0 5 5 922.67 25.04
0 -5 5 872.88 23.67
0 5 5 953.73 24.96
0 5 -6 12.71 1.38
0 5 6 9.97 0.87
0 5 6 8.54 1.33
0 -5 6 7.86 0.84
0 5 6 13.18 1.4
0 5 -7 3.33 1
0 5 7 1.7 0.59
0 5 7 2.58 1
0 -5 7 2.87 0.72
0 5 8 230.44 7.75
0 -5 8 204.83 6.95
0 5 8 220.75 6.93
0 5 -8 214.35 7.66
0 -5 9 3898.95 103.46
0 5 -9 4036.1 104.23
0 5 9 4126.56 103.4
0 -5 10 40.97 2.53
0 5 -10 42.4 2.9
0 5 10 44.23 2.5
0 -5 10 38.16 2.36
0 -5 11 893.28 26.02
0 5 -11 932.76 26.9
0 5 11 954.1 26.01
0 -5 11 955.4 26.41
0 5 11 990.02 26.32
0 -5 12 73.54 3.78
0 5 -12 74.55 4.24
0 5 12 77.72 3.75
0 -5 12 71.76 3.91
0 5 12 83.39 3.98
0 -5 13 4.99 1.26
0 5 13 7.67 1.54
0 5 -13 4.08 1.38
0 5 13 5.9 1.42
0 5 13 4.49 1.05
0 -5 13 5.68 1.21
0 5 13 4.15 1.17
0 5 14 108.89 5.55
0 -5 14 106.84 5.56
0 5 14 124.58 5.51
0 5 14 110.69 5.39
0 5 14 111.94 5.11
0 5 14 117.08 5.19
0 -5 14 105.02 5.44
0 5 -14 109.07 5.69
0 -5 14 108.88 5.18
0 -5 14 121.38 5.58
0 -5 15 1696.14 49.37
0 5 15 1920.61 50
0 5 15 1834.34 50.22
0 5 15 1868.77 49.4
0 -5 15 1803.81 49.92
0 5 -15 1853.57 50.41
0 5 15 1877.29 49.54
0 5 15 1835.25 49.9
0 -5 15 1753.64 50.09
0 -5 15 1793.57 50.24
0 5 15 1878.07 49.7
0 -5 16 5.05 1.5
0 -5 16 6.31 1.88
0 5 16 2.73 1.29
0 5 16 8.69 2.49
0 5 -16 5.26 1.98
0 5 16 4.59 1.92
0 -5 16 3.24 1.46
0 5 16 4.03 1.32
0 -5 16 5.42 1.46
0 -5 16 7.89 2.35
0 5 16 2.35 1.23
0 5 16 5.06 1.5
0 5 17 800.77 24.29
0 5 17 823.34 24.19
0 5 -17 832.48 24.82
0 5 17 800.86 24.57
0 5 17 813.31 23.67
0 5 17 801.83 24.56
0 5 17 827.48 24.34
0 -5 17 775.7 24.63
0 -5 17 772.46 24.31
0 -5 17 802.93 24.9
0 5 17 806.57 23.94
0 -5 17 811.06 24.32
0 -5 17 762.46 23.86
0 -5 18 23.98 2.88
0 5 -18 24.4 2.93
0 5 18 29.62 3.03
0 -5 18 25.91 3.26
0 5 18 24.78 2.82
0 -5 18 25.9 3.13
0 -5 18 20.15 2.47
0 5 18 22.81 2.84
0 5 18 23.39 2.59
0 5 18 24.71 2.94
0 5 18 21.79 2.8
0 5 18 25.3 2.84
0 -5 18 18.54 2.96
0 5 19 11.1 2.14
0 5 19 12.45 2.1
0 -5 19 11.99 2.27
0 -5 19 14.58 2.79
0 5 19 18.89 2.68
0 -5 19 11.7 2.33
0 5 -19 16.34 2.45
0 -5 19 11.04 2.05
0 5 19 12.09 2.27
0 5 19 18.37 2.56
0 5 19 13.27 2.17
0 5 19 16.11 2.52
0 -5 19 13.68 2.54
0 5 20 8.67 1.96
0 5 20 6.15 1.75
0 -5 20 8.72 2.29
0 5 20 4.49 1.8
0 5 20 5.53 1.66
0 5 20 7.66 1.91
0 -5 20 8.98 2.35
0 -5 20 10.48 2.18
0 5 20 11.47 2.01
0 -5 20 7.99 1.92
0 5 20 9.86 2.02
0 5 21 421.54 14.89
0 5 21 448.86 14.98
0 -5 21 432.3 15.76
0 -5 21 454.49 16.23
0 5 21 429.53 15.04
0 5 21 430.85 14.36
0 -5 21 440.63 15.15
0 5 21 452.26 14.98
0 5 22 14.11 2.28
0 -5 22 15.06 2.73
0 5 22 14.46 2.47
0 -5 22 14.6 2.4
0 5 22 11.25 2.17
0 -5 22 14.53 2.95
0 5 22 16.71 2.28
0 5 22 13.79 2.12
0 -5 23 457.14 16.11
0 5 23 446.64 15.1
0 5 23 482.22 14.94
0 -5 23 459.22 16.36
0 5 23 448.7 14.53
0 -5 23 433.82 15.18
0 5 23 483.01 15.38
0 -5 24 60.69 4.67
0 -5 24 64.96 4.57
0 5 24 66.88 3.96
0 5 25 1.17 1.14
0 -5 25 0.32 1.71
0 -5 25 0.34 1.67
0 -5 26 3.14 1.59
0 6 0 4479.26 114.9
0 6 -1 698.06 19.43
0 6 1 711.99 19.75
0 6 2 1260.97 33.23
0 6 2 1211.14 32.23
0 6 3 448.14 13.56
0 6 3 422.01 12.98
0 6 -3 421.56 12.41
0 6 4 794.91 21.55
0 6 -4 761.39 20.68
0 6 5 403.49 12.51
0 6 5 403.5 12.55
0 6 -5 411.05 12.13
0 6 -5 404.9 12.25
0 6 -6 4794.51 124.77
0 6 6 4910.38 125.01
0 6 6 4873.43 125.12
0 6 -6 4853.64 124.91
0 6 -7 384.09 11.69
0 6 7 407.33 11.96
0 6 8 748.27 20.7
0 6 8 822.24 22.21
0 6 -8 766.75 22.03
0 6 -9 214.85 7.75
0 6 9 202.29 6.64
0 6 10 50.23 2.6
0 6 -10 51.15 3.3
0 6 -11 302.19 10.54
0 6 11 296 9.5
0 6 -12 1657.46 45.1
0 6 12 1704.06 44.77
0 6 12 1640.94 44.91
0 6 12 1615.22 44.59
0 6 12 1603.37 43.83
0 6 13 65.95 3.51
0 6 13 63.77 4.06
0 6 13 64.11 3.89
0 6 13 70.67 4.06
0 -6 13 59.56 3.93
0 6 13 69.01 3.7
0 6 -13 61.06 4.06
0 -6 14 1013.05 30.34
0 -6 14 1001.81 29.37
0 6 14 1113.45 30.71
0 6 14 1102.34 29.72
0 6 14 1063.12 29.65
0 6 -14 1055.51 30.68
0 6 -15 242.08 9.68
0 6 15 235.57 8.66
0 6 15 235.94 8.76
0 6 15 256.08 9.93
0 -6 15 222.88 8.54
0 -6 15 243.53 9.58
0 -6 15 225.02 9.17
0 6 -16 44.59 3.77
0 -6 16 47.15 3.34
0 -6 16 49.5 3.97
0 6 16 52.16 4.12
0 6 16 50.98 3.58
0 -6 16 45.02 3.87
0 -6 17 156.81 7.65
0 6 17 168.49 7.47
0 -6 17 158.12 7.53
0 6 -17 158.44 7.52
0 6 17 155.35 6.72
0 -6 17 156.85 6.85
0 6 17 160.1 7.56
0 6 18 562.91 18.1
0 6 18 532.29 17.07
0 -6 18 521.67 17.97
0 6 18 559.05 17.87
0 -6 18 552 18.42
0 -6 18 529.93 17.17
0 6 18 546.54 16.97
0 6 18 558.87 18.18
0 6 19 1.87 1.36
0 6 19 1.48 1.45
0 -6 19 3.94 1.87
0 -6 19 1.37 1.69
0 6 19 0.3 1.09
0 6 19 1.06 1.61
0 6 19 1.41 1.67
0 6 20 409.93 14.38
0 6 20 391.87 13.63
0 6 20 407.29 13.44
0 -6 20 413.23 14.8
0 -6 20 409.69 15.03
0 6 20 447.97 14.52
0 6 21 76.41 4.59
0 6 21 67.37 3.98
0 -6 21 76.53 5.28
0 6 21 66.17 4.1
0 6 21 71.85 4.71
0 -6 21 76.66 5.1
0 6 22 6.88 1.97
0 6 22 5.18 1.53
0 -6 22 4.14 1.99
0 6 22 7.05 1.85
0 -6 22 3.2 1.99
0 6 23 77.82 4.52
0 -6 23 80.16 5.02
0 6 23 84.98 4.35
0 -6 23 75.58 5.04
0 6 24 276.67 9.72
0 -6 24 269.12 10.45
0 -6 25 2.41 1.51
0 6 25 2.21 1.14
0 -6 26 208.21 7.84
0 -6 26 213.42 7.38
0 7 0 1.62 0.85
0 7 -1 1560.8 41.66
0 7 1 1565.4 41.97
0 7 2 1030.81 29.67
0 7 -2 1078.41 29.29
0 7 -3 381.04 11.58
0 7 -3 354.49 11.3
0 7 3 367.12 11.78
0 7 4 225.79 8.15
0 7 4 253.08 8.77
0 7 -4 227.12 7.86
0 7 -4 238.59 7.89
0 7 -5 732.79 20.59
0 7 5 735.21 21.16
0 7 -5 695.6 20.4
0 7 5 752.26 20.99
0 7 -6 121.79 5.06
0 7 6 127.76 5.35
0 7 6 124.24 5.25
0 7 7 1194.15 32.79
0 7 -7 1172.36 32.7
0 7 -7 1200.78 32.72
0 7 -8 930.91 26.44
0 7 8 930.05 26.44
0 7 -8 942.69 26.49
0 7 -9 472.06 14.88
0 7 -9 472.58 14.81
0 7 -10 183.47 7.5
0 7 -10 201.46 7.77
0 7 11 526.5 15.98
0 7 11 538.82 16.13
0 7 -12 114.34 5.71
0 7 12 126.43 5.78
0 7 12 132.5 6.07
0 7 12 120.73 5.74
0 7 -13 801.38 24.91
0 7 13 827.45 24.93
0 7 13 875.89 25.45
0 7 13 883.67 25.15
0 7 14 726.02 21.01
0 7 14 683.36 21.09
0 7 -14 651.58 20.83
0 -7 14 648.3 20.69
0 7 15 148.96 6.73
0 7 -15 131.07 6.52
0 7 15 142.8 6.89
0 -7 15 131.6 6.56
0 -7 16 11.55 2.23
0 7 16 9.38 1.75
0 7 16 10.11 2.09
0 -7 17 121.12 6.41
0 7 17 123.84 5.6
0 7 17 129.66 6.62
0 7 18 126.13 6.37
0 7 18 118.74 5.47
0 -7 18 116.36 6.28
0 7 18 126.22 6.48
0 7 19 502.35 16.58
0 7 19 492.78 15.18
0 -7 19 477.51 16.32
0 7 19 504.73 16.34
0 -7 19 487.94 16.59
0 7 19 458.93 16.12
0 -7 20 246.48 10.07
0 -7 20 250.74 10.31
0 7 20 258.46 10.15
0 7 20 252.15 10.02
0 7 20 274.22 10.03
0 7 21 173.22 7.28
0 7 21 170.1 7.57
0 -7 21 166.37 7.81
0 7 22 11.28 1.78
0 -7 22 10.25 2.18
0 7 22 11.58 2.05
0 -7 23 66.27 4.28
0 7 23 75.83 4.24
0 7 23 72.39 3.75
0 -7 23 69.71 4.2
0 7 24 74.85 3.88
0 -7 24 67.42 4.03
0 7 25 184.5 6.4
0 -7 25 168.82 6.62
0 8 0 226.25 8.17
0 8 -1 8.7 1.41
0 8 1 7.72 1.84
0 8 1 11.38 1.47
0 8 2 1635.23 46.55
0 8 -2 1713.42 46.49
0 8 -2 1756.88 46.71
0 8 3 73.52 3.89
0 8 -3 78.19 3.95
0 8 3 80.7 4.62
0 8 -3 74.09 3.78
0 8 4 1715.78 47.13
0 8 4 1868.14 48.23
0 8 -4 1741.97 47.02
0 8 -4 1743.19 47.09
0 8 5 47.29 2.96
0 8 -5 42.41 2.79
0 8 -5 46.35 2.87
0 8 5 44.12 3.15
0 8 6 11.71 1.6
0 8 6 12.54 1.7
0 8 6 9 1.54
0 8 -6 9.6 1.48
0 8 7 19.49 2.13
0 8 -7 22.58 2.07
0 8 7 16.04 1.84
0 8 -8 1003.25 29.59
0 8 -8 1056.72 29.98
0 8 9 2.32 1.23
0 8 -9 1.78 1.1
0 8 -10 2273.92 61.2
0 8 -11 6.7 1.59
0 8 -11 5.96 1.52
0 8 11 8.7 2.63
0 8 -12 16.41 2.45
0 8 -12 20.4 2.54
0 8 13 120.43 6.07
0 8 -13 118.38 6.09
0 8 13 126.79 6.08
0 8 -13 108.78 5.7
0 8 13 129.07 6.38
0 8 14 50.16 3.71
0 8 -14 42.85 3.71
0 8 14 47.78 3.77
0 8 -15 24.52 2.87
0 8 15 30.73 3.16
0 8 15 29.34 2.99
0 8 16 1030.56 29.78
0 8 16 1041.78 29.49
0 -8 17 76.45 4.69
0 8 17 79.28 5.03
0 8 17 81.13 4.86
0 8 18 17.24 2.57
0 -8 18 17.13 2.43
0 -8 19 13.34 2.22
0 8 19 20.63 2.58
0 8 19 17.88 2.55
0 -8 20 29.05 2.95
0 8 20 35.32 3.14
0 8 20 37.84 3.08
0 -8 21 0.14 1.28
0 8 21 -0.12 1.19
0 8 22 600.37 17.42
0 8 22 620.62 18.17
0 8 23 1.73 1.16
0 -8 23 2.4 1.19
0 8 24 22.96 2.04
0 9 0 0.65 1.37
0 9 1 1052.64 30.88
0 9 -1 1042.06 31.39
0 9 -1 993.87 29.12
0 9 2 473.49 15.83
0 9 -2 434.38 14.4
0 9 -3 154.14 6.48
0 9 3 152.91 7.21
0 9 -4 502.52 15.95
0 9 4 522.69 16.8
0 9 4 527.51 16.21
0 9 5 1124.93 30.77
0 9 5 1060.03 30.9
0 9 -5 1054.12 30.18
0 9 -6 249.36 9.12
0 9 6 253.52 9.38
0 9 7 1248.46 33.99
0 9 -7 1155.72 33.45
0 9 8 517.79 16.68
0 9 9 214.52 8.43
0 9 9 219.78 8.73
0 9 10 218.59 9.05
0 9 10 248.41 9.22
0 9 11 237.24 9.71
0 9 11 273.73 9.89
0 9 12 173.84 7.55
0 9 13 625.01 19.57
0 9 14 144.47 7.09
0 9 14 153.92 7.02
0 9 15 94.49 5.57
0 9 15 100.36 5.4
0 9 16 54.62 4.08
0 9 16 54.89 4.02
0 9 17 262.51 10.38
0 9 17 291.76 10.84
0 9 18 263.26 10.01
0 9 18 267.4 10.27
0 9 18 275.55 10.26
0 9 19 501.97 16.68
0 9 19 504.68 16.46
0 9 19 532.71 16.65
0 9 19 521.19 16.27
0 9 20 121.12 5.57
0 9 20 106.81 5.47
0 9 20 117.17 5.27
0 9 21 130.16 5.37
0 -9 22 1.78 1.58
0 10 0 1485.4 43.03
0 10 0 1457.31 41.12
0 10 -1 364.03 12.65
0 10 1 360.12 13.83
0 10 1 356.25 12.71
0 10 -1 360.55 14.32
0 10 2 211.25 9.57
0 10 -2 229.8 8.93
0 10 -2 243.06 10.89
0 10 -3 18.27 2.2
0 10 -3 18.98 2.98
0 10 3 18.97 2.52
0 10 3 13.46 2.24
0 10 4 241.34 9.78
0 10 4 266.48 9.66
0 -10 -4 256.37 10.98
0 10 -4 233.51 9.11
0 10 5 182.56 7.69
0 -10 -5 180.95 9.02
0 10 5 170.47 7.59
0 10 6 1823.93 49.99
0 10 7 195.74 8.22
0 10 8 273.49 9.93
0 10 8 268.05 10.27
0 10 9 134.32 6.19
0 10 9 131.13 6.43
0 10 10 8.39 1.79
0 10 10 6.54 1.85
0 10 11 180.94 8.26
0 10 11 190.03 8
0 10 11 202.51 8.36
0 10 12 1350.73 38.09
0 10 13 16.81 2.4
0 10 14 534.29 17.24
0 10 15 100.46 5.4
0 10 15 93.49 5.43
0 10 16 59.73 4.03
0 10 16 45.45 3.58
0 10 17 107.55 5.56
0 10 17 101.78 5.68
0 10 17 108.75 5.47
0 10 18 418.93 14.36
0 10 18 425.3 13.77
0 10 18 438.82 14.12
0 10 18 423.65 14.03
0 10 19 8.18 1.58
0 10 19 8.8 1.82
0 10 19 9.51 1.72
0 10 19 7.09 1.58
0 -10 20 141.35 7.23
0 10 20 145.92 5.59
0 10 20 136.73 5.87
0 10 21 100.04 4.53
0 -10 21 93.98 5.41
0 11 0 0.53 1.23
0 11 0 -0.44 1.27
0 11 0 -0.49 1.43
0 11 -1 39.6 4.26
0 11 -1 45.93 3.56
0 11 1 50.71 3.63
0 11 -1 45.95 3.37
0 11 1 49.52 3.81
0 -11 1 47.81 4.25
0 11 1 39.75 3.93
0 -11 2 43.29 4.1
0 11 2 41.41 3.86
0 11 2 45.54 3.8
0 11 2 40.52 3.41
0 11 -2 41.97 3.35
0 11 -2 39.81 4.37
0 11 -3 1296.41 38.25
0 11 -3 1163.41 34.86
0 -11 3 1252.04 36.81
0 11 3 1304.02 36.21
0 11 3 1292.59 35.29
0 -11 -3 1252.78 37
0 11 3 1155.68 35.65
0 11 4 86.2 5.42
0 -11 -4 88.49 5.96
0 11 4 96.99 5.23
0 11 -4 86.26 6.41
0 11 -5 34.52 4.11
0 11 5 32.69 3.05
0 11 5 26.49 2.55
0 -11 -5 32.58 3.74
0 11 6 4.56 1.55
0 11 -6 4.67 2.1
0 11 6 6.92 1.61
0 11 7 96.93 4.99
0 11 7 101.4 5.49
0 11 8 67.14 4.08
0 11 8 60.47 4.18
0 11 9 1027.31 30.29
0 11 9 1045.83 29.82
0 11 10 14.01 2.17
0 11 10 12 2.25
0 11 10 10.2 2.13
0 11 11 368.1 12.49
0 11 11 346.95 12.74
0 11 12 1.19 1.44
0 11 12 2.5 1.63
0 11 13 8.55 2.02
0 11 14 37.88 3.44
0 11 14 36.87 3.13
0 11 15 576.92 17.73
0 11 15 551.99 18.34
0 11 16 3.2 1.5
0 11 16 2.91 1.49
0 11 16 1.83 1.34
0 11 17 318.32 11.17
0 11 17 309.81 10.67
0 11 17 295.94 10.57
0 11 18 1.66 1.2
0 11 18 0.99 1.06
0 11 18 1.95 1.17
0 -11 18 0.84 1.91
0 11 18 1.25 1.23
0 11 19 2.69 1.31
0 -11 19 4.23 2.28
0 11 19 3.56 1.14
0 12 0 318.36 11.16
0 12 0 306.08 11.57
0 12 -1 383.1 12.96
0 12 1 390.38 13.83
0 -12 -1 406.26 15.19
0 12 -1 364.56 13.28
0 12 1 397.75 13.29
0 12 2 386.38 12.87
0 12 2 356.9 13.29
0 12 -2 349.28 12.6
0 12 -2 371.81 12.43
0 -12 -2 395.06 14.67
0 -12 2 349.41 13.64
0 12 3 0.38 1.34
0 12 -3 0.51 1.13
0 -12 -3 2.37 2.14
0 -12 3 0.44 1.73
0 12 3 1.4 1.44
0 -12 4 128.7 7.25
0 12 4 147.36 6.67
0 12 4 139.8 6.99
0 -12 -4 124.5 7.28
0 -12 5 393.5 14.97
0 12 5 399.42 14.43
0 12 5 411.28 13.9
0 12 6 184.19 7.72
0 12 6 174.8 8.15
0 -12 6 160.47 8.32
0 12 6 163.04 6.77
0 12 7 183.76 8.51
0 12 7 196.59 8.25
0 -12 7 184.37 9.06
0 12 7 192.77 7.53
0 12 8 128.28 6.71
0 12 8 120.99 5.6
0 -12 8 111.75 6.87
0 12 8 121.44 6.09
0 12 9 105.62 5.17
0 12 9 103.12 5.67
0 12 9 105.46 5.98
0 12 9 109.33 5.68
0 12 10 233.26 8.83
0 12 10 231.51 9.33
0 12 10 241.2 9.97
0 12 11 350.11 12.88
0 12 11 350.52 11.82
0 12 11 338.96 12.21
0 12 12 194.8 8.05
0 12 12 207.07 7.86
0 -12 12 180.56 9.14
0 12 13 13.66 2.08
0 12 13 12.37 2.16
0 12 13 13.91 1.97
0 -12 13 13.05 2.66
0 -12 14 162.37 8.33
0 12 14 164.78 7.38
0 12 14 166.86 6.75
0 12 15 63.07 3.64
0 12 15 59.46 3.98
0 -12 15 67.11 5.02
0 -12 16 113.49 6.46
0 12 16 117.58 5.05
0 12 16 103.65 5.23
0 12 17 133.99 5.44
0 12 17 133.97 5.24
0 12 17 138.91 5.51
0 -13 0 -0.7 2.13
0 13 0 -0.5 1.29
0 13 0 1.5 1.14
0 13 1 425.64 14.67
0 -13 1 447.21 16.35
0 13 -1 440.97 13.97
0 13 1 455.54 14.32
0 13 -1 418.1 14.27
0 -13 -1 480.94 16.54
0 13 2 10.65 1.92
0 -13 -2 9.83 2.62
0 13 2 8.35 1.81
0 -13 2 9.17 2.68
0 13 -2 9.7 1.61
0 13 3 -0.14 1.3
0 13 3 0.34 1.31
0 -13 -3 -0.43 2.2
0 -13 3 1.73 1.66
0 13 4 18.75 2.38
0 13 4 17.51 2.3
0 -13 -4 16.56 2.93
0 -13 4 14.86 2.77
0 13 5 289.56 10.44
0 -13 5 284.7 11.33
0 13 5 279.65 10.82
0 13 6 10.75 1.91
0 13 6 8.96 1.91
0 -13 6 8.54 2.33
0 13 7 880.03 26.45
0 -13 7 838.19 26.86
0 13 7 920.67 25.93
0 13 8 103.93 4.63
0 13 8 99.84 5.53
0 -13 8 92.9 5.9
0 13 8 108.06 5.43
0 13 9 4.35 1.57
0 13 9 2.77 1.2
0 -13 9 4.54 1.98
0 13 9 3.32 1.45
0 13 10 15 1.78
0 13 10 14.09 2.06
0 13 10 16.31 2.28
0 -13 10 10.95 2.4
0 13 11 132.31 5.49
0 13 11 131.35 6.33
0 -13 11 131.53 6.91
0 13 11 142.52 6.07
0 13 12 6.28 1.35
0 13 12 7.38 1.64
0 -13 12 5.29 2.14
0 13 13 566.16 16.78
0 -13 13 563.93 18.37
0 13 13 544.97 16.24
0 -13 14 76.23 5.03
0 13 14 76.87 3.64
0 14 0 18.96 1.86
0 -14 0 15.59 2.7
0 14 1 74.32 4.17
0 14 1 85.2 4.01
0 -14 -1 91.69 5.54
0 -14 1 83.05 5.36
0 -14 2 212 9.27
0 -14 -2 220.28 9.15
0 14 2 199.93 7.94
0 14 2 214.95 7.67
0 -14 -3 10.22 2.19
0 14 3 9.59 1.66
0 -14 3 14.26 2.64
0 -14 4 546.86 18.11
0 14 4 535.04 16.78
0 -14 5 117.45 6.04
0 -14 5 123.3 6.68
0 14 5 121 5.69
0 14 5 138.09 5.84
0 -14 6 1.07 1.49
0 -14 6 0.19 1.88
0 14 6 2.66 1.35
0 14 6 2.28 1.16
0 -14 7 52.96 3.93
0 14 7 69.14 3.79
0 -14 7 63.26 4.54
0 14 7 59.39 3.74
0 14 8 138.61 5.7
0 -14 8 120.19 6.49
0 -14 8 122.09 6.04
0 14 8 122.63 5.71
0 -14 9 19.11 2.57
0 -14 9 20.4 2.94
0 14 9 25.49 2.29
0 14 9 19.13 2.16
0 -14 10 345.99 12.34
0 -14 10 358.57 13.04
0 14 10 375.13 11.61
0 15 0 -0.08 0.94
0 -15 0 -0.93 1.41
0 15 1 33.79 2.28
0 -15 1 37.32 3.23
0 15 -1 32.57 2.13
0 15 2 150.32 5.54
0 -15 2 142.2 6.52
0 15 -2 139.58 5.11
0 -15 3 253.72 9.23
0 15 3 254.26 8.01
-1 0 28 716.83 20.29
-1 0 28 668.79 20.53
-1 0 27 2.14 1.49
-1 0 27 -0.79 1.54
-1 0 26 282.67 11.22
-1 0 26 307.78 11.27
-1 0 26 274.91 11.24
-1 0 25 0.21 1.65
-1 0 25 -0.88 2.06
-1 0 25 0.82 1.86
-1 0 24 72.91 5.7
-1 0 24 88.61 5.97
-1 0 24 83.62 5.76
-1 0 23 0.74 1.86
-1 0 23 0.24 1.9
-1 0 23 -0.76 2.22
-1 0 22 593.98 20.75
-1 0 22 617.93 20.94
1 0 -22 635.07 20.34
-1 0 21 4.19 2.17
-1 0 21 -1.68 1.86
-1 0 21 -0.49 1.83
1 0 -21 1.96 1.68
-1 0 20 1069.55 31.9
-1 0 20 1029.73 30.02
-1 0 20 1063.31 31.86
-1 0 19 1.25 2.08
-1 0 19 3.1 2.61
-1 0 19 -0.44 2.62
-1 0 19 -1.54 1.88
-1 0 19 3.84 1.51
-1 0 19 2.53 2.2
-1 0 18 64.1 4.58
-1 0 18 59.72 4.18
-1 0 18 57.09 5
-1 0 18 66.17 4.6
-1 0 18 65.62 4.54
-1 0 18 60.69 4.57
-1 0 17 0.8 1.53
-1 0 17 0.21 1.45
-1 0 17 0.36 1.28
-1 0 17 2.56 1.6
-1 0 17 1.73 1.39
-1 0 17 -0.18 1.36
-1 0 16 1369.33 38.16
-1 0 16 1284.22 37.23
-1 0 15 0.17 1.4
-1 0 14 2404.5 64.73
-1 0 13 -0.14 1.1
-1 0 12 5.1 1.4
-1 0 11 1.82 1.19
-1 0 10 1261.74 34.17
-1 0 9 0.74 0.95
-1 0 9 0.31 0.84
-1 0 8 3820.2 98.27
-1 0 7 1.2 0.77
-1 0 6 296.18 8.79
-1 0 5 1.1 0.75
-1 0 4 376.2 10.4
-1 0 3 10.92 0.82
-1 0 2 5531.09 140.24
1 0 -1 4.79 0.37
-1 0 1 0.51 0.22
1 0 0 1.35 0.26
1 0 0 2.68 0.33
1 0 0 2.22 0.17
1 0 1 0.51 0.24
1 0 2 187.27 5.22
1 0 2 181.3 5.2
1 0 3 -0.06 0.44
1 0 3 0.23 0.46
1 0 4 3700.81 94.35
1 0 5 0.78 0.74
1 0 6 55.59 2.53
1 0 7 0.61 0.77
1 0 8 709.43 19.7
1 0 9 0.9 0.89
1 0 10 1692.03 45.87
1 0 10 1782.28 46.21
1 0 11 1.68 0.82
1 0 11 0.1 1.03
1 0 12 60.74 3.41
1 0 12 59.65 3.57
1 0 13 1.14 0.97
1 0 13 3.82 1.3
1 0 14 469.5 15.34
1 0 14 487.15 15.1
1 0 15 0.55 1.04
1 0 15 0.92 1.11
1 0 16 524.46 16.72
1 0 16 495.36 16.37
1 0 16 536.73 16.56
1 0 16 477.06 16.27
1 0 16 509.48 16.7
1 0 17 0.68 1.36
1 0 17 -0.18 1.38
1 0 17 -0.32 1.34
1 0 17 0.63 1.17
1 0 17 1.41 1.61
1 0 17 0.68 1.37
1 0 18 113.26 6.91
1 0 18 115.67 6.69
1 0 18 138.37 6.57
1 0 18 124.17 6.72
1 0 18 126.46 6.7
1 0 19 -0.97 2.31
1 0 19 -0.2 2.11
1 0 19 0.21 1.62
1 0 19 0.56 1.53
1 0 19 2.21 2.67
1 0 20 488.1 16.78
1 0 20 478.15 16.76
1 0 20 497.29 16.59
1 0 20 448.14 16.51
1 0 20 442.91 16.34
1 0 20 464.19 16.62
1 0 21 0.43 2.01
1 0 21 0.69 1.5
-1 0 -21 1.64 1.38
1 0 21 0.9 1.74
1 0 21 0.63 1.66
1 0 21 2.88 1.98
1 0 21 0.21 1.77
1 0 22 11.58 2.37
1 0 22 20.63 2.95
1 0 22 13.79 2.74
1 0 22 12.45 2.67
1 0 22 16.7 2.98
1 0 23 -0.46 1.93
1 0 23 -0.45 1.87
1 0 23 1.3 1.97
1 0 24 0.89 2.18
1 0 24 2.37 1.93
1 0 24 4.6 2.09
1 0 25 -0.2 1.86
1 0 25 -0.39 1.72
1 0 25 0.4 1.79
1 0 26 238.13 9.78
1 0 26 236.67 9.75
1 0 27 1.01 1.55
1 0 27 0.6 1.52
-1 -1 28 33.44 2.74
-1 -1 28 36.38 3.03
-1 1 28 35.78 2.5
-1 -1 28 37.46 2.99
-1 1 28 35.56 2.89
-1 -1 27 142.54 6.95
-1 -1 27 151.78 6.79
-1 1 27 154.13 6.44
-1 -1 27 144.39 6.83
-1 1 27 154.03 6.95
-1 -1 26 134.66 7.03
-1 1 26 140.32 6.99
-1 -1 26 135.18 7.15
-1 1 26 139.91 6.63
-1 -1 26 146.38 7.15
-1 1 26 147.72 7.3
-1 1 25 448.53 15.96
-1 1 25 444.99 15.23
-1 -1 25 402.02 15.46
-1 1 25 441.7 15.59
-1 -1 25 410.34 15.74
-1 -1 25 428.61 15.62
-1 -1 24 31.71 3.84
-1 1 24 27.3 3.4
-1 -1 24 37.2 4.06
-1 1 24 29.58 3.45
-1 -1 23 263.96 12.01
-1 1 23 287.3 12.15
-1 -1 23 299.36 12.4
-1 1 23 269.22 11.59
-1 1 22 65.94 5.15
1 -1 -22 69.56 5.08
-1 1 22 61.68 5.3
-1 1 22 77.93 5.58
-1 -1 22 58.74 5.2
-1 -1 22 62.59 5.28
1 1 -22 69.13 4.93
-1 -1 22 57.12 5.13
-1 1 21 105.48 6.05
1 1 -21 115.01 6.4
-1 1 21 107.47 6.73
-1 1 21 100.14 6.4
-1 1 21 110.64 5.92
-1 1 21 101.54 6.91
-1 -1 21 105.22 6.86
-1 -1 21 100 6.86
-1 -1 20 712.66 23.28
-1 1 20 713.31 23.05
-1 -1 20 684.97 23.45
-1 1 20 698.37 22.76
1 1 -20 704.77 22.43
-1 1 20 664.03 21.94
-1 1 20 673.02 23.39
-1 1 20 688.52 21.68
-1 1 19 622.04 20.4
-1 -1 19 591.21 20.06
1 1 -19 609.39 20
-1 1 19 611.08 19.48
-1 1 19 605.07 19.81
-1 1 19 592.41 19.57
-1 -1 19 550.63 20.51
-1 -1 19 594.29 20.47
-1 1 18 2.33 1.38
-1 -1 18 1.81 2.48
-1 -1 18 3.67 1.48
-1 1 18 3.28 1.6
1 1 -18 2.5 1.92
-1 1 18 9.1 2.06
-1 -1 18 1.67 1.57
-1 1 18 3.63 1.6
-1 1 18 3.67 1.69
-1 1 17 1054.01 30.51
-1 1 17 968.45 30.13
-1 -1 17 1069.58 31.22
-1 -1 17 1042.26 30.72
-1 1 17 1006.96 30.29
-1 1 17 1093.24 30.31
-1 -1 17 1015.5 30.31
-1 1 17 1021.52 29.73
-1 -1 16 831.57 24.28
-1 -1 16 786.2 24.75
-1 1 16 810.94 24.2
-1 -1 16 787.27 24.33
-1 -1 15 106 5.73
-1 -1 14 530.43 17.01
-1 -1 13 1231.08 34.5
-1 -1 12 11.94 1.85
-1 -1 11 1000.78 28.02
-1 -1 10 978.96 27.07
-1 -1 9 244.73 8.39
-1 1 9 272.72 8.42
-1 1 8 126.76 4.72
-1 1 7 631.15 16.72
-1 1 7 567.85 16.75
-1 1 6 107.24 4.18
-1 1 6 127.04 4.23
-1 1 5 1071.71 26.65
-1 1 5 942.91 26.69
-1 1 4 427.88 11.97
-1 1 3 244.42 7.46
1 1 -3 266.33 7.41
-1 1 2 3.73 0.59
-1 1 1 281.3 7.66
1 1 0 2046.32 51.41
-1 1 0 1932.72 51.02
1 -1 0 2049.71 50.97
1 1 0 2129.58 50.96
1 1 0 2072.72 50.96
1 -1 1 2836.72 68.31
1 1 1 2966.38 68.83
1 -1 2 2786.43 71.97
1 -1 2 2867.85 71.95
1 -1 3 201.72 5.84
1 -1 4 99.38 3.38
1 -1 5 257 7.61
1 -1 6 412.8 11.74
1 -1 7 578.24 16.16
1 -1 8 102.02 4.17
1 -1 9 107.28 4.47
1 1 10 186.65 6.69
1 -1 10 197.68 6.81
1 -1 10 195.61 7.01
1 1 11 11.46 1.43
1 -1 11 8.74 1.52
1 -1 11 12.88 1.54
1 -1 12 868 25.4
1 1 12 919.28 25.5
1 -1 12 936.16 25.9
1 1 13 209.16 7.81
1 -1 13 215.57 8.15
1 -1 14 36.49 2.98
1 1 14 39.28 2.86
1 -1 15 44.74 3.44
1 1 15 51.5 3.45
1 1 16 501.91 16.6
1 -1 16 548.26 17.39
1 -1 16 518.65 16.8
1 1 16 512.29 16.74
1 1 16 525.51 16.71
1 1 16 528.75 16.78
1 -1 16 521.91 17.06
1 1 16 511.39 16.22
1 -1 17 136.92 6.9
1 1 17 142.77 6.78
1 1 17 141.67 6.75
1 -1 17 141.85 6.81
1 -1 17 154.19 7.36
1 1 17 146.91 6.73
1 1 17 138.27 6.76
1 1 17 134.12 6.6
1 1 17 131.05 6.29
1 -1 18 531.71 17.91
1 -1 18 560.7 18.56
-1 1 -18 525.37 17.76
1 1 18 474.33 16.98
1 1 18 541.82 17.7
1 1 18 561.01 17.64
1 -1 18 546.86 17.86
1 1 18 554.82 17.96
1 1 18 499.24 16.78
1 -1 19 2.34 2.31
-1 1 -19 8.42 1.84
1 1 19 1.69 2.44
1 -1 19 6.09 3.1
1 1 19 1.87 1.51
1 1 19 1.04 1.64
1 -1 19 3.54 2.12
1 1 19 3.92 2.01
1 1 19 2.21 1.47
1 -1 20 18.09 2.8
1 1 20 29.93 3.3
1 1 20 23.65 3.13
1 1 20 26.82 3.17
1 1 20 28.1 3.24
-1 1 -20 28.07 3.27
1 -1 20 26.33 3.18
1 1 20 23.18 2.67
1 1 20 26.04 3.23
1 -1 21 2.76 2.02
-1 1 -21 2.54 1.54
1 1 21 1.08 1.84
1 1 21 3.11 1.87
1 1 21 2.97 1.56
1 1 21 1.09 1.85
1 -1 21 5.47 1.8
1 1 21 4 2.16
1 -1 22 102.84 6.34
1 1 22 108.51 6.36
1 1 22 102.98 6.39
1 1 22 109.82 6.64
1 1 22 120.01 6.6
1 1 22 97.6 6.33
1 -1 23 83.04 5.53
1 1 23 79.13 5.57
1 -1 23 76.71 5.69
1 1 23 82.04 5.53
1 1 24 98.05 6.02
1 -1 24 91.35 6.02
1 -1 24 87.75 5.75
1 1 24 88.25 5.74
1 1 25 12.14 2.41
1 -1 25 13.76 2.64
1 -1 25 9.59 2.36
1 1 25 9.43 2.37
1 1 26 12.73 2.3
1 1 26 15.78 2.44
1 -1 26 16.4 2.67
1 1 27 5.05 1.71
1 -1 27 3.45 1.79
1 1 27 2.34 1.54
-1 2 28 48.82 3.08
-1 2 28 43.69 3.04
-1 -2 28 41.51 3.09
-1 -2 28 43.02 3.28
-1 -2 28 45.06 3.11
-1 -2 27 6.15 1.83
-1 -2 27 2.71 1.77
-1 2 27 6.39 1.66
-1 2 27 4.53 1.68
-1 -2 27 6.8 1.86
-1 -2 26 184.85 8.34
-1 2 26 190.44 8.28
-1 2 26 184.21 8.11
-1 2 26 187.11 7.48
-1 2 26 176.96 8.13
-1 -2 26 185.86 8.19
-1 -2 26 184.98 8.51
-1 -2 25 11.79 2.54
-1 -2 25 17.61 2.58
-1 2 25 16.97 2.87
-1 2 25 16.01 2.54
-1 2 25 13.47 2.27
-1 2 25 16.14 2.67
-1 -2 25 11.48 2.7
-1 2 24 876.04 27.03
-1 -2 24 827.29 26.8
-1 2 24 855.89 27.14
-1 2 24 925.57 26.47
-1 -2 24 823.2 26.91
-1 -2 24 826.69 27.28
-1 -2 23 70.81 5.57
-1 2 23 80.3 5.6
-1 2 23 77.73 4.71
-1 -2 23 74.22 5.44
-1 2 23 76.72 5.74
-1 2 23 79.74 5.24
-1 2 22 211.71 10.1
-1 2 22 208.76 9.44
-1 2 22 217.1 9.96
1 2 -22 204.71 9.15
-1 -2 22 203.84 9.78
-1 -2 22 185.45 9.84
-1 2 22 195.28 10.01
-1 2 22 211.36 8.96
-1 2 22 228.13 9.05
-1 -2 22 186.93 9.61
-1 -2 21 9.92 2.44
-1 2 21 3.53 2.06
-1 2 21 7.66 2.24
-1 -2 21 6.18 2.25
-1 2 21 7 2.02
-1 2 21 9.34 2.24
-1 2 21 6.59 2.21
1 2 -21 7.74 1.95
-1 -2 20 194.53 9.72
-1 2 20 195.72 8.69
1 2 -20 208.81 9.06
-1 2 20 189.05 8.95
-1 2 20 190.89 9.69
-1 2 20 195.84 8.73
-1 2 20 186.8 8.47
-1 2 20 204.18 9.46
-1 -2 20 208.41 9.54
-1 2 19 47.8 4.38
-1 -2 19 44.76 4.15
-1 2 19 43.23 4
-1 2 19 37.04 3.87
-1 2 19 36.6 3.62
1 2 -19 49.56 4.02
-1 2 19 46.72 3.98
-1 2 19 40.41 3.75
-1 -2 19 43.74 4.11
-1 2 19 48.24 4.21
-1 -2 19 42.87 4.22
-1 -2 18 1888.78 50.83
-1 2 18 1790.09 50.72
-1 2 18 1618.22 49.12
-1 2 18 1819.39 49.85
1 2 -18 1836.46 49.8
-1 2 18 1796.56 49.32
-1 2 18 1769.4 48.74
-1 -2 18 1835.77 49.85
-1 2 18 1769.13 49.35
-1 -2 18 1696.4 50.01
-1 2 17 207.57 8.23
-1 2 17 193.25 8.52
-1 -2 17 196.95 8.95
-1 2 17 201.64 9.23
-1 -2 17 205.65 9.24
1 2 -17 217.63 8.95
-1 2 17 217.04 8.75
-1 2 17 228.23 9.08
-1 2 17 215.97 8.77
-1 -2 17 201.97 8.72
1 2 -16 307.71 11.29
-1 2 16 302.04 11.1
-1 -2 16 306.27 11.62
-1 2 16 291.38 10.78
-1 2 16 279.84 10.79
-1 -2 16 292.69 11.21
-1 2 16 309.25 11.72
-1 -2 16 290.29 10.87
1 2 -15 96.19 5.21
-1 -2 15 91.86 5.33
-1 2 15 89.22 5.23
-1 2 14 289.59 10.72
-1 -2 14 297.71 10.81
1 2 -14 291.83 10.64
-1 -2 13 597.39 18.45
1 2 -13 600.75 18.41
-1 2 13 605.76 18.58
-1 2 12 2740.64 71.25
1 2 -12 2694.4 71.26
-1 -2 12 2648.87 71.14
1 2 -11 270.95 9.61
-1 -2 11 270.68 9.47
-1 2 11 288.04 9.53
-1 -2 10 651.39 19.4
-1 2 10 712.77 19.55
1 2 -10 667.31 19.74
1 2 -9 157 6.03
-1 2 9 154.95 5.66
-1 -2 9 151.02 5.74
1 2 -8 0.61 0.94
-1 2 8 0.07 0.85
-1 -2 8 0.22 0.83
-1 -2 8 1.02 0.74
-1 2 8 1.01 0.78
1 2 -7 818.74 24.13
-1 -2 7 853.18 23.67
1 2 -6 3422.92 92.01
-1 -2 6 3527.39 91.65
-1 2 5 426.89 11.5
1 2 -5 401.02 11.8
-1 -2 5 400.1 11.46
-1 2 4 1908.46 47.74
1 2 -4 1950.81 48.06
1 2 -3 700.96 17.19
-1 2 3 609.89 16.63
1 2 -2 73.8 2.64
1 2 -1 621.36 16.73
1 -2 -1 629.41 16.77
1 2 0 2256.67 51.57
1 2 0 2308.34 51.92
1 2 1 502 12.92
1 2 1 499.8 12.74
-1 2 -1 459.33 12.83
1 -2 1 472.99 12.92
1 -2 1 495.53 12.91
1 -2 2 61.29 2.17
1 -2 2 66.86 2.24
1 2 2 68.72 2.21
-1 2 -2 62.89 2.1
1 -2 3 2500.41 65.44
1 2 3 2591.36 65.43
1 2 3 2572.82 66.07
-1 2 -3 2590.31 65.34
1 2 4 25.85 1.4
-1 2 -4 27.92 1.38
1 -2 4 25.85 1.42
1 2 5 1492.09 37.25
-1 2 -5 1431.24 37.23
1 -2 5 1370.41 37.19
1 2 6 185.89 5.76
-1 2 -6 176.36 5.82
1 -2 6 175.07 5.74
1 -2 7 31.61 1.91
1 2 7 31.09 1.87
1 2 8 1033.05 27.31
1 -2 8 987.73 27.32
1 -2 9 1669.28 43.49
1 2 9 1732.7 43.44
1 2 10 427.85 13.02
1 2 10 445.23 13.28
1 -2 10 412.48 13.01
1 2 11 91.99 4.05
1 -2 11 84.68 3.98
1 2 11 79.16 4.05
1 -2 11 80.19 4.08
1 -2 12 2.32 0.94
1 -2 12 3.42 1.12
1 2 12 2.62 1.22
1 2 12 2.85 1.1
1 2 13 31.81 2.62
1 -2 13 30.97 2.53
1 -2 13 31.6 2.67
1 2 13 31.06 2.48
1 -2 14 430.32 14.13
1 -2 14 434.22 13.84
-1 2 -14 430.92 14.21
1 2 14 431.24 13.74
1 2 14 417.07 13.99
1 -2 15 333.57 11.45
1 2 15 343.82 11.44
1 2 15 321.16 11.61
-1 2 -15 339.5 11.83
1 -2 15 314 11.6
1 2 15 317.24 11.22
1 -2 15 319.4 11.48
1 -2 16 171.39 7.31
1 2 16 163.81 7.12
1 -2 16 163.29 7.34
1 2 16 165.92 7.16
1 2 16 155 6.78
1 -2 16 170.87 7.38
-1 2 -16 156.43 7.37
1 2 16 156.42 6.89
1 2 16 163.74 7.22
1 2 16 179.88 7.35
1 2 16 162 7.35
1 -2 16 171.51 7.52
1 2 17 1.11 1.43
1 2 17 1.01 1.26
1 2 17 0.96 1.34
-1 2 -17 4.42 1.57
1 -2 17 1.19 1.34
1 2 17 3.21 1.49
1 -2 17 1.31 1.37
1 -2 17 0.35 1.36
1 -2 17 2.36 1.73
1 2 17 0.15 1.18
1 2 17 1.78 1.26
1 2 17 0.71 1.46
1 2 17 1.03 1.34
1 2 18 139.16 6.89
1 -2 18 139.79 7.3
1 -2 18 144.67 7.3
1 2 18 150.06 7.23
1 2 18 141.11 7.16
1 2 18 135.15 6.56
1 -2 18 141.04 7.19
1 -2 18 149.37 7.48
-1 2 -18 159.22 7.53
1 2 18 148.97 7.04
1 -2 18 157.98 7.27
1 2 18 140.58 7.14
1 2 18 143.42 7.15
1 -2 19 180.61 8.3
1 2 19 176.78 8.38
1 -2 19 175.47 8.41
1 -2 19 164.8 8.15
1 -2 19 169.76 7.99
1 2 19 177.65 8.08
1 2 19 174.9 7.67
1 2 19 179.22 8.11
1 2 19 173.2 8.13
-1 2 -19 169.12 7.97
1 -2 19 174.06 8.46
1 2 19 165.32 7.74
1 2 19 176.28 8.23
1 -2 20 77.68 5.31
1 -2 20 87.21 5.79
1 2 20 83.01 5.25
1 2 20 84.02 5.45
1 2 20 72.13 4.75
1 2 20 79.02 5.29
1 -2 20 72.64 5.19
1 2 20 75.36 4.9
1 -2 20 82.76 5.58
1 2 20 86.61 5.58
-1 2 -20 84.55 5.29
1 2 20 88.34 5.44
1 -2 20 88.12 5.47
1 2 20 82.78 5.3
1 -2 21 147.42 7.99
1 2 21 180.88 8.36
1 -2 21 163.34 8.13
1 2 21 181.86 8.46
1 -2 21 175.31 8.24
1 2 21 178.33 8.34
1 2 21 166.49 8.16
1 -2 21 156.52 8.29
1 -2 21 177.04 8.66
1 2 21 155.37 8.13
1 2 21 162.7 7.36
1 2 21 175.05 8.09
1 2 22 111.08 5.74
1 -2 22 109.1 6.78
1 -2 22 124.76 6.73
1 2 22 118.86 6.71
1 -2 22 107.45 6.47
1 2 22 113.59 6.59
1 2 22 132.9 7.04
1 2 22 125.72 6.64
1 -2 22 113.32 6.88
1 2 22 127.94 6.78
1 2 23 6.28 2.41
1 2 23 6.99 2.29
1 -2 23 10.32 2.42
1 -2 23 9.53 2.78
1 2 23 6.61 2.25
1 2 23 7.41 2.31
1 -2 23 8.73 2.7
1 2 24 100.58 6.06
1 2 24 103.63 6.07
1 2 24 109.39 6.14
1 -2 24 98.18 6.02
1 -2 24 107.03 6.42
1 2 25 6.42 1.97
1 -2 25 8.77 2.25
1 -2 25 12.12 2.59
1 2 25 7.88 2.01
1 2 25 6.28 2.2
1 2 26 18.9 2.36
1 -2 26 23.67 3.01
1 2 26 23.71 2.68
1 2 27 29.15 2.67
1 -2 27 31.15 3.03
-1 -3 28 11.41 1.91
-1 3 27 485.73 15.11
-1 -3 27 480.91 15.34
-1 -3 27 505.67 15.82
-1 3 27 478.05 15.15
-1 -3 27 474.99 15.65
-1 3 26 5.7 1.82
-1 -3 26 5.01 1.96
-1 -3 26 8.52 2.08
-1 -3 26 5.17 1.9
-1 3 26 8.44 1.86
-1 -3 25 45.48 4.21
-1 3 25 48.88 3.93
-1 -3 25 48.52 4.25
-1 -3 25 45.5 4
-1 -3 25 46.02 3.91
-1 3 25 48.31 3.99
-1 3 25 44.31 3.84
-1 3 24 2.45 1.62
-1 -3 24 -0.94 2.09
-1 -3 24 -0.21 2.17
-1 3 24 0.42 1.86
-1 -3 24 -0.21 1.61
-1 3 24 0.46 1.39
-1 3 24 1.17 1.52
-1 -3 24 -0.69 2.3
-1 -3 23 163.98 8.83
-1 3 23 170.83 7.64
-1 3 23 172.77 7.68
-1 -3 23 171.75 8.83
-1 -3 23 160.3 8.2
-1 3 23 170.49 8.39
-1 3 23 179.5 7.73
-1 -3 23 164.53 8.47
-1 3 23 162.23 8.4
-1 3 22 12.96 2.72
-1 3 22 16.31 2.57
-1 3 22 16.43 2.82
-1 -3 22 16.09 3.17
-1 3 22 20.15 2.65
-1 -3 22 16.77 2.87
-1 -3 22 14.54 2.91
-1 3 22 13.99 2.34
-1 3 21 1098.61 31.94
-1 3 21 1087.33 33
-1 -3 21 1077.38 33.5
-1 3 21 1049.65 31.71
-1 -3 21 1080.43 32.75
-1 3 21 1051.24 31.29
1 3 -21 1144.88 32.45
-1 3 21 1153.98 33.15
-1 -3 21 1071.91 32.89
-1 3 21 1039.88 31.66
-1 -3 21 1033.58 33.13
-1 3 21 1101.83 33.53
1 3 -20 42.65 3.83
-1 -3 20 42.66 4.48
-1 3 20 38.07 3.54
-1 3 20 32.68 3.85
-1 -3 20 31.2 3.74
-1 3 20 35.58 3.43
-1 3 20 36.87 3.86
-1 3 20 40.61 3.74
-1 -3 20 37.47 3.86
-1 3 20 41.35 3.45
1 3 -19 97.59 5.71
-1 3 19 86.3 5.04
-1 -3 19 90.29 5.8
-1 3 19 87 5.51
-1 -3 19 89.17 6.21
-1 3 19 89.64 5.33
-1 3 19 99.72 5.98
-1 3 19 83.24 5.38
-1 -3 19 88.37 5.97
-1 3 19 94.49 6.17
-1 3 18 37.09 3.9
-1 3 18 39.82 3.28
-1 -3 18 45.41 4.35
-1 -3 18 39.62 3.69
1 3 -18 48.07 4.06
-1 3 18 35.78 3.31
-1 -3 18 44.4 4.3
-1 3 18 42.12 4.1
-1 3 18 40.82 3.69
-1 3 18 38.26 3.97
-1 -3 18 45.53 4.68
-1 3 18 41.24 3.97
-1 3 17 118.8 6.17
-1 -3 17 125.28 6.73
1 3 -17 130.59 6.55
-1 3 17 122.26 6.22
-1 3 17 130.71 6.82
-1 -3 17 117.36 6.48
-1 3 17 117.13 5.94
-1 3 17 124.51 6.19
-1 3 17 112.51 5.53
-1 -3 17 119.8 6.18
-1 3 17 118.42 6.18
-1 3 16 159.5 6.69
-1 3 16 157.54 7.08
-1 -3 16 163.87 7.25
-1 3 16 178.42 7.86
-1 -3 16 170.81 7.77
-1 3 16 151.83 7.22
-1 3 16 157.74 7.24
-1 3 16 171 7.42
-1 -3 16 174.14 7.81
1 3 -16 167.05 7.59
-1 -3 15 2150.87 59.17
-1 -3 15 2113.85 59.01
-1 3 15 2250.47 59.37
1 3 -15 2198.47 59.17
-1 -3 14 17.44 2.2
1 3 -14 17.27 2.13
-1 3 14 11.23 1.85
-1 3 13 112.69 5.56
1 3 -13 119.92 5.68
-1 -3 13 117.42 5.61
-1 3 12 16.32 2.02
1 3 -12 11.73 1.84
-1 -3 12 13.89 1.89
-1 -3 11 8.76 1.53
-1 3 11 7.21 1.42
-1 -3 10 231.69 8.24
1 3 -10 231.55 8.49
-1 3 10 248.17 8.3
-1 3 9 4553.51 113.8
-1 3 9 4278.51 114.16
-1 -3 9 4369.65 113.76
1 3 -9 4465.6 114.31
-1 3 8 166.26 6.44
1 3 -8 167.52 6.43
-1 -3 8 163.94 5.99
-1 3 7 559.41 15.04
-1 -3 7 518.3 14.99
-1 3 7 551.83 15.13
-1 -3 7 509.91 15.08
-1 3 7 540.43 15.72
1 3 -7 543.21 15.67
1 3 -6 4.98 1.1
-1 3 6 5.95 0.88
-1 3 6 5.95 0.89
-1 -3 6 7.53 0.93
-1 3 5 97.53 3.96
-1 3 5 90.66 3.27
1 3 -5 93.78 3.7
-1 -3 5 87.68 3.27
-1 3 5 93 3.07
-1 3 4 552.82 15.63
-1 3 4 623.57 15.74
-1 3 4 617.74 16.51
1 3 -4 597.76 16.14
-1 -3 4 561.81 15.68
1 3 -3 2527.93 64.26
-1 3 3 2536.73 64.44
-1 3 3 2446.11 63.7
-1 -3 3 2509.4 63.75
-1 3 2 18 1.28
1 3 -2 14.73 1.13
1 -3 -1 1461.73 37.97
1 3 -1 1531.11 37.98
-1 3 1 1512.76 38.64
1 -3 -1 1435.37 37.95
1 3 -1 1468.19 38.01
1 3 -1 1491.82 37.95
1 -3 0 13.03 0.64
-1 3 0 13.48 1.08
1 3 0 12.88 0.75
-1 3 -1 456.99 11.97
1 3 1 434.71 11.51
1 -3 1 415.98 11.37
1 3 1 440.72 11.38
-1 3 -2 399.75 10.84
1 -3 2 394.25 10.67
1 3 2 409.29 10.7
1 3 2 398.79 10.73
1 3 2 435.03 12.01
1 3 3 1949.88 49.72
-1 3 -3 1790.22 48.67
1 -3 3 1871.67 48.59
1 3 3 2015.04 48.64
1 3 3 1892.45 48.6
1 3 4 65.36 3.01
1 -3 4 63.18 2.42
1 3 4 65.57 2.42
-1 3 -4 68.46 2.5
-1 3 -5 1883.1 49.32
1 -3 5 1797.42 49.25
1 -3 6 279.91 8.52
-1 3 -6 285.41 8.57
1 3 6 300.71 8.54
-1 3 -7 356.07 10.55
1 3 7 375.14 10.5
1 -3 7 341.67 10.45
1 -3 8 54.81 2.71
-1 3 -8 45.51 2.61
1 3 8 50.88 2.61
1 -3 9 262.06 8.53
1 3 9 274.91 8.54
1 -3 9 263.68 8.79
-1 3 -9 266.42 8.78
1 3 9 285.62 8.8
1 3 10 102.31 4.31
-1 3 -10 107.86 4.65
1 -3 10 107.05 4.61
1 -3 10 105.28 4.44
1 3 10 109.64 4.54
1 -3 11 1127.73 30.58
1 3 11 1143.98 30.5
-1 3 -11 1098.64 30.8
1 -3 11 1092.2 30.77
1 3 11 1103.15 30.63
1 -3 12 43.57 2.99
1 3 12 42.15 2.71
-1 3 -12 43.73 2.93
1 -3 12 42.45 2.8
1 3 12 39.87 2.86
1 3 13 27.73 2.49
1 -3 13 23.09 2.26
-1 3 -13 25.5 2.43
1 -3 13 26.96 2.47
1 3 13 26.41 2.28
1 3 14 72.4 4.18
1 -3 14 74.99 4.16
-1 3 -14 74.82 4.32
1 3 14 73.79 4.06
1 -3 14 76.43 4.35
1 3 15 37.8 3.09
1 -3 15 31.25 2.86
1 3 15 37.94 3.03
1 3 15 36.16 2.93
1 -3 15 36.04 2.94
1 -3 15 32.09 2.95
1 -3 15 35.82 3.09
1 3 15 40.24 2.97
1 3 15 35.91 2.77
1 -3 16 96.97 5.31
1 3 16 92.15 5.01
-1 3 -16 91.3 5.12
1 -3 16 87.66 5.05
1 -3 16 92.37 5.06
1 -3 16 84.46 5.09
1 3 16 85.88 4.79
1 3 16 82.93 4.98
1 -3 16 96.5 5.06
1 3 16 91.67 4.91
1 3 16 82.62 4.94
1 3 16 94.86 4.95
1 3 16 80.59 4.58
1 3 16 89.07 5
1 -3 17 441.22 15.05
1 3 17 446.84 15.37
1 -3 17 438.89 15.54
1 3 17 462.41 15.4
-1 3 -17 490.26 15.58
1 -3 17 423.45 15.34
1 3 17 478.95 15.21
1 -3 17 421.38 15.34
1 3 17 433.93 14.85
1 3 17 426.49 14.76
1 3 17 440.8 15.1
1 -3 17 470.56 15.36
1 3 17 424.93 14.59
1 3 17 458.76 15.16
1 3 17 462.88 15.04
1 -3 18 7.76 2.25
1 3 18 6.47 1.84
-1 3 -18 5.49 2.23
1 -3 18 7.81 1.8
1 3 18 7.63 2.22
1 -3 18 10.45 2.32
1 3 18 7.42 1.93
1 3 18 3.24 1.83
1 3 18 2.88 1.94
1 3 18 7.8 2.2
1 -3 18 7.46 1.93
1 3 18 8.26 2.05
1 -3 18 6.24 2.33
1 3 19 34.65 3.28
1 -3 19 30.98 3.6
1 3 19 33.06 3.18
1 -3 19 31.93 3.19
1 -3 19 24.23 3.1
1 3 19 29.68 3.23
1 3 19 30.09 3.44
1 3 19 27.34 3.29
1 3 19 27.5 3.21
1 -3 19 35.33 3.55
1 3 19 31.07 3.36
-1 3 -19 28.42 3.1
1 -3 19 32.06 3.56
1 -3 20 2.89 1.66
1 -3 20 3.91 1.95
1 3 20 5.2 1.87
1 -3 20 3.51 2.23
1 -3 20 1.26 1.64
1 3 20 3.02 1.72
1 3 20 4.01 1.76
1 3 20 3.75 1.69
1 3 20 5.91 2.05
1 3 20 2.52 1.67
1 3 20 5.98 1.87
1 -3 20 3.48 2.13
1 3 20 1.96 1.81
1 -3 21 83.88 5.71
1 3 21 103.28 6.04
1 -3 21 96.16 5.82
1 3 21 103.98 5.92
1 3 21 92.43 5.91
1 3 21 99.47 5.61
1 3 21 94.96 5.71
1 -3 21 102.84 5.93
1 -3 21 102.23 6.25
1 -3 21 92.65 6.07
1 3 21 96.89 5.73
1 3 21 92.95 5.36
1 3 21 92.12 5.32
1 3 22 30.11 3.3
1 3 22 28.7 3.12
1 3 22 25.26 3.07
1 -3 22 28.03 3.23
1 3 22 30.39 3.43
1 3 22 25.9 2.75
1 -3 22 28.73 3.66
1 -3 22 28.86 3.51
1 3 23 154.39 6.82
1 -3 23 167.09 7.92
1 3 23 146.08 7.3
1 3 23 160.9 7.85
1 -3 23 155.99 8.1
1 3 23 166.68 7.71
1 -3 23 153.02 8.17
1 3 23 159.17 7.43
1 3 24 2.05 1.84
1 -3 24 1.03 1.88
1 3 24 1.99 1.61
1 -3 24 2.76 1.87
1 -3 24 1.07 2.06
1 3 24 1.4 1.77
1 -3 25 102.86 6.01
1 3 25 99.91 5.37
1 -3 25 104.73 6.14
1 -3 26 1.53 1.76
1 -3 26 -1.17 1.72
1 3 26 0.26 1.22
1 -3 27 122.11 5.89
-1 -4 27 40.66 3.23
-1 -4 27 40.67 3.16
-1 -4 26 227.75 9.06
-1 -4 26 218.52 8.56
-1 -4 26 223.43 9.21
-1 4 26 228.4 8.47
-1 -4 25 77.89 4.76
-1 -4 25 75.68 5.04
-1 4 25 80.34 4.68
-1 -4 25 77.25 5.24
-1 4 25 81.77 4.73
-1 -4 24 214.89 9.76
-1 4 24 196.74 8.8
-1 -4 24 204.1 9.4
-1 4 24 216.54 8.96
-1 -4 24 208.26 8.96
-1 4 24 193.16 8.17
-1 4 24 224.5 8.47
-1 -4 24 206.36 9.08
-1 4 24 212.15 8.98
-1 4 23 152.39 7.46
-1 4 23 157.16 7.64
-1 4 23 159.26 7.14
-1 4 23 157.07 7.07
-1 -4 23 134.12 7.35
-1 -4 23 155.57 8.32
-1 -4 23 150.43 7.95
-1 -4 23 141.54 7.34
-1 4 22 351.9 12.85
-1 -4 22 341.3 14.08
-1 4 22 373.05 12.92
-1 4 22 352.64 13.28
-1 -4 22 349.75 13.89
-1 -4 22 348.91 13.3
-1 4 22 343.97 13.35
-1 -4 22 339.17 13.35
-1 4 21 0.6 1.43
-1 -4 21 2.85 1.58
1 4 -21 1.94 1.48
-1 4 21 3.04 1.62
-1 4 21 6.27 1.8
-1 -4 21 6.3 1.88
-1 -4 21 1.79 2.09
-1 4 21 2.05 1.6
-1 -4 21 0.87 1.9
-1 4 21 1.08 1.85
-1 4 21 1.27 1.57
-1 -4 21 2.62 2.11
-1 4 20 400.05 13.73
1 4 -20 415.2 14.75
-1 4 20 433.93 14.69
-1 -4 20 412.22 15.78
-1 -4 20 399 14.79
-1 4 20 407.21 14.59
-1 4 20 409.25 15.38
-1 -4 20 402.78 15.34
-1 4 20 416.56 15.1
-1 4 20 434.99 15.14
-1 -4 20 383.3 14.82
-1 -4 19 324 12.44
1 4 -19 322.48 12.41
-1 4 19 332.88 12.3
-1 -4 19 311.28 12.81
-1 4 19 344.79 12.68
-1 4 19 319.11 11.54
-1 4 19 325.91 12.25
-1 4 19 319.26 12.86
-1 -4 19 330.67 13.27
1 4 -18 628.23 20.43
-1 -4 18 624.98 20.99
-1 4 18 650.03 20.41
-1 4 18 619.71 19.32
-1 4 18 649.5 20.37
-1 4 18 632.56 20.18
-1 4 18 654.27 20.98
-1 -4 18 609.46 20.74
-1 -4 18 624.09 20.26
-1 4 18 603.3 19.94
-1 4 17 315.9 12.11
-1 -4 17 317.13 12.5
-1 -4 17 331.94 12.01
-1 4 17 344.13 12.66
1 4 -17 332.29 12.51
-1 4 17 326.41 11.26
-1 4 17 314.93 12.03
-1 4 17 327.59 12
-1 4 17 353.66 12.31
-1 -4 17 313.58 12.59
-1 -4 17 321.38 12.04
-1 4 16 740.42 21.8
-1 -4 16 700.74 22.17
-1 -4 16 696.44 21.43
-1 4 16 699.5 21.46
1 4 -16 740.77 22.24
-1 4 16 651.74 21.56
-1 4 16 680.79 21.38
-1 -4 16 725.2 21.74
-1 4 16 674.54 20.65
-1 4 16 718.34 22.15
-1 -4 16 736.95 22.26
-1 -4 15 1.02 1.27
1 4 -15 0.86 1.31
-1 4 15 0.43 1.14
-1 -4 15 0.66 1.22
-1 4 15 2.05 1.21
-1 4 15 1.29 1.21
1 4 -14 348.78 12.46
-1 -4 14 341.92 12.11
-1 4 14 355.01 12.2
1 4 -13 1160.11 33.79
-1 4 13 1206.67 33.35
-1 -4 13 1194.04 33.43
1 4 -12 907.62 26.41
-1 4 12 947.85 25.94
-1 -4 12 862.34 25.79
-1 4 11 296.66 9.9
-1 -4 11 306.61 10.02
1 4 -11 278.25 10.31
-1 4 10 1199.25 31.65
1 4 -10 1134.19 32.22
-1 4 10 1171.43 32.42
-1 -4 10 1122.2 31.61
-1 4 9 316.22 10.51
1 4 -9 312.51 10.41
-1 4 9 300.54 9.68
-1 -4 9 312.1 9.87
-1 4 8 847 23.76
-1 -4 8 821.78 22.95
1 4 -8 838.05 23.57
-1 4 8 837.62 22.89
-1 4 7 2498.58 66.54
1 4 -7 2468.9 66.24
-1 4 7 2617.54 65.61
-1 -4 7 2520.73 65.65
-1 4 6 424.59 12.15
-1 4 6 453.31 13.24
1 4 -6 446.33 12.9
-1 -4 6 421.81 12.22
-1 4 5 43.27 2.13
-1 -4 5 50.95 2.2
-1 4 5 48.68 2.82
1 4 -5 50.76 2.62
-1 4 4 375.09 10.59
-1 -4 4 348.8 10.08
1 4 -4 376.07 10.89
-1 -4 4 377.23 10.2
-1 4 4 371.49 10.09
-1 4 4 372.08 11.15
-1 4 3 564.24 15.18
-1 -4 3 529.87 14.06
1 4 -3 555.92 14.91
-1 4 3 552.91 14.05
1 4 -2 473.77 12.32
1 4 -2 532.16 13.41
1 4 -2 505.89 12.71
1 -4 -2 476.85 12.34
-1 -4 2 499.01 12.38
1 4 -2 463.59 12.28
-1 4 2 527.91 13.52
1 -4 -2 454.66 12.28
-1 4 2 433.58 12.29
-1 -4 1 1285.55 30.95
1 4 -1 1316.79 31.44
-1 4 1 1423.09 32.23
1 -4 -1 1173.55 30.86
-1 4 1 1149.9 30.89
-1 4 0 431.45 11.74
1 4 0 406.38 11.3
-1 4 -1 5.49 0.86
1 4 1 4.26 1.25
1 4 1 4.94 0.68
1 4 2 5.4 0.67
-1 4 -2 6.4 0.89
1 4 2 4.94 1.26
1 4 3 968.37 25.37
1 -4 3 967.71 25.36
-1 4 -3 959.8 25.75
1 4 3 975.95 25.63
-1 4 -3 1005.69 26.19
1 4 4 153.16 4.4
1 -4 4 132.49 4.29
1 4 4 149.86 5.45
1 4 4 139.41 4.47
-1 4 -4 136.44 4.59
1 4 5 1363.69 34.62
1 4 5 1347.03 33.48
-1 4 -5 1238.17 33.7
1 -4 5 1226.41 33.42
-1 4 -6 369.85 10.91
1 -4 6 358.09 10.68
1 4 7 369.98 10.61
1 -4 7 354.4 10.63
-1 4 -7 370.83 10.82
1 4 8 11.33 1.22
1 -4 8 13.09 1.3
-1 4 -8 9.74 1.25
1 -4 9 1450.83 37.98
-1 4 -9 1401.96 37.94
1 4 9 1512.21 37.92
1 4 9 1439.97 37.65
1 -4 10 25.78 1.89
1 4 10 29.97 2.09
1 4 10 30.56 2
-1 4 -10 30.01 2.2
1 -4 11 499.8 15.54
1 -4 11 526.64 15.42
1 4 11 534.9 15.51
-1 4 -11 501.85 15.55
1 4 11 519.12 15.22
1 -4 12 3.38 1.15
1 4 12 3.03 1.07
-1 4 -12 1.52 1.02
1 4 13 568.56 17.32
1 -4 13 555.24 17.37
-1 4 -13 567.01 17.44
1 4 13 586.87 17.14
1 -4 13 565.13 17.18
1 -4 14 1.67 1.08
-1 4 -14 1.4 1.04
1 -4 14 2.14 1.43
1 4 14 1.33 1.01
1 4 14 1.26 1.05
1 -4 14 0.84 0.99
1 4 14 1.33 1.09
1 -4 14 3.06 1.34
1 4 14 5.67 1.2
1 4 14 4.02 1.22
1 -4 15 582.69 17.54
1 4 15 555.49 17.26
-1 4 -15 572.77 17.75
1 4 15 548.38 17.27
1 -4 15 560.87 17.72
1 4 15 566.89 17.58
1 4 15 569.01 17.53
1 -4 15 567.04 18.01
1 4 15 527.04 17.46
1 -4 15 531.56 17.68
1 4 15 536.29 17.26
1 4 15 575.35 17.37
1 -4 15 568.51 17.6
1 4 16 10.35 2
1 -4 16 11.85 2.01
1 -4 16 12.35 1.99
1 4 16 13.54 2.09
1 4 16 13.45 2.16
1 4 16 12.89 1.93
1 -4 16 14.68 2.1
1 4 16 12.32 1.88
1 4 16 11.58 1.85
1 -4 16 13.04 2.15
-1 4 -16 13.29 2.08
1 4 16 12.07 2.13
1 4 16 10.71 1.84
1 -4 16 12.94 2.34
1 4 16 10.16 1.96
1 4 17 98.03 5.62
-1 4 -17 102.89 5.59
1 4 17 101.38 5.65
1 -4 17 106.86 6.05
1 4 17 93.31 5.41
1 -4 17 93.31 5.5
1 4 17 91.9 5.33
1 -4 17 97.11 5.76
1 4 17 91.29 5.18
1 4 17 105.31 5.48
1 4 17 99.95 5.53
1 -4 17 109.87 5.62
1 -4 17 84.63 5.45
1 4 17 110.66 5.49
1 4 18 8.69 1.94
1 4 18 9.69 2.26
1 4 18 14.45 2.43
1 -4 18 10.64 2.56
1 4 18 13.22 2.03
1 4 18 9.4 2.2
1 -4 18 11.36 2.61
1 -4 18 11.98 2.17
1 -4 18 10.21 2.07
1 4 18 11.58 2.38
1 4 18 10.34 1.95
1 -4 18 9.63 2.37
1 4 18 8.49 2.29
1 4 19 239.15 9.44
1 -4 19 199.59 9.24
1 -4 19 216.26 9.27
1 -4 19 219.43 9.74
1 4 19 219.37 9.44
1 4 19 224.15 9.19
1 4 19 228.98 9.23
1 4 19 210.74 9.12
1 4 19 232.15 9.41
1 4 19 232.21 9.16
1 -4 19 231.76 9.91
1 -4 19 239.86 9.53
1 4 19 213.82 9.07
1 4 20 0.35 1.34
1 4 20 1.97 1.68
1 -4 20 0.8 1.42
1 4 20 1.58 1.33
1 4 20 0.7 1.43
1 -4 20 3.83 2
1 4 20 0.55 1.49
1 -4 20 1.95 1.77
1 -4 20 1.67 1.77
1 4 20 1.9 1.62
1 4 20 -0.17 1.41
1 4 21 55.8 4.18
1 4 21 43.54 3.68
1 -4 21 47.34 3.93
1 4 21 42.44 3.63
1 4 21 46.33 3.79
1 4 21 49.05 3.8
1 4 21 49.65 3.78
1 -4 21 52.81 4.5
1 -4 21 50.72 4.38
1 4 22 1.43 1.71
1 -4 22 5.34 2.19
1 -4 22 4.04 1.87
1 4 22 2.49 1.53
1 4 22 1.21 1.32
1 -4 22 4.4 2.12
1 4 22 4.24 1.85
1 4 22 0.8 1.52
1 4 22 1.19 1.4
1 4 23 6.72 1.94
1 -4 23 7.26 2.37
1 4 23 6.75 1.88
1 -4 23 4.33 2.18
1 -4 23 5.47 1.92
1 4 23 5.24 1.78
1 4 23 6.89 1.74
1 -4 24 14.25 2.68
1 -4 24 14.52 2.62
1 -4 25 211.84 9.07
1 -4 25 220.11 9.26
1 -4 26 32.69 3.11
-1 -5 26 20.12 2.57
-1 -5 26 18.51 2.3
-1 -5 25 558.54 18.15
-1 -5 25 540.57 16.95
-1 5 25 540.01 16.68
-1 -5 25 572.21 17.81
-1 -5 24 -1.64 1.93
-1 -5 24 0.37 1.69
-1 5 24 3.38 1.45
-1 5 24 1.12 1.43
-1 5 24 0.14 1.39
-1 -5 24 1.69 1.52
-1 -5 23 374.45 13.76
-1 5 23 396.87 13.71
-1 5 23 399.83 13.74
-1 -5 23 400.21 15.07
-1 -5 23 383.01 14.42
-1 5 23 421.71 13.68
-1 5 23 408.07 13.79
-1 -5 22 43.55 3.86
-1 5 22 43.67 3.69
-1 5 22 53.46 3.85
-1 5 22 45.3 3.8
-1 5 22 45.8 3.75
-1 -5 22 46.13 3.86
-1 -5 22 47.23 4.57
-1 -5 22 48.22 4.29
-1 -5 21 1.36 1.85
-1 -5 21 3.38 1.71
-1 5 21 2.42 1.68
-1 -5 21 3.55 1.94
-1 5 21 2.69 1.46
-1 -5 21 1.96 2.08
-1 5 21 1.99 1.44
-1 5 21 3.31 1.84
-1 5 21 4.71 1.73
-1 -5 20 6.6 1.84
-1 -5 20 6.55 2.52
-1 -5 20 7.22 1.98
-1 5 20 6.12 1.91
-1 5 20 6.03 1.87
-1 5 20 7.29 1.73
-1 5 20 5.64 1.81
-1 -5 20 4.22 2.13
1 5 -20 5.96 1.87
-1 5 20 6.76 1.91
-1 5 20 10.13 2.14
-1 5 19 1111.87 31.58
-1 5 19 1114.5 31.39
-1 -5 19 1060.46 31.86
-1 -5 19 995.66 31.37
-1 -5 19 1083.11 31.42
-1 5 19 1053.37 31
-1 -5 19 1083.32 32.4
1 5 -19 1103.1 31.7
-1 -5 19 1007.9 30.91
-1 5 19 1039.05 31.07
-1 5 19 992.99 31.23
-1 5 19 1019.55 29.9
-1 5 19 1070.54 31.24
-1 5 18 14.08 2.12
-1 -5 18 10.18 2.28
-1 5 18 12.84 2.36
-1 -5 18 13.34 2.73
-1 5 18 12.24 2.4
-1 5 18 13.36 2.41
-1 5 18 10.45 2.19
1 5 -18 15.3 2.71
-1 -5 18 11.29 2.03
-1 5 18 13.65 2.35
-1 -5 18 12.32 2.6
-1 -5 17 843.03 26.57
-1 5 17 865.96 26.53
-1 5 17 896.49 26.23
-1 -5 17 870.06 27.15
1 5 -17 867.97 26.86
-1 -5 17 892.57 26.32
-1 5 17 884.62 26.75
-1 5 17 913.2 26.58
-1 -5 16 105.5 5.74
-1 5 16 111.54 5.75
-1 5 16 105.57 5.39
-1 -5 16 103.5 5.4
1 5 -16 97.66 5.98
-1 5 16 102.94 5.83
-1 -5 16 96.74 5.85
-1 5 15 15.28 2.17
-1 5 15 15.43 2.28
-1 5 15 20.08 2.22
-1 -5 15 16.35 2.1
-1 -5 15 16.96 2.43
1 5 -15 24.2 2.73
-1 -5 15 19.14 2.37
-1 5 14 77.39 4.15
-1 -5 14 67.59 4
-1 5 14 79.44 4.57
1 5 -14 77.04 4.73
-1 -5 14 71.92 4.5
-1 5 14 78.71 4.35
-1 -5 14 73.5 4.3
-1 5 13 583.96 18.58
-1 -5 13 602.6 18.5
1 5 -13 611.63 19.18
-1 5 13 610.46 18.38
-1 5 13 627.49 18.58
-1 -5 12 69.4 3.82
-1 5 12 69.99 3.71
1 5 -12 66.04 4.21
-1 -5 11 1738.15 47.84
-1 5 11 1826.15 47.81
1 5 -11 1815.24 48.86
-1 5 10 334.45 11.24
-1 5 10 321.9 10.14
1 5 -10 315.32 11
-1 -5 10 306.66 10.15
-1 -5 9 0.82 0.76
-1 5 9 1.14 1.22
1 5 -9 1.93 1.16
-1 5 9 1.6 0.83
1 5 -8 31.9 2.53
-1 -5 8 29.95 1.96
-1 5 8 28.49 2.49
-1 5 8 26.62 1.79
-1 5 7 339.78 11.01
-1 5 7 320.13 9.71
-1 -5 7 339.47 9.88
1 5 -7 337.33 10.76
-1 5 6 124.49 4.13
-1 -5 6 122.82 4.22
-1 5 6 134.75 5.42
1 5 -6 124.71 5.01
-1 5 5 3923.1 101.81
-1 5 5 3935.5 101.06
-1 -5 5 4020.51 101.19
1 5 -5 3993.91 102.34
-1 5 5 3976.54 102.72
-1 5 4 419.68 12.36
-1 5 4 407.01 11.78
1 5 -4 422.73 12.01
1 5 -4 370.45 10.72
1 -5 -4 400.23 10.89
-1 -5 4 411.68 10.79
1 5 -4 402.94 11.31
-1 5 4 404.23 10.68
-1 5 3 6.94 1.22
1 5 -3 8.21 0.82
1 5 -3 6.77 0.4
-1 5 3 5.33 0.32
1 5 -3 7.76 1.11
1 -5 -3 5.8 0.4
-1 -5 3 5.47 0.4
-1 5 2 155.16 5.48
1 5 -2 151.15 4.79
1 5 -1 60.31 2.44
-1 5 1 63.83 2.9
1 5 0 10.32 0.99
-1 5 0 8.8 1.04
-1 5 -1 2737.24 69.77
1 5 1 2607.18 69.39
-1 5 -2 349.5 10.57
1 5 2 357.7 10.23
-1 5 -3 1.87 0.73
1 5 3 0.91 0.53
1 5 3 1.16 1.06
1 5 4 4.6 0.76
-1 5 -4 3.41 0.89
-1 5 -4 3.14 0.76
1 5 4 3.51 0.5
1 5 4 4.35 1.19
1 -5 5 132.69 4.31
-1 5 -5 133.85 4.79
1 5 5 142.02 4.36
1 5 5 134.75 4.62
-1 5 -6 259.56 7.92
1 5 6 264.91 7.45
-1 5 -7 2000.1 53.06
1 -5 7 1924.34 52.46
-1 5 -8 420.22 12.51
1 -5 8 395.21 12.04
1 5 8 435.24 12.12
1 -5 9 6.63 1.01
1 -5 9 5.74 0.96
-1 5 -9 7.54 1.2
1 5 9 7.33 1.11
-1 5 -10 279.93 9.23
1 -5 10 251.9 8.68
1 -5 10 281.64 9.01
1 5 10 283.18 8.87
1 -5 11 412.61 13.02
1 5 11 450.48 13.08
-1 5 -11 435.49 13.5
1 5 11 441.8 13.19
1 -5 11 416.53 13.25
1 5 12 37.51 2.56
1 -5 12 37.65 2.64
1 -5 12 28.83 2.36
1 5 12 38.92 2.52
-1 5 -12 38.91 2.75
-1 5 -13 652.19 19.6
1 5 13 659.04 19.5
1 5 13 647.69 19.44
1 5 13 668.76 19.41
1 -5 13 642.85 19.48
1 5 13 648.64 19.79
1 5 13 669.58 19.57
1 -5 13 609.14 19.12
1 5 13 666.48 19.58
1 5 13 680.84 19.24
1 5 14 32.92 2.56
1 5 14 23.33 2.51
1 -5 14 26.54 2.73
-1 5 -14 31.73 2.67
1 -5 14 29.91 2.6
1 5 14 28.52 2.51
1 -5 14 26.68 2.76
1 5 14 27.79 2.52
1 5 14 27.34 2.61
1 5 14 30.92 2.47
1 5 14 26.9 2.51
1 -5 14 27.96 2.52
1 -5 15 12.42 1.88
1 5 15 10.89 1.75
1 5 15 10.17 1.54
1 5 15 12.66 1.78
1 5 15 14.45 2.02
-1 5 -15 13.33 1.93
1 5 15 9.65 1.75
1 5 15 11.63 1.95
1 5 15 11.49 1.79
1 -5 15 12.94 1.84
1 -5 15 10.43 2.02
1 -5 15 10.12 2
-1 5 -16 66.02 4.3
1 -5 16 67.48 5.26
1 5 16 73.97 4.4
1 5 16 72.12 4.57
1 -5 16 65.86 4.9
1 5 16 76.26 4.38
1 5 16 67.71 4.58
1 -5 16 73.45 4.28
1 5 16 74.91 4.24
1 5 16 69.39 4.65
1 -5 16 65.44 4.51
1 -5 16 72.55 4.42
1 5 16 72.07 4.49
1 5 17 433.28 14.54
1 5 17 425.79 14.27
1 5 17 413.57 14.35
1 5 17 415.06 14.71
1 -5 17 442.14 14.41
1 -5 17 413.92 14.49
1 5 17 436.46 14.91
1 -5 17 426.03 15.07
1 -5 17 425.57 15.06
1 -5 17 417.18 14.36
1 5 17 438.25 14.24
1 5 17 442.26 14.43
1 -5 18 2.46 1.55
1 5 18 2.69 1.59
1 -5 18 2.34 1.72
1 -5 18 1.93 1.53
1 5 18 4.2 1.62
1 5 18 5.38 1.67
1 5 18 0.72 1.37
1 5 18 3.58 1.65
1 5 18 1.97 1.52
1 5 18 5.18 1.61
1 -5 18 2.55 1.65
1 5 19 30.75 2.86
1 5 19 33.89 3.16
1 -5 19 35.74 3.64
1 -5 19 43.94 3.92
1 -5 19 41.48 3.5
1 5 19 33.7 3.13
1 5 19 35.57 3.27
1 5 19 32.52 3.15
1 5 19 36.72 3.45
1 5 19 41.85 3.58
1 -5 20 21.85 2.98
1 5 20 20.32 2.69
1 5 20 14.27 2.09
1 5 20 20.05 2.72
1 5 20 18.27 2.36
1 5 20 18.13 2.49
1 -5 20 21.08 2.63
1 -5 20 14.97 2.7
1 5 21 15.4 2.29
1 5 21 13.13 2.29
1 5 21 13.04 1.98
1 5 21 13.53 2.19
1 -5 21 13.36 2.63
1 -5 21 12.57 2.5
1 -5 21 14.51 2.32
1 5 21 10.57 2
1 5 22 52.21 3.69
1 -5 22 47.4 4.24
1 5 22 49.81 3.77
1 5 22 45.75 3.41
1 -5 22 55.17 4.47
1 -5 23 233.95 10.15
1 -5 23 255.73 10.34
1 5 23 250.01 9.35
1 5 23 246.93 9.18
1 -5 24 11.49 2.44
1 5 24 12.37 1.84
1 -5 25 -0.32 1.56
1 -5 26 2.5 1.64
1 -5 26 2.01 1.52
-1 -6 26 139.04 5.47
-1 -6 26 153.47 6.26
-1 -6 25 30.11 2.97
-1 6 25 28.81 2.38
-1 6 24 35.81 2.88
-1 -6 24 36.19 3.45
-1 6 24 34.31 2.67
-1 -6 24 32.46 3.08
-1 -6 23 98.65 5.87
-1 6 23 96.32 5.22
-1 6 23 96.5 4.97
-1 -6 23 99.02 5.56
-1 -6 22 530.52 18.25
-1 6 22 518.95 17.12
-1 6 22 533.82 16.91
-1 -6 22 520.69 17.59
-1 6 21 0.88 1.28
-1 6 21 0.71 1.58
-1 6 21 0.17 1.49
-1 -6 21 2.93 1.98
-1 -6 21 -0.4 1.66
-1 -6 20 406.95 14.84
-1 -6 20 370.38 13.26
-1 -6 20 375.03 14.01
-1 6 20 408.61 13.86
-1 6 20 386.68 13.82
-1 6 20 364.22 13.01
1 6 -19 56.88 4.42
-1 -6 19 58.89 3.99
-1 6 19 57.77 3.94
-1 6 19 59.03 4.32
-1 6 19 60.06 4.43
-1 -6 19 54.55 4.39
-1 -6 19 64.38 5
-1 6 18 27.18 3.09
-1 -6 18 30.13 3.43
-1 6 18 22.01 2.53
1 6 -18 26.48 3.12
-1 -6 18 28.18 3.21
-1 -6 18 26.45 2.68
-1 6 18 29.89 3.24
1 6 -17 178 8.35
-1 -6 17 160.4 7.21
-1 6 17 176.07 8.03
-1 -6 17 174.98 8.01
-1 -6 17 173.04 8.25
-1 -6 16 742.43 23.6
1 6 -16 801.27 24.41
-1 -6 16 759.47 22.91
-1 6 16 841.84 24.02
-1 6 16 745.86 23.04
-1 -6 16 775.6 24.12
-1 6 16 773.24 23.9
-1 6 15 139.09 7.04
-1 6 15 141.9 6.25
-1 6 15 151.32 7
1 6 -15 144.07 7.37
-1 -6 15 135.21 6.82
-1 -6 15 129.82 5.96
-1 -6 14 1033.26 29.94
-1 6 14 1088.92 31.08
1 6 -14 1121.04 31.79
-1 6 14 1066.49 30.2
-1 6 14 1114.47 30.95
-1 -6 14 1033.19 30.95
-1 6 13 264.42 9.55
-1 -6 13 237.94 9.44
-1 6 13 248.78 8.89
1 6 -13 265.06 10.18
-1 6 12 3.31 0.96
1 6 -12 1.81 1.26
-1 6 12 2.1 1.15
1 6 -11 267.65 9.86
-1 6 11 245.04 8.41
1 6 -10 589.98 17.83
-1 6 10 540.07 16.12
-1 6 10 590.5 17.91
-1 6 9 248.67 9.2
-1 6 9 236.49 7.64
1 6 -9 246.1 8.99
1 6 -8 1704.83 45.2
-1 6 8 1690.93 45.47
-1 6 8 1640.67 43.47
-1 6 7 382.62 10.84
1 6 -7 370.74 11.72
-1 6 7 419.44 12.92
1 6 -7 401.3 12.46
-1 6 6 21.31 2.18
1 6 -6 20.2 1.94
1 6 -6 22.69 1.68
-1 6 6 19.77 1.63
1 6 -6 19.26 1.67
1 6 -5 488.17 14.6
1 6 -5 510.15 15.03
-1 6 5 508.01 14.65
-1 6 5 516.77 15.44
1 6 -5 495.21 14.24
-1 6 4 245.85 8.38
-1 6 4 261.78 8.86
1 6 -4 248.37 8.27
1 6 -4 257.29 8.48
1 6 -4 262.51 7.86
-1 6 3 537.36 15.46
-1 6 3 519.52 15.47
1 6 -3 516.57 14.46
1 6 -3 507.89 15.06
1 6 -2 1423.6 36.65
1 6 -2 1328.89 35.81
-1 6 2 1362.12 36.68
1 6 -1 397.99 11.63
-1 6 1 414.47 12.23
-1 6 0 0.08 0.83
1 6 0 1.14 0.7
-1 6 -1 17.64 1.6
1 6 1 18.17 2.21
1 6 1 16.44 1.35
-1 6 -2 12.91 1.37
1 6 2 13.33 1.16
1 6 2 15.88 2.09
1 6 3 1105.22 30.51
-1 6 -3 1182.67 31.28
1 6 4 945.45 25.59
1 6 4 1012.38 27.38
-1 6 -4 951.28 26.3
-1 6 -5 18.23 1.69
1 6 5 15.54 1.27
1 6 5 15.62 1.87
-1 6 -6 16.24 1.7
-1 6 -6 15.74 1.47
1 6 6 18.23 1.07
-1 6 -7 1.56 0.78
1 6 7 2.51 0.57
1 6 8 286.2 8.63
-1 6 -8 289.14 9.34
-1 6 -9 677.2 20.38
1 6 9 749.83 19.88
-1 6 -10 471.3 14.85
1 6 10 512.29 14.44
1 6 11 86.8 4.33
1 6 11 76.73 3.65
-1 6 -11 77.25 3.98
1 6 12 44.17 3.06
-1 6 -12 42.58 2.93
1 6 12 47.95 3.15
1 6 12 44.21 3.19
1 6 12 45.75 3.13
1 6 12 39.83 2.59
-1 6 -13 10.94 1.69
1 6 13 8.86 1.7
1 -6 13 8.49 1.65
1 6 13 14.66 1.87
1 -6 13 10.19 1.8
1 6 13 10.99 1.63
1 6 13 9.08 1.63
1 6 13 7.46 1.25
1 6 14 274.01 9.58
1 -6 14 267.79 10.15
1 6 14 284.4 10.38
1 6 14 287.02 9.98
1 6 14 267.56 10.1
1 6 14 283.59 10.16
1 -6 14 264.54 10.16
-1 6 -14 261.91 9.79
1 6 15 360.73 12.95
1 6 15 351.59 12.11
1 6 15 383.85 13
1 -6 15 375.06 13.21
1 6 15 365.69 12.68
1 -6 15 347.17 12.96
1 6 15 393.89 12.78
1 -6 16 133.01 6.75
1 6 16 129.24 6.36
1 -6 16 130.85 6.6
1 6 16 134 6.3
1 6 16 136.77 6.79
1 6 17 2.31 1.64
1 6 17 3.23 1.51
1 6 17 1.88 1.35
1 -6 17 2.36 1.61
1 6 17 1.91 1.24
1 -6 17 4.56 1.81
1 6 18 14.12 2.35
1 6 18 14.36 2.13
1 6 18 14.68 2.02
1 -6 18 11.17 2.29
1 6 18 15.94 2.45
1 -6 18 13.78 2.43
1 6 18 19.27 2.45
1 6 19 80.41 4.87
1 -6 19 74.68 5.07
1 -6 19 80.18 5.19
1 6 19 76.31 4.85
1 6 19 72.93 4.73
1 6 19 73.62 4.46
1 6 20 149.72 7.19
1 6 20 165.01 6.92
1 -6 20 159.71 7.63
1 -6 20 152.89 7.55
1 6 20 148.12 6.95
1 -6 21 157.67 7.66
1 6 21 157.06 7.15
1 6 21 156.05 6.67
1 6 21 145.63 6.68
1 -6 21 152.84 7.47
1 6 22 3.07 1.41
1 6 22 4.05 1.56
1 -6 22 1.82 1.69
1 6 23 6.97 1.65
1 6 23 9.39 1.63
1 -6 23 7.94 2.05
1 -6 24 5.86 1.84
1 -6 24 8.15 1.97
1 6 24 10.64 1.66
1 -6 25 22.66 2.52
1 -6 25 23.82 2.48
-1 7 25 60.93 3.26
-1 -7 25 63.39 3.65
-1 7 24 1.33 1.01
-1 -7 24 0.42 1.35
-1 7 24 1.57 1.28
-1 7 23 139.76 6.26
-1 7 23 140.67 5.99
-1 -7 23 143.69 6.75
-1 -7 22 80.82 5.13
-1 7 22 78.39 4.7
-1 7 22 82.4 4.51
-1 -7 21 353.21 13.37
-1 7 21 367.72 12.67
-1 7 20 357.74 12.93
-1 -7 20 351.92 13.35
-1 7 20 354.17 12.68
-1 7 19 128.68 6.5
-1 -7 19 116.45 6.59
-1 7 19 121.02 6.44
-1 7 18 3.01 1.78
1 7 -18 5.99 1.7
-1 7 18 3.6 1.78
-1 -7 18 4.49 1.99
-1 7 17 28.63 3.16
-1 -7 17 24.42 3.07
1 7 -17 18.39 2.72
-1 7 17 28.41 3.01
-1 7 16 189.51 8.62
-1 -7 16 197.6 8.7
-1 7 16 207.17 8.7
1 7 -16 206.19 8.98
1 7 -15 423 15.42
-1 -7 15 450.67 15.34
-1 7 15 470.48 15.31
-1 7 14 246.68 9.37
-1 -7 14 223.79 9.24
1 7 -14 223.46 9.58
-1 -7 13 153.68 7.02
-1 7 13 177.51 7.46
1 7 -13 163.46 7.68
1 7 -12 57.12 4.02
-1 7 12 57.96 3.73
-1 7 11 68.35 4.12
1 7 -11 71.13 4.45
-1 7 11 69.42 4.04
-1 7 11 70.3 4.1
-1 7 10 494.64 15.22
1 7 -10 467.05 15.58
-1 7 10 462.46 15.76
-1 7 10 497.45 15.33
-1 7 9 682.39 21.49
1 7 -9 717.88 21.35
-1 7 9 749.81 21.07
1 7 -9 681.86 20.52
1 7 -8 428.52 13.22
1 7 -8 431.69 13.92
-1 7 8 423.77 14.14
1 7 -7 287.81 9.94
-1 7 7 294.55 10.3
1 7 -7 268.76 9.32
1 7 -7 287.84 9.28
1 7 -6 676.35 19.39
1 7 -6 738.36 20.35
-1 7 6 708.15 20.7
1 7 -6 684.99 19.76
-1 7 6 655.88 19.53
1 7 -5 33.57 2.09
1 7 -5 31.81 2.31
-1 7 5 34.63 2.81
-1 7 5 34.38 2.36
1 7 -4 528.12 15.95
1 7 -4 536.94 15.38
-1 7 4 543.76 16.63
-1 7 4 552.91 16.25
-1 7 3 695.14 20.38
1 7 -3 721.68 20.07
-1 7 3 683.72 20.29
1 7 -3 678.65 19.23
-1 7 2 77.45 3.95
1 7 -2 69.42 3.25
1 7 -1 247.52 8.11
-1 7 1 270.8 8.88
-1 7 0 961.59 26.42
1 7 0 901.36 25.6
1 7 1 3.43 1.59
1 7 1 4.41 0.75
-1 7 -1 2.06 0.92
-1 7 -2 398.14 12.36
1 7 2 391.33 11.53
1 7 3 169.98 5.64
-1 7 -3 168.52 6.36
-1 7 -4 94.89 4.31
1 7 4 88.28 3.52
1 7 5 382.75 12.4
-1 7 -5 386.34 11.74
1 7 6 1276.69 35.18
-1 7 -6 1246.71 34.6
-1 7 -7 38.58 2.78
-1 7 -8 104.7 5.04
-1 7 -9 126.62 5.76
1 7 9 122.23 5.48
-1 7 -9 114.66 5.05
1 7 10 34.62 2.62
-1 7 -10 31.12 2.42
1 7 10 33.85 2.77
1 7 10 38.72 2.84
-1 7 -10 36.19 3.02
1 7 11 212.58 8.11
1 7 11 218.11 8.03
1 7 11 207.43 7.87
-1 7 -11 226.26 8.71
1 7 12 747.23 21.82
1 7 12 746.92 21.98
1 7 12 722.16 21.98
1 7 12 741.46 22.35
1 7 13 63.73 4.46
1 7 13 80.29 4.55
1 7 13 70.18 4.5
1 7 13 75.84 4.28
1 7 13 75.31 4.82
1 7 14 3.66 1.73
1 7 14 1.62 1.38
1 -7 15 9.72 2.19
1 7 15 13.23 2.13
1 7 15 14.07 2.22
1 -7 16 61.29 4.21
1 7 16 67.5 4.03
1 -7 16 54.38 4.06
1 7 16 67.82 4.44
1 7 17 23.69 2.54
1 7 17 24.01 2.85
1 7 17 27.32 2.88
1 -7 17 19.47 2.64
1 -7 17 24.16 2.88
1 7 18 480.07 16.12
1 7 18 470.08 15.83
1 7 18 502.38 15.37
1 -7 18 451.56 15.83
1 7 18 477.04 15.93
1 7 19 10.27 2.01
1 7 19 10.02 2.04
1 7 19 5.57 1.56
1 -7 19 7.43 1.96
1 7 19 7.38 2.05
1 -7 20 29.81 3.12
1 7 20 26.11 2.53
1 7 20 30.37 2.89
1 7 20 29.58 3.03
1 -7 21 43.22 3.59
1 -7 21 44.41 3.71
1 7 21 36.44 2.79
1 7 21 38.12 3.29
1 7 21 39.58 3
1 7 22 52.23 3.59
1 7 22 51.05 3.12
1 -7 22 44.89 3.54
1 -7 22 47.99 3.71
1 7 23 2.11 1.26
1 -7 23 2.56 1.36
1 7 23 2.07 1.05
1 -7 23 0.66 1.35
1 -7 24 114.81 5.06
1 -7 24 111.12 5.22
-1 -8 24 409.52 12.57
-1 8 24 414.69 12.3
-1 8 24 424.13 12.79
-1 8 23 5.8 1.26
-1 -8 23 5.82 1.53
-1 -8 22 38.92 3.21
-1 8 22 46.14 3.08
-1 8 21 10.39 1.88
-1 -8 21 8.14 1.97
-1 8 20 87.04 4.92
-1 -8 20 84.48 5.12
-1 8 20 84.53 5.03
-1 8 20 88.95 5.09
-1 -8 19 12.14 2.28
-1 8 19 11.19 2.36
-1 8 19 13.54 2.51
-1 8 19 12.86 2.32
-1 8 18 1398.38 39.08
-1 8 18 1382.11 39.13
-1 -8 18 1331.67 38.89
-1 8 17 10.46 2.22
-1 8 17 9.34 2.14
-1 -8 17 6.39 1.94
-1 -8 16 87.86 5.22
-1 8 16 98.27 5.47
1 8 -16 80.03 5.17
-1 8 15 2.02 1.48
1 8 -15 1.49 1.23
1 8 -14 1.47 1.52
-1 8 14 3.09 1.49
-1 8 13 0.17 1.6
-1 8 13 1.09 1.7
1 8 -13 1.26 1.46
-1 8 12 1514.66 42.45
-1 8 12 1577.62 42.28
1 8 -12 1460.12 42.59
1 8 -11 120.58 6.28
-1 8 11 116.19 6.32
-1 8 11 120.41 6.18
-1 8 11 121.98 5.93
1 8 -11 115.08 5.59
1 8 -10 179.82 7.33
1 8 -10 196.75 8.14
-1 8 10 205.34 8.03
-1 8 10 201.97 7.75
1 8 -10 179.07 7.37
-1 8 9 2.12 1.34
1 8 -9 1.96 1.11
1 8 -9 4.7 1.17
-1 8 9 2.61 1.21
-1 8 9 2.76 1.21
1 8 -9 1.63 1.07
-1 8 8 20.01 2.11
1 8 -8 18.17 1.88
-1 8 8 20.99 2.25
1 8 -8 15.2 1.96
-1 8 8 18.91 2.4
-1 8 7 88.99 4.51
1 8 -7 75.44 3.83
1 8 -7 83.75 4.21
-1 8 7 83.97 4.71
1 8 -7 79.21 4.27
-1 8 6 2057.06 52.07
-1 8 6 1883.7 51.48
-1 8 6 1879.73 52.47
1 8 -6 1916.31 51.7
-1 8 5 22.71 2.46
1 8 -5 19.8 2.02
-1 8 5 17.83 1.93
-1 8 4 271.17 9.76
1 8 -4 255.88 9.15
-1 8 4 258.62 9.35
1 8 -3 22.72 2.12
-1 8 3 18.44 2.19
-1 8 3 21.43 2.25
-1 8 2 235.03 8.98
1 8 -2 247.39 8.86
-1 8 2 255.62 9.43
1 8 -1 13.47 2.44
-1 8 1 16.25 1.85
1 8 -1 15.22 1.82
-1 8 0 795.9 24.31
1 8 0 974.62 27.12
-1 8 -1 50.03 3.17
1 8 1 60.9 4.5
-1 8 -2 934.08 27.75
1 8 2 1104.17 30.19
-1 8 -3 26.56 2.24
1 8 3 22.99 2.64
1 8 4 330.39 11.85
-1 8 -4 321.74 10.85
-1 8 -5 106.24 4.98
1 8 5 103.19 5.43
-1 8 -6 159.53 6.61
1 8 7 35.1 2.8
-1 8 -7 33.71 2.76
-1 8 -8 764.75 22.79
-1 8 -9 65.18 4.09
1 8 10 347.7 11.86
-1 8 -10 354.25 12.49
1 8 10 356.63 12.3
1 8 11 90.5 4.77
-1 8 -11 83.77 5.06
1 8 11 95.23 5.1
1 8 12 0.33 1.77
1 8 12 1.05 1.5
1 8 12 -0.3 1.76
1 8 12 1.06 1.7
-1 8 -12 1.24 1.27
1 8 13 23.09 2.66
-1 8 -13 23.05 2.88
1 8 13 22.43 2.67
1 8 13 26.62 2.72
1 8 13 26.41 2.87
1 8 14 280.23 10.5
1 8 14 281.79 9.99
1 8 14 285.85 10.85
-1 8 -14 264.89 10.84
1 8 15 10.04 1.71
1 8 15 5.93 1.67
-1 8 -15 6.44 1.72
1 8 15 8.74 1.83
1 8 16 205.98 8.66
1 8 16 208.78 7.86
1 8 17 42.83 3.62
1 8 17 49.22 3.25
1 8 18 67.49 4.42
1 8 18 61.63 4.09
1 8 18 66.72 3.75
1 8 18 60.85 4.2
1 8 19 30.8 2.91
1 -8 19 26.04 2.72
1 8 19 28.35 2.51
1 8 19 34.42 3.15
1 8 19 31.76 2.96
1 8 20 177.39 7.33
1 8 20 180.78 7.55
1 -8 20 166.55 7.11
1 8 20 165.48 6.5
1 8 20 184.05 7.16
1 -8 21 7.06 1.65
1 8 21 7.6 1.82
1 -8 21 9.45 2.25
1 8 22 35.85 2.85
1 8 23 24.29 2.18
-1 9 22 113.58 5.14
-1 9 22 115.81 4.81
-1 9 21 363.06 12.26
-1 9 21 377.68 12
-1 9 20 85.8 4.55
-1 9 20 86.81 4.75
-1 9 20 79.26 4.55
-1 9 19 117.24 5.66
-1 9 19 101.74 5.54
-1 9 19 108.38 5.64
-1 9 18 8.04 1.99
-1 9 18 5.78 1.93
-1 9 17 74.4 4.79
-1 9 16 268.45 10.4
-1 9 15 562.27 18.11
-1 9 14 49 3.86
-1 9 14 47.11 3.7
-1 9 13 182.21 7.75
-1 9 13 169.52 7.81
-1 9 12 30.52 3.08
-1 9 12 29.82 2.83
-1 9 11 109.92 5.49
-1 9 11 98.95 5.51
-1 9 11 103.35 5.67
-1 9 10 951.2 27.37
-1 9 10 992.13 27.95
1 9 -10 901.95 27.15
-1 9 9 590 18.03
1 9 -9 552.77 17.65
-1 9 9 597.86 17.71
1 9 -8 141.77 6.35
-1 9 8 135.5 5.99
-1 9 8 146.13 6.73
-1 9 8 131.5 6.38
1 9 -7 270.12 9.82
-1 9 7 276.09 9.85
-1 9 7 267.98 9.35
-1 9 6 47.31 3.34
1 9 -6 53.44 3.66
-1 9 6 49.89 3.21
-1 9 6 43.75 3.45
-1 9 6 48.62 3.09
1 -9 -6 43.18 3.96
1 9 -6 50.43 3.38
1 -9 -5 28.46 3.26
-1 9 5 27.53 2.47
1 9 -5 32.53 2.8
-1 9 5 23.82 2.6
1 9 -5 28.86 2.58
-1 9 5 34.29 2.8
1 9 -4 848.05 23.83
1 -9 -4 785.18 24.68
-1 9 4 777.15 23.45
-1 9 4 808.28 23.22
1 9 -4 810.67 23.49
-1 9 4 752.04 23.61
-1 9 3 560.47 17.81
1 9 -3 578.27 17.6
-1 9 3 539.16 17.57
1 9 -3 573.95 17.63
-1 9 3 554.44 17.06
1 9 -2 22.08 2.37
1 9 -2 24.92 2.45
1 9 -2 27.24 3.38
-1 9 2 24.02 2.69
-1 9 2 29.6 2.68
-1 9 2 25.36 2.2
-1 9 1 331.11 12.19
1 -9 -1 327.25 12
-1 9 1 299.31 11.29
1 9 -1 327.07 11.44
-1 9 1 327.49 10.83
1 9 -1 344.56 13.46
1 9 -1 332.08 11.51
1 9 0 255.04 9.54
1 -9 0 254.45 10.11
-1 9 0 237.55 9.29
1 9 0 242.6 9.33
-1 9 -1 12.33 1.87
1 9 1 9.67 1.79
-1 9 -2 860.2 26.02
1 9 2 968.01 28.15
-1 9 -3 296.02 10.4
-1 9 -3 306.81 10.88
-1 9 -4 201.28 7.99
1 9 4 199.51 8.77
-1 9 -5 202.98 8.08
1 9 5 203.02 8.66
1 9 6 166.24 7.16
-1 9 -6 167.75 7.15
1 9 7 3.52 2.33
-1 9 -7 1.22 1.11
1 9 8 326.74 11.45
-1 9 -8 303.44 11.33
-1 9 -9 78.38 4.73
1 9 10 333.7 11.49
-1 9 -10 343.83 12.35
1 9 11 134.07 6.13
1 9 11 146.65 6.62
-1 9 -11 140.36 6.88
1 9 12 138.88 6.52
1 9 12 140.72 6.61
-1 9 -12 136.2 6.82
1 9 12 136.23 6.69
1 9 12 132.47 5.99
1 9 13 3.01 1.65
1 9 13 5.39 1.79
1 9 13 3.26 1.3
1 9 13 3.4 1.46
-1 9 -13 3.13 1.38
1 9 14 67.66 4.36
1 9 14 67.69 4.52
1 9 14 66.87 3.86
-1 9 -14 55.33 4.24
1 9 15 1.72 1.41
1 9 15 3.51 1.53
1 9 15 2.71 1.23
1 9 16 221.94 8.27
1 9 16 234.96 9.27
1 9 16 239.7 9.68
1 9 16 244.46 9.56
1 9 17 124.23 6.16
1 9 17 128.63 6.4
1 9 17 124.9 6.22
1 9 18 72.74 4.59
1 9 18 80.92 4.48
1 9 18 80.09 4.65
1 9 19 16.66 2.01
1 9 19 12.59 1.85
1 -9 20 22.11 3.04
1 -9 21 31.02 3.27
1 9 21 39.79 2.89
1 9 22 181.76 6.75
-1 10 21 26.13 2.06
-1 10 21 22.09 2.21
-1 10 20 209.74 8.08
-1 10 20 228.93 7.93
-1 10 19 123.59 5.63
-1 10 19 112.87 5.71
-1 10 19 115.54 5.57
-1 10 19 126.38 5.54
-1 10 18 1.88 1.3
-1 10 18 1.28 1.44
-1 10 17 51.88 3.75
-1 10 16 330.03 11.87
-1 10 15 9.63 2.09
-1 10 15 8.2 2.13
-1 10 14 437.61 15.11
-1 10 14 442.37 14.85
-1 10 13 264.68 10.4
-1 10 13 267.46 10.13
-1 10 12 29.24 2.84
-1 10 12 30.2 3.1
-1 10 11 3.58 1.46
-1 10 11 3.1 1.64
-1 10 10 208.99 8.71
-1 10 10 201.43 8.49
-1 10 10 195.5 8.01
-1 10 9 8.49 1.91
-1 10 9 8.6 1.83
-1 10 8 799.55 23.69
-1 10 8 772.65 23.03
1 -10 -7 442.27 15.59
-1 10 7 420.02 14.08
-1 10 7 398.93 13.37
-1 10 6 26.76 2.99
-1 10 6 22.69 2.25
1 10 -6 26.32 2.61
1 -10 -6 27.45 3.57
1 10 -5 3.52 1.4
-1 10 5 2.45 1.56
1 10 -5 4.4 1.88
1 -10 -5 2.89 2.32
-1 10 4 5.3 1.82
1 -10 -4 3.35 2.99
1 10 -4 4.71 1.45
-1 10 4 3.44 1.13
1 10 -4 6.35 2.06
-1 10 3 22.69 2.79
1 10 -3 29.75 3.69
1 -10 -3 18.06 3.71
-1 10 3 25.92 2.64
1 10 -3 25.58 2.59
1 10 -2 670.83 20.67
-1 10 2 667.38 20.1
-1 10 2 632.33 20.89
1 10 -2 708.93 23.31
1 -10 -1 531.55 18.28
-1 10 1 550.94 18.46
1 10 -1 559.28 17.82
1 10 -1 597.75 20.32
-1 10 1 538.69 16.95
1 10 0 5.72 2.09
1 10 0 1.18 1.17
-1 10 0 2.98 1.31
1 -10 0 -1.43 2.06
-1 10 0 2.34 1.26
1 -10 1 55.43 4.97
1 10 1 72.28 4.48
1 10 1 56.89 4.83
-1 10 -1 62.15 3.92
-1 10 -1 59.13 4.68
-1 10 -1 56.67 3.54
-1 10 -2 2.11 1.18
1 -10 2 2.4 3.15
1 10 2 2.06 1.6
1 10 2 -0.18 1.2
1 10 3 60.01 4.24
1 10 3 60.45 4.59
-1 10 -3 55.9 3.58
1 10 4 640.67 20.37
1 10 4 619.2 20.47
1 10 5 288.55 10.84
1 10 6 2.55 1.65
1 10 7 113.08 5.84
1 10 8 197.15 8.3
1 10 9 172.94 7.64
1 10 10 309.4 11.23
1 10 11 157.33 7.12
1 10 12 4.88 1.61
1 10 12 1.9 1.65
1 10 13 253.83 10.47
1 10 13 264.89 10.07
1 10 13 248.84 10.08
1 10 14 81.41 4.79
1 10 14 79.89 5.07
1 10 14 74.71 4.75
1 10 15 39.54 3.37
1 10 15 35.69 3.22
1 10 15 42.17 3.63
1 10 16 66.84 4.36
1 10 16 70.51 4.37
1 10 16 72.6 4.65
1 10 17 97.86 5.07
1 10 17 95.36 5.26
1 10 17 88.74 4.91
1 10 18 4.33 1.49
1 10 18 4.88 1.45
1 10 18 5.49 1.52
1 10 18 4.71 1.35
1 -10 18 3.53 2.19
1 -10 19 215.09 9.44
1 10 19 208.61 8.01
1 10 19 220.1 7.95
1 -10 20 123.03 6.3
-1 11 19 287.85 9.68
-1 11 19 291.67 9.46
-1 11 18 13.49 1.95
-1 11 18 12.82 1.87
-1 11 18 15.08 1.84
-1 11 17 279.43 9.9
-1 11 17 272.94 10.36
-1 11 16 9.18 1.97
-1 11 16 5.27 1.68
-1 11 15 12.12 2.02
-1 11 15 9.91 1.86
-1 11 14 70.44 4.49
-1 11 14 77.89 4.53
-1 11 13 298.75 11.25
-1 11 13 305.93 10.95
-1 11 12 20.4 2.74
-1 11 12 23.8 2.58
-1 11 11 565.46 17.63
-1 11 11 556.7 18.14
-1 11 10 6.62 2.02
-1 11 10 8.77 1.73
-1 11 9 37.09 3.37
-1 11 9 39.4 3.07
-1 11 9 40.14 3.41
-1 11 8 138.99 6.26
-1 11 8 152.17 6.91
1 11 -8 149.45 8.49
-1 11 7 45.74 3.23
-1 11 7 55.54 3.85
1 -11 -7 44 4.33
1 11 -7 45.31 4.69
1 -11 -6 132.55 7.44
-1 11 6 124.36 6.15
1 11 -6 130.94 7.98
1 11 -5 767.19 25.4
-1 11 5 755.63 22.33
1 11 -5 682.21 22
1 -11 -5 763.17 24.25
1 11 -4 11.46 1.96
-1 11 4 13.36 2.14
1 -11 -4 12.39 2.75
1 11 -4 15.21 2.88
-1 11 3 23.9 2.54
1 11 -3 23.77 3.56
1 11 -3 20.4 2.57
1 -11 -3 24.64 3.6
1 11 -2 22.7 2.71
1 -11 -2 23.76 3.5
-1 11 2 24.55 2.57
-1 11 2 34.18 3.08
1 11 -2 27.59 3.7
-1 11 1 0.68 1.26
-1 11 1 -0.2 1.33
1 11 -1 0.9 1.33
-1 11 1 1.92 1.28
1 -11 -1 0.21 1.8
1 11 -1 0.55 1.69
1 -11 0 67.34 5.05
-1 11 0 62.33 3.85
1 11 0 64.98 5.4
-1 11 0 63.9 4.91
-1 11 0 62.36 4.17
1 11 0 66.39 4.51
-1 11 -1 1015.19 30.32
1 -11 1 1120.5 32.24
-1 11 -1 1051.5 29.77
1 11 1 1069.93 32.55
-1 11 -1 1018.52 32.07
1 11 1 1060.65 31.19
-1 11 -2 6.25 2.08
1 11 2 5.97 1.93
1 -11 2 7.83 2.48
-1 11 -2 5.57 1.53
1 11 2 7.71 2.06
1 11 3 4.63 1.73
1 11 3 3.52 1.7
1 -11 3 1.89 2.03
-1 11 -3 3.71 1.86
1 11 3 1.74 1.47
1 11 4 98.26 5.8
1 11 4 98.87 5.44
1 -11 4 95.11 6.25
-1 11 -4 99.16 6.77
1 -11 5 64.7 5.2
1 11 5 67.89 4.72
1 11 5 65.79 4.41
1 -11 6 100.13 6.5
1 11 6 95.39 5.77
1 11 6 93.82 5.32
1 11 7 417.11 14.97
1 11 7 404.9 14.14
1 11 8 19.7 2.45
1 11 8 20.38 2.67
1 11 8 22.81 2.68
1 11 9 2.87 1.49
1 11 9 2.15 1.66
1 11 10 -0.81 1.47
1 11 10 1.21 1.4
1 11 11 248.2 9.6
1 11 11 253.97 10.44
1 11 12 203 8.27
1 11 12 185.79 8.27
1 11 12 212.04 9.05
1 11 13 180.28 7.85
1 11 13 185.33 8.28
1 11 13 188.43 7.78
1 11 14 27.75 2.78
1 11 14 24.84 2.7
1 11 14 31.53 3.14
1 11 15 3.66 1.51
1 11 15 6.07 1.67
1 11 15 4.64 1.58
1 11 16 8.79 1.83
1 11 16 9.02 1.82
1 11 16 9.75 1.8
1 11 17 156.69 6.35
1 11 17 142.38 6.16
1 -11 17 158.78 7.81
1 11 17 151.65 5.97
1 11 17 141.64 6.42
1 11 18 71.86 3.83
1 11 18 71.16 3.69
1 -11 18 73.34 4.93
-1 12 17 173.57 6.44
-1 12 17 178.02 6.46
-1 -12 17 168.83 8.24
-1 12 16 89.24 4.82
-1 12 16 89.79 4.49
-1 12 16 93.92 4.4
-1 12 15 25.56 2.44
-1 12 15 26.65 2.74
-1 12 15 25.68 2.36
-1 12 14 134.89 5.86
-1 12 14 135.99 6.12
-1 12 13 124.69 6
-1 12 13 132.76 5.8
-1 12 12 85.36 5.25
-1 12 12 92.05 5.03
-1 12 12 94 4.73
-1 12 11 210.4 8.49
-1 12 11 198.14 7.81
-1 12 10 143.42 6.72
-1 12 10 136.71 6.08
-1 12 9 235.28 9.3
-1 12 9 223.11 8.43
-1 12 8 129.58 6.4
-1 12 8 125.43 5.58
-1 12 7 330.69 11.82
-1 12 7 334.05 12.55
1 -12 -6 82.68 5.89
-1 12 6 83.83 5.29
-1 12 6 91.79 5.02
-1 12 5 206.98 8.99
-1 12 5 203.09 8.3
-1 -12 5 200.52 9.37
1 -12 -5 214.72 9.93
-1 12 4 155.63 7.43
1 -12 -4 172.82 8.65
-1 12 4 158.61 6.94
-1 -12 4 158.55 7.94
1 12 -4 147.56 6.82
-1 12 3 421.54 14.65
1 -12 -3 443.67 16.22
-1 -12 3 412.54 15.1
-1 12 3 443.31 14.12
1 12 -3 387.65 14.02
-1 12 2 65.39 4.39
1 12 -2 66.14 4.38
1 -12 -2 70.5 5.59
-1 12 2 69.18 4.14
-1 12 1 135.96 6.11
1 12 -1 133.26 6.68
-1 12 1 131.44 6.5
1 12 -1 142.87 6.52
1 -12 -1 135.65 7.9
1 12 0 91.61 5.11
-1 12 0 90.7 4.67
1 -12 0 91.16 5.82
-1 12 0 87.38 4.99
1 -12 0 87.81 6.25
1 12 0 90.11 5.38
1 12 1 109.97 5.67
1 12 1 108.28 5.98
-1 12 -1 96.34 5.19
1 -12 1 97.11 6.17
1 12 2 21.96 2.65
1 -12 2 17.88 2.94
-1 -12 -2 16.8 2.95
1 12 2 20.22 2.64
1 -12 3 504.2 17.74
-1 -12 -3 465.12 17.26
1 12 3 517.77 16.59
1 12 3 510.02 17.12
1 -12 4 19.62 3.14
1 12 4 27.23 3.1
1 12 4 29.6 2.56
1 12 4 25.29 2.83
1 12 5 55.59 3.51
1 -12 5 49.04 4.53
1 12 5 49.83 3.84
1 12 5 55.52 4.31
1 12 6 8.24 1.65
1 12 6 9.48 2.13
1 -12 6 6.36 2.33
1 12 6 9.51 2.15
1 12 7 5.71 1.92
1 12 7 5.01 1.52
1 12 7 8.06 1.9
1 -12 7 4.5 2.14
1 12 8 6.66 1.91
1 12 8 6.97 1.68
1 -12 8 8.29 2.67
1 12 8 6.22 1.78
1 12 9 674.37 21.2
1 -12 9 621.65 21.85
1 12 9 672 20.03
1 12 9 656.26 20.42
1 12 10 13.4 2.1
1 -12 10 17.33 3.19
1 12 10 11.14 2.07
1 -12 11 3.93 2.37
1 12 11 7.7 1.7
1 12 12 2.91 1.43
1 12 12 3.61 1.47
1 -12 12 -0.23 2
1 12 13 6.47 1.62
1 -12 13 4.41 2.24
1 12 13 6.96 1.73
1 12 13 5.34 1.53
1 12 14 2.99 1.3
1 12 14 3.29 1.34
1 12 14 1.05 1.21
1 -12 14 2.32 2.12
1 12 15 305.92 10.27
1 12 15 301.26 10.73
1 -12 15 316.03 12.15
1 12 15 299.53 10.3
1 12 16 2 1.09
1 12 16 0.95 1.07
1 12 16 -0.1 1.14
1 -12 16 0.8 1.6
-1 13 14 73.59 3.74
-1 -13 14 76.45 4.95
-1 13 13 37.6 3.02
-1 -13 13 31.39 3.44
-1 13 13 31.49 2.25
-1 13 13 38.15 2.79
-1 13 12 37.92 3.2
-1 13 12 29.01 2.27
-1 -13 12 36.09 3.59
-1 13 12 38.59 2.89
-1 13 11 10.37 1.8
-1 13 11 11.31 1.95
-1 -13 11 14.02 2.58
-1 13 11 8.8 1.4
-1 13 10 4.91 1.58
-1 -13 10 7.67 2.2
-1 13 10 6.47 1.67
-1 -13 9 399.06 14.92
-1 13 9 447.63 14.14
-1 13 9 422.97 14.48
-1 13 8 53.67 3.67
-1 13 8 57.19 4
-1 13 7 81.32 4.92
-1 -13 7 82.11 5.32
-1 13 7 95.72 5.01
-1 13 6 125.4 6.21
-1 13 6 122.21 5.93
-1 -13 6 115.16 6.42
-1 -13 5 52.81 4.38
1 -13 -5 59.59 4.81
-1 13 5 53.58 3.92
-1 13 4 9.55 1.83
1 -13 -4 6.44 2.41
1 13 -4 7.31 1.57
1 -13 -3 376.02 14.35
1 13 -3 368.35 12.23
-1 13 3 386.23 12.43
-1 13 3 361.49 12.86
-1 13 2 141.72 6.62
-1 13 2 159.5 6.43
1 13 -2 148.49 6.67
1 13 -2 148.33 6.44
1 -13 -2 156.94 8.19
-1 13 1 165.26 7.22
1 13 -1 172.48 7.51
-1 13 1 180.12 6.92
1 -13 -1 170.44 8.81
1 13 -1 186.22 7.36
1 13 0 131.83 6.43
-1 -13 0 135.09 7.5
1 -13 0 135.92 7.67
1 13 0 145.96 6.36
-1 -13 -1 95.99 6.13
1 13 1 104.24 5.23
1 -13 1 96.49 5.87
1 -13 1 98.25 6.47
1 13 1 91.71 5.25
1 13 2 3.77 1.63
1 -13 2 0.48 2.17
-1 -13 -2 4.58 2.11
1 -13 2 5.74 2.17
1 13 2 2.02 1.49
1 -13 3 175.08 8.72
1 13 3 164.9 7.15
1 13 3 157.19 7.44
1 -13 3 168.23 8.05
1 13 4 12.46 2.24
1 -13 4 14.49 2.61
1 13 4 12.69 2.18
1 -13 4 14.87 3
1 13 5 306.75 11.5
1 -13 5 287.5 11.67
1 13 5 296.8 9.91
1 -13 5 304.51 12.47
1 13 5 302.5 10.85
1 13 6 166.2 6.55
1 13 6 168.33 7.73
1 -13 6 173.72 8.25
1 13 6 185 7.49
1 13 7 102.99 5.25
1 -13 7 87.94 5.67
1 13 7 98.43 4.56
1 13 7 93.07 5.39
1 13 8 4.22 1.34
1 13 8 2.19 1.45
1 13 8 3.86 1.54
1 -13 8 4.16 1.99
1 13 8 3.18 1.51
1 13 9 26.96 2.77
1 13 9 31.82 2.8
1 13 9 27.19 2.33
1 -13 9 22.49 3.04
1 13 10 6.87 1.39
1 13 10 6.38 1.65
1 13 10 4.84 1.53
1 -13 10 6.92 2.23
1 13 11 230.15 8.1
1 -13 11 217.25 9.51
1 -13 11 241.5 10.05
1 13 12 147.38 5.73
1 -13 12 143.05 7.1
1 -13 12 134.96 7.11
1 13 12 136.61 6.27
1 13 13 77.44 4.3
1 13 13 78.03 3.86
1 -13 13 87.96 5.3
1 -13 13 80.81 5.14
-1 14 10 28.58 2.31
-1 -14 10 20.68 2.52
-1 -14 9 0.43 1.43
-1 14 9 1.38 1.02
-1 14 9 2.07 1.17
-1 14 8 19.99 2.02
-1 14 8 17.76 2.07
-1 -14 7 153.91 7.04
-1 14 7 168.71 6.95
-1 14 6 314.94 11.08
-1 14 6 347.13 11.03
-1 -14 6 337.99 12.51
1 -14 -6 306.76 11.55
-1 -14 5 -0.58 1.72
-1 14 5 2.19 1.26
-1 14 5 0.77 1.05
-1 -14 4 54.09 4.4
-1 14 4 62.05 3.55
-1 14 4 52.21 3.46
-1 14 3 6.97 1.48
1 -14 -3 7.71 2.28
1 14 -3 12.2 1.51
-1 14 3 9.95 1.69
-1 -14 3 11.06 2.49
1 -14 -2 18.25 2.89
-1 -14 2 15.62 2.81
1 14 -2 18.26 1.82
1 14 -1 251.2 8.75
-1 -14 1 266.69 10.54
1 -14 -1 261.31 10.56
-1 -14 0 98.42 5.77
1 -14 0 103.49 6.02
1 14 0 103.3 4.64
1 14 0 91.05 4.72
-1 -14 -1 37.21 3.44
1 14 1 35.59 2.66
1 -14 1 39.56 3.8
1 14 1 31.66 2.72
1 14 2 158.5 6.88
1 -14 2 164.82 7.94
1 14 2 175.77 6.68
1 14 3 35.46 2.94
1 14 3 42.03 2.89
1 -14 3 39.14 3.8
1 14 4 89.75 4.36
1 -14 4 87.16 5.4
1 -14 5 170.98 7.61
1 -14 5 176.62 8.19
1 14 5 188.47 7.09
1 14 5 174.75 7.28
1 14 6 13.37 1.94
1 -14 6 11.47 2.48
1 -14 6 15.72 2.25
1 14 6 11.69 1.84
1 14 7 78.7 4.09
1 14 7 64.86 3.96
1 -14 7 65.41 4.28
1 -14 7 71.98 4.82
1 14 8 134.44 5.88
1 -14 8 127.56 6.6
1 -14 8 121.9 6.1
1 14 8 136.53 5.69
1 -14 9 19.22 2.93
1 -14 9 23.84 2.73
1 14 9 19.42 2.14
1 14 9 21.89 2.11
1 14 10 63.66 3.46
1 -14 10 60.53 4.12
-1 -15 3 9.15 2.05
-1 15 3 6.1 1.17
-1 -15 2 1.56 1.57
-1 15 2 1.85 0.82
-1 -15 1 0.95 1.32
-1 15 1 3.91 0.83
1 -15 0 32.48 3.07
1 -15 1 104.07 5.44
1 15 2 267.79 8.44
1 -15 2 255.7 9.44
-2 0 28 14.07 2.08
-2 0 28 12.35 1.82
-2 0 27 -0.67 1.36
-2 0 27 2 1.21
-2 0 27 1.08 1.55
-2 0 26 64.18 4.46
-2 0 26 62.79 4.63
-2 0 26 74.84 4.57
-2 0 25 0.64 1.73
-2 0 25 0.88 2.08
-2 0 25 0.19 1.77
-2 0 24 139.71 7.9
-2 0 24 141.2 7.63
-2 0 24 145.01 7.82
-2 0 23 0.25 1.95
-2 0 23 2.83 1.99
2 0 -22 98 6.06
-2 0 22 83.67 6.53
-2 0 22 102.97 6.68
-2 0 22 107.94 6.64
-2 0 21 -0.89 1.97
-2 0 21 -0.25 1.95
-2 0 21 -0.25 2.14
-2 0 21 -0.26 1.86
2 0 -21 0.68 1.64
-2 0 20 309.16 13.83
-2 0 20 332.06 13.42
-2 0 20 331.51 13.48
2 0 -20 353.26 13.32
-2 0 19 1.09 2.13
-2 0 19 0.7 1.65
-2 0 19 2.69 2.21
-2 0 19 0.92 2
-2 0 19 0.91 2.71
-2 0 18 47.87 4.15
-2 0 18 46.71 4.04
-2 0 18 41.09 3.54
-2 0 18 46.23 3.76
-2 0 18 47.47 5
-2 0 17 1.43 1.63
-2 0 17 2.29 1.3
-2 0 17 1.06 1.2
-2 0 17 0.98 1.46
-2 0 17 3.36 1.73
-2 0 16 45.72 3.68
-2 0 16 37.25 3.85
-2 0 16 36.5 3.23
-2 0 15 0.4 1.45
-2 0 14 1646.42 46.16
-2 0 13 0.95 1.42
-2 0 12 15.44 2.25
-2 0 12 16.31 2.12
-2 0 11 -0.5 1.27
-2 0 10 235.17 8.56
-2 0 9 1.34 1.08
-2 0 8 2628.46 68.69
-2 0 7 1.85 0.93
-2 0 6 842.54 22.9
-2 0 5 3 0.94
2 0 -4 805.37 21.25
-2 0 4 860.88 22.02
2 0 -3 1.16 0.47
-2 0 3 17.16 1.19
-2 0 2 7189.9 182.32
2 0 -2 7189.99 182.27
-2 0 1 0.66 0.42
2 0 -1 0.61 0.34
2 0 0 5166.92 134.5
-2 0 0 5417.96 134.75
2 0 0 5280.81 135.01
2 0 0 5624.53 135.07
2 0 1 1.05 0.59
2 0 2 1036.24 26.62
2 0 2 1001.75 26.54
2 0 3 1.11 0.65
2 0 3 0.38 0.6
2 0 4 323.62 9.26
2 0 4 321.56 9.27
2 0 5 1.26 0.69
2 0 6 4310.14 110.33
2 0 7 1.05 0.77
2 0 8 16.63 1.57
2 0 9 0.98 0.86
2 0 9 1.41 0.74
2 0 9 0.34 0.86
2 0 10 1178.19 32.39
2 0 10 1214.68 32.66
2 0 11 1.39 1.14
2 0 11 0.39 0.9
2 0 12 4184.4 109.59
2 0 12 4253.2 109.4
2 0 13 1.44 1.14
2 0 13 0.13 1.12
2 0 14 11.33 1.82
2 0 14 12.4 1.78
2 0 15 4.28 1.21
2 0 15 1.33 1.24
2 0 15 0.15 1.1
2 0 15 3.7 1.2
2 0 15 1.98 1.14
2 0 15 0.61 1.2
2 0 16 563.48 17.25
2 0 16 590.01 17.79
2 0 16 538.22 16.86
2 0 16 542.35 17.64
2 0 16 550.71 17.79
2 0 16 536.32 17.76
2 0 16 547.59 17.67
2 0 17 3.89 1.52
2 0 17 3.21 2.22
2 0 17 -0.37 1.82
2 0 17 0.86 1.42
2 0 17 1.4 1.49
2 0 17 1.64 1.42
2 0 18 2190.32 59.41
2 0 18 2087.69 58.92
2 0 18 2123.79 58.78
2 0 18 2044.51 58.88
2 0 18 2178.65 59.09
2 0 18 2280.77 59.07
2 0 19 1.88 1.63
2 0 19 0.2 1.71
2 0 19 -0.21 2.06
2 0 19 0.92 1.54
2 0 19 0.4 1.46
2 0 19 -0.19 1.6
2 0 20 5.02 1.92
2 0 20 9.41 2.12
2 0 20 5.46 1.93
2 0 20 6.84 2.07
2 0 20 9.36 2.69
2 0 21 -0.2 1.49
2 0 21 0.64 1.4
2 0 21 2.48 1.74
2 0 21 0.87 1.76
2 0 21 0.43 2.32
2 0 22 41.96 3.83
2 0 22 32.33 3.69
2 0 22 35.72 3.7
2 0 23 -0.4 1.85
2 0 23 -0.61 1.94
2 0 23 -0.22 2.09
2 0 24 856.6 26.6
2 0 24 842.14 26.18
2 0 25 0.19 1.82
2 0 25 -0.55 1.78
2 0 26 85.57 5.18
2 0 26 89.59 5.11
2 0 27 1.21 1.56
-2 -1 28 139.78 6.08
-2 -1 28 140.92 6.24
-2 -1 28 142.29 5.89
-2 1 28 139.84 6.06
-2 -1 27 50.15 3.82
-2 1 27 51.61 3.69
-2 1 27 58.4 3.48
-2 -1 27 49.24 3.85
-2 -1 27 51.61 3.69
-2 1 27 58.72 4
-2 -1 26 24.98 3.13
-2 1 26 22.31 2.58
-2 -1 26 23.59 2.94
-2 1 26 21.8 2.61
-2 -1 26 25.32 2.9
-2 -1 25 8.25 2.46
-2 -1 25 6.88 2.26
-2 1 25 4.23 1.97
-2 1 25 6.66 1.93
-2 1 24 51.12 4.21
-2 -1 24 52.24 4.57
-2 -1 24 41.18 4.37
-2 1 24 53.65 4.57
-2 1 23 35.14 3.99
-2 1 23 37.55 3.85
-2 1 22 169.83 8.84
-2 1 22 168.55 8.4
-2 -1 22 145.38 8.79
-2 -1 22 161.75 8.69
-2 1 22 153.71 8.94
2 1 -22 158.2 7.99
2 -1 -22 175.45 8.53
2 1 -21 38.91 3.76
-2 -1 21 35.13 4.07
-2 1 21 42.58 4.6
-2 -1 21 38.93 4.26
-2 1 21 35.54 3.6
-2 1 21 41.86 4.29
-2 -1 21 32.48 4.14
-2 1 21 39.16 3.55
-2 1 21 39.34 4.17
-2 -1 20 4.95 2.48
-2 1 20 9.68 2.49
-2 -1 20 1.92 2.11
-2 1 20 5.42 2.65
-2 1 20 9.05 2.24
2 1 -20 5.09 2.1
-2 1 20 8.27 2.56
-2 -1 20 11.08 2.55
2 1 -19 26.35 3.23
-2 -1 19 28.01 3.78
-2 1 19 29.21 3.48
-2 -1 19 29.66 3.68
-2 1 19 26.76 3.75
-2 1 19 24.84 3.19
-2 -1 19 32.28 4.1
-2 1 18 180.28 8.17
-2 1 18 184.86 8.76
-2 -1 18 179.27 8.81
-2 -1 18 175.26 9.41
-2 -1 18 186.18 8.76
-2 1 18 188.5 8.58
2 1 -18 186.15 8.78
-2 1 18 194.62 8.35
-2 -1 17 292.34 11.46
-2 1 17 274.81 10.35
-2 1 17 292.66 10.96
-2 -1 17 270.14 11.38
-2 -1 17 286.04 12.07
-2 1 17 286.11 10.91
-2 1 17 299.16 11.32
-2 1 17 288.3 11.38
2 1 -17 302.46 11.45
-2 1 16 612.52 19.12
-2 -1 16 599.38 19.2
-2 1 16 560.22 18.42
2 1 -16 583.71 18.88
-2 -1 16 602.32 19.05
-2 -1 16 548.13 18.45
-2 -1 16 588.17 19.78
-2 -1 15 90.14 5.56
-2 -1 14 47.72 3.87
-2 -1 13 19.8 2.45
-2 -1 12 618.28 19.3
-2 1 12 632.15 19.11
-2 1 11 616.61 18.66
-2 1 10 1139.7 31.67
-2 1 9 94.47 4.45
-2 1 9 111.87 4.81
-2 1 8 907.25 25.68
-2 1 8 950.2 25.8
-2 1 7 104.98 4.31
-2 1 7 98.54 4.19
-2 1 6 1705.41 44.86
-2 1 5 915.19 24.78
-2 1 4 38.6 2.06
-2 -1 4 30.07 1.61
-2 -1 3 126.87 4.14
-2 1 3 136.23 4.54
-2 1 2 1219.08 31.47
-2 -1 2 1198.16 31.16
2 1 -2 1239.28 31.62
2 1 -2 1246.33 31.38
2 1 -2 1141.4 31.56
-2 1 1 679.34 18.16
2 1 -1 728.56 18.06
2 -1 -1 693.07 18.24
2 1 -1 683.08 18.47
2 1 -1 664.74 18.17
-2 -1 1 674.96 17.82
2 1 0 1149.93 29.57
2 1 0 1116.36 29.75
2 1 0 1200.28 30.28
2 -1 0 1148.46 29.79
-2 1 0 1121.71 29.71
-2 -1 0 1157.84 29.3
2 -1 1 842.42 21.03
-2 1 -1 760.82 20.97
2 -1 2 147.74 4.51
2 -1 2 139.05 4.41
2 -1 3 2137.85 54.3
2 -1 3 2082.63 54.34
2 -1 4 2516.1 64.88
2 -1 4 2527.41 64.82
2 -1 5 489.29 13.63
2 -1 6 1163.9 30.87
2 -1 7 1125.98 30.12
2 -1 8 350.98 10.75
2 -1 9 1661.39 45.16
2 1 9 1666.43 45.1
2 -1 9 1784.27 45.39
2 -1 9 1743.47 45.16
2 1 9 1687.18 45.06
2 1 10 1288.39 34.77
2 -1 10 1284.41 35.01
2 -1 10 1296.15 34.82
2 1 11 485.11 14.74
2 -1 11 500.17 15.03
2 -1 11 486.9 14.76
2 -1 12 253.85 9.23
2 1 12 271.11 9.14
2 -1 13 1001.05 28.8
2 1 13 1020.71 28.58
2 1 14 204.98 7.93
2 -1 14 203.11 8.16
2 1 15 1666.85 45.92
2 1 15 1664.52 45.33
2 -1 15 1649.56 45.4
2 1 15 1612.62 45.75
2 -1 15 1634.36 45.82
2 -1 15 1656.17 46.39
2 -1 15 1641.64 45.91
2 1 15 1723.96 45.91
2 1 15 1787.86 45.96
2 1 15 1623.52 45.17
2 -1 15 1719.26 46.16
2 -1 16 417.15 14.07
2 -1 16 398.09 13.13
2 1 16 419.68 14.02
2 1 16 407.56 13.48
2 1 16 419.49 14.15
2 1 16 397.66 13.87
2 -1 16 394.91 13.94
2 -1 16 422.1 14.28
2 1 16 405.25 13.37
2 1 16 436.74 14.07
2 1 16 401.94 13.89
2 -1 16 408.91 13.54
2 1 17 322.82 12.05
2 1 17 321.32 11.31
2 1 17 305.87 11.7
2 -1 17 311.54 12.1
2 1 17 359.68 12.11
2 -1 17 312.59 11.89
2 1 17 327.13 11.93
2 1 18 11.21 2.02
2 1 18 9.34 2.22
2 -1 18 9.17 2.23
2 -1 18 9.57 2.14
-2 1 -18 10.21 2.64
2 1 18 9.79 2.04
2 1 18 10.81 2.21
2 1 18 10.53 2.48
2 -1 19 98.07 5.89
2 1 19 107.45 6.17
2 -1 19 115.96 6.14
2 1 19 101.38 5.98
2 1 19 99.02 5.85
2 1 19 95 5.81
2 1 19 102.73 5.8
2 -1 20 238.33 10.46
2 1 20 266.83 10.79
2 -1 20 252.45 10.44
2 1 20 240.63 10.49
2 1 20 261.93 10.58
2 1 20 263.47 10.78
2 1 21 905.61 28.25
2 -1 21 889.09 28.27
2 1 21 936.16 28.18
2 1 21 913.64 28.41
2 -1 21 943.45 28.27
2 1 21 952.18 28.64
2 1 22 101.49 6.25
2 1 22 99.47 6.01
2 -1 22 105.41 6.16
2 1 22 111.12 6.43
2 1 23 230.95 9.88
2 1 23 231.71 10.23
2 -1 23 227.45 9.83
2 1 24 0.61 1.87
2 1 24 1.88 1.7
2 1 25 256.02 10.06
2 1 25 241.8 10.08
2 -1 26 64.7 4.47
2 1 26 69.25 4.42
2 -1 27 291.61 10.63
2 1 27 302.67 10.36
-2 2 28 17.59 2.04
-2 -2 28 14.15 1.98
-2 -2 28 12.55 1.9
-2 -2 28 14.7 2.12
-2 2 28 12.66 1.8
-2 2 27 7.04 1.74
-2 2 27 7.09 1.89
-2 -2 27 8.34 1.93
-2 -2 27 10.37 1.81
-2 -2 27 7.82 1.91
-2 2 27 9.5 1.66
-2 -2 27 9.2 2.05
-2 2 26 105.09 5.79
-2 2 26 102.78 5.73
-2 2 26 101.83 5.59
-2 -2 26 99.55 5.82
-2 -2 26 111.83 6.25
-2 -2 26 105.29 6
-2 -2 26 109.35 5.83
-2 2 25 140.11 6.47
-2 -2 25 138.39 7.22
-2 2 25 142.22 7.23
-2 2 25 134.73 7.28
-2 -2 25 146.28 7.43
-2 -2 25 141.99 7.52
-2 -2 25 141.05 7.63
-2 2 24 23.24 2.89
-2 -2 24 28.11 3.31
-2 2 24 21.79 3.33
-2 -2 24 18.97 3.27
-2 2 24 26.91 3.27
-2 2 23 5.06 1.96
-2 2 23 3.09 1.75
-2 -2 23 5.11 1.96
-2 -2 22 77.32 5.76
-2 -2 22 62.95 5.5
-2 2 22 72.13 4.97
2 2 -22 73.95 5.1
-2 2 22 71.93 4.86
-2 2 22 58.57 5.33
-2 2 22 79.68 4.91
-2 2 22 75.56 5.62
-2 2 21 79.86 5
-2 2 21 67.69 5.41
-2 2 21 77.58 5.18
-2 2 21 54.65 5.28
-2 -2 21 68.23 5.49
2 2 -21 72.03 5.02
-2 2 21 68.43 5.45
-2 -2 21 70.79 5.75
-2 -2 21 72.21 5.49
-2 2 21 68.01 4.75
-2 2 20 116.12 6.34
-2 2 20 105.15 6.72
-2 -2 20 117.52 6.96
-2 2 20 117.76 6.32
-2 -2 20 105.87 7.08
-2 2 20 98.82 6.96
2 2 -20 120.47 6.56
-2 2 20 112.89 6.56
-2 2 19 83.44 5.9
2 2 -19 103.93 6.02
-2 -2 19 95.63 6.61
-2 2 19 112.76 6.06
-2 2 19 104.29 5.91
-2 -2 19 96.87 6.28
-2 2 19 104.54 6.08
-2 2 19 95.09 6.56
-2 2 18 134.85 8.05
-2 2 18 132.57 6.84
-2 -2 18 134.2 7.28
-2 2 18 153.18 7.56
2 2 -18 139.36 7.24
-2 2 18 133.23 6.75
-2 2 18 130.89 6.73
-2 2 18 128.13 6.2
-2 -2 18 123.45 7.88
-2 2 17 11.33 1.95
-2 2 17 9.86 2.1
-2 2 17 10.64 2.06
-2 -2 17 13.64 2.27
2 2 -17 12.38 2.21
-2 2 17 11.06 2.2
-2 -2 17 14.29 2.78
-2 2 17 12.78 2.53
-2 2 17 8.29 1.94
-2 2 16 195.05 8.97
2 2 -16 194.99 8.24
-2 2 16 180.5 7.89
-2 -2 16 174.03 8.02
-2 -2 16 180.11 8.77
-2 2 16 204.71 8.48
-2 2 16 186.92 8
-2 2 15 347.75 13.29
-2 -2 15 353.02 13.34
2 2 -15 373.59 12.8
-2 2 14 69.07 4.69
-2 -2 14 71.32 4.7
2 2 -14 72.15 4.32
-2 -2 13 195.91 8.42
2 2 -13 223.44 8.43
-2 2 13 218.09 8.74
-2 -2 12 117.78 5.76
-2 2 12 108.54 5.64
2 2 -11 152.57 6.34
-2 2 11 158.93 6.56
-2 -2 11 161.41 6.51
-2 2 11 148.39 6.51
-2 -2 11 144.75 6.41
-2 -2 10 1866 49.85
-2 2 10 1785.11 49.95
2 2 -10 1784.2 49.81
-2 -2 9 596.2 17.45
-2 2 9 625.55 17.6
2 2 -9 581.66 17.42
-2 2 9 567.61 17.45
-2 -2 8 6.21 1.33
-2 2 8 6.3 1.33
-2 2 8 9.2 1.38
2 2 -8 5.14 1.23
-2 2 7 106 4.34
2 2 -7 91.97 4.17
-2 2 7 99.14 4.27
-2 -2 7 99.69 4.2
-2 2 6 285.02 9.07
-2 2 5 348.31 10.48
-2 2 4 2799.55 72.26
-2 2 3 773.89 20.83
-2 2 2 186.99 5.8
2 2 -2 180.93 5.65
2 -2 -2 189.3 5.74
2 2 -1 51.17 2
2 -2 -1 48.23 1.99
-2 2 1 47.52 2.12
2 2 -1 48.97 1.99
2 2 -1 48.52 2.48
2 -2 -1 46.62 1.98
2 -2 0 5.08 0.71
2 2 0 10.48 0.87
2 2 0 8.53 0.8
2 2 0 11.51 1.36
-2 2 0 5.6 0.83
2 2 1 5083.34 128.92
-2 2 -1 5013.66 128.2
2 2 2 9979.23 242.06
2 2 2 9317.17 241.91
2 -2 2 9088.57 241.88
2 2 2 9478.5 242.89
2 -2 2 9999 242.08
2 2 3 971.79 24.64
-2 2 -3 918.51 23.97
2 -2 3 889.26 24.65
2 2 3 1011.54 24.75
2 -2 3 926.45 24.62
2 2 4 7.59 0.91
2 -2 4 5.77 0.88
2 -2 4 4.38 0.83
2 2 4 8.4 0.89
-2 2 -4 5.94 0.55
-2 2 -5 79.36 2.8
2 2 5 83.72 3.16
2 -2 5 82.71 3.22
-2 2 -6 73.39 2.83
2 2 6 72.42 3.03
2 -2 6 73.3 3.06
2 -2 7 381.53 11.41
-2 2 -7 399.65 11.18
2 2 7 376.08 11.3
2 -2 8 3097.1 80.37
2 -2 8 3193.79 80.28
2 2 8 3067.7 80.29
2 -2 8 2986.05 80.33
2 2 8 3171.27 80.38
2 2 8 3125.38 80.19
2 2 9 981.71 27.61
2 2 9 1066.48 27.92
2 -2 9 1011.85 27.86
2 2 9 1008.77 27.74
2 -2 9 1030.33 27.75
2 -2 10 717.45 20.31
2 -2 10 716.1 20.08
2 2 10 704.86 19.95
2 2 10 686.88 20.1
2 -2 11 39.04 2.63
2 2 11 37 2.62
2 -2 11 41.18 2.81
2 2 11 40.93 2.6
-2 2 -12 112.64 5.08
2 2 12 116.22 5.17
2 2 12 111.86 4.91
2 -2 12 103.26 5.01
2 -2 12 107.67 4.92
2 -2 13 561.59 17.09
2 2 13 554.29 16.74
-2 2 -13 530.54 16.81
2 -2 13 563.2 16.86
2 2 13 531.01 16.86
2 -2 14 1876.67 49.48
-2 2 -14 1785.1 49.51
2 -2 14 1795.08 49.64
2 2 14 1779.74 49.51
2 2 14 1870.35 49.34
2 2 15 11.73 1.7
2 2 15 13.07 1.71
2 2 15 10.01 1.75
2 -2 15 14.47 2.46
2 -2 15 12.42 1.97
2 2 15 13.37 2.06
2 2 15 11.49 1.85
2 -2 15 12.72 2.08
2 2 15 11.57 1.94
-2 2 -15 12.99 1.97
2 2 15 12.01 1.86
2 -2 15 13.34 1.9
2 2 15 12.92 1.9
2 -2 15 12.79 2.04
2 -2 15 14.25 1.83
2 -2 15 14.09 2
2 -2 16 597.33 18.93
2 2 16 570.19 17.83
2 -2 16 606.52 18.9
2 2 16 556.85 17.94
2 -2 16 611.65 18.77
2 2 16 630.45 18.68
-2 2 -16 588.39 18.59
2 2 16 556.79 18.01
2 2 16 569.73 18.49
2 2 16 571.71 18.4
2 -2 16 586.83 18.96
2 2 16 591.45 18.57
2 2 16 581.76 18.53
2 -2 16 605.28 19.69
2 -2 16 632.08 18.82
2 -2 16 580.42 18.23
2 2 16 589.74 18.75
2 2 17 97.42 5.22
2 -2 17 87.69 6.3
2 2 17 83.98 5.66
2 2 17 87.39 4.7
2 -2 17 88.26 5.09
2 2 17 89.94 5.14
2 2 17 84.99 5.02
2 2 17 84.95 5.34
2 -2 17 84.54 5.7
2 2 17 84.56 4.97
-2 2 -17 91.54 5.15
2 -2 17 79.28 5.18
2 -2 17 82.56 5.45
2 -2 17 86.69 5.78
2 2 17 82.11 5.13
2 2 18 18.05 2.63
2 2 18 13.14 2.14
2 -2 18 14.25 2.96
2 -2 18 10.08 2.18
2 2 18 15.49 2.38
2 -2 18 15.29 3.58
2 -2 18 11.78 2.59
2 2 18 12.09 2.78
2 2 18 19.4 2.64
2 -2 18 12.72 2.54
2 -2 18 14.44 2.29
2 2 18 16.2 2.42
2 2 18 15.12 2.58
2 2 18 10.01 2.02
2 2 19 224.59 9.02
2 -2 19 228.45 9.84
2 2 19 225.85 9.57
2 2 19 246.78 9.97
2 -2 19 224.46 9.9
2 2 19 243.59 10.02
2 2 19 228.94 9.69
2 -2 19 245.25 10.15
2 -2 19 229.25 9.71
2 2 19 230.12 9.57
2 -2 20 997.19 29.89
2 2 20 1031.22 30
2 2 20 977.67 29.78
2 -2 20 1009.13 30.15
2 2 20 1048.17 30.27
2 2 20 933.39 28.71
2 2 20 992.96 29.72
2 -2 20 1003.49 30.32
2 2 20 965.1 29.98
2 -2 20 1036.34 30.44
2 -2 21 3.59 1.44
2 -2 21 1.52 2.06
2 2 21 6.34 1.78
2 -2 21 2.34 1.82
2 2 21 3.06 2.01
2 2 21 2.28 1.86
2 2 21 2.06 1.93
2 -2 21 2.98 2.1
2 2 21 2.93 1.72
2 2 22 655.12 21.41
2 -2 22 672.77 21.91
2 -2 22 662.17 21.92
2 -2 22 661.7 21.46
2 2 22 673.51 21.43
2 2 22 673.97 21.69
2 2 22 660.47 21.23
2 -2 23 149.5 7.6
2 2 23 149.19 7.28
2 2 23 138.83 7.26
2 2 23 137.46 7.34
2 -2 23 138.59 7.24
2 2 23 144.21 7.11
2 -2 23 144.99 7.66
2 2 24 84.35 5.03
2 2 24 78.01 5.05
2 -2 24 68.45 5.16
2 -2 24 76.84 5.25
2 2 25 61.56 4.11
2 -2 25 46.7 4.13
2 2 25 59.91 4.17
2 -2 25 55.08 4.22
2 2 26 240.46 9.04
2 -2 27 5.15 1.92
2 2 27 4.57 1.51
-2 3 28 8.5 1.44
-2 -3 28 7.85 1.76
-2 3 28 8.95 1.48
-2 -3 28 10.2 1.68
-2 -3 27 62.37 3.93
-2 -3 27 55.57 3.67
-2 3 27 61.25 3.66
-2 3 27 62.39 3.65
-2 -3 26 23.74 2.88
-2 3 26 22.77 2.55
-2 3 26 20.11 2.53
-2 3 26 28.4 2.85
-2 -3 26 22.06 2.8
-2 -3 26 17.6 2.43
-2 -3 25 1.85 1.91
-2 3 25 2.01 1.8
-2 -3 25 0.19 1.54
-2 -3 25 1.54 1.72
-2 -3 25 1.41 2.04
-2 3 25 0.36 1.46
-2 -3 24 43.24 4.32
-2 -3 24 37.4 4.14
-2 3 24 47.37 4.25
-2 -3 24 43.55 4.25
-2 3 24 50.81 4.15
-2 -3 24 37.39 3.78
-2 3 23 225.88 9.25
-2 3 23 220.75 10.21
-2 -3 23 233.13 10.31
-2 -3 23 219.92 10.28
-2 -3 23 213.55 10.32
-2 3 23 228.59 10.18
-2 3 23 234.27 9.16
-2 3 23 226.73 9.28
-2 -3 22 0.26 2.12
-2 3 22 2.39 1.6
-2 3 22 0.24 1.74
-2 3 22 -0.91 1.75
-2 -3 22 -0.48 1.94
-2 3 22 1.75 1.38
-2 3 21 80.39 5.03
2 3 -21 77.43 5.1
-2 -3 21 60.75 5.24
-2 3 21 70.92 5.5
-2 3 21 60.24 4.49
-2 -3 21 68.58 5.54
-2 3 21 78.8 5.48
-2 3 21 67.09 4.75
-2 -3 21 67.36 5.21
-2 3 20 3.11 1.86
-2 3 20 2.06 1.76
-2 -3 20 5.65 2.55
-2 -3 20 4.34 1.96
-2 3 20 0.54 1.88
-2 -3 20 1.36 2.1
-2 3 20 3.65 1.79
-2 3 20 2.82 1.66
-2 -3 20 5.03 2.29
-2 3 20 5.05 1.97
2 3 -20 4.32 1.72
-2 3 19 42.94 3.67
-2 3 19 39.01 4.25
-2 -3 19 38.95 4.39
-2 3 19 46.75 4.07
-2 3 19 49.87 4.22
2 3 -19 41.99 3.95
-2 3 19 43.87 3.73
-2 -3 19 38.04 4.2
-2 3 19 48.1 4.52
-2 -3 19 46.69 4.54
2 3 -18 32.48 3.39
-2 -3 18 33.51 4.03
-2 3 18 30.38 3.86
-2 3 18 36.47 3.79
-2 -3 18 33.52 4.26
-2 3 18 35.35 3.82
-2 3 18 31.45 3.12
-2 3 18 35.27 4.11
-2 -3 18 34.25 4.52
-2 3 17 449.27 15.28
-2 3 17 441.08 15.19
-2 3 17 464.28 16.49
-2 -3 17 456.68 15.68
-2 3 17 444.1 14.9
-2 3 17 453.27 15.67
-2 -3 17 455.7 16.36
2 3 -17 466.42 15.73
-2 -3 17 402.77 15.69
-2 3 16 124.2 6.82
-2 -3 16 141.83 7.21
-2 3 16 120.07 6.14
-2 3 16 140.21 6.68
2 3 -16 133.63 6.5
-2 3 16 114.06 6.02
-2 -3 16 117.81 6.61
-2 3 16 121.35 6.29
-2 -3 16 127.23 6.43
-2 3 15 178.26 7.52
-2 3 15 183.3 8.31
-2 -3 15 172.95 8.02
2 3 -15 188.19 7.98
-2 3 15 167.55 7.58
-2 -3 15 181.23 8.3
-2 3 14 48.54 3.84
-2 -3 14 58.51 4.08
2 3 -14 48.07 3.6
2 3 -13 779.93 22.99
-2 -3 13 734.84 23.02
-2 3 13 777.37 23.25
-2 3 12 400.13 13.61
2 3 -12 419.84 13.62
-2 -3 12 414.4 13.66
-2 3 11 527.76 16.26
-2 -3 11 516.45 16.22
-2 -3 11 499.92 15.94
-2 3 11 546.44 16.15
2 3 -11 524.91 16.28
-2 3 10 2.38 1.06
2 3 -10 3.36 1.29
-2 -3 10 0.34 1.11
-2 -3 10 2.25 1.13
-2 3 10 2.48 1.25
2 3 -9 540.54 16.81
-2 -3 9 541.63 16.42
2 3 -8 318.42 10.71
-2 3 8 353.81 10.63
-2 -3 8 322.36 10.43
2 3 -7 2531.55 68.28
-2 3 7 2699.7 68.06
-2 -3 7 2596.4 68
2 3 -6 120.97 4.9
-2 3 6 132.44 4.8
-2 -3 6 125.85 4.74
2 3 -5 291.52 9.07
2 3 -4 36.26 2.06
-2 3 4 33.32 1.34
2 3 -3 83.41 3.13
2 -3 -3 81.38 3.17
2 -3 -2 56.71 2.28
2 -3 -2 57.29 2.28
2 3 -2 54.69 2.19
2 -3 -1 2452.49 62.23
2 -3 -1 2372.12 62.19
2 3 -1 2527.98 63.57
2 3 -1 2440.46 62.19
2 3 -1 2424.92 62.15
2 3 0 479.47 14.19
2 3 1 172.36 5.04
2 3 1 177.4 6.22
2 -3 1 158.84 5.02
2 -3 2 320.13 9.22
2 3 2 331.4 9.23
2 3 2 351.01 9.31
2 -3 2 323.08 9.29
-2 3 -3 18.03 0.9
2 -3 3 19.42 1.21
2 -3 3 19.15 1.28
-2 3 -4 108.18 3.37
2 -3 4 107.65 3.76
2 3 4 109.86 3.75
2 3 5 5257.34 129.16
-2 3 -5 5023.45 128.67
2 -3 5 4937.67 129.13
2 3 6 69.5 2.9
2 -3 6 63.36 2.89
-2 3 -6 71.68 2.65
-2 3 -7 427.05 11.84
2 3 7 393.5 12.1
2 -3 7 434.63 12.27
2 -3 8 403.99 11.81
2 3 8 375.41 11.6
2 3 8 387.61 11.56
2 -3 8 398.21 11.7
-2 3 -8 398.84 11.43
2 3 8 396.63 11.71
2 -3 9 36.37 2.36
2 -3 9 35.22 2.21
2 3 9 39.5 2.26
2 3 9 39 2.4
-2 3 -9 35.75 2.17
-2 3 -10 707 19.49
2 3 10 676.94 19.5
2 3 10 698.67 19.75
2 -3 10 668.66 19.57
2 -3 10 700.06 19.92
2 3 11 2889.1 75.92
2 3 11 2911.48 75.73
2 -3 11 2882.51 76.08
-2 3 -11 2833.85 75.61
2 -3 11 3003 75.98
2 -3 12 56.37 3.45
2 3 12 55.79 3.32
2 3 12 54.53 3.19
2 -3 12 56.86 3.35
-2 3 -12 53.4 3.12
2 -3 13 879.54 24.74
-2 3 -13 823.27 24.32
2 3 13 867.73 24.47
2 3 13 828.69 24.56
2 -3 13 877.23 24.95
2 -3 14 119.29 6.6
2 3 14 132.22 5.83
2 3 14 128.74 5.95
-2 3 -14 133.93 5.83
2 3 14 117.02 5.42
2 -3 14 132.43 6.1
2 -3 14 127.67 6.04
2 -3 14 137.63 6.08
2 -3 14 142.55 6.1
2 -3 14 127.69 6.17
2 3 14 129.16 5.92
2 3 15 15.93 2.02
2 3 15 16.91 1.94
2 -3 15 18.97 2.14
2 3 15 18.6 1.99
2 -3 15 20.31 2.35
2 -3 15 15.17 2.75
2 3 15 14.74 2.1
2 3 15 18.97 2.19
2 -3 15 18.69 2.37
2 -3 15 18.8 2.52
2 3 15 19.03 2.18
-2 3 -15 18.13 2.12
2 3 15 21.33 2.32
2 3 15 19.24 2.3
2 -3 15 20.63 2.3
2 -3 15 19.15 2.17
2 -3 16 41.31 3.54
2 3 16 40.62 3.19
2 3 16 39.19 3.35
2 3 16 42.88 3.43
2 3 16 44.69 3.47
2 3 16 39.65 3.18
2 -3 16 46.03 3.69
2 -3 16 48.5 3.82
2 3 16 40.89 3.2
2 3 16 41.07 3.07
2 -3 16 44.4 3.44
2 3 16 43.27 3.33
2 -3 16 40.8 3.28
2 3 17 1461.56 41.21
2 3 17 1531.43 41.95
2 -3 17 1493.15 41.99
2 3 17 1352.25 41.21
2 -3 17 1469.64 42.22
2 -3 17 1517.53 42.26
2 3 17 1475 41.56
2 3 17 1609.64 41.98
2 -3 17 1548.87 42.64
2 3 17 1472.73 41.73
2 3 17 1521.9 42.08
2 -3 17 1518.99 42
2 3 17 1475.54 41.8
2 3 18 34.75 3.37
2 3 18 32.37 3.22
2 3 18 33.97 3.22
2 -3 18 30.31 3.44
2 3 18 35.52 2.98
2 3 18 35.57 3.34
2 -3 18 33.18 3.4
2 3 18 25.61 3.2
2 3 18 34.2 3.34
2 -3 18 32.41 3.34
2 -3 18 24.95 3.15
2 3 19 979.1 28.53
2 3 19 930.13 28.11
2 3 19 982.12 28.69
2 3 19 912.31 27.75
2 -3 19 985.34 29.17
2 -3 19 956.81 28.48
2 3 19 938.72 28.61
2 3 19 979.99 28.56
2 -3 19 906.66 28.53
2 -3 19 961.4 28.96
2 3 20 4.31 1.64
2 3 20 6.12 1.83
2 3 20 4.6 1.74
2 -3 20 4.43 1.78
2 3 20 5.79 2.05
2 -3 20 6.72 2.35
2 3 20 6.3 1.79
2 -3 20 7.66 1.94
2 3 20 4.81 1.95
2 -3 20 6.66 2.16
2 -3 21 33.12 3.36
2 -3 21 29.84 3.48
2 3 21 23.53 2.72
2 3 21 28.36 3.27
2 3 21 31.33 3.36
2 3 21 27.88 3.12
2 3 21 29.3 3.1
2 -3 21 28.28 3.45
2 3 22 41.92 3.63
2 3 22 35.96 3.06
2 -3 22 40.45 4.02
2 3 22 39.42 3.76
2 3 22 39.98 3.64
2 -3 22 39.43 3.73
2 -3 22 39.95 3.96
2 3 22 42.37 3.85
2 3 23 572.03 18.32
2 3 23 567.91 18.35
2 -3 23 581.85 19.19
2 3 23 558.19 18.54
2 -3 23 563.64 19.14
2 3 24 2.45 1.64
2 -3 24 0.99 1.82
2 -3 24 2.11 1.88
2 3 24 2.47 1.57
2 3 24 2.9 1.86
2 -3 25 515.08 17.22
2 -3 26 24.76 2.77
-2 -4 27 83.55 4.34
-2 4 27 83.14 3.85
-2 -4 27 81.4 4.48
-2 -4 27 71.91 3.87
-2 4 26 2.7 1.27
-2 -4 26 0.91 1.49
-2 -4 26 0.32 1.62
-2 4 26 0.25 1.18
-2 -4 26 2.15 1.32
-2 4 25 128.25 6.16
-2 -4 25 121.84 6.52
-2 4 25 133.13 6.34
-2 -4 25 131.77 6.4
-2 4 25 130.87 6.21
-2 -4 25 116.24 6.15
-2 -4 25 139.34 7.06
-2 4 24 1.04 1.35
-2 4 24 0.6 1.49
-2 -4 24 0.21 1.94
-2 -4 24 0.22 2.14
-2 4 24 3.34 1.37
-2 -4 24 3.55 1.33
-2 -4 24 3.66 1.87
-2 4 24 3.42 1.7
-2 4 23 15.81 2.55
-2 -4 23 19.93 3.33
-2 4 23 26.31 3.14
-2 4 23 17.81 2.63
-2 -4 23 20.69 2.95
-2 -4 23 23.22 3.56
-2 4 23 24.45 2.87
-2 -4 23 18.19 2.66
-2 4 22 2.62 1.55
-2 -4 22 3.41 1.88
-2 4 22 4.45 1.47
-2 4 22 0.18 1.54
-2 -4 22 1.02 2.05
-2 4 22 1.09 1.76
-2 -4 22 5.92 1.87
-2 4 21 345.15 12.63
-2 4 21 340.71 12.7
-2 -4 21 309.24 13.45
-2 4 21 325.27 13.49
2 4 -21 334.9 12.71
-2 4 21 357.41 13.36
-2 -4 21 337.65 13.99
-2 -4 21 341.65 13.3
2 4 -20 8.81 2.05
-2 4 20 16.36 2.79
-2 -4 20 11.02 2.36
-2 -4 20 4.65 2.56
-2 4 20 12.86 2.34
-2 4 20 9.31 2.08
-2 -4 20 12.34 2.63
-2 4 20 9.96 2.32
-2 4 19 105.67 6.04
-2 -4 19 103.09 6.25
2 4 -19 105.19 6.09
-2 4 19 107.2 6.24
-2 4 19 114.95 6.45
-2 -4 19 105.03 6.72
-2 -4 19 110.56 6.42
-2 4 19 100.64 6.54
-2 -4 19 99.46 6.63
-2 4 19 115.86 6.17
-2 4 18 12.25 2.62
-2 4 18 14.18 2.38
-2 -4 18 4.51 2.74
-2 4 18 4.14 2.16
-2 4 18 9.04 2.15
-2 -4 18 7.35 2.04
-2 -4 18 5.62 1.87
2 4 -18 5.12 1.92
-2 4 18 6.28 2.24
2 4 -17 24.76 3.18
-2 -4 17 26.36 3.05
-2 4 17 28.28 3.74
-2 4 17 25.48 2.82
-2 4 17 23.11 3.5
-2 -4 17 22.71 3.35
-2 4 17 29.23 3.23
-2 -4 17 22.51 4.16
-2 -4 16 45.75 3.62
-2 -4 16 44.09 3.95
-2 4 16 35.96 3.4
-2 4 16 47.93 3.73
2 4 -16 50.22 3.95
-2 -4 16 41.04 3.91
-2 4 16 42.32 3.87
-2 4 15 1097.46 32.66
-2 -4 15 1098.14 32.77
2 4 -15 1157.24 32.62
-2 4 15 1152.72 32.13
-2 -4 15 1054.78 31.81
-2 -4 15 1137.49 32.81
-2 4 14 55.38 3.7
-2 4 14 55.44 3.97
-2 -4 14 59.42 4.13
2 4 -14 52.48 3.9
2 4 -13 364.76 12.6
-2 -4 13 361.74 12.54
-2 4 13 343.8 12.36
2 4 -12 333.43 11.59
-2 -4 12 316.37 11.25
-2 4 12 320.44 11.28
-2 4 11 15.66 2.29
-2 -4 11 13.28 1.89
2 4 -11 17.79 2.23
-2 4 11 12.95 1.79
-2 4 10 113.53 5.09
2 4 -10 125.81 5.63
-2 -4 10 116.2 5.16
-2 4 10 120.89 5.71
-2 -4 9 1870.2 49.96
-2 4 9 1865.59 49.94
-2 -4 9 1761.55 49.68
-2 4 9 1914.12 50.59
-2 4 9 1956.66 49.89
2 4 -9 1938.33 50.59
2 4 -8 248.25 8.88
-2 -4 8 249.9 8.31
-2 4 8 250.61 8.9
-2 4 8 261.19 8.33
2 4 -7 119.47 5.22
-2 4 7 131.94 4.82
-2 -4 7 125.93 4.79
-2 4 7 121 5.24
-2 -4 6 339.87 10.41
-2 4 6 361.41 11.16
2 4 -6 342.93 10.97
-2 4 6 356.57 10.47
-2 -4 5 630.1 16.85
-2 4 5 636.92 16.87
2 4 -5 627.34 17.47
-2 4 5 575.67 16.14
-2 4 5 603.45 17.47
2 -4 -4 724.77 19.88
2 4 -4 750.16 20.42
-2 4 4 732.18 20.47
2 4 -4 729.21 19.79
-2 4 3 1608.37 41.01
2 4 -3 1535.19 40.13
2 4 -3 1634.64 40.94
2 -4 -3 1575.51 40.28
2 4 -3 1506.91 39.68
2 -4 -2 934.75 25.18
2 4 -2 995.03 25.15
2 -4 -2 941.22 25.2
2 4 -2 1001.04 25.2
2 4 -2 1026.39 26.01
-2 4 2 997.09 26.07
2 4 -2 938.63 24.7
-2 4 1 64.97 2.92
2 4 -1 65.04 3.55
2 -4 0 681.56 18.49
-2 4 0 710.53 19.27
2 4 0 736.77 20.48
2 4 0 710.5 18.49
2 4 1 649.59 16.64
-2 4 -1 611.26 17.25
2 -4 1 610 16.65
-2 4 -2 693.74 20.01
2 -4 2 723.78 19.48
2 -4 3 1752.62 45.66
2 4 3 1795.15 47.38
2 4 3 1775.17 45.65
2 -4 4 676.56 18.32
2 4 4 716.83 18.39
-2 4 -4 643.6 18.03
2 4 4 751.48 20.03
2 4 5 29.99 1.69
2 -4 5 29.56 1.68
-2 4 -5 28.35 1.48
-2 4 -6 869.26 23.12
2 -4 6 884.08 23.47
2 4 6 855.18 23.37
2 -4 7 1301.64 35.06
-2 4 -7 1329.78 34.77
2 4 7 1333.07 35.05
2 -4 8 861.87 23.75
-2 4 -8 869.8 23.37
2 4 8 861.01 23.63
2 4 9 506.18 14.7
2 -4 9 528.59 14.89
-2 4 -9 479.71 14.28
-2 4 -10 412.64 12.5
2 4 10 427.52 12.78
2 -4 10 438.11 13.1
2 4 10 426.64 12.9
2 -4 10 416.8 12.82
2 -4 11 463.92 14.49
-2 4 -11 459.93 13.98
2 4 11 480.49 14.44
2 -4 11 469.88 14.36
2 4 11 495.33 14.35
2 -4 12 411.27 12.56
-2 4 -12 365.41 11.96
2 4 12 406.33 12.58
2 -4 12 362.4 12.47
2 4 12 402.05 12.37
2 -4 13 586.82 18.54
-2 4 -13 551.12 17.46
2 -4 13 635.92 18.25
2 4 13 607.72 18.1
2 -4 13 590.38 18.23
2 4 13 622.71 17.98
2 4 13 599.76 18.28
2 4 13 593.25 18.04
2 -4 14 471.82 14.48
2 -4 14 440.91 14.81
2 -4 14 441.76 14.36
2 4 14 431.94 14.25
2 4 14 411.04 14.13
2 4 14 444.53 14.5
2 4 14 428.72 13.98
2 -4 14 443.52 14.52
2 4 14 453.17 14.2
2 -4 14 455.41 14.81
2 4 14 449.48 14.23
2 4 15 27.13 2.76
2 -4 15 30.76 2.74
2 -4 15 27.92 2.57
2 4 15 27.31 2.77
2 -4 15 28 2.82
2 4 15 31.19 2.71
2 -4 15 23.32 2.76
2 4 15 24.5 2.43
2 4 15 31.72 2.72
2 4 15 24.74 2.4
2 4 15 30.36 2.63
2 4 15 28.87 2.79
2 4 15 23.35 2.52
2 4 16 632.78 19.88
2 4 16 632.2 19.33
2 4 16 653.42 19.55
2 4 16 619.35 19.75
2 4 16 654.99 19.78
2 4 16 657.38 19.83
2 -4 16 649.64 20.35
2 -4 16 643.63 19.86
2 4 16 629.74 20.02
2 -4 16 614.68 19.92
2 4 16 614.97 19.66
2 4 16 620.51 19.88
2 -4 16 643.21 20.56
2 4 17 363.55 12.52
2 4 17 359.2 12.94
2 -4 17 381.77 13.09
2 4 17 382.47 13.09
2 4 17 358.71 12.86
2 -4 17 363.65 13.55
2 -4 17 364.24 13.09
2 4 17 369.28 12.65
2 4 17 365.52 12.77
2 4 17 351.76 12.9
2 -4 17 362.63 13.37
2 4 17 363.87 13.04
2 4 18 544.8 18.23
2 -4 18 565.35 18.69
2 -4 18 595.76 18.65
2 4 18 580.91 18.55
2 4 18 564.68 18.06
2 -4 18 605.97 19.36
2 4 18 593.91 18.51
2 4 18 566.18 18.17
2 -4 18 567.23 18.9
2 4 18 574.68 18.52
2 4 18 557.97 18.54
2 -4 19 394.31 14.35
2 4 19 365.86 13.64
2 4 19 393.7 13.47
2 -4 19 389.93 14.23
2 -4 19 385.45 13.74
2 4 19 393.83 13.76
2 4 19 380.9 13.26
2 -4 19 372.09 13.8
2 4 19 393.48 13.78
2 4 19 406.87 13.78
2 -4 20 297.97 11.31
2 4 20 299.74 11.26
2 4 20 293.04 11.2
2 4 20 287.66 10.87
2 4 20 275.43 11.2
2 -4 20 292.41 11.79
2 -4 20 292.15 11.76
2 4 20 292.16 11.25
2 4 20 299.91 10.87
2 4 21 1.25 1.39
2 4 21 1.01 1.56
2 4 21 1.59 1.41
2 4 21 0.16 1.24
2 -4 21 2.7 1.96
2 -4 21 0.2 1.68
2 -4 22 301.87 11.85
2 4 22 290.63 10.59
2 4 22 291.36 11.07
2 4 22 301.19 11.14
2 4 22 283.7 10.63
2 -4 22 302.34 11.86
2 -4 23 197.25 8.94
2 4 23 210.7 8.44
2 -4 23 194.07 8.9
2 -4 24 209.68 8.92
2 4 24 196.54 8.02
2 -4 25 93.18 5.34
2 -4 26 213.1 8.27
2 -4 26 194.33 8.04
-2 -5 27 103.21 4.5
-2 -5 27 112.66 5.08
-2 -5 26 13.22 2
-2 -5 26 12.78 1.72
-2 -5 26 13.41 2.19
-2 -5 25 4.35 1.79
-2 -5 25 5.08 2.05
-2 -5 25 9.13 1.64
-2 5 25 6.28 1.5
-2 -5 24 31.54 3.04
-2 5 24 33.65 2.94
-2 5 24 30.33 2.83
-2 -5 24 30.45 3.22
-2 -5 24 28.4 2.87
-2 -5 24 35.63 3.66
-2 5 24 32.64 2.87
-2 5 24 30.95 2.82
-2 -5 23 185.17 8.72
-2 -5 23 185.21 8.32
-2 5 23 188.83 7.97
-2 5 23 189.71 8.1
-2 5 23 174.26 7.87
-2 -5 23 202.57 9.3
-2 -5 23 174.45 7.99
-2 5 23 203.12 8.15
-2 -5 22 1.31 2.02
-2 -5 22 1.95 2.24
-2 -5 22 0.96 1.57
-2 5 22 0.18 1.65
-2 5 22 0.51 1.54
-2 -5 22 -0.99 1.89
-2 5 22 -0.18 1.62
-2 5 22 1.24 1.44
-2 5 21 32.6 3.35
-2 -5 21 34.38 3.87
-2 -5 21 33.47 3.54
-2 5 21 32.94 3.49
-2 5 21 42.28 3.59
-2 -5 21 45.94 4.44
-2 5 21 37.33 3.57
-2 -5 21 34.22 3.7
-2 5 20 14.83 2.56
-2 5 20 15.71 2.56
-2 -5 20 13.72 2.98
-2 -5 20 8.93 2.16
2 5 -20 13.97 2.43
-2 5 20 15.44 2.46
-2 5 20 13.94 2.58
-2 5 20 10.51 2.25
-2 5 19 18.86 2.78
-2 -5 19 17.99 2.79
-2 5 19 18.46 2.51
-2 -5 19 15.9 3.13
-2 5 19 18.64 2.63
-2 -5 19 17.45 2.42
2 5 -19 17.8 2.72
-2 5 18 94.22 5.87
-2 -5 18 92.5 5.95
-2 -5 18 96.48 5.72
2 5 -18 94.8 5.81
-2 -5 18 98.66 6.33
-2 5 18 89.37 5.47
-2 5 18 96.29 5.65
-2 5 18 106.6 5.94
-2 5 17 537.62 18.32
-2 5 17 586.23 18.35
-2 -5 17 550.52 18.3
-2 5 17 560.87 18.06
2 5 -17 565.96 18.71
-2 -5 17 574.38 18.42
-2 5 17 527.37 18.41
-2 -5 17 549.57 19.15
-2 -5 17 567.82 18.97
-2 5 16 24.29 3.58
-2 -5 16 22.34 3.65
-2 -5 16 21.54 2.65
-2 5 16 25.35 2.83
-2 -5 16 21.71 2.93
2 5 -16 20.25 3.03
-2 5 16 26.36 2.77
2 5 -15 48.11 3.85
-2 5 15 39.82 3.38
-2 5 15 38.26 3.16
-2 -5 15 43.77 3.85
-2 5 15 44.57 3.4
-2 -5 15 48.7 3.62
2 5 -14 2.51 1.58
-2 5 14 2.57 1.34
-2 5 14 4.38 1.4
-2 -5 14 1.79 1.27
-2 -5 14 4.18 1.74
-2 5 13 136.29 6.15
2 5 -13 129.28 6.53
-2 5 13 128.7 6.13
-2 5 13 130.81 6.08
-2 -5 13 145.76 6.42
-2 -5 12 186.06 7.58
2 5 -12 194.68 8.22
-2 5 12 186.2 7.46
-2 5 12 205.5 8.5
-2 5 11 1293.22 34.19
2 5 -11 1237.35 34.14
-2 5 11 1113.53 32.78
-2 -5 11 1174.88 33.1
-2 5 10 52.23 3.1
-2 -5 10 50.58 3.11
2 5 -10 55.42 3.71
-2 5 10 62.29 3.89
-2 5 9 89.36 4.06
-2 -5 9 94.65 4.22
2 5 -9 87.55 4.87
-2 5 9 92.28 4.73
2 5 -8 6.23 1.49
-2 5 8 4.67 0.97
-2 5 8 4.4 1.29
-2 -5 8 2.72 0.91
-2 5 7 196.37 6.63
2 5 -7 201.39 7.05
2 5 -7 220.58 7.78
-2 5 7 216.85 7.8
-2 -5 7 209.53 6.84
-2 -5 7 203.53 6.69
-2 5 7 191.62 6.53
-2 5 6 860.78 23.88
-2 5 6 946.15 24.35
-2 5 6 902.27 25.53
2 5 -6 886.14 24.84
2 5 -6 1006.92 25.65
-2 5 6 862.79 24.18
-2 -5 6 934.23 24.38
2 5 -5 1500.89 37.57
-2 5 5 1318.7 36.17
2 5 -5 1331.06 36.29
-2 5 5 1476.36 37.72
2 5 -5 1391.47 37.04
-2 -5 5 1447.16 36.36
-2 5 5 1352.56 36.25
2 -5 -5 1397.6 36.52
-2 -5 4 6.02 0.76
2 5 -4 4.55 0.67
2 -5 -4 5.14 0.76
2 5 -4 4.58 0.65
2 5 -4 4.29 1.03
-2 5 4 5.19 0.72
2 5 -4 4.84 0.62
2 5 -4 4.54 1.02
2 -5 -4 4.37 0.67
2 5 -3 384.55 10.34
2 -5 -3 391.03 10.48
2 5 -3 384.83 11.61
2 5 -3 392.96 10.41
2 5 -3 404.42 11.62
2 -5 -3 359.8 10.36
2 5 -3 377 10.31
-2 5 3 356.59 10.44
-2 -5 3 385.36 10.55
-2 5 3 405.66 11.77
2 5 -2 120.01 4.51
-2 5 2 112.64 4.46
2 5 -2 104 3.24
2 5 -1 137.21 4.02
2 -5 -1 130.24 4
2 5 -1 141.87 6.12
2 5 -1 150.96 5.31
-2 5 1 138.49 5.16
2 5 0 404.79 10.41
2 5 0 408.57 11.8
-2 5 0 394.41 11.61
-2 5 -1 1507.81 39.95
2 5 2 3.6 1.5
-2 5 -2 3.61 1
-2 5 -3 1956.63 52.63
2 5 3 2092.66 53.95
2 5 4 50.17 3.36
-2 5 -4 52.32 2.85
2 -5 5 92.67 3.48
-2 5 -5 100.13 4.29
2 5 5 100.03 3.56
2 5 6 12.53 1.13
-2 5 -6 11.57 1.03
2 -5 6 11.25 1.11
-2 5 -7 888.14 24.95
2 -5 7 934.43 25.19
2 -5 8 260.33 8.35
2 5 8 265.37 8.34
-2 5 -8 260.84 8.16
2 -5 9 2562.32 69.75
-2 5 -9 2695.59 69.57
2 5 9 2789.81 69.88
-2 5 -10 28.12 1.99
2 5 10 32.3 2.24
2 -5 10 32.2 2.26
2 -5 11 1.79 0.9
2 5 11 2 0.92
-2 5 -11 2.48 0.86
2 5 12 101.67 4.7
2 5 12 105.37 5.12
2 5 12 98.54 4.81
2 -5 12 98.33 4.72
2 -5 13 506.27 16.56
2 5 13 496.29 16.16
2 5 13 540.46 16.12
2 -5 13 512.15 16.08
2 -5 13 510.56 16.4
2 5 13 525.49 16.34
2 5 13 513.73 15.96
2 5 13 534.27 16.5
2 5 14 82.73 4.49
2 5 14 83.5 4.64
2 5 14 84.12 4.67
2 -5 14 82.39 4.51
2 5 14 86.81 4.47
2 5 14 82.05 4.39
2 -5 14 83.74 4.92
2 5 14 81.77 4.53
2 -5 14 76.81 4.66
2 5 15 1825.91 49.55
2 5 15 1817.76 49.83
2 5 15 1816.99 49.53
2 -5 15 1786.63 50.04
2 5 15 1844.06 49.47
2 -5 15 1818.23 49.76
2 5 15 1862.45 49.86
2 5 15 1751.76 49.73
2 -5 15 1849.22 50.44
2 -5 15 1814.52 49.55
2 5 16 19.31 2.78
2 5 16 17.15 2.41
2 5 16 20.93 2.91
2 -5 16 18.12 2.42
2 5 16 17.67 2.35
2 -5 16 19.64 2.85
2 5 16 19.82 2.36
2 -5 16 20.27 2.73
2 -5 16 26.2 2.93
2 5 16 21.67 2.85
2 5 16 21.72 2.68
2 5 17 86.81 4.92
2 -5 17 80.39 5
2 5 17 92.32 5.19
2 -5 17 90.08 5.49
2 5 17 85.74 4.97
2 5 17 92.85 5.47
2 -5 17 85.54 5.02
2 -5 17 92.79 5.46
2 5 17 87.97 5.26
2 5 17 93.39 5.31
2 5 17 95.48 5.07
2 -5 18 28.1 3.18
2 5 18 27.34 2.98
2 5 18 22.26 2.57
2 -5 18 28.19 2.96
2 5 18 22.09 2.74
2 -5 18 25.31 3.03
2 5 18 22.61 2.75
2 -5 18 27.06 2.88
2 5 18 25.31 2.76
2 5 19 182.47 7.84
2 5 19 161.91 7.69
2 -5 19 181.85 8.31
2 5 19 199.49 8.13
2 -5 19 174 8.37
2 5 19 175.59 7.72
2 5 20 51.87 3.82
2 -5 20 52.57 4.29
2 5 20 52.12 3.86
2 -5 20 43.68 3.97
2 -5 21 998.72 29.89
2 -5 21 1015.33 30.15
2 5 21 1011.38 29.1
2 5 21 962.89 28.92
2 5 22 30.37 2.99
2 5 22 27.31 2.82
2 -5 22 28.46 3.31
2 5 23 111.28 5.35
2 -5 23 106.66 5.86
2 5 23 99.63 4.92
2 5 24 2.09 1.49
2 -5 24 1 1.79
2 -5 24 -0.32 1.54
2 -5 25 49.6 3.65
2 -5 25 48.11 3.55
-2 -6 26 28.79 2.61
-2 -6 25 106.14 4.86
-2 -6 25 116.73 5.73
-2 6 25 104.5 4.74
-2 6 24 58.53 3.76
-2 -6 24 63.73 3.98
-2 6 24 61.99 3.72
-2 -6 24 59.12 4.4
-2 6 23 2.25 1.5
-2 6 23 -0.15 1.49
-2 -6 23 2.44 1.66
-2 -6 23 -0.61 1.9
-2 6 22 31.35 3.05
-2 6 22 25.88 3.05
-2 -6 22 33.47 3.89
-2 -6 22 27.59 3.25
-2 6 21 34.03 3.02
-2 6 21 38.26 3.44
-2 -6 21 32.56 3.09
-2 -6 21 34.02 3.6
-2 -6 21 36.55 4.09
-2 -6 20 166.08 7.68
-2 -6 20 184.16 9.06
-2 -6 20 172.12 8.28
-2 6 20 167.8 7.5
-2 6 20 185.43 8.18
-2 -6 19 220.94 9.32
-2 6 19 244.1 9.83
-2 -6 19 240.45 10.75
-2 -6 19 235.81 10.04
-2 6 19 225.27 9.25
2 6 -19 234.02 10.06
-2 6 19 237.95 9.93
-2 6 18 96.42 5.58
-2 6 18 87.41 5.47
-2 6 18 78.72 4.83
2 6 -18 97.36 5.86
-2 -6 18 81.36 5.4
-2 -6 18 89.2 5.97
-2 -6 18 86.25 5.07
-2 -6 17 1.34 1.92
2 6 -17 3.16 1.87
-2 -6 17 5.75 1.54
-2 6 17 5.67 1.91
-2 6 16 4.53 2.31
-2 -6 16 6.11 2.21
2 6 -16 3.34 1.9
-2 -6 16 7.95 1.66
2 6 -15 67.38 4.87
-2 6 15 64.39 4.03
-2 -6 15 61.37 3.87
-2 -6 15 52 4.73
-2 6 15 58.03 4.39
-2 -6 14 466.35 16.1
-2 6 14 509.81 15.98
-2 6 14 450.76 15.11
-2 6 14 476.97 15.85
2 6 -14 486.37 16.62
-2 6 13 340.92 11.55
-2 6 13 314.75 11.46
-2 -6 13 318.16 11.73
2 6 -13 330.02 12.22
-2 6 13 300.96 10.76
-2 6 12 1.25 1.1
-2 6 12 0.87 1.05
-2 6 12 3.17 1.05
2 6 -12 1.45 1.37
-2 6 12 1.6 1.45
-2 6 11 284.52 10.45
-2 6 11 272.1 9.78
2 6 -11 276.17 10.53
-2 6 11 250.61 8.92
-2 6 10 3.47 0.96
2 6 -10 4.8 1.48
-2 6 10 4.82 1.47
-2 6 9 523.88 16.05
-2 6 9 483.44 14.39
2 6 -9 495.73 16.06
-2 6 8 1377.26 37.93
2 6 -8 1373.03 37.9
-2 6 8 1349.28 36.13
2 6 -8 1373.61 37.13
2 6 -7 360.47 11.37
2 -6 -7 359.23 10.76
2 6 -7 362.68 12.01
-2 6 7 349.36 10.35
-2 6 7 368.66 12.06
-2 6 6 447.7 12.44
2 6 -6 443.99 13.6
2 -6 -6 443.81 12.69
-2 6 6 452.4 12.81
-2 6 6 468.11 14.32
2 6 -6 428.94 12.71
2 6 -5 301.48 10.01
2 6 -5 281.33 8.24
-2 6 5 298.28 9.04
2 6 -5 289.99 8.6
-2 6 5 318.82 10.26
2 6 -5 310.85 9.71
2 6 -4 85.99 3.91
-2 6 4 79.6 4.04
2 6 -4 72.81 3.83
2 6 -4 77.35 2.9
-2 6 4 79.88 3.46
2 6 -3 419.67 12.06
-2 6 3 407.37 12.14
2 6 -2 528.44 15.45
-2 6 2 509.41 15.39
2 6 -1 123.54 5.06
-2 6 1 121.44 5.01
-2 6 0 1149.96 31.62
2 6 0 1179.64 31.84
-2 6 -1 1162.96 32.03
2 6 1 1217.16 33.99
2 6 2 22.79 2.53
-2 6 -2 18.04 1.69
-2 6 -3 109.18 4.62
2 6 3 103.14 5.44
2 6 4 1674.35 45.47
-2 6 -4 1641.12 44.26
2 6 5 6.31 1.55
-2 6 -5 6.93 1.4
-2 6 -6 1686.49 45.44
-2 6 -7 962.66 25.15
2 6 7 827.66 23.32
2 6 8 3.22 0.68
-2 6 -8 0.64 0.6
-2 6 -8 2.83 1.15
2 6 9 32.59 2.05
2 6 10 466.78 13.89
2 6 11 65.25 3.38
2 6 11 69 4
2 6 11 63.45 3.75
2 6 11 64.48 3.79
2 6 12 1612.53 44.49
2 6 12 1732.83 44.78
2 6 12 1671.87 44.45
2 -6 12 1596.95 44.52
2 6 12 1622.7 44.23
2 6 12 1543.08 43.57
2 6 13 540.91 17.19
2 6 13 569.35 17.35
2 6 13 532.77 16.44
2 -6 13 529.52 17.06
2 -6 13 528.22 17.24
2 6 13 563.38 17.05
2 6 13 547.38 17.13
2 6 14 106.69 5.38
2 6 14 101.33 5.4
2 -6 14 101.6 5.47
2 6 14 96.44 4.82
2 6 14 106.96 5.33
2 -6 14 102.39 5.74
2 6 14 105.45 5.68
2 6 14 107.16 5.52
2 6 15 7.02 1.92
2 6 15 7.27 2.12
2 -6 15 3.94 1.69
2 6 15 6.14 2.09
2 6 15 5.66 1.81
2 -6 15 8.78 2.06
2 6 16 174.26 7.49
2 -6 16 173.47 7.73
2 6 16 155.82 6.94
2 6 16 183.35 7.8
2 6 16 168.76 7.59
2 -6 16 169.92 7.8
2 6 16 170.6 7.44
2 6 17 1.55 1.53
2 -6 17 0.94 1.55
2 6 17 1.7 1.49
2 6 17 1.1 1.43
2 -6 17 1.77 1.62
2 6 17 1.59 1.51
2 -6 18 904.89 27.61
2 6 18 918.53 27.39
2 -6 18 915.63 27.91
2 6 18 934.16 27.3
2 6 18 948.33 27.25
2 6 18 906.01 27.24
2 6 19 205.4 8.36
2 6 19 200.15 8.41
2 6 19 206.99 8.52
2 -6 19 192.49 8.6
2 6 19 209.96 8.41
2 6 20 86.11 4.95
2 6 20 79.8 4.66
2 -6 20 73.93 5.03
2 -6 20 80.28 5.03
2 -6 21 12.22 2.28
2 6 21 10.26 2.03
2 6 21 15.42 2.24
2 6 22 109.79 5.33
2 -6 22 120.71 5.96
2 6 22 101.12 5.09
2 -6 22 101.97 5.85
2 6 23 41.97 2.96
2 -6 23 46.61 3.51
2 -6 23 48.23 3.8
2 6 23 46.96 3.1
2 6 24 422.62 12.93
2 -6 24 428.97 13.91
2 -6 24 416.12 13.71
2 -6 25 56.15 3.45
2 -6 25 54.86 3.4
-2 -7 25 1.23 1.35
-2 7 25 0.65 1.01
-2 7 24 0.34 1.2
-2 7 24 0.41 1.06
-2 -7 24 1.85 1.51
-2 7 23 35.8 2.87
-2 -7 23 37.09 3.47
-2 7 22 223.2 8.75
-2 -7 22 234.27 9.74
-2 7 21 32.12 3.03
-2 -7 21 33.03 3.66
-2 7 20 17.43 2.84
-2 -7 20 22.02 3.18
-2 7 20 23.22 2.97
-2 7 19 10.68 2.24
-2 7 19 14.97 2.47
-2 7 18 136.96 7.11
2 7 -18 139.24 7.25
-2 -7 18 148.34 7.65
-2 7 17 12.44 2.43
-2 -7 17 17.38 2.93
-2 -7 16 371.05 14.12
-2 7 16 398.32 14
2 7 -16 396.37 14.4
2 7 -15 12.04 2.56
-2 -7 15 9.09 2.43
-2 7 15 11.85 2.36
-2 7 15 13.17 2.36
-2 7 14 243.45 9.52
2 7 -14 225.4 9.9
-2 7 14 236.49 9.49
-2 -7 14 218.87 9.71
-2 7 13 82.35 5.2
-2 -7 13 72.66 4.67
2 7 -13 80.58 5.43
-2 7 13 79.82 5.16
-2 7 12 184.87 7.59
2 7 -12 171.36 8.12
-2 -7 12 179.12 7.67
-2 7 12 170.32 7.59
-2 7 12 182.75 8.22
2 7 -11 24.6 2.75
-2 7 11 20.62 2.59
2 7 -11 16.92 2.07
-2 7 11 19.54 2.29
-2 7 11 17.43 2.3
-2 7 10 480.6 14.84
-2 7 10 483.58 15.75
2 7 -10 464.19 15.67
-2 7 10 489.17 15.14
2 7 -10 450.75 14.25
2 7 -10 430.99 14.57
-2 7 10 472.85 15.07
2 7 -9 25.44 1.95
-2 7 9 22.1 2.35
-2 7 9 26.6 2.73
2 7 -9 24.46 2.64
2 7 -8 290.8 10.18
2 7 -8 304.82 10.91
-2 7 8 307.73 11
-2 7 7 678 19.89
2 7 -7 611.05 18.88
2 7 -7 651.13 19.64
2 7 -6 501.09 15.56
-2 7 6 510.89 15.78
-2 7 6 479.78 14.18
2 7 -6 487.94 15.08
2 7 -5 34.48 2.59
-2 7 5 31.67 2.14
-2 7 5 33.65 2.8
2 7 -4 333.16 10.77
-2 7 4 329.12 11.07
-2 7 4 304.31 10.11
2 7 -3 510.55 15.46
-2 7 3 499.57 15.65
2 7 -2 1018.18 28.31
-2 7 2 999.31 28.32
2 7 -1 615.57 17.9
-2 7 1 579.87 17.74
2 7 0 773.23 22.27
2 7 0 812.91 24.34
-2 7 0 742.98 22.01
-2 7 -1 153.09 6.15
2 7 1 149.42 6.2
-2 7 -2 2.87 1.06
2 7 2 2.75 1.53
2 7 3 241.96 9.52
-2 7 -3 220.99 8.11
-2 7 -4 1370.97 38.12
2 7 4 1439.68 39.65
-2 7 -5 1069.11 30.02
2 7 5 1073.47 31.08
-2 7 -6 254.78 9.23
-2 7 -7 593.87 18.21
-2 7 -8 15.72 2.03
-2 7 -9 172.02 7.28
2 7 9 166.97 6.83
2 7 9 162.61 6.63
-2 7 -10 840.36 24.81
2 7 10 798.63 24.01
2 7 10 841.16 23.96
2 7 11 743.96 22.33
2 7 11 737.2 22.1
2 7 11 759.38 22.07
-2 7 -11 734.39 22.75
2 7 12 157.22 7.02
2 7 12 141.71 6.66
-2 7 -12 157.09 7.32
2 7 12 150.54 6.85
2 7 13 319.04 11.81
2 7 13 356.78 12
2 7 13 337.02 11.93
-2 7 -13 332.94 12.43
2 7 13 323.95 11.63
2 7 14 99.58 5.28
2 7 14 105.7 5.59
2 7 14 95.32 5.17
-2 7 -14 92.93 5.67
2 7 14 96.47 5.2
2 7 14 95.81 5.29
2 7 15 295.66 10.9
2 7 15 287.14 10.66
2 7 15 277.43 10.68
2 7 15 301.31 10.68
2 7 15 274.32 10.56
2 -7 15 285.72 10.58
-2 7 -15 278.44 11.31
2 7 16 485.48 16.22
2 7 16 507.46 15.99
2 7 16 477.69 15.9
2 -7 16 469.26 15.95
2 7 16 504.48 16.16
-2 7 -16 492.72 16.97
2 7 17 514.12 16.28
2 -7 17 464.6 16.27
2 7 17 484.78 16.17
2 7 17 498.52 15.93
2 7 17 495.05 16.21
2 7 17 478.43 15.79
2 -7 17 475.84 15.99
-2 7 -17 494.2 16.99
2 7 18 4.93 1.82
2 7 18 2.59 1.49
2 7 18 3.61 1.52
2 -7 18 6.97 1.87
2 -7 18 4.36 1.84
2 7 18 6.27 1.79
2 7 19 517.92 16.58
2 -7 19 509.91 17
2 7 19 510.67 16.39
2 7 19 516.03 16.13
2 -7 19 479.9 16.35
2 7 20 125.64 5.69
2 -7 20 117.9 5.92
2 7 20 119.12 5.93
2 -7 20 118.13 6.54
2 -7 20 126.38 6.38
2 7 21 77.98 4.12
2 -7 21 74.31 4.4
2 -7 21 73.54 4.65
2 7 21 73.26 4.32
2 -7 22 89.02 4.79
2 7 22 99.58 4.78
2 -7 22 90.46 5.03
2 7 22 98.58 4.53
2 7 23 197.98 6.94
2 7 23 199.24 7.23
2 -7 23 189.79 7.38
2 -7 23 201.5 7.67
2 -7 24 2.72 1.19
2 -7 24 3.87 1.33
-2 -8 24 60.29 3.36
-2 8 24 67.21 3.27
-2 -8 23 16.92 2.13
-2 8 23 14.69 1.81
-2 8 22 12.22 1.87
-2 8 22 13.74 2.04
-2 -8 22 10.42 1.99
-2 8 21 26.27 2.64
-2 -8 21 22.38 2.81
-2 8 21 25.44 2.83
-2 -8 20 157.86 7.61
-2 8 20 167.09 7.49
-2 8 20 166.84 7.36
-2 8 19 59.4 4.2
-2 -8 19 52.17 4.26
-2 8 19 58.48 4.31
-2 8 18 129.7 6.65
-2 -8 18 122.32 6.67
-2 8 17 3.31 1.77
-2 8 17 3.26 1.89
-2 -8 17 4.86 1.96
-2 8 16 346.98 12.35
-2 8 16 333.68 12.29
2 8 -16 301.47 12.23
-2 -8 16 312.54 12.11
-2 8 15 13.47 2.31
-2 8 15 12.18 2.26
2 8 -15 12.75 2.3
-2 -8 15 15.34 2.53
-2 8 14 157.22 7.26
2 8 -14 150.33 7.67
-2 8 14 163.97 7.56
-2 8 13 2.08 1.78
2 8 -13 3.03 1.9
-2 8 13 3.78 1.84
2 8 -12 125.4 6.16
-2 8 12 142.91 6.5
2 8 -12 139.77 7.07
-2 8 12 136.5 6.66
-2 8 11 12.4 2.56
-2 8 11 14.84 2.67
2 8 -11 11.78 2.42
-2 8 11 12.06 2.44
2 8 -11 14.44 2.09
-2 8 10 1126.84 31.54
-2 8 10 1076.17 32.08
2 8 -10 1088.45 32.2
-2 8 10 1155.34 31.13
2 8 -10 1027.75 30.89
-2 8 9 28.51 2.49
-2 8 9 28.61 2.67
2 8 -9 25.5 2.53
-2 8 9 26.44 2.9
2 -8 -9 23.74 3.15
2 8 -9 33.1 3.22
-2 8 8 94.75 4.62
-2 8 8 101.72 5.47
2 8 -8 96.5 4.91
2 -8 -8 89.49 5.75
-2 8 8 92.92 4.83
2 8 -8 107.75 5.17
-2 8 7 150.16 6.05
-2 8 7 139.67 6.74
2 -8 -7 141.49 7.16
2 8 -7 157.6 6.61
-2 8 7 150.82 6.41
2 8 -7 144.83 6.31
2 8 -6 91.04 4.69
2 8 -6 98.61 4.93
-2 8 6 90.13 5.1
2 -8 -6 90.38 5.42
-2 8 6 100.18 4.76
2 8 -5 100.06 4.85
2 8 -5 96.22 4.87
-2 8 5 97.34 5.14
-2 8 5 89.76 4.2
-2 8 4 2054.47 56.03
-2 8 4 1963.33 54.91
2 8 -4 2037.74 55.49
-2 8 3 15.67 1.87
2 8 -3 17.88 2.06
-2 8 3 13.03 1.9
2 8 -2 92.21 4.64
-2 8 2 82.1 4.56
2 8 -2 85.5 5.68
2 8 -1 18.8 2.14
-2 8 1 20.54 2.18
2 8 -1 19.56 2.79
-2 8 0 1.18 0.99
2 8 0 2.8 1.2
2 8 0 2.29 1.98
2 8 1 33.76 2.7
-2 8 -1 30.91 2.56
2 8 1 24.66 3.21
-2 8 -2 2180.63 59.22
2 8 2 2165.75 59.47
2 8 3 10.43 1.67
-2 8 -3 9.36 1.6
2 8 3 10.16 1.72
2 8 3 11.26 2.27
2 8 4 77.9 4.95
-2 8 -4 67.63 3.95
2 8 4 65.65 3.85
-2 8 -5 25.68 2.42
-2 8 -6 54.13 3.62
-2 8 -7 1.52 1.33
2 8 8 2441.88 65.59
-2 8 -8 2477.6 66.14
2 8 9 14.72 2.27
2 8 9 17.63 1.94
-2 8 -9 16.58 2.46
-2 8 -10 222.25 9.18
2 8 10 218.54 8.74
2 8 10 226.46 8.53
2 8 11 24.19 2.72
-2 8 -11 18.94 2.59
2 8 11 24.81 2.71
2 8 11 27.13 2.85
2 8 12 92.99 5.14
2 8 12 85.52 5.06
2 8 12 88.11 4.93
-2 8 -12 87.4 5.37
2 8 13 2.82 1.65
2 8 13 0.46 1.27
2 8 13 2.09 1.41
-2 8 -13 1.16 1.44
2 8 13 2.31 1.51
2 8 14 931.23 26.35
2 8 14 870.54 26.5
2 8 14 906.08 26.82
2 8 14 874.86 26.31
-2 8 -14 875.2 27.22
2 8 15 9.14 1.86
2 8 15 7.64 1.79
2 8 15 7.53 1.84
-2 8 -15 6.24 1.88
2 8 16 412.33 14.22
2 8 16 420.38 14.36
2 8 16 421.77 13.82
2 8 16 419.67 14.37
2 8 17 6.95 1.71
2 8 17 7.04 1.71
2 8 17 5.62 1.86
2 8 17 7.13 1.72
2 8 17 5.37 1.51
2 8 18 3.55 1.46
2 8 18 3.8 1.68
2 8 18 1.51 1.42
2 8 18 2.41 1.38
2 8 19 0.58 1.45
2 8 19 1.64 1.28
2 8 19 0.35 1.21
2 -8 19 -0.42 1.9
2 8 20 522.76 15.76
2 8 20 532.25 16.49
2 -8 20 507.47 17.48
2 8 21 1.59 1.29
2 8 21 3.73 1.2
2 8 22 332.4 10.63
2 8 22 314.07 9.89
2 8 23 1.12 1.06
-2 9 22 76.73 3.85
-2 9 22 75.24 3.97
-2 9 21 10.36 1.73
-2 9 21 13.61 2.02
-2 9 20 80.06 4.4
-2 9 20 66.15 4.2
-2 9 19 19.76 2.5
-2 9 19 19.09 2.53
-2 9 18 357.18 12.69
-2 9 18 357.69 12.8
-2 9 17 28.55 3.04
-2 9 17 32.29 3.24
-2 9 16 72.07 4.64
-2 9 16 70.45 4.72
-2 9 15 9.11 2.01
-2 9 15 7.51 2
-2 9 14 1.49 1.62
-2 9 14 1.25 1.46
-2 9 13 118.62 6.2
-2 9 13 114.35 5.9
-2 9 12 424.09 14.37
2 9 -12 385.58 13.39
-2 9 12 410.34 13.81
-2 9 11 2.87 1.52
-2 9 11 0.73 1.22
2 9 -11 2.37 1.72
-2 9 10 34.87 3.04
-2 9 10 37.52 3.54
-2 9 10 43.39 3.53
2 9 -10 40.89 3.36
2 9 -9 120.62 5.85
-2 9 9 110.44 5.44
2 -9 -9 101.86 7.13
-2 9 9 117.92 5.83
-2 9 9 99.76 5.85
-2 9 8 8.37 1.69
2 9 -8 10 1.8
-2 9 8 4.89 1.78
2 -9 -8 9.95 2.83
2 9 -8 8.55 2.6
-2 9 8 8.34 2.09
-2 9 7 403.92 12.95
2 -9 -7 383.64 14.73
-2 9 7 409.69 14.16
-2 9 7 401.21 13.44
2 9 -7 397.56 13.49
2 9 -7 422.66 13.91
2 9 -6 986.88 28.53
-2 9 6 944.96 28.81
-2 9 6 968.97 27.99
2 9 -6 1003.41 28.47
2 -9 -6 997.38 29.91
2 9 -5 0.3 1.12
2 9 -5 1.46 1.3
-2 9 5 1.19 1.32
2 -9 -5 2.33 1.75
-2 9 5 1.91 1.21
2 9 -4 4.25 1.5
2 -9 -4 5.5 2.06
-2 9 4 5.16 1.58
-2 9 4 6.46 1.36
2 9 -4 3.1 1.38
-2 9 3 70.85 4.16
2 9 -3 78.01 4.55
-2 9 3 80.74 4.77
-2 9 3 81.21 4.12
2 -9 -3 76.95 5.29
2 -9 -3 74.88 4.9
2 9 -3 78.98 5.64
2 9 -3 71.9 4.35
2 9 -2 149.41 6.77
-2 9 2 141.44 6.56
-2 9 2 149.03 6.88
2 9 -2 161.84 8.5
2 9 -2 161.83 6.93
-2 9 2 152.67 6.15
2 -9 -2 136.19 7.02
2 9 -1 741.26 21.97
2 9 -1 718.22 21.93
2 -9 -1 718.39 22.71
-2 9 1 675.45 21.83
-2 9 0 788.29 24.72
2 -9 0 838.46 25.85
2 9 0 895.35 27.54
2 9 0 861.33 25.07
2 9 1 50.29 3.65
-2 9 -1 44.02 3.35
2 -9 1 43.88 3.91
2 9 1 55.95 4.72
2 9 2 101.67 5.36
2 9 2 107.39 5.38
-2 9 -2 92.6 5.11
2 -9 2 86.58 5.71
2 9 2 111.56 6.55
2 9 3 52.38 4.41
2 9 3 47.83 3.63
-2 9 -3 54.94 3.73
2 -9 3 45.86 4.17
2 9 4 260.59 10.92
2 9 4 260.15 10.1
-2 9 -4 259.34 9.9
-2 9 -5 469.11 15.72
2 9 5 492.19 16.14
-2 9 -6 483.73 15.95
-2 9 -7 300.8 11.25
2 9 8 278.83 10.56
-2 9 -8 240.24 9.96
2 9 9 50.44 3.79
-2 9 -9 55.13 4.1
2 9 9 54 4.07
2 9 10 299.31 10.77
2 9 10 303.22 11.52
-2 9 -10 296.74 11.38
2 9 10 277.87 10.74
2 9 11 852.06 24.93
2 9 11 858.13 25.91
2 9 11 847.15 25.21
-2 9 -11 813.61 25.69
-2 9 -12 168.44 8.06
2 9 12 181.6 7.98
2 9 12 179.35 7.53
2 9 12 185.26 8.25
2 9 12 182.21 7.8
2 9 13 234.05 9.55
-2 9 -13 208.41 9.37
2 9 13 228.62 9.13
2 9 13 220.29 8.95
2 9 13 224.28 9.18
2 9 13 230.13 8.77
2 9 14 128.43 6.29
2 9 14 134.45 6.05
2 9 14 125.21 6.47
2 9 14 123.9 6.29
2 9 15 48.96 3.7
2 9 15 47.55 3.32
2 9 15 42.27 3.64
2 9 16 203.67 8.43
2 9 16 212.11 7.97
2 9 16 204.03 8.6
2 -9 17 364.06 14.09
2 9 17 331.33 12.24
2 9 17 364.35 11.8
2 9 17 374.6 12.35
2 9 17 371.27 12.68
2 9 18 38.97 3.06
2 -9 18 32.73 3.75
2 9 18 42.59 2.8
2 9 19 264.18 8.8
2 9 19 264.53 9.32
2 9 19 267.88 9.65
2 -9 19 262.72 10.78
2 9 20 173.37 6.81
2 9 20 161.82 5.86
2 -9 20 162.15 7.52
2 9 21 77.01 3.91
-2 10 21 128.92 5.08
-2 10 21 116.59 5.07
-2 10 20 91.5 4.39
-2 10 20 88.05 4.43
-2 10 19 31.5 2.64
-2 10 19 31.76 2.76
-2 10 18 6.25 1.73
-2 10 18 4.68 1.62
-2 10 17 49.72 3.59
-2 10 17 54.11 3.83
-2 10 16 4.62 1.71
-2 10 16 10.19 2.16
-2 10 15 329.32 12.09
-2 10 15 323 11.73
-2 10 14 269.91 10.47
-2 10 14 260.74 10.04
-2 10 13 1.55 1.61
-2 10 13 1.7 1.45
-2 10 12 24.16 2.71
-2 10 12 23.47 2.85
2 10 -12 24.37 2.58
-2 10 11 14.23 2.28
2 10 -11 9.15 1.84
-2 10 11 13.76 2.08
-2 10 10 80.8 4.84
-2 10 10 73.97 4.36
2 10 -10 72.03 4.52
-2 10 9 415.37 13.73
-2 10 9 416.1 14.31
2 10 -9 439.69 16.35
2 10 -9 415 14.28
-2 10 8 378.06 12.89
-2 10 8 396.07 13.56
2 10 -8 396.08 13.75
2 10 -8 416.56 15.75
2 -10 -8 419.83 15.47
2 10 -7 2.66 1.54
-2 10 7 2.37 1.53
2 -10 -7 1.67 2.38
2 10 -7 1.88 1.3
2 10 -6 230.81 9.24
2 -10 -6 231.48 10.59
2 10 -6 211.16 8.77
-2 10 6 208.57 9.01
-2 10 6 224.73 8.74
2 10 -5 1.14 1.25
2 10 -5 2.02 1.9
2 -10 -5 1.19 2.38
-2 10 5 1.38 1.36
-2 10 5 2.13 1.45
2 10 -4 9.7 1.91
2 10 -4 10.52 2.51
2 -10 -4 12.16 3.05
-2 10 4 10.49 1.88
-2 10 4 9.37 1.97
2 10 -4 9.48 2.57
2 10 -3 682.91 21.03
2 10 -3 708.4 21.28
2 -10 -3 678.75 22.55
-2 10 3 627.41 20.83
2 10 -3 732.59 23.82
-2 10 3 658.67 20.03
2 -10 -3 645.56 21.74
2 10 -2 588.1 18.53
2 10 -2 585.08 18.44
2 10 -2 598.57 20.83
-2 10 2 531.39 18.16
2 -10 -2 599.32 20.08
-2 10 2 555.14 17.32
2 -10 -2 584.57 19.42
-2 10 2 535 17.88
2 -10 -1 21.84 3.83
2 10 -1 17.45 2.61
2 10 -1 16.86 2.37
-2 10 1 21.78 2.47
2 10 -1 18.68 3.2
-2 10 1 15.53 2.3
2 10 0 563.76 18.24
2 -10 0 579.03 19.26
-2 10 0 517.27 17.91
-2 10 0 556.41 18.46
2 10 0 598.35 20.53
2 -10 1 217.47 9.77
2 10 1 203.57 8.78
-2 10 -1 191.38 8.55
2 10 1 226.03 10.45
2 10 2 23.33 2.78
2 -10 2 20.47 3.35
-2 10 -2 20.04 2.63
2 10 2 17.75 2.98
-2 10 -3 378.24 13.56
2 10 3 383.65 13.86
2 -10 3 400.49 15.12
2 10 3 386.4 14.95
2 10 4 719.16 22.5
-2 10 -4 681.93 22.14
2 10 5 98.26 5.66
-2 10 -5 89.06 5.3
2 -10 5 87.51 6.13
2 -10 6 389.39 15.54
-2 10 -6 387.55 14.08
2 10 6 422.96 14.07
2 10 6 402.76 14.45
-2 10 -7 72.14 4.85
2 10 7 68.73 4.45
-2 10 -8 20.44 2.69
2 10 9 352.02 12.18
-2 10 -9 328.05 12.73
2 10 10 207.63 8.36
2 10 10 216.73 9.43
-2 10 -10 209.16 9.15
2 10 10 220.92 8.92
2 10 11 177.32 7.62
2 10 11 158.38 6.94
2 10 11 169.79 8.01
2 10 11 172.17 7.59
2 10 12 1103.87 30.3
2 10 12 1044.48 30.14
2 10 12 980.55 30.07
2 10 12 999.89 29.33
2 10 12 1068.01 30.93
2 10 13 89.68 5.04
2 10 13 80.95 4.9
2 10 13 88.74 4.55
2 10 13 83.44 5.18
2 10 13 83.88 4.9
2 10 14 11.13 2.09
2 10 14 13.23 2.19
2 10 14 13.35 2.16
2 10 14 11.71 1.77
2 -10 14 15.31 3.19
2 10 15 31.94 2.99
2 10 15 27.32 2.87
2 10 15 23.43 2.3
2 10 15 31.76 2.88
2 -10 15 26.6 3.61
2 10 16 123.18 5.84
2 10 16 117.54 5.71
2 -10 16 116.15 6.94
2 10 16 119.18 5.06
2 10 16 124.19 6.02
2 10 17 109.65 5.38
2 10 17 109.58 5.25
2 10 17 111.9 5.5
2 -10 17 107.49 6.49
2 10 17 104.92 4.49
2 10 18 373.77 12.11
2 -10 18 380.84 13.81
2 -10 19 39.82 3.52
2 -10 20 23.27 2.63
2 10 20 23.53 2.17
-2 11 19 11.08 1.62
-2 11 19 9.84 1.59
-2 11 18 -0.32 1.14
-2 11 18 0.8 1.16
-2 11 17 247.39 8.97
-2 11 17 234.37 8.68
-2 11 16 163.28 6.8
-2 11 16 159.78 6.93
-2 11 15 6.79 1.71
-2 11 15 6.79 1.67
-2 11 14 41.36 3.37
-2 11 14 38.73 3.19
-2 11 13 46.52 3.46
-2 11 13 40.14 3.44
-2 11 12 1.41 1.46
-2 11 12 0.81 1.59
-2 11 11 402.34 13.82
-2 11 11 383.32 13.03
-2 11 10 26.68 2.6
-2 11 10 32.16 3.17
-2 11 9 2.64 1.24
-2 11 9 5.12 1.61
-2 11 8 70.63 4.53
2 -11 -7 279.85 12.09
2 11 -6 2.76 1.33
2 11 -6 5.14 2.18
2 -11 -6 2.77 2.18
-2 11 6 3.1 1.43
2 11 -5 685.91 21.72
2 -11 -5 730.74 23.78
-2 11 5 677.29 21.14
2 11 -4 91.13 5.3
-2 11 4 96.56 5
2 -11 -4 95 6.44
2 11 -4 101.67 6.96
-2 11 3 170.52 7.05
2 11 -3 166.1 7.65
2 -11 -3 175.78 9.05
2 11 -3 165.08 9.2
2 11 -2 211.78 9.12
2 -11 -2 226.27 10
2 -11 -2 228.44 10.61
2 11 -2 225.3 10.96
-2 11 2 207.8 8.19
2 11 -1 71.88 4.81
2 11 -1 72.46 5.81
2 -11 -1 74.24 5.77
2 -11 -1 71.83 5.35
2 11 0 24.39 2.89
2 -11 0 17.22 2.95
-2 11 0 16.87 2.22
2 -11 0 25.16 3.61
2 11 0 27.58 3.63
2 -11 1 512.47 17.59
-2 11 -1 471.57 16.69
2 11 1 502.77 16.63
2 11 1 500.66 18.13
2 11 2 60.13 5.1
2 11 2 73.59 4.86
-2 11 -2 53.52 4.59
2 -11 2 63.97 5.2
2 -11 3 462.78 16.81
2 11 3 433.85 15.53
-2 11 -3 440.07 16.48
2 11 4 42.32 3.79
2 11 4 43.53 3.57
2 -11 4 36.67 4.24
2 11 5 74.39 5.01
2 -11 5 72.02 5.61
2 11 5 74.56 4.74
2 -11 6 1.04 2.03
2 11 6 1.02 1.5
2 11 6 1.01 1.54
2 11 7 191.46 8.55
2 -11 7 175.97 9.39
2 11 7 167.54 7.74
2 11 8 0.54 1.23
2 11 8 -0.17 1.6
2 -11 8 3.97 2.37
2 11 9 906.98 26.69
2 -11 9 990.2 30.15
2 11 10 140.17 6.15
2 11 10 149.34 6.79
2 -11 10 141.41 8.18
2 11 10 157.96 7.5
2 11 11 0.9 1.45
2 11 11 0.23 1.2
2 -11 11 3.1 2.33
2 11 11 2.93 1.56
2 11 11 1.61 1.62
2 11 11 1.69 1.46
2 11 12 2.8 1.55
2 11 12 1.3 1.12
2 11 12 0.18 1.37
2 11 12 0.15 1.5
2 -11 12 2.51 2.27
2 11 12 0.3 1.44
2 11 13 119.68 5.87
2 11 13 129.45 5.99
2 11 13 115.47 5.02
2 11 13 123.47 6.23
2 11 14 2.15 1.36
2 11 14 2.91 1.53
2 11 14 1.39 1.37
2 -11 15 651.78 20.89
2 -11 15 680.18 21.74
2 11 15 663.15 20.13
2 11 15 611.56 19.49
2 11 15 677.4 19.74
2 11 16 42.59 3.03
2 11 16 47.43 3.19
2 -11 16 40.18 3.86
2 11 16 44.69 3.27
2 11 17 9.28 1.59
2 11 17 10.93 1.64
2 -11 17 7.31 2.15
2 11 18 1.73 1.24
2 11 18 -0.25 0.98
2 -11 18 -0.16 1.77
-2 12 17 16.91 1.65
-2 12 17 17.47 1.94
-2 12 16 3.52 1.39
-2 12 16 1.42 1.17
-2 12 15 49.21 3.27
-2 12 15 44.53 2.88
-2 12 14 21.01 2.29
-2 12 14 16.53 1.94
-2 12 13 284.37 9.65
-2 12 13 272.74 10.09
-2 12 12 2.2 1.31
-2 12 12 4.45 1.62
-2 12 11 140.74 6.37
-2 12 11 125.27 5.62
-2 12 10 35.45 3.04
2 -12 -9 185.85 9.09
-2 12 9 205.89 8.31
-2 12 8 22.59 2.67
-2 12 7 131.39 6.28
2 -12 -6 37.71 4.27
-2 12 6 38.31 3.22
2 12 -5 361.14 12.81
2 -12 -5 377.12 14.68
2 12 -4 96.75 5.51
2 -12 -4 117.49 7.17
-2 12 4 109.65 5.82
2 -12 -3 326.05 13.26
2 12 -3 302.12 11.47
-2 12 3 297.62 11.26
2 12 -2 108.26 5.95
-2 12 2 105.85 5.6
-2 12 2 106.5 5.11
2 -12 -2 121.68 7.33
2 12 -1 129.85 6.56
2 -12 -1 128.08 7.68
2 12 0 55.5 4.17
2 -12 0 58.17 5.24
2 -12 0 50.72 4.49
2 -12 1 438.11 16.34
2 -12 1 463.98 17.32
2 12 1 450.89 15.74
2 12 2 69.94 4.78
2 -12 2 74.89 5.43
2 -12 2 71.12 5.82
2 12 2 71.91 4.66
2 12 3 139.12 7.17
2 -12 3 146.93 8.34
2 -12 3 142.83 7.84
2 12 3 140.4 6.83
2 12 4 66.77 4.75
2 12 4 68.15 4.47
2 -12 4 59.21 5.39
2 -12 4 64.59 5.21
2 12 5 -0.59 1.58
2 12 5 -0.66 1.52
2 -12 5 0.72 1.93
2 12 6 113.52 5.91
2 -12 6 120.71 7.09
2 12 6 103.65 6.05
2 12 7 508.37 16.41
2 12 7 570.78 18.39
2 12 7 550.59 17.1
2 -12 7 563.6 19.38
2 12 7 556.74 17.58
2 12 8 150.06 6.66
2 -12 8 148.9 8.13
2 12 8 154.39 7
2 12 8 153.36 7.43
2 12 9 32.5 2.92
2 12 9 35.1 3.09
2 -12 9 28.63 3.69
2 12 10 98.25 5.01
2 12 10 110.84 5.82
2 -12 10 102.83 6.35
2 12 11 47.96 3.33
2 12 11 44.42 3.37
2 -12 11 50.59 4.48
2 12 11 45.15 3.61
2 12 12 106.31 5.07
2 12 12 103.62 5.42
2 -12 12 99.17 6.11
2 -12 12 108.38 6.4
2 12 12 93.63 4.99
2 -12 13 414.87 14.8
2 12 13 385.35 12.94
2 12 13 414.02 12.98
2 -12 13 401.02 14.46
2 12 13 395.11 13.46
2 12 14 114.35 5.13
2 12 14 114.23 5.16
2 -12 14 110.65 6.07
2 12 14 115.74 5.5
2 12 15 6.07 1.42
2 12 15 2.74 1.18
2 -12 15 3.38 1.71
2 12 16 70.31 3.56
2 12 16 75.58 3.72
2 -12 16 71.22 4.72
-2 13 14 61.83 3.42
-2 -13 14 55.07 4.26
-2 13 13 126.3 5.34
-2 13 13 121.14 5.76
-2 -13 13 118.82 6.35
-2 13 12 4.33 1.39
-2 -13 12 0.74 1.7
-2 13 12 2.67 1.3
-2 -13 11 78.71 5.14
-2 13 11 86.75 4.46
-2 13 11 81.61 4.73
-2 13 10 125.58 6.12
-2 -13 10 115.83 6.43
-2 13 10 128.75 5.71
-2 13 9 21.58 2.53
-2 13 9 19.35 2.26
-2 -13 9 16.54 2.7
-2 13 8 107.22 5.6
-2 13 8 114.56 5.37
2 -13 -8 96.64 5.97
-2 -13 8 105.35 6.01
-2 13 7 321.81 11.69
-2 -13 7 313.07 12.16
2 13 -7 310.29 10.48
-2 13 6 7.74 1.75
-2 13 6 7.08 1.64
-2 -13 6 5.18 1.9
2 13 -6 4.94 1.33
-2 13 5 43.26 3.16
-2 13 5 36.95 3.16
2 13 -5 41.44 2.98
2 -13 -5 47.23 4.39
2 -13 -4 54.16 4.72
-2 13 4 45.9 3.29
-2 13 4 39.54 3.23
2 13 -4 47.91 3.27
2 13 -3 3 1.42
2 -13 -3 3.57 1.99
-2 13 3 2.46 1.33
2 -13 -3 1.65 2.22
2 13 -3 3.34 1.43
-2 13 3 0.72 1.16
2 -13 -2 40.24 4.36
-2 13 2 39.35 3.12
2 13 -2 46.75 3.32
2 13 -2 38.14 3.28
2 13 -1 642.34 20.53
2 -13 -1 675.1 22.35
2 13 -1 671.51 20.26
-2 -13 0 5.03 2.21
2 -13 0 5.08 2.43
2 13 0 3.06 1.62
2 13 0 2.88 1.46
2 -13 1 5.32 2.51
2 13 1 2.24 1.42
2 13 1 1.77 1.5
2 13 2 57.07 4.09
2 13 2 60.54 4.05
2 -13 2 58.2 4.54
2 -13 2 62.21 5.17
2 13 3 1.78 1.21
2 13 3 3.84 1.59
2 -13 3 4.31 2.44
2 -13 3 4.73 2.12
2 13 3 6.37 1.75
2 13 4 152.38 6.31
2 13 4 176.44 7.34
2 -13 4 167.99 8.68
2 -13 4 158.46 7.99
2 13 4 173.61 7.69
2 13 5 759.8 23.35
2 -13 5 777.93 24.78
2 -13 5 751.82 24.03
2 13 5 804.12 22.95
2 13 5 724.01 21.8
2 13 6 9.62 1.67
2 -13 6 7.28 2.2
2 13 6 8.97 1.96
2 -13 6 8.88 2.53
2 13 6 7.34 1.78
2 13 7 22.69 2.17
2 -13 7 30.3 3.42
2 13 7 24.63 2.59
2 13 7 24.34 2.68
2 13 8 0.88 1.08
2 -13 8 0.78 1.62
2 13 8 -0.16 1.16
2 13 8 1.32 1.29
2 13 9 3.02 1.2
2 13 9 5.15 1.49
2 -13 9 4.4 1.95
2 -13 9 1.65 2
2 13 10 127.17 5.24
2 13 10 110.84 5.32
2 -13 10 112.53 6.42
2 -13 10 114.62 6.31
2 13 11 503.35 15.18
2 -13 11 526.24 17.16
2 13 11 500.78 15.48
2 -13 11 497.42 16.87
2 13 11 498.71 15.9
2 13 12 3 1.18
2 13 12 4.12 1.22
2 13 12 3.13 1.3
2 -13 12 0.34 1.84
2 -13 12 4.29 1.97
2 13 13 88.12 4.04
2 -13 13 86.73 5.12
2 -13 13 91.39 5.34
2 13 13 93.12 4.24
-2 14 10 134.24 5.16
-2 -14 10 112.25 5.39
-2 14 9 242.63 7.87
-2 -14 9 196.15 8.01
-2 14 8 8.62 1.42
2 -14 -7 4.37 1.6
-2 14 7 6.28 1.33
-2 14 7 3.61 1.19
-2 14 6 5.54 1.25
2 -14 -6 4.41 1.91
-2 14 6 6.91 1.4
-2 14 5 5.33 1.28
-2 14 5 5.37 1.31
2 14 -5 4.72 1.1
2 14 -4 298.32 9.85
-2 -14 4 316.1 11.92
-2 14 4 315.75 10.1
-2 14 3 199.89 7.19
-2 -14 3 207.5 8.89
2 14 -3 200.23 7.26
2 14 -2 4.98 1.32
-2 -14 2 5.03 1.95
2 -14 -2 4.97 2.14
-2 14 2 5.48 1.15
-2 14 1 32.59 2.26
2 14 -1 32.6 2.56
2 14 -1 33.25 2.74
-2 -14 1 35.69 3.34
2 -14 -1 40.67 3.81
2 -14 -1 25.81 2.89
2 14 0 8.57 1.63
2 14 0 11.3 1.7
2 -14 0 11.3 2.41
2 -14 1 33.98 3.71
2 14 1 38.6 2.83
2 14 1 33.21 2.83
2 14 2 446.3 14.85
2 14 2 489.83 14.67
2 -14 2 458.99 16.12
2 14 3 184.54 7.65
2 -14 3 185.86 8.6
2 14 3 206.63 7.55
2 14 4 11.33 1.87
2 -14 4 11.96 2.49
2 14 4 12.85 1.84
2 14 5 28.19 2.6
2 14 5 33.39 2.59
2 -14 5 28.53 3.26
2 14 6 1.58 1.09
2 14 6 -0.47 1.25
2 -14 6 0.18 1.82
2 14 6 1.1 1.18
2 14 7 30.63 2.07
2 14 7 36.08 2.72
2 -14 7 34.96 3.46
2 14 7 32.31 2.71
2 14 8 283.14 8.86
2 14 8 289.37 9.98
2 14 9 75.4 3.33
-3 0 28 552.67 16.38
-3 0 28 505.68 16.1
-3 0 28 540.47 15.74
-3 0 27 -1.14 1.41
-3 0 27 0.29 1.47
-3 0 27 -1.21 1.34
-3 0 26 24.74 2.93
-3 0 26 22.74 2.58
-3 0 26 18.72 2.52
-3 0 25 1.01 1.77
-3 0 25 1.41 1.71
-3 0 24 225.19 10.28
-3 0 24 233.76 9.91
-3 0 23 1.52 2.04
-3 0 23 2.71 2.13
-3 0 23 -0.23 1.97
-3 0 22 1277.54 39.49
3 0 -22 1410.52 39.48
-3 0 22 1420.32 39.65
-3 0 22 1218.59 40.15
-3 0 21 2.39 2.09
-3 0 21 -1.24 2.09
3 0 -21 3.6 1.95
-3 0 21 1.86 2.01
-3 0 20 55.88 5.39
-3 0 20 66.61 5.28
3 0 -20 73.53 5.19
-3 0 20 71.67 5.3
-3 0 19 -0.58 2.45
3 0 -19 0.65 1.8
-3 0 19 -1.34 2.11
-3 0 19 0.72 2.35
-3 0 18 202.54 10.61
-3 0 18 214.82 9.95
-3 0 18 230.69 9.89
-3 0 17 1.98 1.35
-3 0 17 1.58 2.01
-3 0 17 -0.22 1.5
-3 0 17 0.61 1.6
-3 0 16 2519.24 73.35
-3 0 16 2699.63 72.43
-3 0 16 2772.06 71.65
-3 0 16 2657.92 71.73
-3 0 15 -0.66 1.77
-3 0 14 554.56 20.04
-3 0 14 697.2 20.79
-3 0 13 0.54 1.38
-3 0 12 232.53 9.4
-3 0 11 0.92 1.35
-3 0 10 6585.73 169.81
-3 0 9 0.24 1.25
-3 0 8 1261.88 29.7
3 0 -8 1022.9 27.63
-3 0 7 0.49 0.93
3 0 -7 1.09 0.4
-3 0 6 25.17 1.83
3 0 -6 22.3 1.1
-3 0 5 2.53 0.97
3 0 -5 3.06 0.52
3 0 -4 5525.56 145.59
-3 0 4 5931.77 145.77
3 0 -3 0.73 0.69
-3 0 3 0.86 0.7
-3 0 2 3542.71 88.84
3 0 -2 3400.87 89.29
3 0 -2 3467.08 88.62
3 0 -1 1.16 0.42
3 0 -1 0.31 0.77
3 0 -1 0.57 0.7
-3 0 1 0.38 0.57
3 0 0 216.69 6.47
-3 0 0 210.75 6.06
-3 0 -1 1.3 0.52
3 0 2 7089.33 180.26
3 0 3 3.68 0.87
3 0 3 1.71 0.76
3 0 4 6658.66 167.35
3 0 4 6476.01 167.38
3 0 5 2.72 0.85
3 0 5 1.92 0.85
3 0 6 7.99 1.16
3 0 6 8.45 1.17
3 0 7 0.75 0.75
3 0 7 0.31 0.75
3 0 8 2029.08 54.76
3 0 8 2152.47 54.98
3 0 9 0.73 0.85
3 0 9 1.02 0.96
3 0 10 3416 92.64
3 0 10 3746.08 92.97
3 0 11 1 0.99
3 0 11 2.66 1.08
3 0 12 8.28 1.55
3 0 12 7.27 1.35
3 0 13 0.28 1.17
3 0 14 1105.33 32.36
3 0 14 1121.88 31.73
3 0 14 1125.71 32.23
3 0 14 1153.24 32.21
3 0 14 1147.17 32.4
3 0 15 -0.17 1.42
3 0 15 2.64 1.07
3 0 15 -0.32 1.29
3 0 15 1.12 1.19
3 0 15 4.18 1.12
3 0 15 3.49 1.03
3 0 16 1658.51 45.39
3 0 16 1617.4 44.83
3 0 16 1678.56 45.66
3 0 16 1582.01 45.66
3 0 16 1604.54 44.42
3 0 16 1646.99 45.48
3 0 17 1.84 1.48
3 0 17 1.16 1.98
3 0 17 2.78 1.73
3 0 17 1.05 1.49
3 0 17 3.4 1.79
3 0 17 3.26 1.62
3 0 18 4.4 2.02
3 0 18 5.41 1.72
3 0 18 7.79 1.99
3 0 18 3.73 1.86
3 0 18 6.13 1.9
3 0 19 0.2 1.34
3 0 19 0.19 1.46
3 0 19 1.87 1.71
3 0 19 -0.4 1.64
3 0 20 2.73 1.7
3 0 20 1.83 1.41
3 0 20 1.9 1.64
3 0 20 1.65 1.77
3 0 21 2.15 1.8
3 0 21 1.05 1.91
3 0 22 630.3 20.32
3 0 22 613.57 20.65
3 0 23 1.86 1.86
3 0 23 0.19 1.7
3 0 24 18.78 2.77
3 0 25 1.24 1.68
3 0 26 28.5 2.95
3 0 26 24.53 2.72
-3 -1 28 14.66 2.01
-3 1 28 16.06 2.07
-3 -1 28 13.3 2.02
-3 1 28 12.13 1.67
-3 -1 28 13.93 1.83
-3 -1 28 13.97 1.81
-3 1 27 160.17 6.34
-3 -1 27 168.64 6.9
-3 -1 27 161.72 7.11
-3 1 27 166.32 6.99
-3 -1 27 151.05 6.85
-3 -1 27 174.63 7.43
-3 1 26 39.72 3.44
-3 -1 26 42.95 3.5
-3 1 26 44.99 3.23
-3 -1 26 39.24 3.6
-3 1 25 431.31 15.59
-3 1 25 441.03 14.91
-3 -1 25 466.72 15.69
-3 -1 24 209.26 9.42
-3 1 24 204.17 8.91
-3 1 24 211.46 9.65
-3 -1 23 114.21 7.02
-3 1 23 126.71 6.76
-3 1 23 115.32 7.04
-3 -1 23 128.94 7.18
-3 -1 22 89.01 6.13
3 1 -22 82.3 5.52
-3 1 22 83.13 5.54
-3 -1 22 92.02 6.18
-3 1 22 78.98 6.12
-3 -1 22 70.68 5.96
-3 -1 21 328.68 13.08
-3 -1 21 300.29 12.88
-3 1 21 325.97 12.66
3 1 -21 337.69 12.77
-3 1 21 298.16 13.53
-3 -1 21 278.97 13.26
-3 1 20 504.98 17.19
-3 -1 20 482.61 17.43
3 1 -20 513.77 17.27
-3 1 20 471.1 18.35
-3 -1 20 474.09 17.43
-3 1 19 1025.66 34.1
-3 -1 19 1011.48 34
-3 1 19 1164.37 32.45
3 1 -19 1180.9 33.07
-3 1 19 1106.87 32.79
-3 -1 19 1072.05 33.11
-3 -1 19 1045.88 33.15
-3 1 18 527.12 17.33
-3 -1 18 483.45 17.97
-3 1 18 485.08 17.97
-3 -1 18 502.81 19.1
-3 1 18 534.87 17.74
-3 -1 18 496.89 17.95
-3 1 17 457.33 15.42
-3 -1 17 463.76 16.29
-3 1 17 418.26 15.97
-3 -1 17 425 16.85
-3 -1 17 426.98 16.04
-3 1 17 476 15.94
-3 1 16 4.48 1.59
-3 1 16 1.43 1.52
-3 -1 16 0.73 1.81
-3 -1 16 1.99 1.6
-3 1 16 0.36 1.32
3 1 -16 4.12 1.63
-3 -1 16 4.51 1.47
-3 1 16 0.81 1.33
-3 -1 15 591.09 20
-3 -1 14 338.52 13.51
-3 1 14 394.51 13.84
-3 1 13 1616.32 45.36
-3 1 12 1394.06 39.42
-3 1 11 970.71 28.36
-3 1 10 664.57 19.41
-3 1 10 605.6 18.71
-3 1 9 670.28 20.19
-3 1 9 703.27 19.92
3 1 -9 674.34 19.68
3 1 -8 1079.35 28.76
-3 1 8 1012.52 28.72
3 1 -7 3220.17 82.34
-3 1 7 3132.6 82.35
-3 1 6 567.14 16.4
3 1 -6 607.64 16.43
-3 -1 6 551.32 16.12
-3 1 5 1399.66 36.25
3 1 -5 1407.9 36.2
-3 -1 5 1370.84 35.92
3 1 -5 1309.65 35.58
-3 1 4 80.28 3.28
3 1 -4 78.32 3.2
-3 -1 4 75.68 3.04
3 1 -4 71.94 2.95
-3 -1 3 2542.46 62.45
3 1 -3 2341.41 62.97
3 1 -3 2447.83 62.55
-3 1 3 2368.5 62.62
3 1 -3 2399.39 62.59
3 1 -2 76.33 3.29
3 -1 -2 82.3 2.75
3 1 -2 83.03 3.36
3 -1 -2 79.56 3.37
-3 1 2 72.48 3.03
3 1 -2 81.74 3.01
3 1 -1 7383.09 183.1
3 -1 -1 7386.99 183.21
-3 1 1 7646.35 182.93
-3 -1 1 7512.65 182.5
3 -1 -1 6819.84 182.1
3 1 -1 7238.3 182.63
-3 -1 0 5781.61 147.2
3 -1 0 5908.99 147.9
-3 1 0 5844.32 147.65
3 1 0 5716.88 147.81
-3 -1 -1 5620.21 140.9
-3 1 -1 5448.89 141.33
-3 1 -2 4151.57 106.63
3 -1 2 4209.05 106.76
3 -1 3 1288.94 33.76
3 -1 3 1268.03 33.6
3 -1 4 364.11 11.12
3 -1 4 399.08 11.13
3 -1 5 2236.12 58.67
3 -1 5 2271.67 58.59
3 -1 6 58.91 2.86
3 -1 7 1814.28 48.8
3 -1 7 1921.11 48.94
3 1 7 1841.69 48.78
3 1 8 651.38 19.34
3 -1 8 706.93 19.51
3 -1 8 709.92 19.6
3 1 9 454.89 13.93
3 -1 9 475.57 14.11
3 -1 9 467.32 14.02
3 -1 10 176.82 6.68
3 -1 10 174.17 6.71
3 -1 11 1399.48 39.15
3 -1 11 1479.64 39.33
3 -1 12 23.06 2.25
3 -1 13 1620.42 44.52
3 1 14 663.64 19.84
3 -1 14 679.98 19.96
3 -1 14 669.92 20.09
3 1 14 674.41 19.87
3 1 14 647.03 19.81
3 -1 14 633.01 20.26
3 1 14 633.05 19.3
3 -1 14 634.84 19.4
3 -1 14 635.47 19.85
3 1 14 603.72 19.01
3 1 15 380.36 13.3
3 -1 15 386.81 13.41
3 -1 15 379.51 13.79
3 -1 15 378.99 12.88
3 1 15 393.09 12.91
3 1 15 388.05 12.73
3 -1 15 399.94 13.41
3 1 15 389.31 13.29
3 1 15 392.31 13.33
3 -1 15 380.59 12.44
3 -1 15 396.43 13.54
3 1 16 8.87 1.89
3 -1 16 8.11 2.21
3 -1 16 7.53 2.31
3 -1 16 10.15 2.57
3 -1 16 11.11 2.14
3 1 16 10 1.94
3 1 16 6.08 1.81
3 1 16 11.01 1.66
3 -1 16 9.91 1.55
3 1 17 232.18 9.43
3 -1 17 227.3 8.49
3 -1 17 214.89 9.83
3 1 17 214.5 8.7
3 -1 17 236.31 9.41
3 1 17 216.88 9.1
3 1 17 219.21 8.64
3 -1 17 225.8 9.42
3 -1 17 201.61 9.15
3 -1 18 219.56 9.97
3 1 18 212.74 9.35
3 -1 18 212.83 9.36
3 1 18 214.82 8.67
3 1 18 234.93 9.59
3 -1 18 220.48 9.45
3 1 18 205.23 9
3 -1 18 223.99 9.39
3 -1 19 379.73 13.71
3 1 19 367.29 13.76
3 1 19 378.33 13.89
3 1 19 364.83 12.94
3 1 19 375.86 13.54
3 -1 19 374.42 13.83
3 -1 19 388.26 14.61
3 1 20 224.04 9.41
3 1 20 215.17 9.76
3 1 20 221.38 9.69
3 -1 20 213.99 10.09
3 -1 20 214.49 9.31
3 1 20 215.19 9.46
3 -1 20 220.82 9.55
3 1 21 141.47 7.09
3 1 21 144.99 7.55
3 1 21 141.06 7.45
3 1 22 12.44 2.88
3 1 22 14.78 2.55
3 1 22 12.94 2.74
3 1 23 25.33 3.31
3 1 23 26.77 3
3 1 23 26.41 3.24
3 1 24 71.34 4.92
3 1 25 241.01 9.73
3 1 26 75.71 4.28
3 -1 26 67.61 4.37
3 1 26 76.41 4.46
-3 -2 28 8.24 1.65
-3 2 28 8.28 1.63
-3 2 28 9.64 1.63
-3 -2 28 9.63 1.67
-3 -2 28 9.2 1.82
-3 2 27 68.26 4.08
-3 -2 27 66.92 4.27
-3 -2 27 70.26 4.27
-3 -2 27 76.64 4.26
-3 2 27 62.44 3.79
-3 -2 27 58.55 3.81
-3 -2 26 569.46 18.68
-3 2 26 596.59 18.63
-3 -2 26 626.16 18.81
-3 2 26 551.63 18.25
-3 -2 26 572.64 18.54
-3 -2 25 12.05 2.55
-3 2 25 12.06 2.51
-3 2 25 13.4 2.01
-3 -2 25 12.83 2.59
-3 -2 25 7.59 2.17
-3 2 25 13.77 2.45
-3 -2 24 347.03 13.7
-3 2 24 355.59 13.62
-3 2 24 359.33 12.61
-3 -2 24 372.38 13.82
-3 -2 23 14.74 2.83
-3 2 23 14.41 2.29
-3 2 23 18.24 2.81
-3 -2 23 13.76 2.73
-3 -2 22 52.15 4.78
-3 2 22 46.84 3.98
-3 2 22 52.31 4.86
-3 -2 22 52.32 4.89
3 2 -22 45.72 4.09
-3 2 22 51.45 4.6
-3 2 22 50.25 3.99
-3 -2 21 18.85 3.29
-3 2 21 18.85 2.75
-3 2 21 20.73 2.97
3 2 -21 24.9 3.14
-3 -2 21 19.47 3.25
-3 2 21 19.06 3.17
-3 2 21 25.66 3.46
-3 -2 20 529.73 19.02
-3 2 20 543.05 19.05
3 2 -20 572.43 18.69
-3 -2 20 523.76 19.78
-3 2 20 552.27 18.11
-3 2 20 503.74 19.58
-3 2 20 530.04 18.09
-3 -2 19 68.09 5.92
-3 2 19 81.75 5.34
-3 -2 19 84.59 6.04
-3 2 19 67.06 5.82
3 2 -19 86.02 5.59
-3 2 19 81.09 5.21
-3 2 19 76.45 5.87
-3 2 18 953.75 30.8
-3 2 18 976.6 28.95
-3 2 18 977.11 29.87
-3 -2 18 960.37 30.81
3 2 -18 1050.51 29.52
-3 2 18 978.95 28.91
-3 2 17 537.78 17.43
-3 2 17 545.48 17.49
-3 2 17 484.62 18.65
-3 -2 17 489.06 18.79
-3 -2 17 542.56 18.28
3 2 -17 583.15 18.03
-3 2 17 498.19 17.17
-3 2 17 516.28 18.06
-3 -2 16 121.08 6.67
-3 2 16 129.59 6.32
-3 2 16 117.21 7.16
-3 2 16 128.12 6.8
-3 -2 16 125.31 7.26
3 2 -16 132.99 6.52
-3 2 16 122.71 6.23
-3 2 15 188.22 7.75
-3 2 15 167.39 7.35
-3 2 15 165.96 8.4
-3 -2 15 159.53 8.22
3 2 -15 178.34 7.79
-3 2 14 1849.07 52.33
-3 -2 14 1737.63 51.99
3 2 -14 1937.27 51.16
-3 -2 14 1841.76 51.93
-3 2 14 1945.77 52.21
-3 -2 13 204.13 8.95
-3 2 13 225.39 9.26
-3 -2 12 2115.63 59.13
-3 2 12 2243.05 59.37
-3 2 11 487.94 15.58
-3 -2 11 477.02 16.03
-3 2 11 514.33 16.22
-3 -2 10 4.84 1.56
-3 2 10 8.06 1.71
-3 2 10 5.41 1.5
-3 -2 9 750.11 22.43
-3 2 9 794.23 22.57
-3 2 9 762.87 22.08
-3 2 8 1160.66 31.85
3 2 -7 36.94 2.55
-3 2 7 45.91 2.79
3 2 -6 4117.96 107
-3 2 6 4188.94 107.04
3 2 -5 1143.71 30.67
-3 2 5 1135.47 30.77
3 2 -4 426.52 13.07
3 -2 -4 430.38 13.05
3 2 -4 469.51 12.96
-3 2 4 457.73 13.04
3 2 -4 447.44 12.88
3 2 -3 293.62 9.09
3 2 -3 290.55 8.99
3 -2 -3 296.48 9.1
3 2 -3 303.18 8.9
-3 2 3 287.43 8.92
3 -2 -2 1531.17 40.37
3 2 -2 1562.11 40.13
3 2 -2 1523.54 40.3
-3 2 2 1501.41 40.23
3 2 -2 1541.15 40.28
3 -2 -2 1540.85 40.37
3 2 -2 1572.62 40.71
3 2 -1 1175.22 31.47
3 -2 -1 1199.57 31.53
-3 2 1 1250.81 31.57
3 2 -1 1244.89 31.54
3 2 -1 1186.29 31.31
-3 -2 1 1155.13 30.51
3 -2 -1 1209.98 31.57
-3 -2 0 3698.99 95.72
3 2 0 4094.44 96.79
3 2 0 4064.56 97.61
3 -2 0 3777.15 96.74
-3 2 0 3663.12 96.67
-3 -2 -1 585.33 15.25
-3 2 -1 614.67 16.26
3 2 2 11.32 1.1
3 -2 2 12.78 1.2
-3 2 -2 12.14 1.15
-3 -2 -2 11.96 0.65
3 -2 3 262 8.13
3 -2 3 274.04 8.31
3 2 3 288.62 8.29
3 2 3 261.93 8.11
3 2 4 178.29 5.97
3 -2 4 187.45 6.09
3 2 4 178.21 5.91
3 -2 4 177.09 5.89
3 -2 5 443.92 12.5
3 2 5 437.61 12.39
-3 2 -5 409.35 11.25
3 2 5 458.98 12.57
3 -2 5 451.71 12.64
3 2 6 3897.75 96.42
3 -2 6 3982.92 96.51
3 -2 7 1258.75 32.5
3 2 7 1236.27 32.4
-3 2 -7 1169.02 31.45
3 2 7 1211.48 32.39
3 -2 7 1194.05 32.46
3 2 8 1159.13 30.54
3 -2 8 1108.58 30.55
-3 2 -8 1104.44 29.7
3 -2 8 1129.51 30.64
3 2 8 1133.76 30.51
3 2 9 225.99 7.66
3 -2 9 223.09 7.72
3 2 9 221.93 7.66
3 -2 9 204.81 7.6
-3 2 -9 221.46 7.04
3 2 10 95.68 4.46
-3 2 -10 101.24 4.1
3 -2 10 103.68 4.67
3 2 10 99.6 4.57
3 -2 10 105.9 4.71
-3 2 -11 251.15 8.61
3 2 11 276.33 9.36
3 -2 11 278.27 9.43
-3 2 -12 2568.36 69.37
3 -2 12 2716.48 70.3
3 2 12 2703.67 70.22
3 2 13 91.36 4.73
3 -2 13 87.26 4.76
3 -2 13 83.55 4.75
3 -2 14 502.03 17.01
3 2 14 488.18 16.17
3 2 14 500.94 15.71
3 -2 14 502.34 15.87
3 2 14 506.93 16.09
3 -2 14 515.96 16.6
3 2 14 499.97 16
3 2 14 503.8 16.27
3 -2 14 536.04 16.53
3 2 14 518.38 16.27
3 -2 14 516.03 16.45
3 2 14 481.21 15.63
3 -2 14 515.52 16.25
3 2 15 102.36 5.56
3 -2 15 108.25 6.23
3 2 15 103.65 5.18
3 -2 15 103.04 5.3
3 2 15 112.5 5.67
3 2 15 112.65 5.59
3 -2 15 104.29 5.74
3 2 15 111.68 5.51
3 -2 15 107.97 5.69
3 -2 15 119.46 5.81
3 2 15 100.73 5.15
3 2 15 111.59 5.69
3 -2 15 108.78 5.8
3 -2 16 27.17 3.11
3 2 16 28.02 2.77
3 2 16 28.36 3.14
3 -2 16 30.68 3.84
3 2 16 31.47 3.15
3 -2 16 27.94 3.63
3 -2 16 26.57 3.86
3 2 16 29.87 3.31
3 2 16 26.13 2.99
3 2 16 30.57 3.7
3 -2 16 25.66 3.95
3 2 16 27.52 2.91
3 -2 16 26.27 3.02
3 -2 17 178.55 9.14
3 2 17 178.03 7.68
3 -2 17 182.44 7.84
3 2 17 179.59 8.13
3 2 17 184.2 8.4
3 -2 17 179.26 8.47
3 -2 17 187.2 8.48
3 -2 17 175.67 8.1
3 2 17 185.97 8.13
3 -2 17 191.15 8.46
3 2 17 191.87 8.28
3 2 17 174.39 7.63
3 2 17 179.11 7.84
3 2 18 841.96 25.92
3 -2 18 859.48 27.21
3 2 18 851.86 26.01
3 -2 18 829.24 26.08
3 2 18 824.03 25.46
3 2 18 850.1 25.72
3 -2 18 837.59 25.75
3 2 18 849.65 25.96
3 -2 18 850.37 26.08
3 -2 18 852.02 26.03
3 2 18 876.63 25.36
3 -2 19 73.45 4.9
3 2 19 74.91 4.72
3 2 19 69.46 4.93
3 2 19 76.55 4.9
3 2 19 68.95 4.78
3 -2 19 68.23 4.78
3 2 19 72.65 5.06
3 -2 19 73.97 5.07
3 -2 19 76.71 5.21
3 2 19 72.51 4.59
3 2 20 479.23 16.21
3 2 20 453.62 15.86
3 2 20 452.79 15.5
3 -2 20 473.95 16.27
3 2 20 431.97 15.71
3 -2 20 425.67 15.72
3 -2 20 465.62 16.22
3 -2 21 135.52 7.24
3 2 21 131.07 7.03
3 2 21 134.85 7.09
3 2 21 129.51 6.6
3 -2 21 137.45 7.24
3 2 22 54.11 4.39
3 2 22 61.85 4.3
3 2 22 53.75 4.44
3 -2 22 51.29 4.32
3 -2 22 54.98 4.49
3 -2 23 44.21 4.03
3 2 23 55.49 4.22
3 2 23 53.88 4.31
3 -2 24 225.35 9.58
3 2 24 224.98 9.37
3 2 25 8.1 1.87
3 -2 25 5.62 2.02
3 2 25 2.89 1.54
3 2 26 189.05 7.27
3 -2 26 176.49 7.72
-3 -3 27 101.8 5.07
-3 -3 27 94.11 4.76
-3 3 27 108.18 4.86
-3 3 27 103.02 4.87
-3 3 27 95.19 4.64
-3 -3 27 103.59 4.96
-3 -3 26 19.29 2.57
-3 -3 26 16.4 2.3
-3 -3 26 17.62 2.45
-3 3 26 18.69 2.36
-3 3 26 20.66 2.38
-3 -3 25 5.77 1.8
-3 3 25 5 1.78
-3 -3 25 5.2 1.86
-3 3 25 5.38 1.74
-3 3 24 6.79 2.26
-3 -3 24 4.75 1.97
-3 3 24 4.08 1.83
-3 3 23 640.19 19.92
-3 3 23 670.51 21.64
-3 -3 23 634.27 21.63
-3 3 23 670.28 20.72
-3 -3 22 6.03 2.34
-3 3 22 4.78 1.88
-3 3 22 4.18 1.77
-3 3 22 5.98 2.18
-3 -3 22 1.71 1.82
-3 -3 22 5.13 2.29
-3 3 22 4.04 1.5
-3 3 22 4.92 2.1
-3 3 21 301.26 11.71
3 3 -21 315.78 12.12
-3 3 21 305.73 12.45
-3 3 21 307.53 11.31
-3 -3 21 305.59 12.81
-3 -3 21 284.78 12.97
-3 3 21 279.55 12.78
-3 -3 21 291.48 12.42
-3 -3 20 11.95 3
-3 3 20 13.96 2.58
3 3 -20 17 2.61
-3 -3 20 17.66 3.03
-3 3 20 13.56 2.3
-3 3 20 13.56 2.8
-3 3 20 16.49 3
-3 -3 20 13.55 3.03
-3 -3 19 9.37 2.63
-3 -3 19 17.93 3.49
-3 3 19 10.51 2.75
-3 3 19 15.09 3.27
3 3 -19 13.05 2.45
-3 -3 19 8.15 2.79
-3 3 19 11.5 2.14
-3 3 19 8.99 2.35
-3 3 18 222.24 10.46
-3 -3 18 216.98 10.48
-3 3 18 216.25 9.74
-3 3 18 196.99 8.89
-3 -3 18 199.14 9.52
-3 3 18 191.75 8.49
3 3 -18 222.02 9.49
-3 -3 18 207.46 9.88
-3 3 17 1444.99 41.6
-3 -3 17 1352.77 43.06
-3 -3 17 1404.71 42.6
-3 3 17 1475.22 42.33
-3 -3 17 1450.53 42.32
-3 3 17 1616.68 43.89
-3 3 17 1432.43 41.04
3 3 -17 1638.31 42.5
-3 3 16 36.13 3.28
-3 3 16 37.37 3.9
-3 -3 16 40.83 4.05
3 3 -16 40.19 3.54
-3 3 16 41.01 3.73
-3 -3 16 43.58 3.98
-3 -3 16 38.06 3.62
-3 3 15 1877.78 50.44
3 3 -15 1955.4 50.95
-3 3 15 1784.89 50.81
-3 3 15 1722.26 51.52
-3 -3 15 1825.41 51.95
-3 3 15 1897.94 50.66
-3 -3 15 1785.89 50.87
-3 -3 15 1783.54 51.25
-3 3 14 77.95 5.21
-3 -3 14 76.33 5.21
-3 -3 13 7.4 1.87
-3 3 13 3.19 1.54
-3 3 13 5.62 1.68
-3 -3 13 5.82 1.88
3 3 -13 6.24 1.74
-3 3 12 43.68 3.38
3 3 -12 52.94 3.59
-3 3 12 52.21 3.95
-3 -3 12 47.66 3.74
3 3 -11 2695.83 71.44
-3 3 11 2653.12 71.47
-3 -3 11 2633.35 71.72
-3 3 11 2776.33 71.89
-3 -3 10 51.47 3.57
-3 3 10 48.69 3.5
-3 3 10 46.93 3.3
-3 3 9 3850.65 97.61
-3 3 9 3672.84 97.18
-3 -3 9 3684.84 97.49
-3 3 8 196.94 7.4
-3 -3 8 185.1 7.37
-3 3 7 206.3 7.44
-3 3 6 28.01 2.22
-3 3 5 852.5 23.65
3 3 -4 194.46 6.49
3 3 -4 182.35 6.35
3 -3 -4 188.18 6.45
-3 3 4 183.74 6.44
3 3 -4 178.23 6.49
-3 3 3 5263.7 134.81
3 3 -3 5300.56 134.6
3 3 -3 5288.82 134.78
3 -3 -3 4980.84 134.6
3 3 -3 5316.82 135.24
3 -3 -3 5489.1 134.76
3 3 -2 37.28 1.89
3 -3 -2 23.97 1.69
3 3 -2 26.81 1.67
3 -3 -2 34.17 1.9
-3 3 2 22.49 1.75
3 3 -2 26.39 1.74
3 3 -2 27.73 2.15
3 -3 -1 36.6 1.97
3 -3 -1 36.5 1.93
3 3 -1 33.62 1.9
-3 3 1 32.22 1.99
3 3 -1 38.18 1.89
3 3 -1 37.28 1.88
3 3 -1 37.53 2.5
3 3 0 177.99 6.39
-3 3 0 156.98 5.52
3 3 1 12.6 1.67
-3 3 -1 11.27 1.25
3 -3 2 678.69 18.51
3 3 2 672 18.39
-3 3 -2 661.66 18.59
3 3 2 694.89 19.76
3 3 3 7772.06 197.63
3 -3 3 7791.4 197.69
-3 3 -3 7739.64 197.96
3 3 3 8093.91 197.79
3 -3 3 7470.3 197.77
3 -3 4 389.03 11.91
3 -3 4 422.98 11.89
3 3 4 426.14 11.86
3 3 4 404.37 11.87
3 3 5 247.43 6.88
3 -3 5 240.19 6.9
3 3 6 17.72 1.48
3 -3 6 15.44 1.54
-3 3 -6 16.3 0.88
3 3 6 18.05 1.51
3 -3 6 15.52 1.47
3 3 7 547.27 15.17
3 -3 7 512.12 15.16
-3 3 -7 505.15 14.02
3 3 7 526.86 15.09
3 -3 7 548.65 15.23
3 3 8 268.59 8.82
3 3 8 267.61 8.61
3 -3 8 272.21 8.97
3 3 8 286.33 8.9
3 -3 8 265.78 8.84
3 3 9 3583.44 94.04
3 -3 9 3687.67 94.7
3 3 9 3649.3 94.54
3 -3 9 3609.13 94.55
3 3 9 3729.21 94.52
3 3 10 172.84 6.21
3 -3 10 179.07 6.75
3 3 10 177.2 6.67
3 3 11 724.47 21.03
3 -3 11 721.73 21.21
3 -3 12 53.75 3.45
3 3 12 54.86 3.44
3 3 13 17.83 2.03
3 3 13 12.11 1.72
3 -3 13 16.94 2.26
3 3 13 17.19 1.98
3 -3 13 18.04 2.09
3 -3 13 14.23 1.94
3 -3 13 15.56 2.57
3 3 13 14.04 2.04
3 -3 13 16.75 2.05
3 -3 13 14.39 2.06
3 3 14 193.91 7.63
3 -3 14 199.58 9.24
3 3 14 196.84 7.78
3 3 14 210 8.45
3 3 14 206.54 8.31
3 -3 14 213.49 8.35
3 3 14 204.83 8.15
3 -3 14 221.08 8.57
3 3 14 205.77 7.97
3 -3 14 207.58 8.07
3 3 14 223.15 8.5
3 -3 14 213.8 8.58
3 -3 14 206.08 8.6
3 -3 15 1263.65 35.55
3 3 15 1234.25 34.99
3 3 15 1150.57 33.96
3 -3 15 1207.74 36.53
3 3 15 1237.48 35.08
3 3 15 1183.54 34.29
3 3 15 1203.04 34.48
3 -3 15 1286.45 35.13
3 -3 15 1257.34 34.7
3 3 15 1248.62 35.04
3 -3 15 1245.9 35.27
3 -3 15 1257.63 35.27
3 3 15 1227.71 34.55
3 3 15 1252.16 34.83
3 3 16 1.58 1.16
3 -3 16 2.06 1.88
3 3 16 3.3 1.71
3 3 16 7.2 1.55
3 -3 16 3.85 1.52
3 3 16 1.02 1.68
3 3 16 6.84 1.79
3 3 16 0.34 2
3 -3 16 1.24 1.89
3 3 16 0.59 1.42
3 -3 16 2.82 1.45
3 3 16 4.39 1.65
3 -3 16 1.66 2.02
3 3 17 530.42 17.67
3 3 17 601.63 18.95
3 -3 17 573.6 18.69
3 -3 17 600.26 19.37
3 3 17 594.29 18.33
3 3 17 561.81 18.6
3 -3 17 578.84 18.86
3 -3 17 579.7 18.96
3 3 17 583.66 18.35
3 3 17 588.77 18.66
3 3 17 583.53 18.84
3 -3 18 9.49 2.43
3 3 18 6.72 1.78
3 3 18 6.92 1.79
3 3 18 10.28 1.94
3 -3 18 11.76 2.19
3 3 18 7.33 2.1
3 3 18 6.96 1.88
3 3 18 11.62 2.03
3 -3 18 11.46 2.17
3 3 18 11.17 2.34
3 -3 18 7.54 2.22
3 3 19 20.45 2.42
3 -3 19 18.85 2.68
3 3 19 17.84 2.75
3 3 19 22.18 2.78
3 3 19 19.74 2.48
3 3 19 20.25 2.58
3 3 19 19.59 2.82
3 -3 19 19.43 2.85
3 -3 19 21.16 3.02
3 3 20 102.37 5.37
3 3 20 111.11 6.18
3 3 20 110.08 6.16
3 -3 20 112.77 6.44
3 -3 20 109.41 6.31
3 3 20 102.15 5.57
3 3 21 834.18 25.61
3 -3 21 805.4 25.85
3 3 21 847.04 25.14
3 -3 21 862.03 26.23
3 3 21 844.81 25.88
3 3 22 1.39 2.01
3 -3 22 -0.2 1.88
3 3 22 0.19 1.83
3 3 22 -0.78 1.45
3 3 23 320.69 11.65
3 3 23 307.13 11.72
3 -3 23 315.46 12.1
3 3 24 2.74 1.83
3 3 24 -0.15 1.6
3 -3 24 1.06 1.63
3 -3 25 -0.16 1.63
3 -3 25 0.64 1.64
3 -3 26 7.53 2.08
3 -3 26 7.29 2.05
-3 -4 27 115.52 4.99
-3 -4 27 115.16 5.19
-3 4 27 121.83 4.85
-3 -4 27 131.61 5.65
-3 4 26 207.32 7.61
-3 -4 26 180.41 7.53
-3 -4 26 209.71 8.1
-3 -4 26 212.7 8.37
-3 -4 26 205.47 7.87
-3 4 26 184.79 7.37
-3 4 25 53.04 3.68
-3 -4 25 57.03 4.12
-3 -4 25 48.38 3.79
-3 -4 25 57.1 4.19
-3 4 25 51.81 3.61
-3 -4 25 50.13 3.79
-3 4 24 147.11 6.85
-3 4 24 149.74 7.18
-3 -4 24 169.61 7.83
-3 -4 24 166.45 8.14
-3 -4 24 166.61 7.87
-3 4 24 155.73 7.2
-3 -4 24 155.21 7.48
-3 4 23 193.73 8.65
-3 4 23 191.65 8.28
-3 -4 23 183.88 8.73
-3 -4 23 200.41 9.47
-3 4 23 197.6 8.39
-3 4 22 373.44 13.51
-3 -4 22 363.05 14.31
-3 4 22 389.56 13.79
-3 -4 22 403.27 15.18
-3 4 22 387.1 14.25
-3 4 21 61.81 4.6
-3 4 21 67.45 4.95
-3 4 21 60.65 5.17
-3 -4 21 72.82 5.57
-3 4 21 73.08 5.07
3 4 -21 62.84 4.66
-3 -4 21 70.87 5.15
-3 -4 21 59.87 4.93
-3 -4 20 682.5 23.85
-3 4 20 756.31 23.24
-3 -4 20 700.17 23.76
-3 4 20 708.17 23.74
3 4 -20 709.68 22.69
-3 -4 20 698.95 23.15
-3 -4 19 44.93 4.56
-3 4 19 37.94 3.86
-3 -4 19 53.15 4.42
-3 -4 19 57.17 4.94
3 4 -19 45.83 3.89
-3 4 19 41 4.34
-3 4 18 617.27 20.23
-3 -4 18 614.38 21.07
3 4 -18 642.51 20.19
-3 -4 18 592.68 21.01
-3 4 18 593.47 20.83
-3 -4 18 577.24 20.07
-3 4 17 487.66 17.81
-3 -4 17 492.82 18.12
-3 4 17 487.96 16.7
-3 -4 17 459.64 17.61
-3 4 17 507.02 17.02
3 4 -17 545.33 17.37
-3 4 17 517.23 17.25
-3 -4 17 491.62 17.31
-3 4 16 876.78 28.36
-3 -4 16 977.67 29.01
-3 4 16 923.16 27.55
-3 4 16 868.45 27.5
-3 -4 16 926.18 27.87
-3 4 16 885.24 27.25
3 4 -16 987.82 28.1
-3 4 16 955.66 27.76
-3 -4 16 882.95 28.36
-3 -4 15 524.23 18.49
3 4 -15 560.7 17.92
-3 4 15 528.66 17.54
-3 4 15 542.54 17.77
-3 -4 15 537.37 17.78
-3 4 15 564.35 18.68
-3 -4 15 524.72 18.37
-3 4 15 540.91 17.52
3 4 -14 544.54 17.2
-3 4 14 511.39 17.47
-3 -4 14 510.54 17.59
-3 4 14 543.16 17.03
-3 4 14 511.36 16.65
-3 -4 14 482.9 17.34
-3 4 13 36.13 3.27
-3 -4 13 27.69 2.95
3 4 -13 27.48 2.86
-3 4 12 1435.19 41.56
-3 -4 12 1438.1 41.64
3 4 -12 1484.15 41.49
-3 -4 12 1495.97 41.5
-3 4 12 1578.6 41.69
3 4 -11 1228.93 34.68
-3 -4 11 1200.12 34.57
-3 4 11 1250.44 34.7
3 4 -10 2046.2 56.68
-3 -4 10 2035.36 56.58
3 4 -9 236.84 9
-3 -4 9 248.35 8.96
-3 4 9 245.91 8.88
-3 -4 8 1630.23 44.38
3 4 -8 1620.15 44.62
-3 4 8 1683.76 44.42
-3 -4 7 117.96 5.07
-3 4 7 118.55 5.04
3 4 -6 1201.26 31.83
3 4 -6 1136.38 31.56
3 4 -5 1250.14 29.67
3 4 -5 1206.47 29.37
3 -4 -5 1179.35 29.41
3 -4 -4 1576.77 41.84
3 4 -4 1603.24 41.69
3 -4 -4 1582.92 41.82
3 4 -4 1567.05 42.04
3 4 -3 317.89 9.64
3 -4 -3 331.57 9.85
3 4 -3 337.84 9.76
3 -4 -3 321.58 9.81
3 4 -3 324.58 10.18
3 4 -3 352.03 10.89
3 4 -2 1610.6 42.63
3 -4 -2 1684.01 42.84
3 -4 -2 1583.48 42.73
3 4 -2 1655.41 43.43
3 4 -2 1653.14 42.68
3 4 -2 1678.34 44.31
3 4 -1 401.19 12.22
3 4 -1 426.63 13.18
3 4 0 694.06 20.41
3 4 1 1456.65 37.73
3 -4 1 1429.49 37.8
3 4 1 1443.27 39.51
3 4 1 1440.51 38.41
3 4 2 1241.42 33.17
3 -4 2 1209.62 32.64
3 4 2 1239.16 32.56
3 4 2 1268.54 34.4
3 4 3 18.89 1.65
3 4 3 19.45 1.43
3 -4 3 17.82 1.45
3 4 4 362.9 11.15
-3 4 -4 369.02 11.27
3 4 5 1405.65 36.41
3 4 5 1366.71 36.79
3 -4 5 1361.21 36.4
-3 4 -5 1361.32 36.99
3 4 6 1954.32 53.39
3 -4 6 2093.67 53.68
3 4 6 2062.69 53.83
3 4 6 2049.05 53.44
3 -4 6 2081.94 53.54
3 4 7 815.32 22.55
3 -4 7 824.21 22.74
3 4 7 826.76 22.78
3 4 7 799.58 22.45
3 -4 7 810.12 22.56
3 4 8 390.33 11.88
3 -4 8 400.55 12.11
3 4 8 388.05 11.93
3 4 8 374.5 11.7
3 -4 8 379.55 11.86
3 4 9 161.33 5.97
3 4 9 149.77 5.83
3 -4 9 153.14 5.99
3 4 10 392.64 12.06
3 -4 10 381.11 12.23
3 4 10 378.9 12.05
3 4 11 1150.37 32.81
3 4 11 1224.44 33.25
3 -4 11 1250.52 33.53
3 -4 12 643.44 18.48
3 4 12 566.82 17.48
3 -4 12 597.65 18.67
3 4 12 578.87 18
3 4 12 609.38 18.62
3 4 12 618.03 18.19
3 -4 13 143.87 6.87
3 4 13 150.88 6.29
3 -4 13 159.67 6.56
3 4 13 162.45 6.96
3 -4 13 155.47 6.62
3 -4 13 156.22 6.78
3 4 13 145.91 6.59
3 -4 13 155.9 6.9
3 4 13 159.52 6.54
3 4 13 143.88 6.44
3 4 13 163.31 6.68
3 4 14 465.75 15.2
3 4 14 474.52 14.95
3 4 14 467.73 14.88
3 -4 14 455.93 15.02
3 4 14 473.02 15.68
3 4 14 470.9 15.27
3 -4 14 480.7 15.99
3 -4 14 478.5 15.4
3 4 14 504.32 15.35
3 4 14 460.21 15.37
3 -4 14 480.1 15.7
3 -4 14 475.94 15.54
3 4 15 145.36 6.48
3 4 15 158.97 6.71
3 -4 15 163.5 6.92
3 4 15 166.64 7.41
3 4 15 153.31 6.98
3 4 15 145.51 6.42
3 4 15 161.85 7.15
3 -4 15 146.06 7.41
3 -4 15 155.43 7.22
3 4 15 150.75 6.88
3 -4 15 159.71 7.68
3 4 16 506.16 16.32
3 -4 16 549.18 17.8
3 4 16 529.41 17.18
3 -4 16 505.64 16.97
3 4 16 507.44 16.23
3 -4 16 504.97 17.17
3 4 16 505.8 16.77
3 4 16 539.23 17.11
3 4 17 256.43 9.76
3 4 17 260.96 9.75
3 4 17 269.98 10.52
3 -4 17 271.87 10.57
3 4 17 255.54 10.36
3 -4 17 267.93 10.68
3 4 17 276.72 10.44
3 -4 17 265.51 10.86
3 4 18 368.41 12.56
3 4 18 356.73 13.09
3 4 18 367.29 12.61
3 -4 18 351.66 13.17
3 4 18 361 13.24
3 -4 18 379.3 13.64
3 -4 18 391.07 14
3 4 18 370.29 13.32
3 4 19 5.26 1.67
3 4 19 3.96 1.4
3 4 19 5.21 1.48
3 -4 19 6.66 1.67
3 4 19 3.32 1.65
3 4 19 3.76 1.95
3 -4 19 3.29 1.79
3 -4 19 3.9 1.97
3 4 20 265.03 10.2
3 4 20 292.53 11.01
3 4 20 295.34 11.18
3 -4 20 290.18 11.58
3 -4 20 284.39 11.24
3 4 20 273.52 10.21
3 4 21 129.01 6.17
3 -4 21 144.91 7.23
3 4 21 150.93 7.12
3 4 21 152.58 7.16
3 4 22 163.83 7.4
3 4 22 157.08 7.35
3 -4 22 163.81 7.79
3 -4 23 263.87 10.45
3 4 23 252.61 9.66
3 -4 23 248.05 10.11
3 -4 24 107.68 5.75
3 -4 24 98.37 5.5
3 4 24 103.34 5.14
3 -4 25 1 1.64
3 -4 25 4.39 1.78
-3 -5 26 12.43 1.71
-3 -5 26 12.05 1.56
-3 -5 26 15.8 2.17
-3 -5 25 597.23 18.25
-3 -5 25 576.76 17.88
-3 -5 25 614.26 19.07
-3 5 25 592.64 17.87
-3 -5 24 10.71 2.17
-3 5 24 12.39 2.02
-3 -5 24 13.95 2.2
-3 5 24 15.01 2.13
-3 -5 24 15.24 2.71
-3 5 24 13.98 1.93
-3 -5 24 15.03 2.16
-3 -5 23 46.73 4.01
-3 5 23 44.68 3.47
-3 -5 23 47.82 4.25
-3 5 23 43.68 3.51
-3 -5 23 44.64 3.71
-3 -5 23 37.9 3.48
-3 5 23 43.46 3.43
-3 5 23 42.25 3.48
-3 -5 22 9.42 2.36
-3 5 22 7.69 2.07
-3 -5 22 9.41 2.71
-3 -5 22 11.03 2.28
-3 5 22 9.24 1.96
-3 5 21 255.3 10.37
-3 -5 21 252.41 10.64
-3 -5 21 266.53 11.59
3 5 -20 92.45 5.7
-3 -5 20 92.07 6.39
-3 5 20 92.77 5.61
-3 -5 20 91.84 5.83
-3 5 20 81.1 5.67
-3 5 19 1434.37 39.64
-3 -5 19 1244.12 39.88
-3 5 19 1395.63 39.44
-3 5 19 1336.31 39.8
-3 5 19 1363.56 39.05
3 5 -19 1382.29 39.62
-3 -5 19 1373.33 40.61
-3 -5 19 1372.66 39.7
-3 -5 19 1339.65 39.4
-3 5 18 35.72 3.48
-3 5 18 37.3 3.68
-3 5 18 35.47 3.48
3 5 -18 31.18 3.4
-3 -5 18 35.24 4.04
-3 -5 18 34.8 3.64
-3 5 18 29.44 3.51
-3 -5 18 32.63 4.02
-3 5 17 237.51 9.63
-3 -5 17 210.05 10.01
-3 5 17 244.32 10.02
-3 -5 17 226.5 9.71
3 5 -17 233.38 9.97
-3 5 17 249.91 9.99
-3 -5 17 217.45 10.5
-3 5 17 224.7 9.44
-3 5 17 205.57 9.68
-3 5 16 4.51 2.17
-3 -5 16 8.09 3.2
-3 5 16 4.79 2.09
-3 5 16 5.2 1.66
-3 5 16 6.07 1.82
3 5 -16 5.79 1.99
-3 -5 16 6.42 2.07
-3 -5 16 4.86 2.63
-3 5 15 169.64 8.06
-3 -5 15 183.52 8.48
-3 5 15 184.44 8.1
3 5 -15 190.02 8.6
-3 5 15 161.27 7.48
-3 -5 15 186.8 8.78
-3 5 15 183.35 8.1
-3 5 14 48.02 3.8
-3 5 14 59.14 4.02
-3 5 14 56.42 3.94
-3 -5 14 48.89 4.28
-3 5 14 44.85 3.51
3 5 -14 62.13 4.31
-3 -5 14 47.3 3.96
-3 5 13 3167.89 82.07
-3 -5 13 3059.96 82.55
-3 5 13 3030.16 81.99
-3 5 13 3030.56 82.25
3 5 -13 3144.25 82.8
-3 -5 13 2917.73 82.77
-3 5 13 3312.38 82.92
-3 5 12 137.03 6.32
-3 -5 12 128.02 6.28
-3 5 12 133.72 6.16
3 5 -12 134.21 6.6
-3 5 12 140.53 6.58
3 5 -11 927.66 26.35
-3 5 11 903.61 26.12
-3 -5 11 868.07 25.6
-3 -5 10 1.37 1.11
-3 5 10 0.96 0.95
-3 -5 10 3.2 1.25
-3 5 10 2.39 1.1
3 5 -10 3.83 1.48
-3 5 10 0.57 1.12
3 5 -9 235.86 9.01
-3 5 9 207.8 8.4
-3 -5 9 220.84 8.16
-3 5 9 234.22 8.19
3 5 -8 258.3 9.61
-3 -5 8 251.96 8.86
-3 5 8 264.95 9.43
-3 5 8 260.4 8.84
3 5 -7 5099.85 132.01
3 -5 -7 5339.65 131.78
-3 5 7 5257.96 132.5
3 5 -7 5106.06 132.65
-3 -5 7 5316.17 131.9
-3 5 7 5203.6 131.78
3 -5 -6 97.5 4.14
3 5 -6 87.22 3.88
-3 5 6 93.9 4.07
-3 -5 6 95.2 4.16
3 5 -6 88.96 4.21
-3 5 6 95.38 4.68
3 5 -6 94.61 4.64
3 5 -5 1750.98 42.58
3 -5 -5 1627.92 42.56
-3 5 5 1704.53 43.57
3 -5 -5 1684.92 42.68
3 5 -5 1585.84 42.34
3 5 -5 1657.82 43.45
-3 5 5 1480.47 41.49
3 5 -5 1611.17 43.09
3 5 -4 394.37 12.2
3 5 -4 378.7 11.28
3 -5 -4 404.29 11.57
-3 5 4 397.09 12.43
3 5 -4 393.16 11.4
3 -5 -4 385.25 11.47
3 5 -4 433.77 13.13
-3 5 3 251.24 8.86
3 5 -3 270.74 7.91
3 -5 -3 244.37 7.88
3 -5 -3 261.36 8
3 5 -3 294.92 9.83
3 5 -3 285.71 8.99
3 5 -2 47.37 2.85
-3 5 2 48.87 2.92
3 5 -2 53.06 3.57
3 5 -1 3730.14 96.49
3 -5 -1 3670.52 95.28
-3 5 1 3595.02 96.33
3 5 0 43.68 2.74
3 -5 0 45.94 2.14
3 5 0 42.95 2.04
3 5 0 48.51 3.44
3 5 1 2789.34 71.18
3 -5 1 2761.18 71.26
3 5 1 2727.72 73.64
3 -5 2 183.43 6.03
3 5 2 190.61 6.82
3 5 2 190.03 5.98
3 5 3 29.58 2.22
3 5 4 290.48 9.59
3 5 5 3012.81 78.63
3 5 6 26.3 1.87
3 5 6 30.18 2.27
3 -5 6 28.76 1.91
3 5 6 27.28 1.86
3 5 7 2029.66 53.25
3 -5 7 1951.62 53.24
3 5 7 2089.68 53.35
3 5 7 2052.07 53.98
3 5 8 105.54 4.77
3 5 8 109.48 4.46
3 -5 8 104.23 4.48
3 5 9 8.54 1.48
3 5 9 6.11 1.14
3 -5 9 5.09 1.08
3 5 10 60.4 3.28
3 5 10 55.71 3.38
3 -5 10 57.55 3.3
3 5 11 744.68 22.01
3 5 11 746.41 21.52
3 5 11 717.79 21.29
3 -5 11 725.11 21.92
3 5 11 710.26 21.07
3 -5 11 731.88 21.3
3 -5 12 81.48 4.32
3 5 12 79.87 4.38
3 5 12 83.24 4.75
3 -5 12 84.68 4.87
3 5 12 83.34 4.3
3 5 12 87.54 4.34
3 -5 12 94.73 4.63
3 -5 12 79.51 4.53
3 5 12 86.08 4.31
3 5 12 85.07 4.53
3 5 13 1694.05 49
3 5 13 1763.86 49.34
3 5 13 1733.11 48.66
3 -5 13 1859.74 49.06
3 5 13 1788.12 49.64
3 -5 13 1879.56 50.1
3 5 13 1739.19 48.72
3 5 13 1842.5 49.08
3 -5 13 1891.52 49.36
3 -5 13 1869.65 49.67
3 5 13 1930.21 49.52
3 -5 14 22.26 2.47
3 -5 14 18.02 2.27
3 5 14 21.97 2.4
3 5 14 18.89 2.33
3 5 14 16.62 2.77
3 5 14 18.36 2.02
3 5 14 22.46 2.26
3 -5 14 25.17 3.74
3 -5 14 17.1 2.67
3 5 14 19.28 2.56
3 5 15 13.49 2.2
3 5 15 13.15 2.02
3 -5 15 13.77 2.21
3 5 15 12.46 1.99
3 5 15 15.1 2.55
3 5 15 10.7 2.47
3 -5 15 13.99 2.84
3 5 15 15.52 2.33
3 -5 15 11.59 2.27
3 5 16 1.48 1.4
3 5 16 2.64 1.35
3 -5 16 1.31 1.42
3 5 16 0.34 1.51
3 5 16 1.9 1.35
3 -5 16 1.75 1.67
3 -5 16 -0.36 1.47
3 5 16 0.66 1.57
3 5 17 150.74 6.77
3 5 17 155.73 7.26
3 -5 17 148.1 7.47
3 5 17 145.47 6.83
3 -5 17 144.26 6.95
3 -5 17 149.17 7.24
3 -5 17 133.36 6.98
3 5 17 169.72 7.37
3 5 17 146.21 6.98
3 5 18 29.34 2.93
3 5 18 34.71 3.05
3 5 18 36.05 3.42
3 -5 18 25.78 3.15
3 5 18 25.27 2.88
3 5 18 37.51 3.43
3 5 19 748.61 23.02
3 5 19 738.28 23.38
3 -5 19 780.18 23.93
3 5 19 824.38 23.86
3 5 20 77.99 4.61
3 5 20 89.63 5.2
3 -5 20 88.59 5.39
3 5 21 4.61 1.59
3 5 21 8.47 2.09
3 -5 21 6.7 2.06
3 -5 21 4.84 2.07
3 5 22 1.7 1.61
3 -5 22 -0.36 1.79
3 -5 22 1.51 1.62
3 -5 23 9.8 2.23
3 5 23 11.52 1.96
3 -5 23 10.1 2.02
3 -5 24 10.52 2.22
3 5 24 9.44 1.76
3 -5 24 7.63 1.83
-3 -6 26 13.17 2
-3 6 25 1.33 1.15
-3 -6 25 3.24 1.66
-3 -6 24 201.15 7.85
-3 6 24 211.52 8.08
-3 -6 23 14.26 2.13
-3 6 23 14.72 2.17
-3 -6 23 12.77 2.61
-3 -6 22 595.62 19.17
-3 -6 22 613.32 20.34
-3 6 21 137.18 6.76
-3 -6 21 133.74 6.73
-3 -6 21 125.64 7.35
-3 -6 21 120.84 6.22
-3 6 21 115.89 5.86
-3 6 20 124.56 6.27
-3 -6 20 147.04 7.9
-3 -6 20 131.7 6.95
-3 -6 20 132 6.69
-3 6 20 135.69 7.03
-3 6 19 1 1.68
3 6 -19 1.04 1.38
-3 -6 19 0.74 2.05
-3 -6 19 2.42 1.53
-3 6 18 89.65 5.51
-3 6 18 94.97 5.61
3 6 -18 96.84 5.92
-3 -6 18 97.45 6.32
-3 6 18 92.34 5.72
-3 -6 18 84.15 5.3
-3 6 17 121.38 6.47
3 6 -17 129.08 6.91
-3 -6 17 116.1 7.04
-3 -6 17 113.05 6.19
-3 6 17 127.16 6.71
-3 6 16 1581 44.05
-3 6 16 1538.2 43.79
-3 -6 16 1472.37 44.58
3 6 -16 1594.34 44.51
-3 6 15 226.66 9.41
-3 6 15 223.01 9.28
3 6 -15 230.2 9.78
-3 -6 15 203.97 9.73
-3 6 15 199.83 8.67
-3 6 14 200.56 8.89
-3 6 14 217.7 9.08
3 6 -14 225.73 9.71
-3 -6 14 216.26 9.51
-3 6 14 197.7 8.4
-3 6 13 11.71 2.1
-3 6 13 11.87 1.98
-3 -6 13 7.94 2.11
3 6 -13 13.41 2.39
-3 6 13 13.84 2.32
-3 6 13 12.37 1.78
-3 6 12 80.53 4.62
-3 6 12 84.45 4.94
-3 -6 12 75.11 4.97
-3 6 12 76.94 4.3
3 6 -12 78.56 5.11
-3 6 12 81.72 4.67
-3 6 11 325.71 11.21
-3 6 11 343.98 11.72
-3 6 11 330.47 11.64
3 6 -11 348.04 12.69
-3 6 11 340.04 12.2
-3 6 10 2319.07 63.18
3 6 -10 2364.09 64.87
3 -6 -10 2439.03 63.3
-3 6 10 2472.52 64.51
-3 6 9 19.68 1.85
3 -6 -9 25.38 2
3 6 -9 21.59 2.53
-3 6 9 26.47 2.63
-3 6 8 485.77 14.7
-3 6 8 516.47 16.12
3 -6 -8 499.53 15.01
3 6 -8 527.29 16.4
3 6 -7 88.41 3.74
-3 6 7 79.72 3.6
3 -6 -7 84.8 3.85
-3 6 7 86.66 4.59
3 6 -7 82.54 4.29
-3 -6 7 82.84 3.7
3 6 -7 94.82 4.87
3 6 -6 77.04 3.27
3 -6 -6 73.43 3.37
3 6 -6 75.25 3.95
3 6 -6 85.02 4.45
-3 6 6 79.93 4.37
-3 -6 6 76.53 3.36
3 6 -5 1164.02 31.09
3 6 -5 1092.13 29.51
3 -6 -5 1144.25 29.76
3 6 -5 1160.38 31.35
-3 6 5 1117.42 31.29
-3 -6 5 1147.18 29.84
-3 6 5 1052.63 29.42
3 6 -4 2008.08 52.2
3 6 -4 1966.68 52.16
3 6 -4 1896.7 50.42
-3 -6 4 1886.43 50.71
-3 6 4 2057.24 52.48
3 6 -4 2122.72 53.47
-3 6 3 45.44 3.04
-3 -6 3 38.63 2.02
3 6 -3 51.28 3.7
3 6 -3 48.56 2.98
3 6 -2 748.46 20.55
3 6 -2 669.2 18.57
3 6 -2 792.88 22
-3 6 2 692.59 20.35
3 6 -1 238.5 7.19
3 6 -1 272.22 8.94
-3 6 1 246.05 8.69
3 6 -1 273.86 10.26
3 6 0 88.48 4.27
-3 6 0 95.02 4.34
3 6 0 81.66 2.97
3 6 1 538.79 16.07
-3 6 -1 517.04 15.81
-3 6 -2 2976.26 77.9
-3 6 -3 51.41 3.14
3 6 3 50.4 3.98
-3 6 -4 2041.47 54.22
3 6 4 2021.86 54.24
3 6 5 572.52 17.42
-3 6 -5 585.61 17.53
3 6 6 83.83 4.32
-3 6 -6 88.34 4.51
3 6 7 278.06 9.94
-3 6 -7 296.68 10.33
3 6 8 993.91 29.13
-3 6 -8 1075.93 29.74
3 6 9 14.37 1.86
3 6 9 14.28 1.53
-3 6 -9 14.16 1.98
3 6 9 12.2 1.7
3 6 10 1681.52 45.4
3 6 10 1743.9 46.43
3 6 10 1731.68 46.23
3 -6 10 1673.38 46.47
-3 6 -10 1815.64 47.32
3 6 10 1601.47 45.77
3 6 11 416.81 13.16
3 6 11 414.93 13.49
3 6 11 434.32 14.21
3 6 11 408.47 13.76
3 6 11 416.33 13.74
-3 6 -11 443.16 14.71
3 6 12 49.04 3.5
3 6 12 53.71 3.87
3 6 12 50.7 3.47
3 6 12 49.9 3.14
-3 6 -12 57.44 4.31
3 6 12 47.5 3.21
3 6 12 46.62 3.52
3 6 13 166.32 7.29
3 6 13 178.03 7.78
3 6 13 171.83 7.24
3 -6 13 178.03 7.58
3 6 13 180.58 7.27
-3 6 -13 194.99 8.44
3 6 13 184.84 7.71
3 6 13 164.34 6.9
3 6 14 355.69 12.54
3 6 14 336.56 12.25
3 6 14 377.04 12.95
3 6 14 345.78 12.04
3 -6 14 359.24 12.59
3 6 14 338.76 11.96
-3 6 -14 394.4 13.62
3 6 15 48.55 3.62
3 6 15 49.65 3.68
3 6 15 55.96 4.07
3 -6 15 50.59 3.85
-3 6 -15 56.27 4.22
3 6 15 58.06 4.03
3 6 15 47.8 3.36
3 6 16 881.12 25.45
3 6 16 878.98 25.74
3 -6 16 858.83 25.72
-3 6 -16 840.45 26.41
3 6 16 799.17 25.24
3 6 16 864.69 25.67
3 6 17 174.13 7.7
3 6 17 187.59 8.07
3 -6 17 186.84 8.04
3 -6 17 162.59 8.13
-3 6 -17 181.29 8.49
3 6 17 177.92 7.93
3 6 17 174.17 7.61
3 6 18 51.8 3.79
3 6 18 46.99 3.64
3 6 18 64.82 4.34
3 6 18 63.29 4.3
3 -6 18 47.07 3.86
3 -6 18 51.85 4.19
3 -6 18 56.62 4.42
3 -6 19 14.11 2.42
3 6 19 13.39 2.14
3 -6 19 12.61 2.57
3 6 19 15.22 2.37
3 6 20 79.11 4.55
3 6 20 75.97 4.56
3 -6 20 78.43 5.15
3 -6 20 75.91 4.77
3 6 21 112.56 5.42
3 6 21 119.6 5.68
3 -6 21 111.15 5.78
3 -6 21 121.41 6.29
3 6 22 331.48 10.98
3 -6 22 308.45 11.52
3 -6 22 312.72 11.25
3 -6 23 23.44 2.61
3 6 23 22.85 2.27
3 -6 23 23.21 2.43
3 6 24 24.73 2.13
3 -6 24 24.19 2.54
3 -6 24 20.12 2.2
-3 -7 25 31.74 2.61
-3 7 25 28.82 2.18
-3 -7 24 243.33 9.09
-3 7 24 237.4 8.42
-3 7 23 373.2 12.19
-3 -7 23 375.94 13.03
-3 7 23 351.23 12.15
-3 7 22 13.61 2.23
-3 -7 22 11.69 2.43
-3 7 21 280.18 10.74
-3 -7 21 283.71 11.53
-3 7 20 126.39 6.59
-3 -7 20 130.19 7.26
-3 -7 19 46.55 4.42
-3 7 19 56.34 4.25
-3 7 18 265.38 10.39
-3 7 18 256.2 10.47
-3 7 18 250.59 10.27
-3 -7 18 229.04 10.64
-3 7 17 295.74 11.51
-3 7 17 281.55 11.27
-3 -7 17 288.64 11.99
3 7 -17 289.7 11.69
-3 7 16 25.74 3.11
3 7 -16 23.22 3.09
-3 7 16 19.82 2.75
-3 -7 16 23.71 3.24
-3 7 15 224.16 9.41
-3 7 15 220.07 9.33
3 7 -15 219.75 9.8
-3 -7 15 220.24 9.88
-3 7 14 86.14 5.27
-3 7 14 85.49 5.29
3 7 -14 85.88 5.6
-3 -7 14 80.04 5.44
3 7 -14 72.21 4.62
-3 7 13 125.47 6.3
3 7 -13 108.03 5.67
-3 7 13 112.09 6.02
3 7 -13 115.55 6.57
-3 7 13 112.39 6.29
-3 -7 13 109.89 6.42
-3 7 12 418.18 13.73
-3 7 12 405.08 13.77
3 7 -12 367.25 13.19
3 7 -12 423.61 14.8
-3 -7 12 376.63 13.95
-3 7 12 392.68 14.11
-3 -7 11 527.22 17.46
-3 7 11 543.26 17.02
-3 7 11 552.29 17.26
3 7 -11 509.86 16.83
3 7 -11 574.54 18.28
3 -7 -11 497.47 17.97
-3 7 11 533.66 17.57
-3 7 10 16.83 2.07
-3 7 10 16.18 2.15
3 7 -10 19.17 2.58
-3 7 10 18.11 2.39
3 7 -10 16.87 2.17
-3 7 9 1260.68 34.8
-3 7 9 1257.62 35.06
-3 7 9 1222.09 35.47
3 7 -9 1238.88 35.09
3 7 -9 1259.08 35.93
-3 7 8 988.77 28.53
3 7 -8 998.99 29.44
3 7 -8 1026.99 28.89
-3 7 8 996.29 29.15
3 7 -7 291.51 10.42
3 7 -7 304.86 10.95
-3 7 7 288.45 10.74
3 7 -6 192.13 7.88
-3 7 6 188.26 7.83
3 7 -6 194.75 7.65
3 7 -5 799.63 23.57
-3 7 5 813.11 23.97
3 7 -5 821.28 24.87
3 7 -4 540.58 16.14
-3 7 4 498.92 16.16
-3 7 4 488.12 14.79
3 7 -4 569 17.58
3 7 -3 1147.83 32.07
3 7 -3 1168.2 33.55
-3 7 3 1109.99 32.01
3 7 -2 581.82 17.71
-3 7 2 550.4 17.5
-3 7 1 396.52 13.03
3 7 -1 404.45 13.17
-3 7 0 91.31 4.65
3 7 0 99.63 4.85
-3 7 -1 806.96 23.73
3 7 1 835.44 23.94
3 7 2 806.7 23.37
-3 7 -2 759.14 23.11
-3 7 -3 2004.47 54.93
3 7 3 2128.04 57.06
-3 7 -4 593.95 18.22
3 7 5 1251.53 34.94
-3 7 -5 1243.12 34.94
-3 7 -6 5.47 1.4
3 7 6 3.92 1.31
3 7 7 568.83 18.21
-3 7 -7 609.83 18.57
3 7 8 568.05 17.82
-3 7 -8 575.76 18.15
3 7 8 560.2 17.2
3 7 9 1266.24 35.55
-3 7 -9 1330.4 36.06
3 7 9 1198.4 34.79
3 7 9 1247.81 34.88
3 7 10 298.08 10.9
-3 7 -10 298.89 11.41
3 7 10 282.68 10.35
3 7 10 306.99 10.6
3 7 11 342.04 12.18
3 7 11 334.82 11.92
3 -7 11 311.93 11.59
-3 7 -11 349.18 12.55
3 7 11 325.58 11.55
3 7 11 336.65 11.8
3 7 12 108.78 5.63
3 7 12 111.65 6.05
-3 7 -12 126.37 6.46
3 7 12 115.61 5.85
3 -7 12 113.34 6.04
3 7 12 116.28 5.82
3 7 12 122.35 5.71
3 7 13 103.12 5.58
3 7 13 116.44 5.94
3 -7 13 112.17 5.98
3 7 13 98.96 5.4
3 7 13 105.99 5.45
-3 7 -13 110.61 6.14
3 7 13 118.82 5.81
3 7 14 401.52 13.57
3 7 14 387.49 13.47
3 7 14 411.95 13.91
3 -7 14 394.56 13.84
3 7 14 374.48 13.27
3 7 14 419.24 13.79
-3 7 -14 386.06 14.27
3 7 14 384.83 13.25
3 7 15 776.34 23.18
3 7 15 729.08 22.97
3 7 15 805.08 23.5
3 -7 15 763.54 23.57
3 7 15 723.91 22.71
-3 7 -15 756.56 24.05
3 7 15 806.16 23.49
3 7 16 32.84 3.11
3 7 16 34.28 3.21
3 -7 16 31.84 3.4
3 -7 16 27.63 2.9
3 -7 16 29.21 3.56
-3 7 -16 36.15 3.59
3 7 16 35.39 3.15
3 7 16 36.6 3.45
3 7 17 281.71 10.65
3 7 17 289.39 10.68
3 7 17 310.41 10.93
3 -7 17 280.77 10.6
3 -7 17 280.39 11.08
3 -7 17 298.18 11.87
3 7 18 186.68 7.76
3 -7 18 184.24 8.18
3 7 18 186.76 7.65
3 7 18 189.3 7.83
3 -7 18 175.82 8.45
3 -7 18 173.93 7.6
3 7 19 77.03 4.41
3 -7 19 69.07 4.28
3 7 19 75.15 4.39
3 -7 19 67.45 4.67
3 -7 19 61.96 4.63
3 7 20 87.15 4.68
3 -7 20 94.8 5.28
3 7 20 99.57 4.9
3 -7 20 86.28 4.74
3 -7 21 113.23 5.47
3 7 21 125.51 5.57
3 -7 21 127.06 6.1
3 7 21 136.14 5.67
3 -7 22 4.67 1.33
3 7 22 3.72 1.28
3 7 22 5.05 1.35
3 -7 22 5.32 1.69
3 -7 23 121.04 5.2
3 7 23 120.49 4.78
3 -7 23 106.37 4.67
-3 -8 24 165.22 6.12
-3 8 24 164.23 6.03
-3 8 23 5.06 1.43
-3 8 23 5.27 1.33
-3 -8 23 6.06 1.56
-3 8 22 0.5 1.22
-3 -8 22 -0.15 1.36
-3 8 21 3.42 1.66
-3 -8 21 1.85 1.72
-3 -8 20 794.1 24.68
-3 8 20 810.39 24.19
-3 8 19 2.21 1.74
-3 8 19 1.17 1.62
-3 -8 19 -0.2 1.91
-3 8 18 555.66 18.41
-3 8 18 586.58 18.44
-3 8 18 567.19 18.41
-3 -8 18 544.75 18.82
-3 8 17 3.1 1.76
-3 8 17 2.55 1.82
-3 -8 17 1.88 1.96
-3 8 16 10.23 2.21
-3 8 16 9.63 2.16
3 8 -16 10.74 2.22
-3 -8 16 8.26 2.31
-3 8 15 39.17 3.5
-3 8 15 36.75 3.58
-3 -8 15 38.28 3.76
3 8 -15 43.02 3.93
-3 8 14 601.25 19.4
3 8 -14 580.42 18.77
3 8 -14 579.18 20.12
-3 -8 14 621.7 19.92
-3 8 13 -0.33 1.61
-3 8 13 -0.89 1.43
3 8 -13 0.31 1.69
3 8 -13 0.22 1.5
-3 8 12 943.22 28.63
-3 8 12 1027.45 29.31
3 8 -12 985.3 30.01
3 8 -12 971.14 28.79
-3 8 12 1011.59 29.72
-3 8 11 8.13 2.41
-3 8 11 6.8 1.89
3 -8 -11 9.14 3.59
3 8 -11 6.22 2.02
-3 8 11 5.13 1.84
3 8 -11 8.45 2.31
-3 8 10 2.85 1.37
3 8 -10 0.8 1.67
-3 8 10 0.64 2.47
3 8 -10 0.48 1.92
-3 8 10 2.94 1.86
-3 8 9 19.13 2.16
-3 8 9 18.8 2.36
3 8 -9 17.94 3.07
3 8 -9 19.07 2.38
-3 8 9 18.13 2.47
3 -8 -8 791.28 25.52
-3 8 8 830.23 23.68
-3 8 8 814.97 24.03
3 8 -8 812.94 24.29
-3 8 8 797.58 24.59
3 8 -7 7.67 1.72
3 -8 -7 4.9 1.99
3 8 -7 12.98 1.97
-3 8 7 9.29 2
3 8 -7 8.43 2.03
3 -8 -6 2563.72 70.24
-3 8 6 2467.64 68.95
3 8 -6 2535.28 68.67
-3 8 6 2591.86 68.2
3 8 -6 2596.14 70.31
3 8 -6 2671.77 68.96
3 8 -5 3.36 1.43
3 8 -5 4.17 1.38
3 -8 -5 3.51 1.76
-3 8 5 3.61 1.17
-3 8 5 4.08 1.58
3 8 -5 2.99 1.65
-3 8 4 12.3 2.11
3 8 -4 10.41 1.8
3 8 -4 10.74 1.79
3 -8 -4 9.93 2.02
3 -8 -4 10.28 2.08
3 8 -4 16.75 2.51
-3 8 3 3.41 1.43
3 8 -3 4.62 1.39
3 -8 -3 4.1 1.78
3 -8 -3 2.92 1.46
-3 8 3 2.4 0.83
3 8 -3 2.33 1.38
3 8 -3 3.16 1.74
3 -8 -2 311.55 12.18
3 -8 -2 322.97 11.9
-3 8 2 293.05 11.02
3 8 -2 323.25 11.32
3 8 -1 5.86 1.54
3 -8 -1 9.55 1.97
-3 8 1 8.35 1.58
3 8 0 3088.31 80.29
3 8 0 3102.19 80.07
-3 8 0 2852.31 80.02
3 -8 0 3090.18 81.48
3 8 1 8.23 1.64
-3 8 -1 8.17 1.57
3 8 1 3.82 1.47
3 -8 1 9.35 2.06
3 8 1 6.83 2.13
3 8 2 136.92 6.1
3 8 2 137.29 6.37
3 -8 2 138.51 7.09
-3 8 -2 138.96 6.38
3 8 2 139.04 7.65
3 8 3 21.63 2.26
3 8 3 22.46 2.38
-3 8 -3 21.14 2.32
3 -8 3 25.02 3.12
3 8 3 20.53 2.96
3 8 4 119.67 5.5
-3 8 -4 117 5.77
3 -8 4 113.43 6.49
3 8 5 169.88 7.02
-3 8 -5 182.28 7.61
3 -8 5 171.13 8.41
3 8 6 2303.11 61.56
-3 8 -6 2241.46 61.45
3 8 7 15.92 2.29
-3 8 -7 18.28 2.43
3 8 8 339.05 12.44
3 8 8 350.75 11.68
-3 8 -8 350.81 12.66
3 8 9 26.5 2.83
3 8 9 28.4 2.98
-3 8 -9 29.42 3.03
3 8 9 29.16 2.83
3 8 10 1.38 1.3
3 8 10 2.65 1.71
-3 8 -10 3.55 1.71
3 8 10 3.21 1.61
3 8 11 11.53 2.11
3 8 11 6.56 1.8
3 8 11 7.39 1.99
3 8 11 5.84 1.7
-3 8 -11 8.45 2.06
3 8 12 1336.7 38.65
3 8 12 1432.08 39.09
3 8 12 1382.52 39.08
-3 8 -12 1374.28 39.58
3 8 12 1363.45 38.49
3 8 12 1376.37 38.6
3 8 13 2.88 1.54
3 8 13 1.3 1.49
3 8 13 -1.01 1.37
-3 8 -13 0.4 1.32
3 8 13 0.75 1.25
3 8 13 -0.16 1.4
3 8 14 168.21 7.44
3 8 14 154.94 7.19
3 8 14 178.4 7.56
3 8 14 164.92 7.41
-3 8 -14 169 8.04
3 8 14 175.78 7.56
3 -8 14 175.96 8.89
3 8 14 158.85 7.13
3 8 15 49.76 3.76
3 8 15 47.73 3.62
3 8 15 53.26 3.78
3 8 15 53.03 3.9
3 -8 15 51.56 4.6
3 8 15 45.97 3.51
3 8 16 7.94 1.83
3 8 16 9.5 1.89
3 8 16 6.6 1.65
3 8 16 8.02 1.62
3 -8 16 10.13 2.49
3 8 17 48.63 3.63
3 8 17 41.2 3.3
3 8 17 49.64 3.54
3 -8 17 41.36 3.46
3 -8 17 52.52 4.49
3 8 18 526.26 16.71
3 8 18 539.05 16.54
3 -8 18 513.68 16.76
3 -8 18 530.45 17.91
3 8 19 33.45 2.86
3 8 19 32.97 2.69
3 -8 19 36.34 3.14
3 -8 19 36.52 3.48
3 8 20 241.07 8.94
3 8 20 261.21 8.83
3 8 21 4.71 1.31
3 8 21 7.38 1.38
3 8 22 1.46 1.04
3 8 22 1.85 1.11
-3 9 22 6.67 1.42
-3 9 21 152.98 6.32
-3 9 20 215.99 8.32
-3 9 19 38.24 3.19
-3 9 18 161.78 7.12
-3 9 18 152.43 7.07
-3 9 18 148.8 6.96
-3 9 17 492.15 16.48
-3 9 17 516.04 16.83
-3 9 16 5 2.01
-3 9 16 2.27 1.82
-3 9 15 418.45 14.67
-3 9 15 452.34 15.2
-3 9 14 120.38 6.19
3 9 -14 118.02 5.86
-3 9 14 139.23 6.74
3 9 -14 118.79 6.97
3 9 -13 302.56 11.04
-3 9 13 293.53 11.02
-3 9 13 303.52 11.5
3 9 -13 302.24 12.41
3 9 -12 370.1 13.19
-3 9 12 374.85 13.16
-3 9 12 408.62 13.85
-3 9 12 381.59 13.98
3 9 -12 381.87 14.71
-3 9 11 417.62 13.97
-3 9 11 439.1 14.56
3 -9 -11 423.2 15.8
-3 9 11 401.07 14.69
3 9 -11 405.13 14.16
3 9 -11 411.23 15.59
-3 9 10 17.62 2.55
-3 9 10 16.56 2.42
3 9 -10 12.84 2.26
-3 9 10 13.52 2.52
3 9 -10 11.98 2.51
-3 9 9 761.53 22.63
-3 9 9 774.8 23.25
3 9 -9 766.04 23.42
3 9 -9 777.08 24.9
-3 9 9 740.85 23.62
-3 9 8 780.21 23.87
-3 9 8 765.41 24.47
3 9 -8 833.52 25.92
3 9 -8 829.91 24.46
3 -9 -8 808.14 25.92
3 9 -7 231.72 9.24
-3 9 7 227.57 9.08
3 9 -7 223.5 9.22
-3 9 7 231.94 9.57
3 -9 -7 223.18 10.62
3 9 -7 244.21 10.65
3 9 -6 92.49 5.46
3 9 -6 91.72 5.09
3 -9 -6 87.9 6.88
-3 9 6 78.77 5.14
3 9 -6 81.45 5.68
3 9 -5 680.37 21.2
3 9 -5 718.53 21.41
3 -9 -5 676.82 22.65
-3 9 5 663.07 21.31
3 9 -5 674.28 22.78
-3 9 5 675.95 20.32
-3 9 4 280.91 11.22
3 -9 -4 293.29 12.34
3 9 -4 312.29 11.36
3 9 -4 296.71 11.12
-3 9 4 297.02 10.33
3 9 -4 328.5 13.05
3 9 -3 1452.19 40.48
3 -9 -3 1465.15 41.6
3 9 -3 1477.95 40.58
-3 9 3 1363.16 40.54
3 -9 -3 1447.56 42.13
3 9 -2 785.74 22.99
3 9 -2 796.18 23.02
3 -9 -2 693.68 23.94
-3 9 2 706.09 22.8
3 -9 -2 744.94 23.78
3 -9 -1 253.6 11.05
-3 9 1 233.58 9.71
3 9 -1 259.79 9.94
3 -9 -1 249.66 10.6
3 9 -1 259.18 11.61
3 9 0 82.94 4.92
3 9 0 86.11 4.93
3 -9 0 94.74 5.81
3 9 0 85.45 6.11
-3 9 0 82.42 4.91
3 9 1 219.34 9.04
3 -9 1 227.12 10.01
3 9 1 225.71 10.68
-3 9 -1 219.44 9.06
3 9 1 226.63 9
3 9 2 661.92 21.96
3 9 2 625.99 19.32
-3 9 -2 589.94 19.42
3 -9 2 627.43 20.87
3 9 2 603.83 19.49
3 9 3 1074.87 32.13
-3 9 -3 965.95 29.66
3 9 3 1010.33 29.84
3 -9 3 1049.12 31.61
3 9 3 1016.05 29.44
-3 9 -4 108.87 5.97
3 -9 4 118.88 7.31
3 -9 5 414.98 15.62
-3 9 -5 404.02 14.25
3 -9 6 28.95 4.11
-3 9 -6 34.34 3.26
3 9 7 270.13 10.59
-3 9 -7 255.58 10.39
3 -9 7 262.96 11.81
-3 9 -8 332.98 12.37
3 9 8 310.42 12.17
3 -9 8 340.15 13.76
3 9 8 328.55 11.76
3 9 9 1158.56 33.01
3 9 9 1124.21 32.19
-3 9 -9 1078.16 32.79
3 9 10 45.5 3.63
3 9 10 47.49 3.8
-3 9 -10 36.85 3.56
3 9 10 42.71 3.44
3 9 10 39.49 3.19
3 9 11 198.88 8.5
-3 9 -11 188.88 8.82
3 9 11 201.7 8.36
3 -9 11 222.05 10.44
3 9 11 211.64 8.93
3 9 11 214.64 8.3
3 9 12 7.47 1.82
3 9 12 7.87 1.92
3 -9 12 7.98 2.66
3 9 12 6.94 1.69
-3 9 -12 9.33 2
3 9 12 10.4 1.89
3 9 12 9.7 1.94
3 9 13 39.94 3.27
3 9 13 41.78 3.48
3 -9 13 48.82 4.7
3 9 13 41.77 3.32
3 9 13 36.87 3.32
3 9 14 616.76 19.7
3 -9 14 656.34 21.73
3 9 14 596.93 19.38
3 9 14 647.03 19.48
3 9 15 224.54 9.08
3 9 15 256.31 9.23
3 -9 15 219.95 9.67
3 -9 15 251.61 10.95
3 9 15 246.06 9.42
3 9 16 3.37 1.27
3 9 16 2.43 1.52
3 9 16 4.95 1.58
3 9 16 3.34 1.51
3 -9 16 2.23 1.95
3 9 17 142.17 6.29
3 9 17 131.9 6
3 9 17 141.01 5.96
3 -9 17 136.41 7.22
3 9 18 5.91 1.61
3 9 18 4.3 1.38
3 -9 18 3.75 1.81
3 9 19 19.08 2.12
3 9 19 19.09 1.86
3 -9 19 14.23 2.38
3 9 20 122.64 5.19
3 9 20 121.03 4.71
-3 10 21 43.32 2.72
-3 10 20 59.93 3.37
-3 10 19 27 2.49
-3 10 19 28.99 2.56
-3 10 18 75.89 4.33
-3 10 18 80.25 4.32
-3 10 18 78.24 4.46
-3 10 17 133.3 6.14
-3 10 17 140.54 6.47
-3 10 16 906.56 26.63
-3 10 16 897.94 26.34
-3 10 15 47.37 3.6
-3 10 15 54.72 3.93
-3 10 14 167.74 7.52
-3 10 14 155.9 7
3 10 -14 151.65 6.66
-3 10 13 23.91 2.65
-3 10 13 20.35 2.62
3 10 -13 22.13 2.54
-3 10 12 70.85 4.37
-3 10 12 83.82 4.95
3 10 -12 72.76 4.53
-3 10 11 229.49 9.08
-3 10 11 208.23 8.39
3 -10 -11 207.71 9.94
3 10 -11 207.67 8.74
3 10 -11 212.47 10.04
-3 10 10 930.26 26.97
3 -10 -10 954.47 29.63
3 10 -10 946.73 27.82
-3 10 10 847.08 27.69
-3 10 10 975.53 27.78
3 10 -10 953.32 29.62
3 10 -9 80.59 4.97
-3 10 9 84.6 4.89
-3 10 9 71.13 4.88
3 10 -9 82.18 5.81
-3 10 8 318.45 11.4
-3 10 8 284.5 11.54
3 10 -8 328.02 13.26
3 10 -8 307.75 11.59
-3 10 7 2.45 1.46
3 10 -7 5.13 1.83
3 -10 -7 2.3 2.1
-3 10 7 0.75 1.4
3 10 -7 3.43 1.85
3 10 -6 16.94 2.41
3 -10 -6 18.74 3.42
3 -10 -6 15.12 3.27
-3 10 6 27.31 3.09
3 10 -6 20.57 2.67
3 10 -6 18.78 3
3 10 -5 689.88 20.95
3 -10 -5 694.54 22.63
3 10 -5 649.49 20.7
3 10 -4 1305.97 36.63
3 10 -4 1377.37 36.85
3 -10 -4 1225.26 38.15
-3 10 4 1173.74 36.34
3 10 -3 38.06 3.5
3 -10 -3 42.79 4.45
-3 10 3 38.49 3.38
3 10 -3 35.98 3.39
3 10 -2 608.26 19.72
3 10 -2 609.62 21.72
3 -10 -2 627.35 21.5
3 10 -2 652.48 20.01
-3 10 2 576.79 19.69
3 -10 -2 615.97 20.82
3 -10 -1 110.23 6.87
-3 10 1 94.86 5.67
3 -10 -1 109.04 7.06
3 10 -1 112.87 6.01
3 10 -1 112.8 7.27
3 10 0 10.06 2.12
3 -10 0 9.3 3.02
-3 10 0 9.32 2.01
3 -10 0 10.15 2.86
3 10 0 12.05 2.74
3 -10 1 161.96 8.5
3 10 1 158.62 7.38
3 -10 1 154.05 8.5
3 10 1 147.67 7.25
3 10 1 156.33 8.8
-3 10 -1 145.74 7.28
3 -10 2 996.51 30.04
3 10 2 972.45 30.59
-3 10 -2 899.98 28.19
3 10 2 934.09 28.28
3 10 3 -0.56 1.61
3 -10 3 0.76 1.92
-3 10 -3 0.19 1.56
3 10 4 478.95 16.45
-3 10 -4 465.38 16.29
3 -10 4 482.7 17.65
-3 10 -5 80.72 5.26
3 -10 5 87.43 6.21
3 -10 6 1.59 2.03
-3 10 -6 0.59 1.37
-3 10 -7 233.71 9.97
3 10 7 245.96 10.14
3 -10 7 239.97 11.27
3 10 8 268.5 10.71
-3 10 -8 259.1 10.63
3 -10 8 276.85 12.17
3 10 8 248.44 9.96
3 10 9 34.56 3.4
-3 10 -9 34.44 3.4
3 -10 9 33.4 4.11
3 10 9 31.5 3.04
3 10 10 690.9 21.28
3 10 10 681.33 21.31
3 10 10 715.5 22.15
3 10 11 391.32 13.97
3 10 11 394.83 13.33
3 10 11 384.46 13.35
3 10 12 11.93 2.16
3 10 12 11.46 2.14
3 10 12 11.24 2.03
3 10 12 12.59 1.99
3 -10 12 13.28 3.05
3 10 12 11.44 2.14
3 10 13 2.38 1.35
3 10 13 5.95 1.81
3 10 13 1.87 1.38
3 10 13 1.52 1.36
3 -10 13 3 2.22
3 10 13 3.18 1.56
3 10 14 154.88 6.73
3 10 14 148.73 6.58
3 10 14 147.22 6.25
3 -10 14 135.5 7.18
3 -10 14 147.99 7.95
3 10 14 142.99 6.71
3 10 15 9.09 1.76
3 -10 15 7.3 2.34
3 10 15 8.7 1.64
3 10 15 7.99 1.74
3 10 16 513.49 16.07
3 10 16 514.64 15.6
3 -10 16 543.26 17.97
3 10 17 108.12 4.59
3 -10 17 109.53 6.14
3 10 18 13.71 1.86
3 -10 18 16.91 2.46
3 10 18 16.74 1.57
3 10 19 -0.09 1.13
3 10 19 0.73 0.73
-3 11 19 579.92 16.27
-3 11 19 531.59 15.89
-3 11 18 51.73 3.12
-3 11 18 42.46 2.77
-3 11 17 15.15 1.91
-3 11 17 18.33 2.14
-3 11 17 15.72 1.99
-3 11 16 1.36 1.12
-3 11 16 1.31 1.35
-3 11 15 71.51 3.98
-3 11 15 68.95 4.18
-3 11 14 4.16 1.46
-3 11 14 7.05 1.77
-3 11 13 932.61 27.18
-3 11 13 976.4 27.96
-3 11 12 18.78 2.25
-3 11 12 23.95 2.69
-3 11 11 122.92 5.82
-3 11 11 147.58 6.68
3 11 -11 141.54 6.53
3 -11 -11 134.73 7.45
-3 11 10 8.3 1.92
3 11 -10 9.46 2.01
3 -11 -10 9.6 2.67
3 11 -9 7.05 1.92
-3 11 9 7.8 1.84
-3 11 8 43.49 3.38
3 11 -8 46.78 3.8
-3 11 7 1114.05 32.72
3 -11 -7 1181.28 35.53
3 11 -7 1172.59 33.61
-3 11 6 52.27 3.71
3 11 -6 51.84 4.09
3 -11 -6 57.2 5.23
-3 11 5 343.35 12.39
3 -11 -5 365.56 14.05
3 -11 -5 395.03 15.23
3 11 -5 407.15 13.8
3 11 -5 357.77 13.21
3 -11 -4 65.05 5.51
3 11 -4 60.43 4.39
3 11 -4 56.16 4.16
3 11 -4 54.19 5.07
3 -11 -3 14.96 3.13
3 11 -3 17.74 2.55
3 11 -3 13.46 2.47
3 11 -3 12.47 2.83
3 11 -2 43.58 3.74
3 -11 -2 45.24 4.7
3 11 -2 40.43 4.45
3 11 -1 1239.06 36.16
3 -11 -1 1283.72 38.23
3 -11 -1 1253.64 37.44
3 11 -1 1197.66 38.14
3 11 0 3.09 1.73
3 -11 0 2.5 2.25
3 -11 0 5.82 2.69
3 11 0 1.16 1.78
3 11 1 522.36 17.91
3 -11 1 540.57 19.09
3 -11 1 515.49 19.36
3 11 1 546.79 19.83
3 11 2 14.34 2.52
3 -11 2 10.82 3.08
3 -11 2 13.85 2.86
3 11 3 1.78 1.37
3 -11 3 1.39 2.12
3 -11 3 0.26 2.13
3 -11 4 50.87 4.82
3 11 4 42.34 3.75
3 -11 5 468.07 17.62
3 11 5 466.77 15.81
3 11 5 474.18 16.41
3 -11 6 1.06 2.11
3 -11 7 594.51 21
3 11 8 54.9 4.26
3 -11 8 58.2 5.2
3 11 9 18.11 2.6
3 11 9 18.31 2.29
3 11 9 13.92 2.24
3 -11 9 11.53 3.02
3 -11 9 17.51 3.29
3 11 10 32.66 3.24
3 -11 10 37.23 4.25
3 -11 10 39.67 4.45
3 11 10 36.95 3.2
3 11 10 33.56 2.9
3 11 11 217.52 8.51
3 11 11 200.52 8.37
3 11 11 203.01 7.96
3 -11 11 224.4 9.99
3 11 11 217.77 8.47
3 11 11 215.09 8.98
3 11 12 15.8 2.19
3 11 12 15.16 2.22
3 11 12 12.02 1.86
3 11 12 15.04 2.24
3 -11 12 17.41 2.92
3 11 12 16.91 2.19
3 11 13 760.18 22.23
3 11 13 741.5 21.46
3 -11 13 780.67 23.76
3 11 13 714.06 22.07
3 11 13 761.25 22.69
3 11 14 33.84 2.77
3 11 14 28.26 2.59
3 11 14 23.92 2.14
3 -11 14 31.12 3.31
3 -11 14 32.51 3.62
3 11 14 30.84 2.83
3 11 15 15.54 1.98
3 11 15 15.5 1.91
3 11 15 12.7 1.52
3 11 15 11.01 1.78
3 -11 15 11.21 2.4
3 11 16 3.48 1.28
3 11 16 2.12 0.85
3 -11 16 2.1 1.74
3 -11 17 49.14 3.84
-3 12 16 83.19 4.01
-3 12 16 74.98 3.4
-3 12 16 84.31 4.05
-3 12 15 189.88 6.72
-3 12 15 210.23 7.55
-3 12 14 158.32 6.51
-3 12 13 10.41 1.88
-3 12 12 178.86 7.34
-3 12 11 210.3 8.24
-3 12 10 242.18 9.08
3 -12 -10 229.31 10.06
-3 12 9 65.55 4.05
3 -12 -9 64.28 5.2
-3 12 8 138.03 6.28
-3 12 7 36.63 3.1
-3 12 6 121.62 5.75
-3 12 5 573.78 18.13
3 -12 -5 575.61 19.63
3 -12 -4 167.46 8.46
-3 12 4 171.05 7.08
3 12 -4 175.34 7.91
3 -12 -4 186.12 9.49
-3 12 3 0.77 1.02
-3 12 3 0.9 1.08
3 12 -3 2.73 1.48
3 -12 -3 1.34 2.19
-3 12 2 138.65 6.08
-3 12 2 132.63 6.29
3 12 -2 151.33 7.24
3 12 -1 168.92 7.99
3 -12 -1 182.85 9.41
3 12 0 252.99 10.61
3 -12 0 287.11 12.38
3 12 1 369.79 13.88
3 -12 1 396.32 15.67
3 -12 1 398.77 15.14
3 12 2 133.06 6.91
3 -12 2 140.92 8.25
3 -12 2 140.97 7.89
3 -12 3 -1.89 2.71
3 12 3 1.54 1.56
3 -12 3 0.74 1.99
3 12 3 -0.5 1.52
3 -12 4 204.85 10.44
3 -12 4 214.15 10.14
3 12 4 225.6 9.11
3 12 4 215.32 9.3
3 12 5 222.05 9.59
3 -12 5 222.99 10.55
3 12 5 238.47 9.33
3 12 6 94.16 5.57
3 -12 6 89.79 6.32
3 12 6 92.4 5.22
3 -12 7 389.17 14.84
3 -12 7 407.4 15.14
3 12 8 142.49 6.19
3 -12 8 155.44 8.35
3 -12 8 163.02 8.39
3 12 9 84.1 4.59
3 12 9 92.6 5.16
3 12 9 79.37 4.17
3 -12 9 86.87 5.94
3 -12 9 93.31 6.04
3 12 10 159.15 6.6
3 12 10 141.23 6.5
3 -12 10 156.87 8.04
3 12 10 152.66 5.99
3 12 10 157.56 7.03
3 -12 10 142.45 7.65
3 12 10 147.55 6.49
3 12 11 229.82 8.25
3 12 11 219.23 8.62
3 12 11 205.75 8.15
3 12 11 202.95 7.37
3 -12 11 219.5 9.7
3 12 11 212.24 8.15
3 -12 11 216.31 9.45
3 12 12 182.53 6.99
3 12 12 173.04 6.8
3 12 12 159.14 5.96
3 -12 12 177.4 8.02
3 -12 12 182.15 8.4
3 12 12 161.69 7.06
3 12 13 91.21 4.58
3 12 13 104.25 4.77
3 -12 13 97.51 5.5
3 12 13 110.02 5.13
3 12 14 105.67 4.73
3 12 14 105.21 4.68
3 12 15 84.61 4.04
3 -12 15 95.01 5.31
-3 13 13 2.85 1.16
-3 -13 13 3.63 1.81
-3 13 12 47.89 2.96
-3 13 12 50.31 3.49
-3 -13 12 42.51 3.62
-3 13 11 210.85 7.49
-3 13 11 198.72 8.07
-3 -13 11 188.79 8.41
-3 13 10 0.44 1.14
-3 13 10 1.32 1.21
-3 13 9 506.74 15.34
-3 13 9 499.01 16.09
-3 -13 9 465.49 16.43
3 -13 -9 521.41 16.58
-3 13 8 42.56 2.89
-3 13 8 30.36 2.89
3 -13 -8 43.76 3.96
-3 -13 8 29.51 3.23
-3 13 7 11.28 1.9
-3 13 7 11.9 1.73
3 -13 -7 10.11 2.57
-3 13 6 4.09 1.29
-3 13 6 6.56 1.53
-3 13 5 176.35 6.83
-3 13 5 173.7 7.29
-3 13 4 11.9 1.75
-3 13 4 9.93 1.68
3 -13 -4 13.85 2.54
3 -13 -4 16.79 3.13
-3 13 3 752.66 22.06
3 -13 -3 745.76 23.94
3 -13 -2 76.74 5.36
3 13 -2 82.63 4.9
3 -13 -2 91.68 6.19
3 13 -1 25.89 2.89
3 13 -1 25.53 2.67
3 -13 -1 29.76 3.78
3 -13 0 2.9 2.32
3 13 0 2.38 1.54
3 13 0 2.38 1.31
3 -13 1 61.35 5.2
3 13 1 61.22 4.08
3 13 1 62.2 4.29
3 13 2 37.06 3.35
3 -13 2 30.79 3.91
3 13 2 34.5 3.08
3 13 3 925.42 27.97
3 -13 3 918.59 29.37
3 13 3 974.64 27.57
3 13 4 113.86 6.01
3 -13 4 117.22 7.02
3 13 4 121.59 5.83
3 13 5 12.91 2.14
3 13 5 15.41 1.92
3 13 5 14.69 1.83
3 13 5 19.8 2.38
3 -13 5 18.59 2.84
3 -13 5 18.95 3.22
3 13 6 21.85 2.14
3 13 6 22.04 2.56
3 13 6 16.46 1.86
3 13 6 20.58 2.35
3 -13 6 19.65 2.98
3 13 7 8.06 1.8
3 13 7 10.32 1.65
3 13 7 8.89 1.41
3 -13 7 9.21 2.37
3 13 7 11.85 1.88
3 13 8 21.28 2.14
3 13 8 19.23 2.22
3 -13 8 18.09 2.84
3 -13 8 15.61 2.79
3 13 9 579.35 16.99
3 13 9 561.41 17.3
3 13 9 549.37 17.64
3 -13 9 580.88 18.89
3 -13 9 586.46 18.86
3 13 10 18.32 2.17
3 13 10 16.37 1.91
3 13 10 17.45 2.03
3 -13 10 15.92 2.64
3 -13 10 21.5 2.86
3 13 11 92.11 4.27
3 13 11 98.09 4.44
3 -13 11 93.86 5.47
3 -13 11 93.48 5.31
-3 14 9 23.83 1.85
-3 14 8 156.03 5.52
3 -14 -8 148.96 6.21
-3 14 7 16.39 1.59
3 14 -7 14.97 1.44
3 -14 -7 14.75 2.24
-3 14 6 417.86 12.7
3 14 -6 438.71 12.92
3 -14 -6 459.54 14.75
3 -14 -5 141.84 7.02
3 14 -5 149.77 5.68
-3 -14 4 7.42 2.02
3 14 -4 7.97 1.4
-3 -14 3 8.67 2.04
3 14 -3 12.08 1.66
3 -14 -2 45.72 3.62
3 14 -2 64.75 3.53
3 -14 -1 73.55 5.08
3 -14 -1 70.41 4.51
3 14 -1 82.27 4.11
3 -14 0 492.2 16.74
3 -14 0 456.79 15.79
3 14 0 508.94 15.18
3 14 1 91.35 4.78
3 -14 1 92.38 5.66
3 -14 1 89.97 5.24
3 14 1 95.48 4.63
3 14 2 19.75 2.26
3 -14 2 20.69 2.91
3 -14 2 19.13 2.69
3 14 2 22.86 2.28
3 14 3 3.17 1.21
3 -14 3 2.56 1.96
3 -14 3 0.17 1.76
3 14 3 1.02 1.22
3 -14 4 23.75 3.07
3 14 4 25.3 1.92
3 14 4 29.38 2.62
3 14 5 77.31 3.48
3 14 5 80.06 4.32
3 14 5 83.46 4.17
3 -14 5 83.04 5.15
3 14 6 396.93 12.13
3 14 6 398.06 13.19
3 14 7 42.39 2.43
3 14 7 46.83 3.02
3 14 7 49.7 3.06
-4 0 28 47.15 3.16
-4 0 28 39.64 2.94
-4 0 28 43.66 2.54
-4 0 27 0.75 1.2
-4 0 27 1.74 1.55
-4 0 27 -0.26 1.27
-4 0 26 234.57 9.63
-4 0 26 278.23 9.6
-4 0 25 -0.19 1.42
-4 0 25 0.79 1.42
-4 0 24 622.34 20.62
-4 0 24 607.59 20.42
-4 0 24 639.99 20.08
-4 0 23 0.43 1.89
-4 0 23 1.36 1.66
-4 0 22 49.28 4.54
-4 0 22 44.36 4.13
-4 0 22 43.6 4.69
4 0 -21 1.32 1.75
-4 0 21 0.85 1.75
-4 0 21 0.94 2.23
-4 0 21 -0.29 2.09
-4 0 20 249.79 10.55
-4 0 20 229.5 10.7
-4 0 20 222.84 11.24
-4 0 19 1.4 2.22
4 0 -19 -0.21 1.89
-4 0 19 3.72 2.54
-4 0 19 0.21 2.3
-4 0 18 1389.13 43.77
-4 0 18 1489.14 43.03
-4 0 18 1491.29 42.56
-4 0 18 1433.47 41.99
-4 0 17 2.13 1.43
4 0 -17 0.19 1.75
-4 0 17 0.79 1.58
-4 0 16 11.23 1.99
-4 0 16 12.82 2.59
4 0 -16 12.11 2.17
-4 0 16 15.87 2.56
-4 0 16 9.41 2.58
-4 0 15 3.91 1.45
-4 0 15 0.66 1.51
4 0 -15 1.18 1.34
-4 0 15 0.53 1.46
4 0 -14 35.77 3.11
-4 0 14 33.11 3.52
-4 0 13 6.35 1.77
4 0 -13 0.14 1.06
4 0 -12 1459.81 40.73
-4 0 12 1519.86 41.94
4 0 -11 1.29 1.11
-4 0 11 -0.16 1.38
4 0 -10 267.92 9.21
4 0 -9 1.93 1.11
-4 0 9 1.8 1.17
4 0 -8 623.98 17.93
-4 0 8 617.55 18.07
4 0 -7 2.37 0.97
-4 0 7 7.33 1.3
4 0 -6 2791.33 69.71
-4 0 6 2575.79 69.76
4 0 -5 4.88 0.93
-4 0 5 5.27 1.02
4 0 -4 359.53 11.79
4 0 -4 375.46 11
-4 0 4 395.08 11.22
-4 0 3 1.93 0.77
4 0 -3 0.96 0.61
4 0 -3 1.5 0.98
4 0 -3 0.61 1.02
4 0 -2 1988.02 51.61
4 0 -2 1998.64 51.57
4 0 -2 1895.46 50.4
-4 0 2 2007.93 50.84
4 0 -1 2.77 0.5
4 0 -1 1.16 0.91
-4 0 1 1.97 0.68
4 0 -1 2.97 0.93
-4 0 0 477.71 13.05
4 0 0 460.93 13.6
-4 0 -1 0.54 0.48
-4 0 -2 2798.36 71.87
4 0 3 0.61 0.75
-4 0 -3 2.68 0.69
4 0 4 860.83 24.02
4 0 4 876.34 23.9
4 0 5 3.38 1
4 0 5 2.81 1.08
4 0 6 400.57 12.02
4 0 6 376.68 12.01
4 0 7 1.49 0.96
4 0 7 0.84 0.85
4 0 8 821.78 23.04
4 0 8 797.5 22.91
4 0 9 -0.22 0.99
4 0 9 3.5 1.13
4 0 10 1323.25 36.11
4 0 10 1290.36 35.94
4 0 11 0.64 1.09
4 0 11 1.3 1.1
4 0 12 110.35 5.53
4 0 12 119.75 5.43
4 0 12 121.69 5.78
4 0 13 0.31 1.08
4 0 13 -0.16 1.34
4 0 13 0.6 1.06
4 0 13 -0.13 1.06
4 0 13 0.58 0.99
4 0 14 236.94 9.18
4 0 14 219.63 9.27
4 0 14 229.83 8.75
4 0 14 226.78 9.15
4 0 14 214.87 8.26
4 0 15 -0.44 2.1
4 0 15 0.88 1.77
4 0 15 -0.94 1.92
4 0 15 4.45 2.01
4 0 15 -0.39 1.16
4 0 16 463.45 16.51
4 0 16 463.79 15.62
4 0 16 491.88 16.24
4 0 16 493.69 16.42
4 0 16 467.66 15.2
4 0 17 -0.38 1.33
4 0 17 2.3 1.94
4 0 17 -0.48 1.46
4 0 17 0.74 1.48
4 0 17 0.42 1.63
4 0 18 46.01 4.31
4 0 18 46.83 3.72
4 0 18 55.22 4.21
4 0 18 52.74 3.62
4 0 18 41.04 3.78
4 0 19 0.96 1.5
4 0 19 1.39 1.35
4 0 19 0.22 2.01
4 0 19 0.72 1.33
4 0 20 257.7 11.09
4 0 20 255.88 10.44
4 0 21 -1.49 2.26
4 0 21 0.81 1.96
4 0 22 151.62 7.6
4 0 23 0.17 1.79
4 0 23 0.76 1.68
4 0 24 154.93 7.46
4 0 24 159.06 7.17
4 0 25 -0.27 1.45
4 0 25 0.31 1.58
-4 -1 28 15.81 2.06
-4 -1 28 18.2 2.06
-4 -1 28 17.28 1.82
-4 -1 27 361.62 11.39
-4 -1 27 356.11 11.78
-4 1 27 313.43 11.23
-4 -1 27 323.39 11.38
-4 1 26 167.31 6.64
-4 -1 26 162.18 7
-4 1 26 162.12 7.15
-4 1 25 132.65 6.73
-4 1 25 139.64 6.34
-4 -1 25 146.66 6.86
-4 1 24 46.07 4.03
-4 1 24 48.86 3.79
-4 -1 24 56.14 4.29
-4 -1 24 48.64 4.24
-4 -1 23 246.64 10.44
-4 -1 23 252.51 10.85
-4 1 23 250.69 10.08
-4 -1 22 103.27 6.47
-4 1 22 89.54 5.56
-4 -1 22 94.88 6.05
-4 -1 21 716.89 23.6
4 -1 -21 742.02 23.34
-4 1 21 722.77 22.82
-4 -1 21 745.49 23.42
-4 1 21 716.62 22.68
-4 1 21 667.23 24.06
-4 -1 21 680.07 24.31
-4 1 20 140.92 8.49
-4 -1 20 143.1 8.64
4 -1 -20 175.84 8.32
-4 1 20 168.97 7.89
-4 -1 20 163.32 8.49
-4 -1 20 158.3 8.13
-4 1 20 160.56 7.84
-4 1 19 262.04 12.44
-4 -1 19 271.98 12.63
-4 -1 19 261.01 11.75
4 -1 -19 306.27 11.79
-4 1 19 276.88 11.21
-4 -1 19 286.55 11.76
-4 1 19 284.1 11.19
-4 -1 18 45.88 4.98
4 -1 -18 53.98 4.36
-4 -1 18 57.63 4.97
-4 1 18 54.08 4.45
-4 -1 18 58.69 4.79
-4 1 18 61.87 4.62
-4 1 17 217.09 9.14
-4 1 17 204.63 8.82
-4 -1 17 196.5 10.32
4 1 -17 244.31 9.79
-4 1 17 234.38 9.54
-4 -1 17 204.79 9.43
-4 1 16 383.74 13.56
-4 1 16 389.61 13.42
-4 -1 16 378.39 14.1
-4 -1 16 367.17 14.85
-4 1 16 352.23 13.48
-4 1 16 409.95 14.97
-4 1 15 865.44 25.81
-4 1 15 884.34 27.24
-4 -1 15 869.5 26.44
4 1 -15 948.27 26.32
-4 -1 15 801.43 25.52
-4 1 14 434.8 15.47
4 1 -14 425.36 14.33
4 1 -13 390.94 12.99
-4 1 13 368.8 13.84
4 1 -12 28.49 2.54
-4 1 12 30.15 3.11
4 1 -11 292.45 10.25
-4 1 11 296.34 11.03
-4 1 11 308.72 10.63
4 1 -10 1250.67 31.66
-4 1 10 1201.38 31.75
4 1 -9 1140.54 29.43
-4 1 9 1110.84 29.51
-4 1 8 726.07 20.84
4 1 -8 689.65 19.58
-4 1 7 243.52 8.34
4 1 -7 249.95 8.23
-4 -1 7 259.59 8.23
4 1 -7 232.54 7.36
-4 -1 6 148.74 5.28
4 1 -6 136.81 5.32
-4 1 6 147.1 5.46
4 1 -6 132.83 4.71
4 1 -5 5.57 1.1
4 1 -5 5.1 1.36
4 -1 -5 4.32 0.86
-4 -1 5 6.55 1.06
-4 1 5 6.62 1.21
4 1 -5 8.54 0.99
4 1 -4 1297.33 35.21
4 -1 -4 1343.87 35.02
4 1 -4 1311.38 36.06
4 1 -4 1306.19 35.41
-4 -1 4 1375.14 35.24
-4 1 4 1373.89 35.65
4 -1 -3 1262.9 34.5
4 1 -3 1217.26 34.42
4 -1 -3 1252.42 33.3
-4 1 3 1299.36 33.97
4 1 -3 1311.89 33.82
-4 -1 3 1309.52 33.59
4 1 -2 22.55 1.87
4 -1 -2 23.28 1.93
4 1 -2 23.6 1.47
4 -1 -2 20.47 1.08
-4 -1 2 25.79 1.5
-4 1 2 22.49 1.61
4 -1 -1 84.78 3.56
4 1 -1 80.82 3.45
-4 -1 1 81.79 2.84
-4 1 1 80.16 3.14
4 1 -1 78.16 2.8
4 -1 0 838.36 22.19
-4 -1 0 799.64 21.25
-4 1 0 787.68 21.66
-4 1 -1 5.66 0.89
-4 -1 -1 7 0.71
-4 -1 -2 497.34 12.95
-4 1 -2 441.29 13.28
4 -1 3 124.27 4.82
-4 1 -3 120.91 4.49
-4 -1 -3 129.59 4.18
4 -1 4 3.98 1.04
4 -1 4 3.1 1.03
-4 1 -4 5.38 0.96
4 -1 5 104.17 4.4
4 -1 5 97.18 4.26
4 -1 6 848.61 23.73
4 -1 6 851.98 23.84
4 -1 7 232.6 7.79
4 -1 7 220.5 7.74
4 1 7 211.3 7.6
4 -1 8 634.88 18.64
4 -1 8 642.16 18.65
4 -1 9 95.34 4.59
4 -1 9 105.87 4.82
4 -1 10 298.97 10.4
4 -1 10 308.29 10.52
4 -1 11 65.93 3.94
4 -1 11 69.36 4.03
4 -1 12 908.92 26.2
4 1 12 920.54 25.81
4 -1 12 914.58 25.88
4 -1 12 873.47 26.12
4 -1 12 895.83 26.26
4 1 12 893.19 26.13
4 -1 12 871.61 26.15
4 -1 13 135.71 6.51
4 -1 13 139.23 6.89
4 1 13 138.53 6.6
4 1 13 138.98 6.21
4 -1 13 146.82 6.35
4 -1 13 139.7 6.57
4 1 13 149.95 6.54
4 1 13 139.89 6.53
4 -1 13 150.43 6.74
4 1 13 141.24 6.07
4 -1 14 121.18 6.56
4 1 14 116.85 6.13
4 1 14 111.64 5.59
4 -1 14 113.81 5.7
4 -1 14 128.27 6.25
4 1 14 130.45 6.12
4 -1 14 138.48 6.48
4 -1 14 114.27 5.31
4 1 14 121.74 6.12
4 -1 14 123 6.2
4 1 14 128.39 5.71
4 1 15 16.19 2.91
4 -1 15 17.21 2.47
4 -1 15 16.69 3.16
4 1 15 17.32 3.18
4 -1 15 16.56 3.1
4 1 15 18.39 2.48
4 1 15 19.24 3.08
4 -1 15 17.94 3.44
4 1 15 17.82 2.21
4 -1 15 14.13 1.88
4 1 16 132.87 6.59
4 -1 16 122.72 7.12
4 1 16 122.15 6.74
4 1 16 130.3 6.34
4 -1 16 137.53 6.99
4 1 16 126.79 6.72
4 -1 16 136.11 7.04
4 1 16 122.96 5.99
4 -1 16 132.54 6.75
4 -1 16 130.47 5.88
4 1 17 23.5 2.66
4 -1 17 18.73 2.63
4 1 17 21.64 2.64
4 -1 17 22.05 3.32
4 1 17 22.44 3.12
4 -1 17 20 2.93
4 -1 17 27.43 3.14
4 1 17 21.17 2.8
4 1 17 22.27 2.82
4 1 17 21.18 2.86
4 -1 17 17.3 2.26
4 -1 18 269.68 11.41
4 1 18 253.08 10.72
4 1 18 257.61 9.97
4 1 18 251.37 10.56
4 -1 18 267.16 10.7
4 1 18 264.62 10.37
4 1 18 252.56 10.42
4 -1 18 258.12 10.52
4 -1 18 250.1 10.53
4 -1 18 242.68 9.29
4 1 18 247.95 9.66
4 1 19 63.67 4.42
4 -1 19 55.19 5.05
4 1 19 60.4 4.77
4 -1 19 66.89 4.68
4 1 19 58.38 4.27
4 -1 19 53.29 4.1
4 1 19 54.35 4.45
4 -1 19 56.97 4.5
4 1 19 54.15 3.87
4 -1 20 4.69 2.72
4 1 20 4.08 2.01
4 -1 20 3.25 2.04
4 1 21 93.71 5.83
4 -1 21 89.77 5.72
4 1 22 91.03 5.68
4 1 23 37.46 3.33
4 1 23 35.64 3.54
4 1 24 79.06 4.61
4 -1 24 84.04 4.89
4 1 24 74.87 4.9
4 1 25 25.43 2.87
4 1 25 29.8 2.73
4 -1 25 31.38 2.99
-4 -2 28 338.59 10.75
-4 2 28 319.22 10.53
-4 2 28 317.21 10.38
-4 -2 28 332.82 10.58
-4 -2 28 331.55 10.51
-4 -2 27 16.78 2.15
-4 -2 27 11.48 1.82
-4 2 27 18.71 2.13
-4 -2 27 15.9 2.11
-4 -2 27 14.16 1.96
-4 2 27 16.05 1.92
-4 -2 26 237.22 9.05
-4 2 26 237.07 9.07
-4 -2 26 229.7 9.14
-4 2 26 219.05 8.75
-4 -2 26 224.2 8.95
-4 -2 25 19.11 2.66
-4 2 25 16 2.42
-4 -2 25 20.52 2.78
-4 2 24 21.68 2.47
-4 2 24 18.08 2.72
-4 2 24 15.6 2.56
-4 -2 24 20.52 3
-4 -2 24 19.83 2.86
-4 -2 24 21.63 2.96
-4 2 23 102.14 6.18
-4 -2 23 105.6 6.39
-4 2 23 109.65 5.64
-4 -2 23 106.26 6.4
-4 2 22 436.14 15.8
-4 2 22 444.93 14.97
-4 -2 22 440.53 15.9
-4 -2 22 424.51 15.93
-4 2 22 425.5 15.08
-4 -2 21 24.84 3.44
-4 -2 21 19.72 3.46
-4 2 21 23.14 2.84
4 -2 -21 23.04 3.12
-4 2 21 25.11 3.32
-4 -2 21 24.11 3.51
4 2 -21 26.61 3.27
-4 2 21 20.79 3.3
-4 2 21 25.52 3.02
-4 2 20 326.03 14.18
-4 -2 20 330.58 14.46
4 -2 -20 374.8 13.68
-4 -2 20 336.2 13.7
-4 -2 20 355.52 13.77
-4 2 20 347.91 12.83
-4 2 20 359.95 13.78
-4 2 20 347.56 13.03
-4 2 19 198.05 8.63
-4 2 19 180.33 9.57
-4 2 19 177.37 8.93
-4 -2 19 189.01 9.23
-4 2 19 186.09 8.33
-4 -2 19 170.64 9.61
-4 2 19 187.55 8.41
-4 2 18 18.73 2.94
-4 -2 18 16.74 3.33
-4 2 18 11.25 2.94
-4 2 18 20.06 2.81
-4 -2 18 17.44 3.02
-4 2 18 20.42 3.11
-4 2 17 112.82 7.43
-4 -2 17 103.47 7.39
-4 2 17 115.26 6.34
-4 2 17 115.7 6.11
-4 2 16 970.81 27.93
-4 2 16 945.19 29.52
-4 -2 16 889.26 29.32
-4 2 16 926.54 27.67
-4 -2 15 0.23 1.7
-4 2 15 0.44 1.55
-4 2 15 0.63 1.32
-4 2 15 3.49 2.03
-4 -2 15 3.84 1.99
-4 2 15 5.87 1.67
4 2 -14 1026.14 28.77
-4 -2 14 1020.31 30.12
-4 2 14 1054.44 30.15
4 2 -13 305 10.95
-4 -2 13 298.07 11.91
-4 2 13 306.68 11.87
-4 -2 12 11.67 2.19
-4 2 12 14.72 2.26
4 2 -12 11.86 1.82
-4 2 12 9.34 1.79
-4 2 11 285.21 10.46
4 2 -11 263.73 9.74
-4 -2 11 256.68 10.31
-4 2 11 286.15 10.02
-4 -2 10 446.04 14.43
-4 2 10 454.13 14.34
4 2 -10 483.2 14.01
-4 2 10 438.1 13.89
4 2 -9 70.42 3.74
-4 2 9 67.2 3.73
4 2 -9 57.54 2.92
4 2 -8 1388.89 35.04
-4 2 8 1323.55 34.91
4 2 -7 586.78 17.22
4 2 -7 625.26 17.94
-4 2 7 640.23 18.01
4 -2 -6 11.62 1.69
4 2 -6 10.4 1.44
4 2 -6 10.68 1.29
4 2 -6 10.29 1.58
-4 2 6 13.79 1.7
4 2 -5 46.45 2.67
4 2 -5 36.46 2.24
4 2 -5 37.53 2.65
4 -2 -5 41.74 2.75
-4 2 5 41.51 2.54
4 2 -4 208.88 7.69
4 -2 -4 209.43 7.72
4 2 -4 232.79 7.54
4 2 -4 226.28 7.39
-4 2 4 231.53 7.58
-4 -2 3 417.98 11.75
4 2 -3 457.38 13.05
4 -2 -3 460.95 13.13
4 2 -3 425.14 12.94
4 -2 -3 413.6 12.94
4 -2 -3 423.09 11.73
4 2 -3 430.87 12.54
-4 2 3 423.77 12.63
4 2 -3 435.81 12.8
4 2 -2 2399.71 62.02
4 -2 -2 2517.62 62.25
4 2 -2 2582.49 62.26
4 -2 -2 2489.98 62.3
4 -2 -2 2233.6 60.53
-4 -2 2 2376.39 60.84
4 2 -2 2347.17 61.57
4 2 -2 2583.64 62.39
-4 2 2 2420.6 61.86
4 2 -1 977.69 26.19
4 -2 -1 956.48 26.26
4 2 -1 929.16 25.66
4 2 -1 972.82 26.19
4 -2 -1 995.33 26.36
-4 -2 1 958.91 25.05
-4 2 1 987.54 26.06
4 -2 0 38.2 2.27
-4 2 0 35.31 2.11
-4 -2 0 38.96 1.52
4 2 0 35.82 2.17
-4 2 -1 1.52 0.7
-4 -2 -1 0.71 0.34
4 2 2 21.6 1.67
4 -2 2 23.31 1.78
-4 -2 -2 20.97 1.05
-4 2 -2 21.73 1.6
4 2 3 446.58 13.49
4 -2 3 470.23 13.65
-4 -2 -3 455.62 12.42
-4 2 -3 478 13.44
4 -2 4 1692.77 45.02
4 2 4 1715.28 44.94
4 2 4 1715.9 45.09
4 -2 4 1742.42 45.25
-4 2 -4 1655.65 44.83
4 -2 5 442.89 13.2
4 2 5 439.42 13.22
4 2 5 412.4 12.97
4 2 6 4.04 1.09
4 -2 6 3.14 1.04
4 -2 6 1.74 0.94
4 2 6 1.47 0.83
4 2 7 11.84 1.44
4 -2 7 11.34 1.48
4 -2 7 13.05 1.59
4 2 7 13.95 1.53
4 -2 8 180.06 6.76
4 2 8 179.23 6.64
4 -2 8 174 6.74
4 2 8 176.52 6.63
4 2 9 480.03 14.83
4 -2 9 494.2 15.05
4 2 9 482.51 14.82
4 -2 9 487.62 15.02
4 2 10 396.74 12.9
4 2 10 410.49 12.99
4 -2 10 403.47 13.12
4 -2 10 405.08 13.1
4 2 11 358.27 12.01
4 -2 11 360.61 12.2
4 2 11 362.89 12.06
4 -2 11 356.77 12.09
4 2 12 18.2 1.92
4 -2 12 23.73 2.2
4 2 12 14.95 2.17
4 -2 12 15.25 2.18
4 2 12 22.82 2.37
4 -2 12 20.21 2.35
4 2 12 15.42 2.11
4 -2 12 14.33 2.1
4 2 12 18.87 2.07
4 2 13 231.27 9.08
4 -2 13 218.59 9.67
4 2 13 240.92 9.33
4 2 13 235.11 8.76
4 -2 13 239.6 8.92
4 -2 13 224.31 9.21
4 2 13 240.85 8.92
4 2 13 233.54 9.19
4 -2 13 237.16 9.27
4 -2 13 246.17 9.37
4 2 13 227.12 8.65
4 -2 14 301.58 11.55
4 -2 14 311.4 12.29
4 2 14 310.17 11.52
4 2 14 318.25 11.04
4 -2 14 311.96 11.14
4 -2 14 323.55 11.77
4 2 14 312.6 11.14
4 2 14 312.64 11.49
4 2 14 311.2 11.46
4 -2 14 303.15 11.47
4 2 14 312.74 10.96
4 -2 15 246.68 10.02
4 -2 15 238.64 10.67
4 2 15 223.95 9.13
4 -2 15 236.75 9.36
4 2 15 225.45 9.22
4 2 15 240.43 9.62
4 2 15 236.38 9.77
4 -2 15 260.2 10.12
4 -2 15 230.84 9.64
4 2 15 243.17 9.27
4 -2 16 159.88 8.4
4 -2 16 152.98 7.07
4 -2 16 150.04 7.44
4 -2 16 139 7.27
4 2 16 151.28 6.93
4 2 16 150.04 7.2
4 -2 16 150.07 7.3
4 2 16 150.32 7.34
4 2 16 136.26 6.6
4 2 16 142.05 6.72
4 -2 17 77.94 5.84
4 2 17 76.59 4.67
4 -2 17 78.81 4.79
4 -2 17 82.71 5.31
4 2 17 75.71 4.9
4 2 17 77.02 4.77
4 -2 17 70.87 4.85
4 -2 17 83.9 5.31
4 2 17 77.61 4.63
4 2 17 71.36 4.9
4 2 18 4.76 1.35
4 -2 18 2.74 1.24
4 -2 18 2.63 1.64
4 -2 18 1.77 2.44
4 2 18 1.56 1.46
4 2 18 2.57 1.69
4 2 18 1.09 1.37
4 2 18 1.78 1.85
4 -2 18 1.59 2.04
4 2 19 243.61 9.59
4 2 19 243.51 9.93
4 -2 19 215.09 9.65
4 2 19 226.88 9.93
4 -2 19 236.86 10.12
4 2 19 238.68 9.34
4 2 20 422.97 15.03
4 -2 20 400.55 14.82
4 2 20 419.46 14.1
4 2 21 52.19 4.29
4 -2 21 46.68 4.11
4 2 22 1.74 1.6
4 -2 22 0.76 1.72
4 2 22 1.15 1.64
4 2 23 1.25 1.67
4 2 23 1.02 1.43
4 2 23 0.65 1.81
4 -2 23 3.39 1.72
4 2 24 1.28 1.35
4 2 24 2.38 1.63
4 -2 24 1.98 1.68
4 -2 25 56.16 3.94
-4 -3 27 11.09 1.76
-4 -3 27 12.48 1.85
-4 3 27 12.32 1.69
-4 -3 26 28.36 2.78
-4 3 26 32.14 2.77
-4 -3 26 31.41 2.93
-4 3 26 26.74 2.56
-4 -3 26 31.7 2.83
-4 -3 25 632.04 19.84
-4 3 25 645.56 19.72
-4 3 25 608.87 19.42
-4 -3 24 6.01 1.85
-4 3 24 3.76 1.59
-4 3 23 249.16 10.47
-4 -3 23 268.97 11
-4 3 23 262.93 10.77
-4 -3 23 268 11.13
-4 3 22 4.46 1.78
-4 3 22 2.26 1.78
-4 -3 22 1.33 1.85
-4 3 22 4.48 1.5
-4 3 21 15.05 2.42
-4 3 21 12.82 2.65
-4 -3 21 10.36 2.53
4 3 -21 17.58 2.7
-4 3 21 16.22 2.69
-4 -3 21 16.66 2.77
-4 3 21 16.31 2.24
-4 3 20 25.72 3.05
-4 3 20 26.59 3.34
-4 -3 20 20.79 3.54
-4 3 20 21.41 3.49
4 3 -20 25.08 3.06
-4 3 20 23.11 2.67
-4 -3 20 23.74 3.41
-4 -3 20 30.88 3.71
-4 3 19 794.88 24.35
-4 3 19 755.22 25.74
-4 -3 19 715.49 25.78
-4 3 19 813.08 25.06
-4 -3 19 780.17 25.21
4 3 -19 822.23 24.85
-4 3 19 755.01 23.52
-4 -3 19 790.46 25.27
-4 3 18 -0.37 1.8
-4 -3 18 4.53 2.3
4 3 -18 1.22 1.85
-4 -3 18 1.62 2.55
-4 3 18 5.84 1.88
-4 -3 18 1.4 2.23
-4 3 18 3.95 2.27
-4 3 18 6.17 2.05
-4 3 17 939.26 27.19
-4 -3 17 839.36 27.71
-4 3 17 887.68 26.96
-4 3 17 925.22 28.85
-4 -3 17 836.51 28.61
-4 3 17 893.5 27.71
-4 -3 17 906.08 28.02
-4 3 16 20.76 2.75
-4 3 16 24.93 2.71
-4 -3 16 18.95 3.47
-4 -3 16 23.63 3.13
-4 3 16 25.55 3.37
-4 3 15 38.43 3.37
-4 3 15 40.8 3.38
-4 3 15 42.23 4.05
-4 -3 15 42.55 4.17
-4 -3 15 40.45 3.82
-4 3 15 42.06 3.91
-4 -3 15 37.69 3.88
-4 3 14 191.27 8.1
-4 3 14 187.44 8.02
-4 -3 14 193.88 8.7
-4 -3 14 214.84 9.47
-4 3 14 210.97 9.23
-4 3 13 1211.42 34.26
-4 -3 13 1138.78 34.88
-4 3 13 1226.42 35.01
-4 3 12 34.91 3.29
-4 3 12 37.61 3.11
-4 -3 12 37.92 3.48
4 3 -11 2067.25 54.73
-4 3 11 2010 54.69
-4 -3 11 1980.14 55.42
-4 3 11 2025.6 55.3
-4 3 10 19.18 2.38
4 3 -10 19.86 2.21
-4 3 10 17.89 2.13
-4 -3 10 16.44 2.28
4 3 -9 228.39 8.59
-4 3 9 234.39 8.61
4 3 -8 29.47 2.46
4 3 -8 26.65 2.1
-4 3 8 28.59 2.48
-4 3 7 832.33 24.4
4 3 -7 910.43 24.56
4 -3 -7 892.15 24.5
4 3 -7 843.5 24.55
4 3 -7 842.26 24.01
4 3 -6 216.65 7.71
4 -3 -6 215.36 7.69
-4 3 6 206.37 7.58
4 3 -6 214.22 7.7
4 3 -6 195.76 7.25
-4 3 5 1908.79 50.11
4 3 -5 1781.02 50
4 -3 -5 1871.79 50.15
4 3 -5 1975.36 50.2
4 3 -5 1887.19 49.96
-4 3 4 45.37 2.71
4 3 -4 43.35 2.7
4 3 -4 44.27 2.72
4 -3 -4 47.91 2.86
4 -3 -4 41.76 2.75
4 3 -4 42.56 2.77
4 3 -4 44.74 2.76
4 3 -3 39.27 2.45
4 -3 -3 33.52 2.39
4 3 -3 37.03 2.38
4 -3 -3 38.3 2.47
4 3 -3 35.71 2.4
4 3 -3 37.93 2.34
-4 3 3 32.84 2.39
4 3 -3 36.88 2.5
4 3 -2 6.59 1.07
4 -3 -2 6.64 1.24
-4 3 2 7.95 1.17
4 3 -2 6.7 1.12
4 -3 -2 5.92 1.12
4 3 -2 7.72 1.2
4 3 -2 7.11 1.33
4 3 -1 103.99 4.78
4 3 -1 101.3 4.28
4 3 -1 104.57 4.11
-4 3 1 94.78 4.13
4 -3 -1 103.96 4.2
-4 3 0 46.91 2.61
4 3 0 51.39 2.8
-4 3 -1 1255.22 33.86
4 3 1 1272.89 33.98
4 3 2 157.09 5.72
4 -3 2 164.65 5.82
-4 3 -2 170.4 5.88
4 3 2 155.59 5.79
4 -3 3 113.7 4.61
4 3 3 112.92 4.48
4 3 3 103.62 4.35
-4 3 -3 111.67 4.54
4 -3 4 3.05 1.05
4 3 4 2.48 0.85
4 3 4 5.16 1.05
4 3 5 181.4 6.42
4 -3 5 175.93 6.3
-4 3 -5 177.38 6.49
4 3 5 173.96 6.27
4 3 5 168.27 6.18
4 -3 5 182.6 6.55
4 -3 6 551.89 16.27
-4 3 -6 548.27 16.38
4 3 6 574.53 16.2
4 3 6 537.93 15.99
4 3 6 559.8 16.17
4 -3 6 559.06 16.37
4 3 7 878.03 24.01
4 3 7 847.14 23.98
4 3 7 842.21 23.73
4 -3 7 879.92 24.24
4 -3 7 847.12 24.14
4 3 8 122.71 5.11
4 -3 8 119.17 5.18
4 3 8 119.51 5.01
4 3 8 113.11 4.73
4 -3 8 125.29 5.24
4 -3 9 33.15 2.55
4 3 9 34.82 2.55
4 3 9 32.15 2.43
4 -3 9 36.4 2.6
4 3 9 28.67 2.09
4 3 10 8.17 1.45
4 -3 10 7.26 1.5
4 3 10 9.43 1.45
4 -3 10 9.91 1.6
4 3 11 485.14 15.24
4 -3 11 478.27 15.58
4 3 11 468.28 15.07
4 -3 11 496.96 15.38
4 -3 12 222.08 9.62
4 3 12 227.88 8.44
4 -3 12 227.87 8.61
4 -3 12 236.62 9.21
4 3 12 242.1 8.83
4 -3 12 235.54 8.94
4 3 12 226.53 8.93
4 -3 12 220.96 8.85
4 -3 13 301.85 12.3
4 3 13 319.77 10.89
4 -3 13 316.78 11.08
4 -3 13 306.64 11.66
4 3 13 315.71 10.86
4 3 13 316.29 11.26
4 -3 13 325.66 11.48
4 3 13 312.78 11.48
4 -3 13 318.84 11.54
4 3 14 5.29 1.71
4 -3 14 2.63 1.45
4 3 14 2.38 1.05
4 3 14 2.84 1.72
4 -3 14 2.32 2.25
4 -3 14 4.5 2.31
4 -3 14 2.9 2.56
4 3 14 3.85 1.36
4 3 14 4.55 1.64
4 -3 14 1.03 1.83
4 3 14 2.14 2.02
4 -3 15 19.37 2.78
4 3 15 17.67 2.08
4 3 15 23.11 2.62
4 3 15 17.09 2.37
4 3 15 20.63 2.47
4 -3 15 19.36 2.52
4 -3 15 19.38 3.58
4 -3 15 23.73 3.26
4 -3 15 19.86 2.73
4 3 15 16.89 2.37
4 3 15 22.14 2.83
4 3 16 -0.26 1.09
4 3 16 -0.53 1.5
4 -3 16 0.55 1.69
4 3 16 0.58 1.43
4 -3 16 0.94 1.59
4 -3 16 1.59 1.84
4 3 16 0.46 1.35
4 3 16 2.59 2.03
4 -3 16 0.75 1.75
4 3 16 0.93 1.56
4 3 17 478.99 16.02
4 -3 17 489.26 16.33
4 3 17 486.41 16.85
4 3 17 510.81 17.02
4 -3 17 530.12 17.5
4 3 17 511.64 16.28
4 3 17 493.86 16.69
4 -3 17 487.15 16.84
4 -3 17 512.21 17.14
4 3 17 486.24 16.26
4 3 18 68.77 4.61
4 3 18 68.57 4.92
4 -3 18 59.47 4.5
4 3 18 63.43 4.69
4 -3 18 69.63 4.85
4 3 18 71.19 4.49
4 3 19 11.18 2.44
4 3 19 11.39 2.34
4 -3 19 11.18 2.29
4 3 19 10.21 2.14
4 3 20 -0.18 1.99
4 3 20 1.36 1.71
4 -3 20 1.16 1.76
4 3 20 0.16 1.57
4 3 21 22.58 3.04
4 -3 21 24.89 3.29
4 3 21 20.6 2.58
4 3 21 23.49 3.1
4 -3 21 24.65 3.17
4 3 22 0.35 1.59
4 3 22 2.14 1.88
4 3 22 0.69 1.42
4 -3 22 2.03 1.86
4 -3 22 -0.18 1.71
4 -3 23 299.36 11.45
4 3 23 310.14 11.24
4 -3 23 313.5 11.6
4 3 24 39.39 3.22
4 -3 24 43.23 3.57
4 -3 24 37.12 3.34
4 -3 25 0.92 1.66
4 -3 25 0.4 1.61
4 4 -27 6.79 1.26
4 -4 -27 8.69 1.37
-4 -4 27 7.8 1.51
-4 4 27 9.56 1.43
-4 -4 27 6.68 1.31
-4 -4 27 7.07 1.67
-4 -4 26 147.13 6.17
-4 -4 26 157.65 6.44
-4 4 26 150.22 6.03
-4 -4 26 159.12 6.36
-4 -4 26 169.23 6.92
-4 4 26 139.38 5.88
-4 -4 25 51.92 3.62
-4 -4 25 54.88 3.74
-4 -4 25 55.63 3.87
-4 4 25 49.63 3.42
-4 -4 25 55.3 4.02
-4 4 25 44.11 3.23
-4 -4 24 181.99 8.25
-4 -4 24 176.1 7.77
-4 4 24 163.96 7.33
-4 4 23 267.98 10.49
-4 -4 23 275.62 10.91
-4 -4 23 270.77 11.17
-4 4 23 258.58 10.19
-4 4 22 265.98 10.4
-4 -4 22 251.09 10.59
-4 -4 22 250.26 10.98
-4 4 22 256.49 10.44
-4 -4 22 245.81 10.66
-4 4 22 245.64 9.94
-4 4 21 2.88 1.72
-4 4 21 3.58 1.93
-4 -4 21 0.22 1.81
-4 -4 21 2.57 2.05
-4 4 20 252.11 9.96
-4 -4 20 213.18 10.73
-4 -4 20 228.37 10.31
4 4 -20 250.17 10.3
-4 -4 20 236.85 10.72
-4 4 20 245.69 10.21
-4 4 20 214.62 10.41
-4 4 19 83.35 5.35
-4 4 19 84.4 5.17
-4 -4 19 79.02 5.48
4 4 -19 77.4 5.24
-4 -4 19 78.36 5.75
-4 4 19 75.63 5.27
-4 4 19 70.59 5.61
-4 -4 19 66.74 5.75
-4 4 18 327.49 12.76
-4 4 18 339.94 14.11
-4 -4 18 338.83 14.46
-4 4 18 369.55 13.44
-4 4 18 362.84 13.5
-4 -4 18 367.7 13.92
4 4 -18 367.7 13.49
-4 -4 18 362.79 14.13
-4 4 17 554.2 18.35
-4 4 17 550.69 18.51
-4 4 17 554.42 19.58
-4 -4 17 540.12 19.82
-4 -4 17 539.08 19.33
-4 4 17 559.88 18.72
-4 -4 17 551.81 19.02
4 4 -17 592.68 18.87
-4 4 16 303.32 11.41
-4 4 16 280.43 11.29
-4 4 16 291.17 12.15
-4 -4 16 253.99 12.15
-4 -4 16 295.61 12.28
4 4 -16 286.31 11.22
-4 4 16 275.76 11.19
-4 -4 16 267.11 11.37
-4 4 15 21.53 2.74
-4 4 15 20.62 2.58
4 4 -15 20.58 3.03
-4 -4 15 21.77 3.22
-4 4 15 19.56 2.54
-4 4 15 21.06 3.04
-4 -4 15 20.12 3.08
-4 4 14 232.41 9.23
-4 4 14 231.74 10
-4 -4 14 217.77 10.01
-4 -4 14 214 9.67
-4 4 14 230.95 9.21
-4 -4 14 225.83 9.87
-4 4 14 223.01 9.63
-4 4 13 406.61 14.45
-4 4 13 440.88 14.67
-4 4 13 421.29 15.39
-4 4 13 464.39 15.14
-4 -4 13 420.44 15.27
-4 -4 13 461.78 15.87
-4 4 13 484.27 15.8
-4 4 12 201.84 8.34
-4 -4 12 201.89 8.84
-4 4 12 199.63 8.62
-4 4 11 756.78 22.54
-4 -4 11 723.4 22.54
-4 4 11 698.57 21.78
-4 -4 10 531.78 17.33
-4 4 10 537.16 17.11
-4 4 10 532.5 16.79
-4 -4 9 279.93 10.46
-4 4 9 296.12 10.41
-4 4 9 285.17 10.19
4 4 -8 377.13 11.9
4 -4 -8 389.13 11.93
4 4 -8 357.5 12.31
-4 4 8 365.79 12.12
4 4 -7 727.2 21.24
4 -4 -7 764.32 21.37
4 4 -7 771.25 21.86
-4 4 7 701.62 21.42
4 4 -7 721.25 21.28
4 4 -6 297.57 10.22
4 -4 -6 315.5 10.37
4 4 -6 328.37 10.78
-4 4 6 312.18 10.63
4 4 -6 316.48 10.49
4 4 -5 544.74 15.66
4 -4 -5 529.71 15.66
4 4 -5 500.16 15.43
4 -4 -5 511.24 15.6
-4 4 5 514.98 15.78
4 4 -5 526.26 15.87
4 4 -5 522.17 15.86
4 4 -4 301.94 9.67
4 4 -4 269.09 9.18
4 -4 -4 284.26 9.45
4 4 -4 297.46 9.4
4 -4 -4 285.06 9.44
4 4 -4 287.73 9.66
4 4 -4 289.34 9.87
-4 4 4 287.38 9.68
4 4 -3 684.36 18.72
4 4 -3 680.63 18.68
4 -4 -3 661.2 18.85
4 4 -3 668.3 18.99
4 -4 -3 604.97 18.65
-4 4 3 656.36 19.09
4 4 -3 654.19 19.13
4 4 -3 682.81 19.64
4 4 -2 157 5.41
-4 4 2 140.32 5.66
4 -4 -2 136.25 5.36
4 4 -2 158.19 6.36
-4 4 1 287.75 9.46
4 4 -1 297.35 10.23
4 4 0 308.55 9.85
-4 4 0 292.74 9.67
4 4 0 311.57 10.78
4 4 1 33.55 2.35
-4 4 -1 32.9 2.29
4 4 1 35.61 2.09
4 -4 1 32.39 2.1
4 4 1 35.93 3.02
4 -4 2 67.65 3.23
-4 4 -2 63.83 3.37
4 4 2 66.04 3.14
4 4 2 68.95 3.46
4 4 3 2130.73 56.35
4 4 3 2133.65 56.77
4 -4 3 2264.87 56.68
-4 4 -3 2083.63 56.68
4 4 4 39.16 2.56
4 4 4 37.88 2.38
-4 4 -4 42.32 2.73
4 -4 4 38.01 2.48
4 4 5 1710.29 46.14
-4 4 -5 1784.84 46.5
4 4 5 1722.75 45.83
4 -4 5 1720.15 46.02
4 4 6 5.76 1.14
4 4 6 4.93 1.04
4 -4 6 6.53 1.21
-4 4 -6 3.53 1.14
4 4 7 1.61 0.87
4 -4 7 0.83 0.77
4 4 7 1.4 0.73
4 -4 7 4.19 1.02
4 4 7 0.9 0.82
-4 4 -7 0.71 0.93
4 -4 8 12.1 1.49
4 4 8 9.11 1.36
4 4 8 8.68 1.39
4 4 8 10.08 1.42
-4 4 -8 7.09 1.45
4 -4 8 7.94 1.48
4 4 9 827.43 24.65
4 4 9 900 25.05
4 -4 9 939.34 25.45
4 4 9 875.48 24.88
4 -4 9 872.59 25.09
4 4 10 32.72 2.45
4 4 10 36.42 2.71
4 4 10 36.34 2.62
4 -4 10 36.47 2.73
4 4 10 31.65 2.6
4 -4 11 127.76 5.84
4 4 11 115.81 5.2
4 4 11 129.88 5.73
4 4 11 132.78 6.22
4 4 11 126.23 5.49
4 -4 11 130.08 5.71
4 -4 11 133.01 6
4 4 11 126.43 5.74
4 4 11 128.93 6.08
4 -4 12 3.21 1.32
4 4 12 2.8 1.44
4 4 12 2.82 1.14
4 -4 12 2.58 1.26
4 4 12 2.91 1.54
4 4 12 3.39 1.16
4 -4 12 4.68 1.49
4 -4 12 1.16 1.16
4 4 12 3.69 1.37
4 4 13 116.11 5.95
4 4 13 110.71 5.3
4 -4 13 115.44 5.56
4 4 13 119.64 6.18
4 -4 13 115.58 5.94
4 4 13 120.25 5.71
4 -4 13 113.02 5.78
4 -4 13 114.77 5.96
4 4 13 110.23 5.7
4 4 14 4.79 2.22
4 4 14 5.25 1.57
4 -4 14 8.7 2.02
4 -4 14 3.08 1.85
4 4 14 6.97 2.14
4 4 14 4.12 2.04
4 -4 14 7.92 2.38
4 4 14 6.88 1.78
4 4 15 489.32 15.88
4 4 15 513.55 16.18
4 -4 15 538.03 16.63
4 4 15 505.84 17.06
4 -4 15 504.39 16.79
4 4 15 496.23 16.53
4 4 15 507.99 16.97
4 -4 15 516.48 17.23
4 4 16 61.06 4.19
4 4 16 55.93 3.71
4 4 16 55.64 3.82
4 -4 16 64.89 4.21
4 4 16 63.51 4.55
4 -4 16 64.71 4.45
4 4 16 57.78 4.42
4 -4 16 64.94 4.62
4 4 17 18.61 2.26
4 4 17 22.36 2.92
4 4 17 23.81 3.03
4 -4 17 19.13 2.55
4 -4 17 17.9 2.77
4 4 17 22.2 2.64
4 4 18 7.07 1.58
4 4 18 6.33 1.7
4 4 18 6.07 2.15
4 4 18 7.56 2.16
4 -4 18 4.97 1.93
4 4 19 139.62 6.39
4 4 19 155.42 7.43
4 4 19 152.67 7.39
4 4 19 148.05 6.53
4 4 19 156.79 7.15
4 -4 19 152.54 7.46
4 4 20 15.21 2.65
4 -4 20 9.4 2.43
4 4 20 12.29 2.36
4 -4 20 9.95 2.39
4 4 21 226.44 9.19
4 -4 21 228.84 9.67
4 -4 21 209.51 9.12
4 4 22 21.13 2.69
4 -4 22 17.06 2.61
4 -4 22 15.45 2.4
4 4 23 -0.79 1.56
4 -4 23 0.64 1.69
4 -4 23 1.07 1.47
4 4 24 33.83 2.81
4 -4 24 34.18 3.07
4 -4 24 41.22 3.31
4 5 -26 20.34 1.66
-4 -5 26 23.64 1.89
-4 -5 26 25.1 2.03
-4 -5 26 26.61 2.56
4 5 -25 12.19 1.54
-4 -5 25 11.93 2.04
-4 -5 25 8.82 1.68
-4 -5 25 10.85 1.71
-4 -5 24 3.24 1.59
-4 -5 24 3.16 1.64
-4 -5 24 3.66 1.86
-4 -5 24 0.96 1.25
-4 5 24 2.89 1.28
-4 5 23 191.25 7.91
-4 -5 23 198.58 8.42
-4 -5 23 213.58 9.17
-4 -5 23 194.4 8.34
-4 -5 23 194.57 8.24
-4 5 23 177.24 7.68
-4 5 23 206.75 8.2
-4 5 22 2.9 1.73
-4 -5 22 2.16 2.01
-4 5 22 2.46 1.46
-4 -5 22 1.67 1.45
-4 5 21 762.59 23.65
-4 5 21 792.79 24.15
-4 -5 21 759.78 24.08
-4 5 21 772.46 23.62
-4 -5 21 821.39 25.22
-4 5 21 759.82 23.79
-4 -5 21 759.32 24.28
-4 5 20 23.86 2.88
-4 5 20 16.49 2.7
-4 -5 20 19.99 2.69
-4 5 20 20.01 2.51
-4 -5 20 17.97 3.12
-4 5 19 87.97 5.37
-4 5 19 87.48 5.6
-4 -5 19 77.8 5.9
4 5 -19 99.72 5.93
-4 -5 19 81.29 5.5
-4 5 19 87.26 5.75
-4 5 19 88.53 5.32
-4 5 18 -0.23 1.95
-4 5 18 3.88 1.9
-4 5 18 3.65 2.06
-4 -5 18 1.29 2.02
4 5 -18 3.85 1.76
-4 5 18 0.95 1.65
-4 -5 18 1.69 1.95
-4 -5 18 1.97 2.15
-4 5 17 73.71 5.39
-4 -5 17 73.47 5.73
-4 5 17 83.3 5.16
-4 5 17 81.79 5.36
-4 -5 17 75.86 5.49
4 5 -17 89.04 5.51
-4 5 17 78.27 5.16
-4 -5 17 84.94 5.94
-4 5 16 33.81 3.61
-4 5 16 23.92 3.13
-4 5 16 33.13 3.72
-4 5 16 37.99 3.76
-4 5 16 33.78 3.32
4 5 -16 28.95 3.48
-4 -5 16 28.04 3.8
-4 -5 16 29.13 4.12
-4 -5 16 27.52 3.64
-4 5 15 1845.51 49.5
-4 5 15 1699.07 49.67
-4 -5 15 1745.14 50.35
-4 5 15 1786.6 49.2
4 5 -15 1853.26 49.83
-4 5 15 1696.48 48.86
-4 -5 15 1750.41 49.42
-4 -5 15 1744.54 50.31
-4 5 14 215.92 8.83
-4 5 14 179.75 8.66
-4 -5 14 181.42 8.87
-4 5 14 212.92 8.68
-4 -5 14 202.72 9.3
4 5 -14 202.67 9.21
-4 5 13 66.28 4.31
-4 5 13 59.86 4.08
-4 5 13 63.43 4.38
-4 -5 13 53.72 4.37
4 5 -13 65.04 4.61
-4 -5 13 57.08 4.53
4 -5 -13 53.19 4.13
-4 5 12 47.55 3.59
-4 5 12 45.07 3.45
-4 5 12 42.86 3.54
-4 -5 12 48.57 3.88
-4 -5 12 50.37 3.99
-4 -5 12 49.55 3.8
-4 5 12 46.24 3.54
-4 5 11 12.95 1.85
-4 -5 11 15.59 2.15
4 5 -10 137.58 5.95
4 -5 -10 151.93 6.19
-4 -5 10 127.03 6.41
-4 5 10 140.25 6.42
-4 -5 9 1825.5 49.65
4 5 -9 1745.94 48.61
4 -5 -9 1900.19 48.96
-4 5 9 1788.22 49.28
4 5 -8 242.2 8.71
4 -5 -8 251.3 8.89
-4 -5 8 247.73 9.25
-4 5 8 253.49 9.08
4 5 -8 251.45 9.23
4 -5 -7 253.23 8.98
4 5 -7 262.3 8.95
4 -5 -7 253.41 8.99
-4 -5 7 258.73 9.32
-4 5 7 261.57 9.12
4 5 -7 268.01 9.52
4 5 -6 83.32 3.97
4 -5 -6 80.59 4
4 5 -6 76.67 3.84
4 -5 -6 84.66 4.13
4 5 -6 79.24 4.34
4 5 -5 186.53 6.82
4 -5 -5 187.56 7.03
4 5 -5 199.27 7.59
4 5 -5 202.42 6.99
4 -5 -5 187.32 7.01
4 5 -5 208.65 7.89
4 5 -5 205.5 7.56
4 5 -4 9.7 1.25
4 -5 -4 8.94 1.28
4 5 -4 8.66 1.22
4 -5 -4 9.38 1.34
4 5 -4 9.36 1.58
4 5 -4 10.48 1.53
4 5 -4 10.64 1.74
4 5 -3 1823.34 48.92
4 5 -3 1854.87 47.97
4 -5 -3 1755.66 48.02
4 5 -3 1889.02 49.73
4 5 -2 31.95 2.85
4 5 -2 30.7 2.42
4 -5 -1 185.69 6.45
4 5 -1 201.53 8.01
4 -5 0 310.29 9.73
4 5 0 317.73 9.64
4 5 0 329.19 11.57
4 5 1 509.32 15.54
4 5 1 520.32 14.72
4 -5 1 501.52 14.8
4 5 1 527.71 16.91
4 5 2 8.04 1.43
4 5 2 8.65 1.13
4 -5 2 7.6 1.15
-4 5 -2 7.69 1.35
4 5 3 648.5 18.9
4 5 3 667.42 18.18
4 -5 3 626.31 18.22
-4 5 -3 614.76 18.77
-4 5 -4 39.23 2.81
4 5 4 40.16 2.75
4 5 4 41.53 2.38
-4 5 -5 518.28 15.9
4 5 5 521.71 15.76
4 5 5 509.27 15.03
4 5 6 805.43 22.99
4 5 6 812.53 22.39
4 -5 6 779.56 22.5
-4 5 -6 790.01 23.26
4 5 7 606.67 18.16
4 5 7 591.32 17.6
4 -5 7 617.2 17.95
-4 5 -7 610.12 18.56
4 5 8 92.16 4.34
4 -5 8 101.68 4.7
-4 5 -8 90.53 4.94
4 5 8 98.41 4.72
4 -5 9 13.1 1.65
4 5 9 12.58 1.72
-4 5 -9 16.44 2.12
4 5 9 16.59 1.72
4 5 9 14.46 1.83
4 -5 9 11.98 2.01
4 5 10 40.75 3.37
4 5 10 54.24 3.23
4 -5 10 50.85 3.27
4 -5 10 45.58 3.83
-4 5 -10 56.4 3.85
4 5 10 48.76 3.34
4 5 10 50.98 3.27
4 -5 10 45.12 3.53
4 -5 11 257.13 9.84
4 -5 11 256.68 9.09
4 5 11 246.43 9.65
4 5 11 240.65 8.86
4 5 11 251.16 8.98
4 -5 11 243.79 9.03
4 -5 11 235.01 9.11
4 -5 11 232.31 9.89
4 5 11 221.16 8.45
-4 5 -11 266.9 10.13
4 5 11 259.91 9.35
4 5 12 120.7 5.51
4 5 12 115.14 5.23
4 -5 12 118.64 5.49
4 5 12 115.57 6.37
4 -5 12 110.94 5.48
4 -5 12 121.49 6.27
4 -5 12 108.98 5.65
-4 5 -12 115.8 6.28
4 5 12 106.63 5.75
4 5 12 106.34 5.11
4 -5 12 106.46 6.09
4 -5 13 492.07 16.16
4 5 13 514.15 15.67
4 -5 13 525.22 16.02
4 5 13 499.69 16.6
4 -5 13 497.71 16.97
4 5 13 481.08 16.33
4 -5 13 501.26 16.55
4 5 13 495.36 15.91
4 -5 13 471.11 16.75
-4 5 -13 524.99 17.19
4 5 13 481.94 16.07
4 5 14 2.71 1.25
4 -5 14 3.81 1.5
4 5 14 1.54 1.33
4 5 14 1.42 1.73
4 -5 14 1.72 1.47
4 -5 14 1.97 2.15
4 5 14 3.41 1.63
4 -5 14 1.53 1.83
4 5 14 0.78 1.43
4 -5 14 3.04 1.55
-4 5 -14 1.8 1.52
4 5 15 21.87 2.37
4 5 15 24.92 2.48
4 -5 15 20.65 2.46
4 5 15 21.9 2.78
4 5 15 19.23 2.67
4 -5 15 23.57 2.89
4 -5 15 25.47 3.22
4 -5 15 23.44 2.95
-4 5 -15 26.02 2.93
4 5 15 21.51 2.63
4 -5 15 21.65 2.69
4 5 15 20.36 2.51
4 5 16 5.34 1.26
4 5 16 3.55 1.38
4 5 16 2.91 1.69
4 5 16 5.97 1.93
4 -5 16 -0.21 1.98
4 -5 16 1.82 1.71
4 -5 16 3.05 1.5
-4 5 -16 1.47 1.55
4 -5 17 83.34 5.49
4 5 17 77.32 4.48
4 5 17 87.23 5.25
4 5 17 80.74 4.85
4 -5 17 82.5 5.24
-4 5 -17 76.46 5.26
4 5 17 82.68 4.94
4 5 18 84.19 4.74
4 5 18 99.86 5.6
4 -5 18 88.67 5.72
4 -5 18 90.54 5.46
4 5 18 96.91 5.42
4 5 19 160.48 6.88
4 5 19 162.65 7.6
4 -5 19 172.11 8.23
4 -5 19 169.69 7.75
4 -5 20 2.08 1.94
4 5 20 0.95 1.62
4 -5 20 3.56 1.79
4 5 21 130.05 6.23
4 -5 21 132.32 6.46
4 -5 21 137.69 6.79
4 5 22 7.73 1.89
4 -5 22 8.86 2.09
4 -5 22 8.24 1.87
4 -5 23 27.62 2.67
4 5 23 31.59 2.62
4 -5 23 30.71 2.93
4 -5 24 45.29 3.19
4 5 24 43.7 2.98
4 -5 24 47.48 3.4
-4 -6 25 25.53 2.53
-4 -6 24 475.45 15.67
-4 -6 23 86.88 5.26
-4 6 23 84.52 4.6
-4 6 22 42.6 3.5
-4 6 22 43.98 3.62
-4 -6 22 45.61 4.05
-4 6 21 23.62 2.86
-4 6 21 28.83 3.16
-4 -6 21 26.39 3.58
-4 6 20 171.7 7.76
-4 6 20 181.79 8.24
-4 -6 20 185.86 8.95
-4 -6 20 155.54 7.59
-4 6 19 97.84 5.53
-4 6 19 93.79 5.67
-4 6 19 88.8 4.95
-4 -6 19 82.7 5.93
-4 -6 19 84.63 5.29
-4 6 18 549.77 18
-4 6 18 512.55 17.31
4 6 -18 518.23 18.36
-4 -6 18 551.4 19.29
-4 6 17 140.62 7.02
-4 6 17 153.35 7.46
-4 6 17 159.51 7.67
-4 6 17 134.95 6.64
4 6 -17 151.2 7.65
-4 -6 17 156.38 8.27
-4 6 16 25.38 3.25
-4 6 16 32.68 3.39
4 6 -16 30.7 3.36
-4 -6 16 31.66 3.91
-4 6 15 10.99 2.8
-4 6 15 11.77 2.48
4 6 -15 16.2 2.88
4 -6 -15 13.08 2.09
-4 -6 15 12.29 3.24
-4 6 14 4.63 2.2
-4 6 14 3.43 1.88
-4 -6 14 2.96 2.88
4 6 -14 2.31 1.71
-4 6 14 2.32 1.7
-4 6 14 3.04 1.46
4 -6 -14 4.34 1.46
-4 6 13 299.84 11.27
-4 6 13 281.29 10.9
-4 6 13 293.17 11.13
4 -6 -13 290.41 11.57
4 -6 -13 292.02 10.57
4 6 -13 308.75 11.95
-4 6 13 286.77 11.3
-4 -6 13 303.29 12.07
-4 6 12 1115.86 31.02
-4 6 12 992.2 30.38
-4 6 12 1124.59 30.93
4 6 -12 1080.89 31.65
4 -6 -12 1088.41 30.17
4 -6 -12 956.86 31.31
-4 6 12 1085.58 31.16
-4 -6 12 1013.49 31.49
-4 6 11 170.23 7.43
4 6 -11 179.84 8.11
-4 6 11 149.4 6.87
-4 6 11 182.19 7.51
-4 -6 11 176.51 8.05
4 -6 -11 178.2 7.01
4 -6 -11 151.84 7.98
-4 6 11 173.43 7.66
-4 6 10 42.55 3.35
-4 6 10 44.12 3.28
4 6 -10 53.62 3.95
-4 6 10 40.36 3.12
4 -6 -10 48.64 3.21
-4 -6 10 45.94 3.81
-4 6 10 46.03 3.58
4 6 -10 51.63 3.74
-4 -6 10 48.68 3.43
4 -6 -10 39.22 3.95
-4 -6 9 3.31 1.27
4 -6 -9 3.84 1.2
-4 6 9 6.32 1.62
4 6 -9 6.41 1.15
4 6 -9 5.42 1.59
4 6 -8 23.62 2.09
4 -6 -8 26.37 2.28
-4 6 8 32.37 2.88
-4 -6 8 24.07 2.38
4 6 -8 26.83 2.65
4 -6 -7 719.55 21.18
4 6 -7 732.31 20.96
-4 -6 7 744.43 21.56
-4 6 7 757.05 22.24
4 6 -7 735.4 22.37
-4 -6 6 1140.73 32.63
4 -6 -6 1142.46 32.37
4 6 -6 1203.8 32.19
-4 6 6 1213.77 33.74
4 6 -6 1223.79 33.97
4 6 -6 1234.04 33.52
4 6 -5 86.35 4.6
-4 -6 5 80.41 4.01
4 6 -5 89.19 3.77
-4 6 5 86.84 4.73
4 6 -5 92.11 5.06
4 6 -4 240.01 8.94
-4 6 4 229.67 8.95
4 6 -4 257.15 9.68
-4 6 3 126.45 5.87
4 6 -3 139.82 6.07
4 6 -3 139.54 6.64
4 6 -2 116.25 4.39
4 6 -2 129.54 5.74
4 6 -2 132.53 6.42
4 6 -1 666.15 18.88
4 6 -1 702.2 20.53
4 6 -1 728.31 21.72
4 6 0 469.87 13.63
4 6 0 501.18 16.41
4 6 1 45.94 2.42
4 6 1 63.99 4.46
4 6 2 204.41 7.85
4 6 2 202.26 9.04
4 6 3 174.52 7.05
4 6 4 268.58 9.63
4 6 5 673.38 20.21
4 -6 6 472.88 16.4
4 6 6 499.03 15.55
4 -6 7 56.98 4.28
4 6 7 59.62 3.55
4 6 7 60.86 3.77
4 6 8 172.83 7.03
4 -6 8 161.69 7.03
4 -6 8 148.84 7.51
4 6 8 158.68 6.65
4 -6 9 31.84 2.97
4 6 9 35.51 2.87
4 -6 9 31.74 3.46
4 6 9 34.73 2.87
4 6 10 204.01 7.98
4 -6 10 193.88 8.22
4 -6 10 192.39 8.9
4 6 10 185.83 7.39
4 6 10 189.17 7.79
4 6 11 160.24 7.65
4 -6 11 166.45 7.77
4 6 11 167.45 7.09
4 -6 11 170.49 8.37
4 6 11 165.03 6.77
4 6 11 173.84 7.5
4 6 12 8.87 1.67
4 6 12 11.11 2.65
4 -6 12 11.06 2.33
4 6 12 8.86 1.62
4 -6 12 9.29 2.35
4 6 12 8.89 1.68
4 6 12 11.06 2.13
4 6 13 190.78 8.22
4 -6 13 197.79 8.57
4 -6 13 185.91 7.85
4 -6 13 190.93 8.92
4 6 13 197.14 8.02
4 6 13 177.29 7.33
4 6 14 114.17 6.14
4 -6 14 121.9 6.46
4 -6 14 109.3 5.86
4 -6 14 111.54 6.44
4 6 14 109.9 5.84
4 6 15 70.05 4.3
4 6 15 72.56 4.8
4 -6 15 71.35 5.02
4 -6 15 75.93 4.74
4 -6 15 61.51 4.74
4 6 15 65.99 4.45
4 6 16 72.81 4.34
4 6 16 71.34 4.74
4 -6 16 66.29 4.52
4 -6 16 67.92 4.84
4 6 16 67.08 4.51
4 -6 16 77.16 5.15
4 6 17 84.98 4.73
4 6 17 90.91 5.34
4 6 17 83.15 5.05
4 -6 17 90.03 5.18
4 -6 17 72.94 4.97
4 -6 17 85.67 5.53
4 6 18 63.11 3.95
4 6 18 69.47 4.48
4 -6 18 58.34 4.24
4 6 18 69.56 4.43
4 -6 18 68.49 4.84
4 6 19 164.26 6.9
4 6 19 174.69 7.51
4 -6 19 172.01 7.52
4 -6 19 164.91 7.88
4 6 20 39.97 2.94
4 6 20 42.89 3.33
4 -6 20 46.06 3.76
4 -6 20 38.3 3.25
4 6 21 45.92 3.33
4 -6 21 44.25 3.61
4 -6 21 45.67 3.36
4 6 22 100.19 4.79
4 -6 22 106.37 5.31
4 -6 22 93.95 4.73
4 -6 23 10.7 2.01
4 6 23 13.6 1.82
4 -6 23 8.38 1.6
-4 -7 24 34.22 2.83
-4 -7 23 208.44 8.23
-4 7 23 184.53 7.36
-4 7 22 108.86 5.41
-4 7 22 112.4 5.57
-4 7 21 41.33 3.29
-4 7 21 37.74 3.29
-4 -7 21 33.91 3.6
-4 7 20 102.69 5.52
-4 7 20 103.16 5.72
-4 -7 20 98.1 6.11
-4 7 19 432.58 15.05
-4 7 19 444.69 15.45
-4 -7 19 467.96 16.47
-4 7 18 47.44 3.77
-4 7 18 40.5 3.76
-4 -7 18 40.57 4.14
-4 7 17 314.41 11.91
-4 7 17 329.49 12.04
4 7 -17 291.84 11.95
-4 -7 17 297.26 12.46
-4 7 17 293.49 11.47
-4 7 16 350.49 12.49
-4 7 16 314.56 12.2
4 7 -16 318.87 12.58
-4 -7 16 330.07 13.09
4 7 -16 296.82 11.37
-4 7 15 23.64 2.96
-4 7 15 20.92 2.89
-4 -7 15 20.74 3.23
4 7 -15 22.8 3.03
4 7 -15 20.74 2.7
4 7 -15 23.2 2.74
-4 7 14 152.79 7.3
-4 7 14 163.33 7.54
4 7 -14 156.88 7.81
-4 -7 14 144.18 7.83
4 7 -14 131.03 7.05
4 7 -14 145.08 7.09
-4 7 13 320.07 11.95
-4 7 13 338.89 12.3
-4 7 13 308.65 12.11
-4 -7 13 312.9 12.69
4 -7 -13 324.08 12.66
4 7 -13 330.79 12.37
4 7 -13 296.03 12.42
4 7 -12 2.34 1.79
-4 7 12 3.07 2.66
-4 7 12 0.69 1.92
4 -7 -12 0.23 3.09
-4 -7 12 4.88 3.1
-4 7 12 -0.38 1.58
4 7 -12 2.77 1.31
-4 7 11 229.9 9.12
-4 7 11 236.07 9.27
4 -7 -11 217.97 10.17
-4 7 11 227.79 9.49
-4 -7 11 220.51 9.68
4 7 -11 214.72 9.75
4 7 -11 231.33 9.66
-4 7 10 480.22 15.35
-4 7 10 491.12 15.42
4 -7 -10 432.82 16.51
-4 7 10 459.21 15.64
-4 -7 10 424.51 15.69
4 7 -10 489.24 16.52
4 7 -10 455.85 15.98
-4 7 9 38.5 3.15
-4 7 9 36.58 3.03
4 7 -9 35.76 3.47
-4 7 9 45.79 3.56
-4 -7 9 31.19 3.22
4 7 -9 38.73 3.44
4 7 -8 67.97 4.56
-4 7 8 67.14 4.01
4 7 -8 59.68 4.33
-4 7 8 71.13 4.52
-4 7 7 259.99 9.45
-4 7 7 261.63 10.17
4 7 -7 250.88 10.19
4 -7 -7 275.21 11.22
4 7 -7 276.33 10.65
4 7 -6 23.25 2.6
4 -7 -6 28.26 3.28
4 7 -6 29.01 2.95
-4 7 5 398.1 13.54
4 7 -5 393.21 13.3
4 7 -5 424 14.3
4 7 -4 1298.4 35.71
4 7 -4 1304.29 35.7
4 -7 -4 1223.19 36.76
-4 7 4 1224.48 35.61
4 7 -4 1254.48 36.64
4 -7 -3 0.2 1.34
4 7 -3 0.89 1.18
-4 7 3 1.21 1.06
4 7 -3 -0.19 1.45
4 7 -2 38.14 3.04
-4 7 2 33.44 2.84
4 7 -2 31.72 3.28
4 7 -1 16.13 2.1
-4 7 1 19.11 2.3
4 7 -1 21.47 2.71
4 7 0 330.77 11.56
-4 7 0 313.43 11.34
4 7 0 337.85 12.87
-4 7 -1 253.93 9.53
4 -7 1 255.05 10.41
4 -7 1 253.65 10.36
-4 7 -2 969.51 28.02
4 -7 2 980.77 29.07
4 -7 2 947.6 29
-4 7 -3 26.11 2.57
4 7 3 18.59 2.2
4 -7 3 18.29 2.67
4 7 4 127.23 6.04
-4 7 -4 127.91 6.08
4 7 5 23.05 2.14
-4 7 -5 27.45 2.67
4 7 5 24.66 2.24
4 7 5 23.09 2.49
4 7 6 174.22 7.36
-4 7 -6 170.84 7.48
4 7 6 159.56 6.46
4 -7 6 152.65 7.86
4 7 6 168.03 6.75
4 -7 7 160.87 8.08
-4 7 -7 152.86 7.24
4 7 7 158.15 6.62
4 7 7 161.51 7.16
4 7 8 463.66 15.37
4 -7 8 441.13 15.03
4 -7 8 424.72 16.24
-4 7 -8 496.16 16.07
4 7 8 481.36 14.94
4 7 9 8.88 1.75
4 -7 9 5.95 1.72
4 -7 9 7.55 3.08
4 7 9 6.2 1.66
-4 7 -9 5.86 1.94
4 7 9 9.62 2.35
-4 7 -10 329.71 12.14
4 -7 10 305.83 12.72
4 7 10 315.14 10.99
4 7 10 330.96 11.35
4 -7 10 297.87 11.53
4 7 10 294.68 11.28
4 7 11 29.7 3.26
4 -7 11 26.85 3.12
4 7 11 24.69 2.88
4 -7 11 30.84 3.96
-4 7 -11 31.32 3.3
4 7 11 27.38 2.72
4 7 11 27.1 2.75
4 7 12 438.98 15.04
4 7 12 436.38 14.89
4 7 12 474.21 15.79
4 -7 12 461.1 15.59
4 -7 12 488.31 17.1
-4 7 -12 485.98 16.25
4 7 12 435.96 14.67
4 7 12 486.55 15.46
4 7 13 21.22 2.41
4 7 13 20.76 2.4
4 7 13 26.09 2.99
4 7 13 26.28 2.76
4 -7 13 25.25 3.01
4 -7 13 23.18 3.35
-4 7 -13 23.43 3.04
4 7 13 22.45 2.41
4 7 14 195.38 8.34
4 7 14 223.37 9.21
4 7 14 205.11 8.29
4 -7 14 213.38 9.78
-4 7 -14 224.94 9.58
4 7 14 224.89 8.96
4 -7 14 220.42 9.21
4 -7 15 14.09 2.46
4 7 15 11.8 2.04
4 7 15 15.21 2.14
4 7 15 18.73 2.58
4 -7 15 11.09 2.39
4 7 15 19.33 2.48
4 7 16 163.97 7.19
4 7 16 173.16 7.69
4 -7 16 162.25 7.7
4 -7 16 165.48 8.05
4 7 16 172.34 7.54
4 -7 17 74.13 4.88
4 7 17 67.68 4.22
4 7 17 75.65 4.74
4 -7 17 70.28 4.32
4 -7 17 75.14 5.02
4 7 17 69.45 4.56
4 7 18 115.86 5.45
4 7 18 118.35 5.79
4 -7 18 112.22 5.97
4 -7 18 99.04 5.28
4 -7 19 3.35 1.73
4 -7 19 0.13 1.15
4 7 19 0.86 1.22
4 7 19 -0.13 1.41
4 7 20 25.1 2.27
4 -7 20 25.01 2.39
4 7 20 27.45 2.59
4 -7 20 28.54 2.89
4 -7 21 7.16 1.82
4 7 21 6.84 1.6
4 -7 22 128.39 5.58
4 7 22 132.89 5.29
-4 8 23 2.99 1.29
-4 -8 23 4.62 1.44
-4 8 22 432.39 13.88
-4 -8 22 463.33 14.51
-4 8 21 40.05 3.03
-4 8 21 38.5 3.04
-4 -8 21 39.67 3.38
-4 8 20 314.36 10.95
-4 8 20 299.63 10.93
-4 -8 20 301.89 11.52
-4 8 19 18.5 2.49
-4 8 19 16.38 2.44
-4 -8 19 19.79 2.97
-4 8 18 53.56 4.01
-4 8 18 50.87 3.97
-4 -8 18 52.13 4.33
-4 8 17 14.96 2.43
-4 8 17 14.51 2.5
-4 8 17 15.05 2.56
-4 -8 17 18.27 3.07
-4 8 16 582.07 19.01
-4 8 16 629.7 19.46
-4 -8 16 607.53 19.97
4 8 -16 559.06 18.28
4 8 -15 53.2 3.86
-4 8 15 47.88 3.89
-4 -8 15 46.62 4.34
4 8 -15 50.36 4.35
4 8 -15 48.96 4.07
-4 8 14 428.79 14.87
-4 8 14 445.89 15.33
4 8 -14 444.05 14.98
4 8 -14 415.16 15.58
-4 -8 14 451.17 15.87
4 8 -14 419.31 15.43
-4 8 13 47.71 3.83
-4 8 13 44.42 3.78
4 8 -13 50.3 4.28
4 -8 -13 50.42 4.56
-4 -8 13 44.13 4.09
-4 8 13 44.31 3.84
4 8 -13 48.29 4.13
4 8 -13 51.1 3.91
4 8 -12 1.81 1.51
-4 8 12 3.99 1.95
-4 8 12 3.72 1.7
4 8 -12 1.52 1.44
4 8 -12 8.38 2.13
-4 -8 12 5.55 2.51
-4 8 12 5.07 1.76
4 -8 -12 1.43 2.4
4 8 -11 28.38 3.38
-4 8 11 26.76 2.93
-4 8 11 30.08 3.38
-4 8 11 29.36 3.26
4 8 -11 31.26 3.51
4 -8 -11 27.11 3.94
4 8 -11 25.2 3.14
-4 8 10 286.58 10.75
-4 8 10 308.33 11
4 8 -10 283.43 11.6
4 8 -10 283.65 11.11
4 -8 -10 278.07 12.24
-4 8 10 270.4 10.95
4 8 -10 288.68 11.69
-4 8 9 78.53 5.11
4 8 -9 83.12 5.2
-4 8 9 85.58 5.22
4 8 -9 86.32 5.55
-4 8 8 887.95 25.62
-4 8 8 843.51 26.25
4 8 -8 839.35 26.89
4 8 -8 895.82 26.45
-4 8 7 32.46 2.89
4 8 -7 31.87 3.25
4 -8 -7 36.96 4.21
4 -8 -7 38.38 3.79
-4 8 7 30.27 3.31
4 8 -7 36.51 3.58
4 8 -6 137.31 6.66
4 -8 -6 127.51 7.07
-4 8 6 143.26 6.18
4 8 -6 141.19 6.74
-4 8 6 132.5 6.64
4 -8 -6 132.7 7.51
4 8 -6 141.04 7.35
4 8 -5 92.3 5.17
-4 8 5 87.49 5.19
4 -8 -5 90.77 6.07
4 8 -5 95.56 5.28
4 8 -5 81.88 5.54
4 8 -4 49.2 3.69
-4 8 4 50.98 3.84
4 8 -4 51.34 3.75
4 8 -4 56.97 4.55
4 -8 -3 53.82 4.74
4 -8 -3 58.68 4.64
-4 8 3 64.91 4.26
4 8 -3 63.57 4.32
4 8 -2 1591.27 43.51
4 -8 -2 1609.52 45.11
-4 8 2 1488.24 43.33
4 -8 -2 1484.09 44.34
4 8 -2 1639.45 45.28
-4 8 1 27.39 2.68
4 8 -1 19.18 2.56
4 -8 -1 25.34 3.32
4 -8 -1 26.65 3.31
4 8 -1 21.92 2.6
4 8 -1 28.51 3.39
4 8 0 63.3 4.02
-4 8 0 66.85 4.27
4 -8 0 73.99 5.21
4 8 0 61.06 4.15
-4 8 -1 89.94 5.1
4 8 1 85.6 4.7
4 8 1 81.9 4.86
4 -8 1 84.59 5.62
4 8 2 28.48 2.61
4 -8 2 22.23 3.09
-4 8 -2 25.73 2.76
4 -8 2 26.8 3.3
4 8 3 57.87 3.72
-4 8 -3 68.09 4.36
4 -8 3 61.23 4.77
4 -8 3 54.98 4.54
4 8 4 929.67 27.19
-4 8 -4 943.82 28.18
4 -8 4 981.22 29.59
4 8 4 949.45 28.06
4 8 5 50.43 3.75
4 8 5 40.92 3.06
-4 8 -5 42.61 3.83
4 -8 5 46.1 4.91
4 8 6 36.31 3.23
-4 8 -6 32.74 3.27
4 8 7 82.98 4.71
-4 8 -7 82.69 5.18
4 8 7 87.33 5.15
4 -8 8 171.97 9.19
4 8 8 187.14 7.6
-4 8 -8 180.68 8.35
4 8 8 192.77 8.26
4 8 9 32.68 3.02
-4 8 -9 32.44 3.36
4 -8 9 35.49 4.08
4 8 9 32.91 3.14
4 8 9 37.27 3.31
4 8 10 837.93 25.3
4 8 10 840.34 25.26
-4 8 -10 831.19 25.7
4 -8 10 851.3 27.04
4 8 10 786.34 24.39
4 8 10 846.41 24.62
4 8 11 79.14 4.96
4 8 11 70.42 4.4
4 -8 11 85.26 6.05
-4 8 -11 72.72 5.01
4 8 11 72.52 4.37
4 8 11 75.17 4.7
4 8 12 7.08 1.71
4 8 12 7.15 1.74
4 8 12 8.53 2.14
4 -8 12 7.79 2.27
4 -8 12 10.57 2.75
4 8 12 8.51 1.84
-4 8 -12 6.93 1.96
4 8 12 8.16 1.86
4 8 13 14.7 2.17
4 8 13 14.79 2.47
4 -8 13 12.43 2.25
4 8 13 13.99 2.04
4 -8 13 10.75 2.25
4 -8 13 13.93 2.97
4 8 13 14.11 2.02
-4 8 -13 13.86 2.4
4 8 13 17.05 2.33
4 8 14 347.16 12.35
4 8 14 364.9 12.61
4 8 14 345.09 12.31
4 8 14 378.48 12.99
4 -8 14 378.39 14.23
4 8 14 360.38 12.67
4 -8 14 358.75 12.71
4 8 15 26.38 2.72
4 8 15 21.14 2.39
4 8 15 29.97 3.01
4 -8 15 28.06 3.51
4 8 15 27.72 2.88
4 -8 15 25.22 2.82
4 -8 16 135.57 6.52
4 8 16 135.25 6.3
4 8 16 138.73 6.52
4 -8 16 146.41 7.41
4 8 17 18.51 2.23
4 8 17 15.79 2.3
4 -8 17 16.64 2.45
4 -8 17 16.09 2.56
4 8 18 1.97 1.31
4 8 18 3.38 1.55
4 -8 18 3.1 1.6
4 -8 19 37.61 3.08
4 8 19 43.35 2.92
4 8 19 41.26 2.93
4 8 20 221.51 7.94
4 8 20 236.72 8.08
4 8 21 14.46 1.74
-4 9 22 9.58 1.54
-4 9 21 34.52 2.58
-4 -9 21 31.42 2.46
-4 9 20 201.14 7.55
-4 9 20 193.22 7.4
-4 -9 20 188.07 7.53
-4 9 19 249.86 9.15
-4 9 19 246.34 9.06
-4 -9 19 240.02 9.3
-4 9 18 1.71 1.57
-4 9 18 2.23 1.48
-4 -9 18 0.65 1.52
-4 9 17 211.82 8.65
-4 9 17 220.3 8.87
-4 9 17 211.94 8.55
-4 -9 17 212.03 8.99
-4 9 16 133.51 6.38
-4 9 16 136.02 6.75
4 9 -16 135.32 6.02
-4 -9 16 137.39 6.87
-4 9 15 85.77 4.97
-4 9 15 86.01 5.19
4 9 -15 93.04 4.97
-4 9 14 323.18 11.62
-4 9 14 333.09 12.19
4 9 -14 313.2 11.66
-4 9 13 264.74 10.34
-4 9 13 288.93 10.97
4 9 -13 274.24 10.76
4 -9 -13 289.47 11.62
4 9 -13 289.76 11.73
-4 9 12 111.62 5.68
-4 9 12 109.9 5.88
4 9 -12 109.61 6.01
4 -9 -12 120.75 6.97
-4 9 12 109.13 6.14
4 9 -12 110.97 6.56
-4 9 11 328.34 11.76
-4 9 11 341.99 12.19
4 -9 -11 318.17 13.4
-4 9 11 327.23 12.47
4 9 -11 340.01 12.47
4 9 -11 328.69 13.19
4 9 -10 121.83 6.32
-4 9 10 107.23 5.75
4 -9 -10 111.72 7.18
-4 9 10 108.43 6.12
4 9 -10 110.82 6.7
-4 9 9 6.01 1.82
-4 9 9 3.45 1.69
4 9 -9 6.14 2.01
4 9 -9 3.57 1.78
4 9 -8 307.87 11.41
-4 9 8 277.25 10.55
-4 9 8 266.28 11
4 9 -8 301.37 12.26
-4 9 7 104.19 5.33
4 9 -7 106.86 6.03
4 -9 -7 106.63 7.27
4 -9 -7 97.05 6.3
-4 9 7 108.94 6.02
4 9 -7 104.85 6.55
4 9 -6 252.44 10.31
-4 9 6 238.95 9.22
4 -9 -6 249.42 11.63
4 9 -6 268.02 10.34
4 -9 -6 244.89 10.76
-4 9 6 239.99 10
4 9 -6 240.43 10.87
4 9 -5 310.09 11.53
-4 9 5 279.5 10.41
4 9 -5 311.3 11.49
-4 9 5 278.86 11.26
4 -9 -5 293.88 12.72
4 9 -5 299.18 12.39
4 9 -4 508.19 16.91
4 9 -4 517.9 18.3
4 -9 -4 516.16 18.61
-4 9 4 470.24 16.83
4 9 -4 515.13 16.91
4 9 -3 0.18 1.37
4 -9 -3 1.8 2.34
-4 9 3 5.53 1.65
4 9 -2 259.04 10.34
4 -9 -2 277.62 11.93
-4 9 2 240.07 10.26
4 -9 -2 263.39 11.6
4 9 -2 279.07 11.86
4 9 -1 34.83 3.23
4 -9 -1 30.58 4.15
4 9 -1 31.23 3.09
-4 9 1 34.04 3.21
4 -9 -1 23.87 3.74
4 9 0 514.22 16.75
4 9 0 513.2 16.95
4 -9 0 505.11 18.36
-4 9 0 480.1 16.83
4 -9 0 522 18.31
4 -9 1 237.94 10.94
4 9 1 259.44 9.85
4 9 1 235.04 9.81
-4 9 -1 247.36 10.1
4 9 1 271.7 11.99
4 9 2 277.77 10.39
4 9 2 261.4 10.61
-4 9 -2 275.12 10.91
4 -9 2 283 12.03
4 9 3 18.28 2.45
4 -9 3 15.08 3.53
4 -9 3 14.05 3.41
-4 9 -3 14.93 2.49
4 9 4 63.97 4.2
4 -9 4 52.56 5.12
-4 9 -4 68.02 4.67
4 -9 4 69.35 5.52
4 -9 5 31.38 4.01
-4 9 -5 32.86 3.57
4 -9 5 39.7 4.31
4 9 5 29.19 3.04
4 9 6 375.58 13.78
4 -9 6 377.53 14.94
-4 9 -6 391.88 14.09
4 -9 6 384.06 15.26
4 9 7 112.19 6.07
4 -9 7 107.16 6.85
-4 9 -7 98.28 5.9
4 9 8 40.22 3.55
4 -9 8 41.79 4.35
-4 9 -8 34.61 3.47
4 9 8 36.55 3.17
4 9 9 13.41 2.3
4 -9 9 11.73 2.78
4 -9 9 12.81 3.05
4 9 9 10.8 1.96
-4 9 -9 14.24 2.39
4 9 9 12.29 1.97
4 9 10 4.2 1.6
4 9 10 3.49 1.81
4 -9 10 3.79 2.14
4 -9 10 3.73 2.25
4 9 10 4.3 1.49
-4 9 -10 4.28 1.74
4 9 10 3.23 1.38
4 9 11 79.8 4.95
4 -9 11 80.14 5.6
4 -9 11 86.18 6.2
4 9 11 82.66 4.67
4 9 11 82.88 4.64
4 9 11 82.32 4.97
4 9 12 481.13 16.26
4 9 12 514.57 16.82
4 -9 12 512.8 17.67
4 -9 12 541.46 18.8
4 9 12 499.89 16.23
4 9 12 535.26 16.43
4 9 12 497.21 16.67
4 9 13 60.11 4.07
4 9 13 56.96 3.95
4 9 13 58.84 3.9
4 9 13 61.53 4.17
4 -9 13 49.84 4.24
4 -9 13 57.99 4.98
4 9 13 60.94 3.81
4 9 13 65.13 4.06
4 9 14 7.41 1.88
4 9 14 6.73 1.69
4 9 14 9.04 2
4 9 14 6.66 1.57
4 -9 14 7.59 2.61
4 9 15 2.22 1.56
4 9 15 1.24 1.36
4 -9 15 0.21 1.78
4 9 16 7.78 1.73
4 9 16 7.04 1.68
4 -9 16 5.68 2.11
4 9 17 77.67 4.19
4 9 17 78.54 4.17
4 -9 17 73.55 4.86
4 9 18 295.97 10.13
4 9 18 309.69 10.05
4 9 19 0.76 1.05
4 9 19 1.86 1.11
-4 10 20 33.28 2.48
-4 10 19 32.7 2.54
-4 10 19 27.12 2.29
-4 10 18 351.55 11.25
-4 10 18 309.38 10.69
-4 10 17 172.56 6.96
-4 10 17 154.65 6.5
-4 10 16 6.52 1.62
-4 10 16 9.1 1.91
4 10 -16 6.65 1.4
-4 10 15 5.89 1.6
-4 10 15 5.5 1.79
4 10 -15 5.44 1.53
4 10 -14 14.16 2.12
-4 10 14 16.97 2.21
-4 10 14 11.56 2.17
4 10 -13 9.41 1.87
-4 10 13 8.9 1.77
-4 10 13 10.77 2.05
4 -10 -13 7.76 2.16
-4 10 12 312.57 11.14
-4 10 12 318.49 11.67
4 10 -12 328.49 11.87
4 -10 -12 329.67 12.9
-4 10 11 183.67 7.89
4 10 -11 184.39 8.18
4 -10 -11 182.68 9.21
-4 10 10 90.32 5.08
4 10 -10 99.4 5.71
-4 10 10 92.87 5.62
4 -10 -10 94.44 6.56
-4 10 9 109.7 5.58
4 10 -9 116.15 6.18
4 -10 -9 107.38 7.07
-4 10 9 101.21 5.88
4 10 -9 104.46 6.6
4 10 -8 8.08 1.93
-4 10 8 3.14 1.42
-4 10 8 7.97 1.91
4 10 -8 7.23 2.07
-4 10 7 115.02 5.61
-4 10 7 104.75 6.06
4 -10 -7 109.29 6.69
4 10 -7 115.46 6.97
4 10 -7 126.07 6.5
4 -10 -6 301.06 12.56
-4 10 6 306.83 10.94
4 10 -6 319.52 12.06
4 -10 -6 319.81 13.55
-4 10 6 304.6 11.87
4 10 -6 315.24 13.03
-4 10 5 122.68 5.81
4 10 -5 144.36 7.07
4 -10 -5 140.14 8.21
4 -10 -5 133.47 7.55
-4 10 5 120.7 6.65
4 10 -5 141.25 7.01
4 10 -5 127.04 7.52
4 10 -4 123.95 6.43
4 10 -4 112.22 6.19
4 -10 -4 119.44 7.5
-4 10 4 108.28 6.17
4 10 -4 101.55 6.82
4 -10 -3 311.79 13.23
-4 10 3 273.19 11.39
4 10 -3 298.29 11.54
4 10 -3 302.49 11.53
4 10 -2 140.26 7.11
-4 10 2 133.16 6.98
4 -10 -2 143.01 8.29
4 10 -1 300.74 11.33
-4 10 1 281.52 11.43
4 -10 -1 312.14 13.14
4 -10 -1 297.51 12.65
4 10 -1 271.73 11.24
4 10 0 358.16 12.83
4 10 0 338.53 12.9
4 -10 0 334.88 14.26
-4 10 0 341.36 13.04
4 -10 0 352.82 14.2
4 10 0 355 14.77
4 10 1 173.23 8.17
4 -10 1 171.95 9.31
-4 10 -1 170.32 8.23
4 -10 1 188.94 9.42
4 10 1 185.41 8.14
4 10 2 61.48 4.58
-4 10 -2 66.19 4.8
4 -10 2 78.58 5.82
4 10 2 66.76 4.42
4 10 3 301.28 11.77
-4 10 -3 292.55 11.82
4 -10 3 329.24 13.37
4 -10 4 177.71 9.33
4 -10 4 184.6 9.49
-4 10 -4 165.8 8.19
4 -10 5 25.2 3.72
-4 10 -5 24.83 2.99
4 -10 5 23.66 3.55
4 -10 6 59.46 5.12
-4 10 -6 46.31 4.1
4 -10 6 55.2 5.11
4 10 6 51.73 4.14
4 10 7 1.35 1.5
4 -10 7 1.85 2.36
4 -10 7 2.99 2.16
4 10 7 3.27 1.55
-4 10 -7 1.88 1.52
4 10 8 174.14 8.08
4 -10 8 176.06 9.14
4 10 8 174.79 7.68
4 10 9 296.34 11.41
4 10 9 280.43 11.01
4 -10 9 303.25 12.61
4 10 9 300.81 10.95
4 10 10 249.56 9.97
4 10 10 245.36 9.72
4 -10 10 253.75 11.04
4 10 10 244.08 9.51
4 10 11 6.12 1.76
4 10 11 5.7 1.86
4 10 11 5.82 1.69
4 -10 11 6.69 2.29
4 -10 11 4.85 2.76
4 10 11 4.5 1.58
4 10 12 0.29 1.47
4 10 12 1.17 1.28
4 10 12 2.63 1.48
4 10 12 1.74 1.41
4 10 12 1.61 1.31
4 -10 12 1.85 1.82
4 -10 12 2.93 2.25
4 10 13 9.44 1.76
4 10 13 8.5 1.8
4 10 13 8.72 1.69
4 -10 13 6.12 1.99
4 -10 13 7.8 2.33
4 10 14 131.56 6.05
4 10 14 123.42 5.78
4 10 14 138.46 5.92
4 -10 14 142.75 7.37
4 10 15 181.67 7.11
4 -10 15 191.12 8.58
4 10 16 84.13 4.4
4 10 16 93.83 4.29
4 -10 16 89.82 5.35
4 10 17 0.71 1.08
4 10 17 0.08 0.96
4 -10 17 0.77 1.44
4 10 18 3.03 1.26
4 10 18 1.44 0.98
-4 11 18 26.8 2.22
-4 11 17 24.58 2.24
-4 11 16 76.4 4.07
-4 11 16 71.14 3.55
-4 11 15 462.92 14.39
-4 11 15 506.16 15.27
-4 11 14 0.61 0.97
-4 11 14 1.45 1.28
-4 11 13 16.55 2.23
4 11 -13 16.57 2.2
4 11 -12 11.85 2.1
-4 11 12 10 1.93
4 -11 -12 9.56 2.39
4 -11 -11 8.04 2.4
-4 11 11 5.14 1.55
4 11 -11 3.75 1.72
-4 11 10 75.01 4.45
4 11 -10 87.38 5.13
4 -11 -10 75.39 5.69
-4 11 9 765.91 23.4
4 11 -9 825.23 24.57
4 -11 -9 808.81 26.17
-4 11 8 3.05 1.45
4 -11 -8 1.34 2.5
4 11 -8 4.38 1.79
4 11 -7 41.51 3.72
-4 11 7 38.36 3.02
-4 11 6 22.7 2.45
4 11 -6 23.38 2.98
4 -11 -6 25.76 3.43
-4 11 5 67.25 4.03
4 11 -5 76 5.01
4 -11 -5 84.21 6.19
4 -11 -5 76.4 5.62
4 11 -4 229.83 9.7
4 11 -4 227.3 9.69
4 -11 -4 222.83 10.49
4 -11 -4 232.34 11.19
4 -11 -3 360.29 15.13
4 11 -3 363.2 13.49
4 11 -3 367.3 13.45
-4 11 2 31.97 3.35
4 11 -2 35.74 3.45
4 -11 -2 34.87 4.43
4 11 -1 131.67 6.65
4 -11 -1 135.61 8.03
4 11 0 3.53 1.7
4 -11 0 2.82 2.56
-4 11 0 -0.21 1.76
4 11 1 235.87 10.09
4 -11 1 251.51 11.74
4 -11 1 245.43 11.36
4 -11 2 240.37 11.03
4 11 2 214.37 9.5
4 11 3 227.77 9.87
4 -11 3 248.16 11.34
4 -11 4 34.09 4.28
4 -11 4 33.27 4.17
4 11 4 32.98 3.27
4 -11 5 205.8 10.38
4 -11 5 214.55 10.51
4 -11 6 8.53 2.85
4 -11 6 6.94 2.84
4 11 6 7.19 1.96
4 11 7 264.28 10.74
4 -11 7 276.71 12.33
4 -11 7 287.03 12.34
4 11 7 274.85 10.41
4 11 8 92.31 5.26
4 11 8 96.89 5.56
4 -11 8 107.38 6.78
4 -11 8 98.58 6.83
4 11 8 97.41 5.31
4 11 9 3.97 1.62
4 11 9 5.06 1.59
4 -11 9 3.8 2.32
4 -11 9 6.32 2.62
4 11 9 4.26 1.53
4 11 10 56.3 3.99
4 11 10 58.39 3.84
4 11 10 56.92 3.79
4 -11 10 65.26 5.01
4 11 10 53.42 3.65
4 11 11 122.94 5.73
4 11 11 111.4 5.57
4 11 11 119.44 5.51
4 -11 11 125.62 6.76
4 11 11 111.38 5.48
4 11 11 125.37 6.02
4 11 12 1.46 1.3
4 11 12 0.38 1.26
4 11 12 1.04 1.27
4 11 12 -0.81 1.19
4 -11 12 1.84 1.85
4 -11 12 0.65 2.03
4 11 12 2.09 1.25
4 11 13 182.63 7.2
4 11 13 169.42 7.2
4 11 13 173.99 7.01
4 11 13 183.53 6.86
4 11 14 76.69 4.06
4 11 14 76.64 3.76
4 -11 14 85.65 5.24
4 11 15 5.53 1.23
4 -11 15 6.48 1.97
4 11 16 44.4 2.4
-4 12 16 34.61 2.44
-4 12 15 14.03 1.79
-4 12 14 74.13 3.78
-4 12 13 261.9 9.08
-4 12 12 57.97 3.4
-4 12 11 49.41 3.2
4 -12 -11 48.9 3.84
-4 12 10 35.33 2.74
4 -12 -10 38.2 3.79
4 -12 -9 2.64 2.28
-4 12 9 2.03 1.18
-4 12 8 64.61 3.76
4 -12 -8 75.51 5.68
-4 12 7 499.45 15.59
4 -12 -7 526.69 18.63
-4 12 6 25.79 2.42
4 -12 -6 29.56 3.41
4 -12 -5 6.18 2.45
4 -12 -4 79.96 6.13
4 -12 -4 60.52 5.07
4 12 -3 11.22 2.12
4 -12 -3 12.18 3.31
4 -12 -3 13.27 3
4 12 -2 29.27 3.25
4 -12 -2 32.16 3.99
4 -12 -2 33.26 4.33
4 12 -1 529.24 18.15
4 -12 -1 592.1 20.52
4 -12 0 110.45 7.38
4 12 0 107.62 6.06
4 -12 1 13.2 3.15
4 12 1 10.94 2.17
4 -12 2 26.92 3.88
4 12 2 23.22 2.83
4 12 3 166 7.54
4 12 3 164.15 7.74
4 12 4 11.05 2.21
4 -12 4 11.14 2.91
4 12 4 13.71 2.31
4 -12 5 548.91 19.17
4 -12 5 562.12 19.37
4 12 5 504.63 17.46
4 -12 6 6.12 2.61
4 -12 6 4.8 2.38
4 12 7 112.33 5.37
4 -12 7 108.77 6.73
4 12 7 109.95 5.49
4 -12 7 115.79 6.91
4 12 7 106.95 5.81
4 12 8 1.14 1.25
4 12 8 0.37 1.22
4 -12 8 0.67 2.06
4 -12 8 1.36 2.13
4 12 8 2.98 1.44
4 12 9 64.07 3.85
4 12 9 60.99 3.93
4 12 9 64.06 3.67
4 12 9 67.65 4.19
4 -12 9 74.24 5.16
4 -12 9 70.5 5.22
4 12 9 68.43 3.96
4 12 10 2.02 1.33
4 12 10 1.38 1.21
4 12 10 0.21 1.1
4 -12 10 0.76 1.79
4 12 10 0.96 1.2
4 -12 10 3.74 2.02
4 12 10 3.87 1.2
4 12 11 242.27 8.45
4 12 11 222.52 8.31
4 12 11 223.18 7.85
4 12 11 229.32 8.65
4 -12 11 242.3 9.52
4 12 12 0.21 1.14
4 12 12 1.04 1.08
4 12 12 1.5 0.92
4 -12 12 1.2 1.58
4 12 13 138.36 5.5
4 -12 13 139.95 6.68
4 12 13 128.81 4.81
-4 -13 12 5.59 1.68
-4 13 11 160.12 5.69
-4 13 11 160.31 6.53
4 -13 -10 76.03 4.21
-4 13 10 71.55 3.4
-4 13 10 69.78 4.03
-4 13 9 34.32 2.35
-4 13 9 38.46 3
4 -13 -9 37.61 3.38
4 -13 -8 -0.18 1.72
-4 13 8 0.52 0.85
-4 13 8 0.53 1
-4 13 7 54.36 3.53
4 -13 -7 50.91 4.48
-4 13 6 2.43 1.08
4 -13 -6 1.52 2.09
4 -13 -5 387.36 14.68
4 -13 -4 91.36 5.47
4 -13 -3 48.26 4.14
4 -13 -2 4.02 2.11
4 -13 -2 4.48 2.35
4 -13 -1 3.75 2.12
4 -13 -1 4.73 2.33
4 13 0 14.64 2.28
4 -13 0 12.36 2.78
4 13 0 12.74 2.18
4 -13 0 15.09 3.05
4 13 1 333.6 12.44
4 -13 1 346.65 13.45
4 -13 1 377.48 14.21
4 13 1 357.22 12.31
4 -13 2 167.75 8.47
4 -13 2 178.84 8.92
4 13 2 182.49 7.56
4 13 2 177.62 7.74
4 13 3 58.31 4.07
4 13 3 61.05 3.91
4 -13 3 62.28 5.01
4 13 4 24.62 2.63
4 13 4 29.09 2.71
4 13 5 41.96 3.16
4 13 5 38.36 2.79
4 13 5 37.62 3.18
4 13 6 5.55 1.43
4 13 6 6.44 1.44
4 -13 6 7.08 2.45
4 13 7 197.23 7.27
4 13 7 186.08 6.87
4 -13 7 204.92 8.94
4 13 8 93.59 4.3
4 13 8 88.15 4.39
4 13 8 85.71 3.85
4 13 8 88.9 4.64
4 -13 8 89.28 5.37
4 13 8 84.78 4.33
4 13 9 2.19 1.14
4 13 9 2.2 1.16
4 13 9 1.67 1.19
4 13 9 1.68 0.96
4 -13 9 2.12 1.87
4 13 9 3.66 1.36
4 13 10 58.81 3.2
4 13 10 67.09 3.39
4 -13 10 60.03 4.1
4 -13 10 61.68 4.4
4 -14 -7 26.99 2.74
4 14 -7 28.62 2.04
4 -14 -6 10.13 2.22
4 14 -6 11.91 1.52
4 -14 -5 121.06 6.09
4 14 -5 120.39 4.95
4 -14 -4 6.76 2.15
4 14 -4 4.66 1.3
4 -14 -3 145.76 7.03
4 14 -3 154.73 5.85
4 -14 -2 168.08 7.82
4 14 -2 181.47 6.61
4 -14 -1 19.27 2.55
4 14 -1 25.25 2.33
4 -14 0 29.63 2.97
4 14 0 38.5 2.75
4 -14 1 42.79 3.62
4 14 1 52.32 3.24
4 14 2 2.85 0.87
4 14 2 3.06 1.13
4 -14 2 1.23 1.71
4 14 2 4.11 1.43
4 -14 3 180.51 7.9
4 14 3 180.61 6.27
4 14 3 175.99 6.33
4 -14 3 205.48 8.5
4 14 3 212.64 7.34
4 14 4 174.49 6.03
4 14 4 160.62 5.82
4 -14 4 184.23 7.75
4 14 5 16.27 1.59
4 14 5 17.28 1.99
4 -14 5 13.69 2.59
4 14 5 18.98 2.01
-5 0 27 -0.72 1.54
-5 0 27 -0.63 1.05
-5 0 27 -1.4 1.33
-5 0 26 137 5.88
-5 0 26 140.03 6.34
-5 0 25 -1.11 1.64
-5 0 25 1.1 1.24
-5 0 25 0.84 1.14
-5 0 24 273.63 10.95
-5 0 24 287.31 10.6
-5 0 23 -0.69 1.75
-5 0 23 0.2 1.99
-5 0 22 15.62 2.9
-5 0 22 16.36 2.64
-5 0 21 -0.22 1.76
5 0 -21 1.03 1.41
-5 0 21 0.19 1.78
-5 0 21 5.63 1.78
-5 0 20 189.21 9.89
-5 0 20 211.04 9.6
5 0 -20 217.86 9.37
-5 0 20 201.21 9.06
-5 0 19 0.89 1.76
5 0 -19 0.2 1.41
-5 0 19 2.71 2.02
-5 0 19 0.39 1.64
-5 0 18 182.4 9.58
5 0 -18 202.15 8.85
-5 0 18 200.72 8.91
-5 0 17 0.36 2.31
-5 0 17 2.15 1.69
5 0 -17 -0.18 1.49
-5 0 17 0.76 2.5
-5 0 17 3.03 1.91
5 0 -16 462.56 15.29
-5 0 16 430.08 15.23
-5 0 16 442.26 16.29
-5 0 16 442.66 15.05
-5 0 15 1.25 1.25
-5 0 15 -0.22 1.48
5 0 -15 1.14 1.15
-5 0 15 0.34 1.26
-5 0 14 127.03 6.69
-5 0 14 110.47 5.79
5 0 -14 133.25 6.1
-5 0 14 106.19 5.51
5 0 -13 2.52 1.16
-5 0 13 0.19 1.34
5 0 -12 248.77 9.01
-5 0 12 230.06 9.58
5 0 -11 -0.12 0.91
-5 0 10 845.05 24.15
5 0 -10 826.55 23.79
5 0 -9 0.69 0.86
-5 0 9 3.54 1.27
5 0 -8 1701.51 45.53
5 0 -8 1676.32 44.74
-5 0 8 1661.57 45
5 0 -7 1.6 0.87
-5 0 7 0.56 0.97
5 0 -7 2.68 1.29
5 0 -6 395.31 12.65
5 0 -6 383.19 11.6
-5 0 6 376.63 11.76
5 0 -5 -0.21 0.77
5 0 -5 1.59 1.39
-5 0 5 1.54 0.85
5 0 -4 3896.84 95.47
5 0 -4 3471.87 95.07
5 0 -4 3502.46 93.68
-5 0 4 3807.54 94.17
5 0 -3 0.79 1.12
5 0 -3 3.61 0.77
-5 0 3 1.01 0.86
5 0 -3 1.14 1.1
5 0 -2 5.52 0.72
-5 0 2 7.62 1.09
5 0 -2 6.96 1.44
5 0 -2 9.06 1.53
5 0 -1 2.88 1.1
-5 0 1 0.83 0.66
-5 0 0 131.01 4.68
-5 0 -1 2.09 0.73
5 0 2 2544.43 69.19
-5 0 -2 2709.54 68.38
5 0 3 1.39 0.95
-5 0 -3 0.85 0.64
5 0 4 5.19 1.28
-5 0 -4 1.35 0.69
5 0 5 1.57 1.17
-5 0 -5 1.62 0.7
5 0 6 138.08 5.64
5 0 6 121.16 5.5
-5 0 -6 126.38 5
5 0 7 0.47 1.02
5 0 7 0.23 1
5 0 7 0.62 1.13
5 0 8 4507.19 116.04
5 0 8 4427.49 115.95
5 0 9 4.21 1.38
5 0 9 2.45 1.28
5 0 10 563 17.48
5 0 10 554.08 17.2
5 0 10 538.24 17.42
5 0 10 575.41 17.54
5 0 11 1.35 1.14
5 0 11 2.37 1.25
5 0 11 -0.16 1.31
5 0 11 3.17 1.26
5 0 11 0.46 1.22
5 0 11 0.6 0.95
5 0 12 13.03 2.18
5 0 12 16.58 2.47
5 0 12 19.1 2.31
5 0 12 16.07 2.23
5 0 12 14.38 2.21
5 0 12 20.59 2.16
5 0 13 0.68 2.11
5 0 13 0.38 1.54
5 0 13 0.18 1.54
5 0 13 1.37 1.43
5 0 13 3.7 1.42
5 0 14 2801.6 72.08
5 0 14 2593.4 72.27
5 0 14 2616.52 71.24
5 0 14 2663.38 72.06
5 0 14 2654.5 70.74
5 0 15 4.91 1.92
5 0 15 2.93 2.6
5 0 15 2.44 1.78
5 0 15 -0.56 1.4
5 0 16 421.84 15.33
5 0 16 411.37 14.21
5 0 16 410.74 14.7
5 0 16 406.6 13.65
5 0 17 1.39 1.31
5 0 17 0.45 1.85
5 0 17 2.51 1.66
5 0 17 0.86 1.34
5 0 18 2.18 1.41
5 0 18 0.91 1.98
5 0 18 2.16 1.73
5 0 18 2.34 1.74
5 0 18 2.13 1.4
5 0 19 2.48 2.11
5 0 19 -0.76 1.94
5 0 19 2.1 1.56
5 0 19 4.01 1.51
5 0 20 948.06 28.61
5 0 20 883.8 27.34
5 0 21 2.69 2.26
5 0 21 -0.17 1.71
5 0 22 405.13 13.85
5 0 23 -0.17 1.65
5 0 23 2.27 1.52
5 0 24 30.96 2.72
-5 -1 27 13.05 1.99
-5 -1 27 12.89 1.72
-5 1 27 10.68 1.67
-5 -1 27 10.78 1.7
-5 -1 26 57.97 3.59
-5 1 26 52.09 3.58
-5 -1 25 0.16 1.57
-5 1 25 1.46 1.24
-5 -1 25 1.32 1.48
-5 1 25 3.74 1.35
-5 -1 24 75.09 4.9
-5 1 24 73.46 4.34
-5 -1 24 69.74 4.58
-5 -1 23 23.1 3.21
-5 1 23 24.83 2.76
-5 -1 23 23.35 2.94
-5 -1 22 402.27 14.89
-5 -1 22 423.39 14.65
-5 1 22 386.66 13.91
-5 1 21 83.39 6.09
-5 -1 21 72.8 5.88
-5 1 21 85.04 5.12
-5 -1 21 81.52 5.58
5 1 -21 79.97 5.37
5 -1 -21 79.64 5.25
-5 -1 21 87.23 5.55
-5 1 20 4.21 1.85
5 1 -20 6.32 2.02
-5 1 20 8.05 2.25
-5 -1 20 4.09 1.98
-5 -1 20 5.15 2.22
5 -1 -20 6.23 1.94
-5 -1 20 6.09 2.23
-5 1 20 3.5 1.81
-5 1 19 120.25 7.41
-5 -1 19 116.12 7.45
-5 -1 19 128.43 7.12
5 -1 -19 108.56 6.28
-5 1 19 123.69 6.5
5 1 -19 134.89 6.92
-5 -1 19 125.28 6.85
-5 1 19 119.26 6.51
-5 1 18 407.93 14.25
-5 1 18 342.13 14.84
-5 -1 18 364.44 15.17
5 -1 -18 420.57 14.44
5 1 -18 420.71 14.67
-5 -1 18 392.63 14.51
-5 1 18 414.14 14.44
-5 1 17 18.03 2.91
-5 1 17 18.39 2.92
5 -1 -17 12.87 2.35
-5 1 17 15 2.91
5 1 -17 15.79 2.55
-5 1 17 13.17 2.52
-5 -1 17 14.97 2.93
-5 -1 17 13.41 3.01
5 1 -16 402.31 13.89
5 -1 -16 392.34 13.66
-5 1 16 382.02 13.54
-5 1 16 375.16 14.48
-5 -1 16 365.7 13.68
-5 1 16 379.29 13.45
-5 1 15 319.32 11.57
5 1 -15 341.59 11.9
5 -1 -15 321.25 11.63
-5 1 15 309.18 11.57
-5 -1 15 293.43 11.69
-5 1 15 321.97 12.64
-5 1 14 14.81 2.44
-5 1 14 11.62 1.95
5 -1 -14 13.91 2.04
-5 -1 14 14.76 2.29
5 1 -14 15.04 2.15
5 1 -13 360.84 12
5 -1 -13 336.25 11.73
-5 1 13 319.11 12.42
5 1 -12 611.4 18.11
-5 1 12 561.39 18.68
5 -1 -12 581.05 17.93
5 1 -11 9.23 1.56
5 -1 -11 8.5 1.45
-5 1 11 9.67 1.71
5 -1 -10 412.36 13.13
5 1 -10 448.13 13.52
-5 1 10 403.09 13.45
5 1 -9 629.29 17.97
-5 1 9 580.97 17.99
5 -1 -9 597.45 17.52
-5 -1 8 133.85 5.59
5 1 -8 139.24 6.08
5 1 -8 145.44 5.75
5 -1 -8 146.81 5.47
-5 1 8 143.98 5.85
5 1 -7 1041.68 29.98
5 -1 -7 1066.44 28.87
-5 -1 7 1069.81 29.19
-5 1 7 1048.41 29.47
5 1 -7 1104.13 29.41
5 1 -6 1222.29 34.26
5 1 -6 1238.3 33.37
5 -1 -6 1217.36 32.84
-5 -1 6 1262.08 33.2
-5 1 6 1218.38 33.53
5 -1 -5 79.98 4.29
5 1 -5 73.49 4.2
5 1 -5 76.87 3.64
5 -1 -5 80.8 3.29
-5 -1 5 79.39 3.47
-5 1 5 75.85 3.78
5 -1 -4 449.85 13.95
5 1 -4 415.48 13.81
5 1 -4 447.22 12.93
5 -1 -4 424.98 12.25
-5 -1 4 437.61 12.68
-5 1 4 443.12 13.13
5 1 -3 874.39 24.47
5 1 -3 864.35 23.31
5 -1 -3 924.45 24.74
-5 -1 3 903.38 23.26
-5 1 3 903.37 23.78
5 1 -2 61.22 3.44
5 1 -2 61.72 2.63
5 -1 -2 68.79 3.61
-5 -1 2 66.55 2.74
-5 1 2 60.9 2.99
5 -1 -1 2777.59 69.98
-5 -1 1 2593.38 68.56
-5 1 1 2678.69 69.09
-5 1 0 2503.08 63.94
-5 -1 0 2427.67 63.4
-5 -1 -1 174.47 5.58
-5 1 -1 172.91 5.99
5 -1 2 122.67 5.18
-5 -1 -2 124.4 4.29
-5 1 -2 125.56 4.74
-5 -1 -3 189.76 5.99
-5 1 -3 184.2 6.43
5 -1 3 183.94 6.94
5 -1 4 803.9 23.15
-5 -1 -4 827.35 22.02
-5 1 -4 796.67 22.51
5 -1 5 1416.92 39.47
-5 -1 -5 1487.32 38.35
-5 1 -5 1428.04 38.8
5 -1 6 812.32 23.7
-5 1 -6 820.52 23.03
-5 -1 -6 821.03 22.58
5 -1 6 827.36 23.53
5 -1 7 617.82 17.89
-5 1 -7 599.46 17.45
5 -1 7 561.64 17.75
5 -1 8 1.63 1.1
5 -1 8 2.08 1.2
5 -1 9 632.82 19.13
5 -1 9 625.04 19.11
5 -1 10 608.04 18.8
5 1 10 601.36 18.46
5 -1 10 612.14 18.59
5 -1 10 623.58 18.97
5 -1 10 600.7 18.81
5 -1 11 1582.87 44.52
5 1 11 1599.11 44.79
5 1 11 1586.81 44.11
5 -1 11 1592.58 44.19
5 -1 11 1698.44 44.66
5 -1 11 1630.55 44.69
5 1 11 1605.71 43.87
5 -1 12 264.71 9.94
5 -1 12 254.4 10.15
5 1 12 239.01 9.77
5 1 12 235.83 9.21
5 -1 12 245.2 9.39
5 -1 12 257.54 9.74
5 -1 12 245.05 9.75
5 -1 12 238.72 8.8
5 1 12 255.86 9.21
5 -1 13 634.06 20.26
5 1 13 619.7 19.8
5 1 13 608.38 19.06
5 1 13 618.89 19.7
5 -1 13 605.79 19.69
5 -1 13 623.07 19.62
5 -1 13 595.13 18.41
5 1 13 616.83 18.83
5 -1 14 98.18 5.53
5 -1 14 89.24 6.06
5 1 14 90.37 5.67
5 1 14 92.36 5.15
5 -1 14 97.43 5.72
5 1 14 102.46 5.78
5 -1 14 89.47 4.69
5 1 14 94.17 5.07
5 -1 15 243.62 10.74
5 1 15 237.68 10.21
5 -1 15 237.81 9.93
5 1 15 231.54 9.37
5 1 15 234.14 9.98
5 -1 15 246.26 10.2
5 -1 15 237.13 8.83
5 1 15 236.99 9.25
5 -1 16 179.22 8.77
5 1 16 167.63 8.2
5 -1 16 176.68 8.04
5 1 16 162.19 7.4
5 1 16 159.64 7.73
5 1 16 174.57 8.12
5 -1 16 153.49 7.9
5 -1 16 157.09 6.79
5 1 16 171.78 7.33
5 -1 17 509.57 17.82
5 1 17 482.59 16.98
5 1 17 498.06 16.09
5 1 17 476.15 15.66
5 1 17 465.36 16.42
5 -1 17 479.05 16.62
5 1 17 489.95 16.85
5 -1 17 486.2 16.85
5 -1 17 457.46 15.13
5 1 18 22.51 3.01
5 1 18 17.6 2.64
5 -1 18 16.06 2.55
5 -1 18 24.3 3.75
5 1 18 21.6 3.36
5 1 18 17.18 2.58
5 -1 18 16.37 2.8
5 1 18 19.42 2.92
5 -1 18 19.59 3
5 -1 18 19.74 2.27
5 1 18 21.17 2.64
5 1 19 347.79 12.68
5 -1 19 355.88 14.03
5 1 19 340.3 13.3
5 1 19 333.66 13.05
5 -1 19 361.11 13.32
5 -1 19 336.98 12.94
5 1 19 347.18 12.09
5 1 20 44.17 4.21
5 -1 20 34.94 3.62
5 1 20 34.91 3.68
5 -1 20 41.95 3.95
5 1 20 39.64 3.2
5 1 20 43.19 3.65
5 1 21 110.43 6.41
5 -1 21 102.79 5.8
5 -1 21 103.67 6.03
5 1 21 117.2 6.32
5 1 21 98.11 5.5
5 1 22 205.28 8.98
5 -1 22 209.47 8.65
5 1 22 204.97 8.85
5 -1 22 201.54 8.78
5 1 22 208.71 8.35
5 -1 23 326.74 12.1
5 1 23 352.05 11.67
5 -1 23 332.55 11.84
5 1 24 9.68 1.8
5 -1 24 11.08 1.98
5 2 -27 15.68 1.8
5 -2 -27 14.26 1.83
-5 -2 27 14.32 2.01
-5 2 27 12.49 1.75
-5 -2 27 12.85 1.81
-5 2 26 85.37 4.55
-5 -2 26 86.41 4.69
-5 -2 25 50.63 3.68
-5 2 25 52.67 3.65
-5 -2 25 45.32 3.51
-5 -2 24 44.08 3.68
-5 2 24 35.78 3.32
-5 -2 24 46.57 3.73
-5 -2 23 76.31 5.11
-5 2 23 63.14 4.71
-5 2 23 72.72 4.22
-5 -2 23 74.74 4.92
-5 -2 22 14.44 2.67
-5 2 22 20.25 2.85
-5 -2 22 21.15 3
-5 2 22 16.95 2.33
-5 2 21 65.64 4.91
-5 -2 21 67.63 5.08
-5 2 21 63.23 4.24
-5 -2 21 65.6 4.84
-5 2 21 57.28 4.41
-5 2 20 243.58 11.46
-5 -2 20 269.94 12.14
5 2 -20 264.17 10.93
-5 -2 20 266.09 11.12
-5 2 20 255.64 10.98
-5 -2 20 276.86 11.48
-5 2 20 260.72 10.22
5 -2 -20 272.53 10.87
-5 2 20 274.63 10.82
-5 2 19 109.47 6.99
-5 -2 19 99.22 6.94
-5 2 19 120.81 6.73
-5 -2 19 115.79 6.76
5 2 -19 121.7 6.55
5 -2 -19 114.38 6.28
-5 2 19 102.51 5.73
-5 -2 19 107.57 6.41
-5 2 19 115.18 6.3
-5 2 18 2.8 1.83
-5 -2 18 6.21 2.38
-5 2 18 5.84 2.26
5 -2 -18 6.88 1.83
5 2 -18 2.02 1.7
-5 2 18 2.21 1.62
-5 -2 18 3.17 2.04
-5 2 17 18.26 2.76
-5 -2 17 15.32 2.79
-5 2 17 18.9 3
-5 2 17 18.46 2.56
-5 -2 17 15.32 3.15
-5 -2 17 17.16 3.07
-5 2 17 17.41 3.1
5 2 -17 17.54 2.68
5 -2 -17 16.96 2.53
-5 2 16 14.4 2.62
-5 -2 16 17.63 2.62
-5 2 16 16.64 2.57
5 2 -16 16.48 2.8
-5 2 16 15.05 3.43
-5 -2 16 12.68 3.42
-5 2 16 14.23 2.26
-5 -2 16 16.41 3.23
-5 2 15 362.89 12.59
-5 2 15 323.03 12.05
5 2 -15 382.25 12.91
-5 2 15 337.27 12.22
-5 -2 15 349.33 13.7
-5 2 15 345.99 13.38
-5 2 14 987.88 27.1
-5 2 14 836.31 26.36
5 -2 -14 825.64 26.39
5 2 -14 975.13 27.33
-5 -2 14 976.09 28.66
-5 2 14 952.89 28.2
-5 2 13 92.66 5
5 2 -13 112.6 5.61
-5 2 13 118.83 5.95
-5 -2 13 104.02 6.1
-5 2 13 125.43 6.38
5 2 -12 3.57 1.34
-5 2 12 3.62 1.39
-5 -2 12 1.31 1.34
-5 2 12 2.12 1.46
5 2 -11 3.88 1.34
-5 2 11 5.64 1.52
-5 -2 11 3.55 1.55
-5 2 11 1.6 1.36
5 2 -10 0.88 1.01
-5 2 10 4.87 1.35
5 2 -9 404.79 13.1
5 -2 -9 415.72 13.17
5 2 -9 406.19 12.88
-5 2 9 414.88 13.05
5 2 -9 371.6 11.79
5 2 -8 2618.86 68.64
5 -2 -8 2658.9 68.65
5 2 -8 2695.32 68.33
-5 2 8 2525.89 68.3
5 2 -8 2498.47 67.24
5 2 -7 294.95 10.44
5 -2 -7 305.15 10.51
5 2 -7 305.22 10.16
-5 2 7 312.65 10.26
5 -2 -7 305.27 9.36
5 2 -7 288.65 9.42
5 2 -6 282.29 9.94
5 -2 -6 284.69 9.9
5 -2 -6 277.02 8.53
5 2 -6 284.65 9.51
-5 2 6 277.05 9.49
5 2 -6 271.02 8.91
5 2 -5 237.04 8.87
5 -2 -5 249.23 8.92
5 2 -5 239.63 8.92
5 -2 -5 233.06 8.8
5 2 -5 256.77 8.46
5 -2 -5 251.13 7.41
-5 2 5 228.94 8.37
5 2 -5 229.59 7.96
5 -2 -4 3.88 1.4
5 2 -4 2.76 1.01
-5 -2 4 5.19 0.82
-5 2 4 3.47 1.18
5 2 -4 4.61 1.39
5 -2 -4 2.55 1.35
5 2 -4 4.44 1.48
5 2 -3 1050.99 25.73
5 -2 -3 1026.5 25.82
5 2 -3 963.25 25.42
5 -2 -3 948.86 25.48
-5 -2 3 921.77 23.64
-5 2 3 993.43 24.96
5 2 -3 951.38 24.62
5 2 -2 1737.43 45.89
5 -2 -2 1649.27 45.85
5 -2 -2 1706.33 45.9
-5 -2 2 1666.81 44.15
-5 2 2 1787.25 45.45
5 2 -2 1653.06 44.87
5 2 -1 5.51 1.28
5 -2 -1 7.21 1.44
-5 2 1 3.7 0.99
-5 2 0 704.18 19.83
-5 2 -1 156.92 5.74
5 2 2 85.54 3.99
5 -2 2 84.36 4.05
-5 2 -2 78.48 3.71
5 2 3 897.45 25.54
5 -2 3 946.18 25.84
-5 2 -3 899.73 25.2
5 2 4 1924.83 52.52
5 2 4 2020.81 52.93
-5 -2 -4 1962.83 51.33
-5 2 -4 2019.65 52.53
5 -2 4 2062.4 53.14
5 2 5 93.43 4.19
5 2 5 98.89 4.64
5 -2 5 99.06 4.76
-5 -2 -5 100.66 3.62
-5 2 -5 91.89 4.31
5 -2 6 1977.8 52.6
-5 2 -6 1925.22 52.01
-5 -2 -6 2073.6 51.09
5 2 6 1903.78 52.36
5 2 6 1862.7 51.63
5 -2 7 575.92 16.54
5 2 7 527.98 16.24
-5 2 -7 531.26 16.12
5 2 7 521.55 16.24
5 -2 7 525.91 16.36
5 2 8 9.13 1.52
5 -2 8 6.14 1.47
5 2 8 8.4 1.46
5 -2 8 7.13 1.49
-5 2 -8 6.71 1.28
5 2 9 192.47 7.52
5 -2 9 196.78 7.68
5 2 9 179.5 7.38
5 -2 9 186.24 7.57
5 2 10 1032.98 28.95
5 -2 10 1056.58 29.23
5 -2 10 1051.2 29.13
5 2 10 978.89 29.2
5 2 10 1027.75 28.94
5 2 10 971.9 28.51
5 -2 10 984.1 28.7
5 2 10 959.18 28.97
5 -2 10 1008.24 29.04
5 2 10 1014.51 28.59
5 2 11 55.66 3.62
5 2 11 64.9 4.1
5 -2 11 60.19 3.98
5 2 11 62.74 3.93
5 -2 11 51.71 4.14
5 2 11 57.02 4.06
5 2 11 60.95 3.73
5 -2 11 68.78 4.01
5 -2 11 60.34 3.94
5 2 11 62.55 4.07
5 -2 11 66.93 4.21
5 2 11 54.96 3.58
5 2 12 1687.06 45.86
5 -2 12 1685.25 46.11
5 -2 12 1656.28 46.68
5 2 12 1619.72 46.06
5 2 12 1608.01 45.28
5 -2 12 1637.17 45.55
5 2 12 1723.3 45.9
5 -2 12 1655.51 46.06
5 2 12 1600.37 45.22
5 2 12 1651.35 46.02
5 -2 12 1708.62 46
5 -2 13 345.07 13.11
5 2 13 342.88 12.67
5 2 13 332.08 11.87
5 -2 13 329.48 11.99
5 2 13 336.52 12.2
5 -2 13 336.45 12.4
5 2 13 328.84 11.77
5 2 13 336.32 12.47
5 -2 13 332.72 12.62
5 -2 14 137.02 7.59
5 2 14 124.07 6.78
5 2 14 127.61 6.19
5 -2 14 135.9 6.48
5 -2 14 131.46 6.64
5 2 14 119.19 6.53
5 -2 14 133.92 6.82
5 2 14 113.69 5.9
5 2 14 135.65 6.58
5 -2 15 214.78 10.08
5 2 15 192.84 8.82
5 2 15 196.76 8.24
5 -2 15 200.65 8.42
5 -2 15 197.3 8.7
5 2 15 182.71 8.41
5 2 15 193.8 8.74
5 -2 15 201.52 8.91
5 2 15 193.49 8.14
5 -2 16 423.08 14.8
5 -2 16 426.28 15.99
5 2 16 404.2 14.82
5 2 16 397.5 13.97
5 -2 16 428.37 14.37
5 2 16 394.22 14.12
5 2 16 407.36 14.53
5 2 16 397.83 14.7
5 -2 16 422.89 15
5 2 16 406.76 13.93
5 2 17 15.5 2.42
5 -2 17 19.32 2.72
5 2 17 25.34 3.29
5 2 17 27.13 2.77
5 -2 17 25.27 2.8
5 -2 17 26.61 3.94
5 2 17 19.24 2.72
5 2 17 20.82 3.05
5 -2 17 18.47 2.89
5 2 17 24.03 2.7
5 2 18 799.28 25.53
5 2 18 823.16 25.66
5 2 18 816.77 24.59
5 -2 18 850.36 24.92
5 -2 18 834.81 25.71
5 2 18 820.11 24.57
5 2 18 802.61 24.78
5 2 19 172.49 7.69
5 2 19 176.11 8.36
5 2 19 183.99 8.47
5 -2 19 177.96 8.37
5 2 19 167.59 7.45
5 2 20 128.83 6.89
5 2 20 123.31 6.11
5 2 20 126.35 6.72
5 -2 20 124.26 6.7
5 2 20 122.65 5.95
5 2 21 1.27 1.87
5 2 21 0.58 1.38
5 2 21 2.03 1.82
5 -2 21 1.44 1.79
5 2 22 144.33 7.02
5 -2 22 143.57 6.98
5 2 22 153.22 6.47
5 -2 23 29.79 3.08
5 -2 24 555.93 17.38
5 3 -27 82.19 3.75
5 -3 -27 85.26 3.88
-5 -3 27 80.86 4.02
-5 3 27 84.17 3.88
-5 -3 27 83.54 4.02
-5 -3 27 85.48 4.18
5 3 -26 1.08 1.14
5 -3 -26 0.73 1.16
-5 3 26 1.13 1.21
-5 -3 26 0.87 1.29
-5 3 26 -0.11 1.01
-5 -3 26 -0.73 1.18
-5 3 25 0.82 1.25
-5 -3 25 -1.78 1.55
-5 3 24 0.15 1.51
-5 -3 24 -0.83 1.83
-5 3 24 -0.48 1.4
-5 -3 24 1.05 1.51
-5 -3 23 307.6 11.8
-5 3 23 300.64 11.38
-5 -3 22 92.89 5.7
-5 3 22 83.14 5.29
-5 3 22 82.63 5.09
-5 -3 21 113.68 6.61
-5 3 21 122.95 6.57
-5 3 21 116.16 6.23
-5 3 20 7.36 2.02
-5 3 20 7.33 2.14
-5 3 20 12.44 2.23
-5 -3 20 12.69 2.55
5 -3 -20 5.18 1.84
-5 -3 20 11.32 2.56
-5 3 20 7.77 1.71
5 3 -20 11.79 2.3
-5 3 19 4.29 1.91
-5 3 19 3.34 2
-5 -3 19 5.32 2.34
-5 3 19 5.82 2.04
-5 -3 19 6.57 2.36
5 -3 -19 5.9 1.83
-5 3 19 3.46 1.44
5 3 -19 4.12 1.66
-5 3 18 8.14 2.04
-5 -3 18 12.28 2.56
-5 3 18 10.19 2.28
-5 3 18 12.11 2.24
5 3 -18 9.5 2.03
-5 -3 18 11.94 2.67
-5 3 17 676.86 21.06
-5 3 17 641.24 20.86
-5 3 17 612.79 21.76
-5 -3 17 638.96 22.34
5 3 -17 682.88 21.34
-5 -3 17 681.06 21.88
-5 3 16 91.47 5.62
-5 3 16 88.35 5.49
-5 3 16 87.12 6.11
-5 -3 16 93.05 6.45
5 3 -16 110.91 5.91
-5 -3 16 103.03 6.24
-5 -3 16 95.58 6.27
-5 3 16 89.7 5.88
-5 3 15 92.43 5.17
-5 3 15 82.78 4.98
5 -3 -15 74.98 4.69
5 3 -15 93.68 5.52
-5 -3 15 82.02 5.37
-5 -3 15 92.75 5.98
-5 3 15 82.45 5.52
5 -3 -14 16.71 2.31
-5 3 14 17.44 2.29
-5 -3 14 21.1 2.94
-5 3 14 20.5 2.77
-5 3 14 18.79 2.47
5 3 -14 24.42 2.6
-5 -3 14 17.38 2.67
-5 -3 13 6.5 1.91
-5 3 13 3.55 1.54
-5 3 13 3.12 1.35
5 -3 -13 0.8 1.25
-5 3 13 1.62 1.33
5 3 -13 2.09 1.33
-5 -3 13 2.28 1.56
-5 3 13 3.53 1.59
5 3 -12 144.58 6.5
-5 -3 12 139.14 7.07
-5 3 12 138.36 6.81
-5 3 12 139.53 6.59
-5 -3 12 124.81 6.37
5 3 -11 1904.64 52.58
-5 3 11 1964.8 53.34
5 3 -11 1982.61 52.88
-5 -3 11 1959.82 53.71
-5 3 11 2029.47 53.07
5 3 -11 1873.63 51.62
5 3 -10 137.66 6.06
5 -3 -10 126.38 5.94
5 3 -10 137.83 6.08
-5 3 10 117.99 5.82
5 3 -10 129.03 5.35
5 3 -9 167.3 6.92
5 -3 -9 162.9 6.88
5 3 -9 171.09 6.97
-5 3 9 171.97 7.02
5 3 -9 159.95 6.28
5 3 -8 114.6 5.5
5 -3 -8 117.82 5.5
5 3 -8 119.24 5.56
-5 3 8 116.43 5.47
5 3 -8 124.59 5.11
5 3 -7 67.75 3.97
5 -3 -7 65.25 3.91
5 3 -7 64.23 3.83
-5 3 7 71.23 4
5 3 -7 65.91 3.5
5 3 -6 225.45 8.21
5 -3 -6 204.67 7.93
5 3 -6 202.21 7.97
5 -3 -6 202.93 7.94
5 3 -6 206.46 7.81
-5 3 6 203.63 7.76
5 3 -6 193.64 7.27
5 3 -5 2946.32 75.59
5 -3 -5 2961.55 75.57
5 3 -5 2731.66 75.31
5 -3 -5 2897.53 75.56
5 3 -5 2843.54 75.09
-5 3 5 2907.99 75.22
5 3 -5 2931.2 74.92
5 -3 -5 2786.65 73.44
5 3 -4 22.45 2.24
5 -3 -4 19 2.2
5 3 -4 22.07 2.2
5 -3 -4 18.38 2.07
5 -3 -4 17.76 1.12
5 3 -4 22.84 2.05
-5 3 4 18.33 1.98
5 3 -4 22.61 2.03
5 3 -3 433.29 13.77
5 -3 -3 420.25 13.87
5 3 -3 438.98 13.45
5 -3 -3 454.01 14.01
-5 3 3 444.35 13.66
5 3 -3 457.67 13.93
5 3 -3 463.91 13.97
5 -3 -2 8.11 1.45
5 3 -2 12.02 1.62
-5 3 2 13.22 1.65
-5 3 1 50.67 2.94
-5 3 0 102.55 4.57
5 3 0 106.04 4.77
5 3 1 2915.14 74.46
5 3 1 2847.32 74.23
5 -3 1 2941.09 74.49
-5 3 -1 2692.69 74.01
5 3 2 312.03 10.03
5 3 2 307.45 10.09
5 -3 2 302.38 10.16
-5 3 -2 305.7 10
5 3 3 2290.28 60.92
5 3 3 2329.13 60.99
5 -3 3 2345.17 61.18
-5 3 -3 2283.88 60.82
5 3 4 286.41 9.78
5 -3 4 291.35 9.96
-5 3 -4 286.36 9.71
5 3 4 304.31 9.77
5 3 5 10.86 1.45
5 3 5 9.03 1.45
-5 3 -5 12.45 1.62
5 -3 5 7.67 1.53
5 3 6 126.6 5.54
5 3 6 122.62 5.23
-5 3 -6 137.68 5.63
5 3 6 124.47 5.39
5 -3 6 130.28 5.62
-5 3 -7 1231.66 34.41
5 3 7 1206.08 33.92
5 3 7 1268.33 34.42
5 -3 7 1290.91 34.67
5 3 8 47.63 3.19
5 -3 8 56.12 3.52
5 3 8 49.87 3
5 3 8 52.46 3.26
-5 3 -8 55.76 3.47
5 -3 8 61.4 3.63
5 -3 9 1342.51 36.51
5 3 9 1283.19 36.22
5 -3 9 1312.16 36.55
5 -3 9 1337.51 36.95
5 3 9 1248.4 36.78
5 3 9 1312.19 36.21
-5 3 -9 1319.47 36.49
5 3 10 101.76 5.19
5 -3 10 107.82 5.46
5 3 10 105.99 5.18
5 3 10 100.82 5.52
5 3 10 103.87 5.04
5 -3 10 112.93 5.31
5 -3 10 109.11 5.67
5 -3 10 115.64 5.49
5 3 10 102.49 5.49
5 -3 10 107.89 5.45
-5 3 -10 106.56 5.32
5 3 11 3.53 1.35
5 -3 11 2.06 1.3
5 3 11 2.59 1.17
5 -3 11 3.63 1.3
5 -3 11 3.56 1.76
5 3 11 4.81 1.68
5 3 11 3.85 1.28
5 -3 11 3.86 1.34
5 3 11 1.39 0.99
5 -3 11 2.41 1.51
5 3 11 1.81 1.34
5 -3 11 1.9 1.45
-5 3 -11 4.72 1.43
5 3 12 2.76 1.3
5 3 12 3.99 1.63
5 -3 12 6.45 2.16
5 -3 12 1.78 1.69
5 3 12 1.25 1.74
5 3 12 1.75 1.17
5 -3 12 2.01 1.91
5 -3 12 4.92 1.52
5 3 12 2.08 1.55
5 -3 12 1.52 1.46
5 -3 13 575.17 19.52
5 3 13 551.17 18.6
5 3 13 567.78 17.83
5 -3 13 586.58 18.18
5 3 13 570.4 18.2
5 -3 13 591.74 18.53
5 -3 13 580.98 18.96
5 3 13 570.1 18.65
5 -3 13 587.59 18.73
5 3 13 560.04 17.92
5 3 13 535.91 17.58
5 3 14 0.69 1.39
5 -3 14 0.9 1.49
5 -3 14 3.07 2.69
5 3 14 1.52 2.11
5 -3 14 0.8 1.75
5 3 14 2.39 1.59
5 -3 14 0.61 2.02
5 3 14 1.78 1.77
5 3 14 1.7 2.2
5 -3 14 4.13 2.37
5 3 14 0.62 1.64
5 3 15 1359.85 39.91
5 3 15 1403.6 39
5 -3 15 1410.6 39.33
5 -3 15 1343.76 39.67
5 -3 15 1440.72 40.5
5 3 15 1395.76 40.03
5 -3 15 1436.35 40.2
5 3 15 1427.18 39.27
5 3 15 1389.78 39.6
5 3 15 1334.19 38.86
5 3 16 56.16 4.12
5 3 16 56.44 4.36
5 3 16 50.38 4.29
5 3 16 58.8 3.94
5 -3 16 54.07 3.96
5 3 16 49.42 3.75
5 -3 16 51.66 4.41
5 -3 16 51.37 4.09
5 -3 16 53.12 4.33
-5 3 -16 49.56 4.24
5 3 16 51.43 3.8
5 3 17 68.71 4.25
5 -3 17 68.23 4.43
5 3 17 63.43 4.16
5 -3 17 64.44 4.9
5 3 17 60.02 4.38
5 -3 17 67.69 4.75
5 3 17 62.42 4.69
5 -3 17 60.89 4.63
-5 3 -17 66.81 4.8
5 3 17 58.67 4.13
5 3 18 30.75 2.95
5 -3 18 28.93 3.52
5 3 18 30.09 3.4
5 -3 18 34.36 3.58
5 3 18 34.8 3.17
5 3 19 298.51 10.84
5 -3 19 304.73 11.95
5 3 19 313.39 11.95
5 -3 19 310.87 11.91
5 3 19 289.54 10.95
5 3 20 7.1 1.77
5 -3 20 7.74 2.23
5 -3 20 7.64 2.21
5 3 20 9.22 2
5 -3 21 1007.74 29.1
5 -3 21 946.15 28.8
5 -3 22 34.99 3.24
5 -3 22 30.1 3.01
5 -3 23 55.79 3.81
5 -3 23 51.79 3.74
5 -3 24 0.61 1.55
-5 -4 26 1.08 1.13
5 4 -26 2.48 1.05
5 -4 -26 2.3 1.1
-5 4 26 2.48 0.94
-5 -4 26 2.69 1.1
-5 -4 26 1.19 1.28
5 4 -25 207.07 7.44
5 -4 -25 221.96 7.72
-5 -4 25 222.98 8.49
-5 4 25 219.94 7.85
-5 -4 25 212.98 8.07
-5 4 25 186.51 7.49
-5 -4 25 189.01 7.73
-5 -4 24 6.44 2.08
-5 4 24 4.49 1.42
-5 -4 24 6.08 1.77
-5 4 23 15.89 2.33
-5 4 23 19.2 2.34
-5 -4 23 20.32 2.71
-5 4 23 19.02 2.29
-5 -4 23 19.15 2.92
-5 -4 23 18.25 2.43
-5 -4 22 36.02 3.44
-5 -4 22 32.16 3.59
-5 4 22 37.31 3.33
-5 4 22 36.47 3.39
-5 -4 21 42.54 3.91
-5 -4 21 45.71 4.18
-5 4 21 41.81 3.59
-5 4 21 41.59 3.61
-5 4 20 5.16 1.84
-5 4 20 6.83 1.85
-5 -4 20 7.24 2.26
-5 -4 20 4 2.18
-5 4 19 122.94 6.47
-5 4 19 114.03 7.01
-5 -4 19 117.31 7.45
-5 4 19 124.41 6.72
-5 -4 19 141.25 7.5
-5 4 19 129.35 6.72
-5 -4 19 122.68 6.93
-5 4 18 24.84 2.98
-5 4 18 27.36 3.22
-5 4 18 22.03 3.31
-5 -4 18 24.65 3.79
-5 4 18 25.4 3.1
-5 -4 18 31.46 3.47
-5 -4 18 29.17 3.69
-5 4 17 3.79 1.85
-5 -4 17 8.12 2.58
-5 4 17 1.92 1.89
-5 4 17 6.95 1.92
-5 -4 17 6.43 2.11
-5 -4 17 2.97 2.38
-5 4 17 5.32 2.22
-5 4 16 1.76 1.93
-5 4 16 4.3 2.42
5 -4 -16 4.75 2.36
-5 4 16 4.53 1.96
-5 -4 16 4.31 2.31
-5 -4 16 -0.45 2.88
5 4 -16 0.2 1.83
-5 4 15 442.9 15.24
-5 4 15 455.01 15.47
-5 4 15 441.62 16.09
-5 -4 15 413.15 16.46
5 -4 -15 406.34 14.67
5 4 -15 474.27 15.68
-5 -4 15 462.45 16.13
-5 -4 15 448.31 16.35
-5 4 15 426.74 15.73
-5 4 14 131.06 6.28
-5 4 14 133.11 6.5
5 -4 -14 108.55 6
5 4 -14 118.61 6.04
5 4 -14 120.45 6.58
-5 4 14 126.66 6.8
-5 -4 14 126.05 6.81
-5 -4 14 124.54 7
-5 4 14 133.31 6.91
-5 4 13 656.88 20.29
-5 4 13 671.35 20.52
5 -4 -13 622.91 20.6
5 4 -13 655.1 20.3
5 -4 -13 676.26 20.61
5 4 -13 699.82 20.99
-5 4 13 643.48 20.74
-5 -4 13 636.22 21
-5 -4 13 663.99 21.73
-5 4 13 653.43 21.21
-5 4 12 325.73 11.76
-5 4 12 326.04 11.69
5 4 -12 345.99 11.93
5 -4 -12 354.25 12.09
5 -4 -12 318.37 12.28
5 4 -12 376.46 12.59
-5 4 12 322.51 12.1
-5 -4 12 367.58 13.26
-5 4 12 342.91 12.6
-5 -4 12 340.47 12.44
5 4 -12 304.86 11.19
5 4 -11 153.4 6.68
5 -4 -11 161.73 6.93
5 4 -11 162.35 7.26
-5 -4 11 151.96 7.44
-5 4 11 156.87 7.21
-5 4 11 171.94 7.32
5 -4 -11 146.56 7.36
-5 -4 11 139.83 6.88
5 4 -11 146.42 6.37
5 4 -10 345.29 12.09
5 -4 -10 359.74 12.24
5 4 -10 367.9 12.74
-5 -4 10 374.04 13.07
-5 4 10 354.1 12.6
-5 4 10 367.53 12.57
5 4 -10 350.22 11.94
5 4 -9 751 22.74
5 -4 -9 816.61 23.02
5 4 -9 781.18 23.32
-5 4 9 771.39 23.14
5 4 -9 751.31 22.53
5 4 -8 207.75 8.2
5 -4 -8 225.5 8.41
5 4 -8 203.94 8.4
-5 4 8 221.52 8.49
5 4 -8 218.62 8.13
5 4 -7 566.23 17.06
5 -4 -7 535.55 16.84
5 4 -7 513.09 16.76
5 -4 -7 565.49 17.04
5 4 -7 534.19 17.01
-5 4 7 542.59 17.02
5 4 -7 561.18 16.77
5 4 -6 17.92 2.05
5 4 -6 15.27 1.97
5 -4 -6 15.98 2.07
-5 4 6 16.54 2
5 -4 -6 14.12 1.91
5 4 -6 14.99 1.95
5 4 -6 15.22 1.86
5 4 -5 275.04 10.02
5 -4 -5 289.52 10.27
5 4 -5 326.14 10.49
5 -4 -5 290.95 10.25
5 4 -5 290.98 10.25
-5 4 5 298.44 10.32
5 4 -5 293.27 10.14
5 4 -4 585.17 18.62
5 -4 -4 601.41 18.85
5 4 -4 632.68 18.9
5 4 -4 667.17 18.96
5 -4 -4 658.61 19.07
-5 4 4 664.19 19.12
5 4 -4 646.75 19.1
5 4 -3 986.62 27.98
5 -4 -3 1036.92 28.3
-5 4 3 1009.35 28.24
5 4 -3 978.03 28.48
-5 4 2 465.15 14.62
5 4 -2 483.35 15.2
5 4 -1 261.09 8.95
-5 4 1 233.35 8.55
5 -4 0 552.2 16.79
5 4 0 577.1 17.16
-5 4 0 576.45 16.99
-5 4 -1 730.14 21.32
5 4 1 725.97 21.05
5 -4 1 755.14 21.33
5 4 1 756.39 21.56
5 4 2 384.04 12.11
5 4 2 379.45 11.76
5 -4 2 356.79 11.83
-5 4 -2 369.16 11.93
5 -4 3 1232.45 34.76
-5 4 -3 1305.44 34.94
5 4 3 1238.51 34.78
5 4 3 1296.06 34.67
5 4 4 660.89 19.16
-5 4 -4 690.89 19.4
5 4 4 644.97 18.96
5 4 5 7.71 1.38
5 4 5 10.12 1.51
5 -4 5 9.22 1.51
5 4 5 9.28 1.46
-5 4 -5 10.92 1.6
-5 4 -6 868.79 24.26
5 4 6 820.88 23.86
5 4 6 838.7 23.79
5 -4 6 812.97 23.97
5 -4 7 1165.23 32.61
5 4 7 1154.78 32.34
-5 4 -7 1174.88 32.79
5 4 7 1174.04 32.37
5 4 8 506.26 15.87
5 -4 8 518.01 16.17
-5 4 -8 542.79 16.51
5 4 8 510.19 15.98
5 -4 8 509.45 16.56
5 4 8 507.42 15.75
5 4 9 391.24 12.78
5 -4 9 397.91 13.08
5 4 9 374.66 13.39
5 4 9 372.28 12.43
5 -4 9 399.87 12.86
5 -4 9 406.99 13.08
-5 4 -9 401.41 13.3
5 4 9 357.77 12.27
5 4 9 383.84 12.8
5 -4 9 386.44 13.42
5 4 10 391.26 13
5 -4 10 381.88 13.17
5 4 10 365.82 13.44
5 4 10 357.39 12.49
5 -4 10 403.52 13.04
5 -4 10 400.9 13.28
5 -4 10 379.59 13.54
-5 4 -10 400.95 13.48
5 4 10 403.98 13.08
5 -4 10 398.66 13.72
5 4 11 27.44 3.13
5 4 11 21.82 2.27
5 -4 11 22.99 2.48
5 -4 11 23.86 2.61
5 -4 11 22.21 2.9
5 4 11 22.75 2.34
5 -4 11 19.04 2.45
5 -4 11 19.85 2.51
-5 4 -11 20.53 2.93
5 4 11 26.32 2.68
5 -4 12 411.83 14.74
5 4 12 412.64 13.64
5 -4 12 426.06 13.95
5 4 12 415.16 13.89
5 -4 12 419.54 14.25
5 4 12 413.96 14.47
5 -4 12 391.06 14.33
-5 4 -12 416.27 14.53
5 4 12 398.8 13.78
5 4 13 620.31 19.23
5 4 13 609.08 18.75
5 -4 13 640.25 19.22
5 -4 13 583.46 19.23
5 -4 13 598.24 20.05
5 4 13 607.25 19.74
5 -4 13 625.91 19.72
-5 4 -13 625.07 19.9
5 4 13 579.81 18.99
5 4 14 466.05 16.05
5 4 14 418.3 14.5
5 4 14 465.26 15.53
5 4 14 465.75 15.05
5 -4 14 477.63 15.43
5 -4 14 472.11 15.81
5 -4 14 479.74 16.52
5 -4 14 467.96 15.96
-5 4 -14 487.75 16.31
5 4 15 75.9 4.37
5 4 15 79.47 4.6
5 -4 15 92.04 5.11
5 -4 15 90.11 5.77
5 4 15 86.82 5.09
5 -4 15 84.83 5.25
5 4 15 90.34 5.48
5 -4 15 88.58 5.44
-5 4 -15 92.34 5.67
5 4 16 323.33 11.52
5 -4 16 341.31 11.99
5 4 16 325.37 12.08
5 -4 16 345.35 12.5
5 -4 16 365.15 13.34
5 -4 16 348.85 12.75
-5 4 -16 344.34 12.93
5 4 17 42.11 3.06
5 -4 17 43.24 4.04
5 -4 17 45.08 3.91
5 -4 18 414.7 14.71
5 -4 18 424.05 15.11
5 4 18 406.59 14.06
5 -4 19 205.57 9
5 4 19 214.43 8.58
5 -4 19 209.65 9.3
5 4 20 269.46 10.59
5 -4 20 288.64 11.07
5 -4 20 280.79 10.77
5 4 20 271.7 10.13
5 4 21 9.42 2.18
5 -4 21 7.51 2.06
5 -4 21 6.12 1.88
5 4 22 213.3 8.43
5 -4 22 216.52 8.64
5 -4 22 230.72 8.93
5 4 23 99.11 4.87
5 -4 23 102.15 5.15
5 -4 23 89.78 4.78
-5 -5 26 -0.55 0.83
-5 -5 26 -0.95 1.36
5 5 -25 1.11 0.88
-5 -5 25 1.85 1.01
-5 -5 25 1.95 1.12
-5 -5 25 4.56 1.5
-5 5 24 0.12 1.22
5 5 -24 1.48 1.08
-5 -5 24 1.98 1.39
-5 -5 24 4.03 1.25
-5 -5 24 0.15 1.54
5 5 -23 85.37 4.29
5 -5 -23 93.32 4.48
-5 -5 23 95.79 5.47
-5 5 23 77.99 4.38
-5 -5 23 81.7 4.69
-5 5 23 92.11 4.8
5 5 -22 98.15 4.8
-5 5 22 103.74 5.11
-5 -5 22 105.01 5.47
-5 -5 22 96.26 5.81
-5 5 22 87.69 4.97
-5 -5 22 91.51 5.35
-5 5 22 100.32 5.31
-5 5 21 279.98 10.7
-5 5 21 279.87 10.48
-5 -5 21 292.68 11.67
-5 -5 21 275.53 10.88
-5 5 20 2.56 1.67
-5 5 20 1 1.33
-5 -5 20 1.74 1.79
-5 -5 20 0.22 2.05
-5 5 19 96.85 5.66
-5 5 19 110.94 6.21
-5 -5 19 102.5 6.51
-5 5 19 118.72 6.04
-5 -5 19 108.59 6.24
-5 5 18 18.85 2.64
-5 5 18 23.21 2.97
-5 5 18 18.06 2.89
-5 5 18 21.32 2.63
-5 -5 18 18.72 2.89
-5 -5 18 18.98 3.17
5 -5 -18 15.68 2.58
-5 5 17 50.16 4
-5 5 17 59.69 4.51
-5 5 17 46.77 4.34
-5 -5 17 50.7 4.84
5 5 -17 55.4 4.12
5 -5 -17 59.93 4.38
-5 5 17 52.53 4.08
-5 -5 17 54.02 4.46
-5 -5 17 53.52 4.72
-5 5 16 109.32 5.82
-5 5 16 106.93 6.02
-5 5 16 88.57 5.9
-5 -5 16 93.11 6.54
5 -5 -16 93.61 5.52
5 5 -16 85.4 5.29
5 -5 -16 104.28 5.86
-5 -5 16 103.23 6.34
-5 5 16 108.22 5.97
-5 -5 16 106.22 6.64
-5 5 15 431.44 14.87
-5 5 15 468.28 15.56
-5 5 15 404.69 15.34
-5 -5 15 405.58 15.87
5 5 -15 431.72 14.66
5 -5 -15 458.01 15.15
5 -5 -15 430.79 14.91
-5 -5 15 420.01 15.94
-5 5 14 140.54 7.21
-5 5 14 141.61 7.13
-5 5 14 136.61 7.2
-5 -5 14 133.98 7.88
5 5 -14 136.36 6.6
5 -5 -14 135.21 6.61
-5 5 14 130.68 6.95
-5 -5 14 146.18 7.75
-5 -5 14 135.44 7.37
-5 5 14 133.35 6.9
5 -5 -14 142.76 7.21
-5 5 13 487.85 15.75
-5 5 13 452.55 15.32
-5 5 13 455.19 15.91
5 5 -13 436.26 14.88
5 -5 -13 480.55 15.38
-5 -5 13 480.7 16.42
5 -5 -13 446.19 15.83
5 5 -13 465 16.09
-5 5 13 442.38 15.71
-5 -5 13 468.35 16.4
-5 5 13 458.78 15.83
5 5 -13 417.86 14.85
-5 5 12 21.54 2.6
-5 5 12 20.67 2.41
5 -5 -12 18.16 2.19
5 5 -12 22.02 2.35
5 -5 -12 20.87 2.41
5 -5 -12 23.44 3.04
5 5 -12 28.69 3.11
-5 5 12 24.56 2.84
-5 -5 12 21.15 2.94
-5 -5 12 24.72 3.05
-5 5 12 20.02 2.58
5 5 -12 23.41 2.53
-5 5 11 82.34 4.79
-5 5 11 78.51 4.57
5 5 -11 87.54 4.67
5 -5 -11 87.12 4.74
5 -5 -11 76.25 5.38
5 5 -11 88.49 5.2
-5 5 11 93.95 5.19
-5 -5 11 95.54 5.61
-5 5 11 82.54 5.03
-5 -5 11 75.42 4.96
5 5 -11 77.68 4.65
5 5 -10 155.66 6.72
5 -5 -10 171.38 6.99
5 -5 -10 150.96 7.79
5 5 -10 168.43 7.48
-5 -5 10 155.61 7.4
-5 5 10 145.75 6.93
-5 5 10 170.94 7.42
-5 -5 10 143.39 7.06
5 5 -10 156.92 6.98
-5 5 9 708.15 21.39
5 5 -9 716.3 21.15
5 -5 -9 695.73 21.08
5 5 -9 690.06 21.74
5 5 -9 685.43 20.99
5 -5 -9 707.34 21.17
5 -5 -9 688.01 22.68
-5 -5 9 712.49 21.88
-5 5 9 714.46 21.72
5 5 -9 724.39 21.5
5 5 -8 54.35 3.52
5 -5 -8 54.07 3.51
5 5 -8 50.65 3.42
5 -5 -8 54.97 3.6
-5 5 8 61.01 3.98
5 5 -8 51.22 3.77
5 5 -8 61.07 3.83
5 -5 -7 1527.75 40.72
5 5 -7 1537.37 40.62
5 -5 -7 1448.99 40.49
-5 5 7 1528.82 41.17
5 5 -7 1448.43 41.08
5 5 -7 1543.17 41.06
5 5 -6 120.77 5.39
5 -5 -6 113.46 5.43
5 5 -6 126.62 5.5
-5 5 6 122.57 5.85
5 5 -6 118.69 5.83
5 5 -6 111.54 5.59
5 -5 -6 119.86 5.5
5 5 -5 3.79 1.3
5 5 -5 1.47 1.03
5 -5 -5 -0.13 1.08
-5 5 5 2.13 1.25
5 5 -5 0.58 0.83
5 -5 -5 1.98 1.05
5 5 -5 0.28 1.05
5 5 -4 109.85 4.77
-5 5 4 106.36 5.21
5 -5 -4 93.91 4.66
5 5 -4 95.32 5.08
5 5 -3 216.76 8.49
-5 5 3 218.49 8.39
5 5 -3 233.58 8.9
-5 5 2 222.73 8.54
5 5 -2 240.87 9.19
5 5 -1 2211.81 57.34
5 -5 -1 2119.22 57.46
-5 5 1 2153.52 58.08
5 5 -1 2225.71 59.15
5 5 0 28.1 2.13
5 -5 0 31.9 2.29
-5 5 0 27.79 2.45
5 5 0 29.38 2.6
5 5 1 2.28 0.9
5 5 1 5.11 1.37
5 -5 1 3.15 1.06
-5 5 -1 1.48 1.08
5 5 2 56.79 3.47
5 5 2 57.06 3.1
5 -5 2 50.61 3.09
-5 5 -2 48.69 3.26
5 5 3 17.6 2.04
5 5 3 21.57 1.9
-5 5 -3 16.63 2.07
5 -5 3 19.76 1.97
-5 5 -4 272.26 9.81
5 5 4 279.69 9.77
5 5 4 280.21 9.19
5 -5 4 258.27 9.21
5 5 5 3579.15 91.03
-5 5 -5 3522.13 91.17
5 5 5 3561.04 90.32
5 -5 5 3252.59 90.33
5 5 6 139.56 5.71
5 -5 6 130.8 5.8
-5 5 -6 142.28 6.37
5 5 6 130.3 5.84
5 5 6 138.33 6.05
5 5 7 15.32 1.79
5 -5 7 14.51 2.23
5 -5 7 11.78 1.75
5 5 7 12.7 1.81
-5 5 -7 16.91 2.13
5 -5 7 13.64 2.29
5 5 7 17.42 2.05
5 5 8 14.15 1.79
5 5 8 14.92 1.87
5 -5 8 11.53 1.76
5 -5 8 15.71 2.26
5 -5 8 13.25 2.32
-5 5 -8 13.28 2.05
5 5 8 11.25 1.81
5 5 9 44.65 3.17
5 5 9 44.65 3.15
5 -5 9 45.09 3.33
5 -5 9 45.64 3.64
5 -5 9 44.68 3.18
5 -5 9 39.13 3.67
-5 5 -9 46.65 3.74
5 5 9 42.88 3.25
5 5 10 115.69 5.33
5 -5 10 125.2 5.67
5 -5 10 105.6 5.53
5 -5 10 113.69 6.25
5 -5 10 121.37 6.49
-5 5 -10 115.42 6.22
5 5 10 126.05 6.03
5 5 10 109.59 5.33
5 5 11 1418.87 41.02
5 5 11 1480.44 41.11
5 -5 11 1594.93 41.73
5 -5 11 1551.47 42.85
5 -5 11 1522.28 41.97
5 -5 11 1435.97 42.69
-5 5 -11 1537.83 42.61
5 5 11 1522.43 41.86
5 5 12 27.19 2.61
5 -5 12 33.25 3.02
5 -5 12 31.74 3.66
5 -5 12 30.15 3.14
5 -5 12 29.58 3.28
-5 5 -12 30.14 3.35
5 5 12 29.8 3.03
5 5 13 371.06 12.58
5 -5 13 378.9 12.95
5 -5 13 396.35 14.22
5 -5 13 393.41 13.59
5 -5 13 352.29 13.56
-5 5 -13 394.75 14.02
5 5 13 372.19 13.12
5 5 14 0.76 1.79
5 5 14 0.93 1.24
5 -5 14 1.05 1.35
5 -5 14 -0.62 1.77
5 -5 14 1.25 1.61
5 -5 14 2.78 1.6
-5 5 -14 1.02 1.31
5 5 14 1.3 1.42
5 5 15 1.24 1.11
5 5 15 -0.56 1.76
5 -5 15 1.5 1.35
5 -5 15 2.52 2.07
5 -5 15 -0.18 1.49
5 5 15 1.07 1.23
-5 5 -15 1.04 1.45
5 5 15 4.4 1.73
5 5 16 70.79 4.17
5 5 16 78.86 5.11
5 -5 16 78.82 5.01
5 5 16 74.75 4.75
5 5 17 824.92 24.73
5 -5 17 833.55 24.71
5 5 17 813.96 24.23
5 -5 17 840.37 25.3
5 5 18 3.76 1.94
5 -5 18 3.32 2
5 -5 18 3.97 1.86
5 -5 19 269.62 10.44
5 5 19 269.8 10.49
5 -5 19 292.04 11.11
5 -5 20 9.98 2.27
5 5 20 8.97 2.01
5 -5 20 9.94 1.99
5 5 21 1.45 1.49
5 -5 21 1.07 1.51
5 -5 21 -0.14 1.29
5 -5 22 45.77 3.41
5 5 22 43.82 3.13
5 -5 22 44.41 3.16
-5 -6 25 13.58 1.99
-5 -6 24 87.87 4.64
-5 6 24 77.24 3.99
-5 -6 23 61.31 4.16
-5 6 23 58.7 3.65
-5 6 22 9.86 1.87
-5 -6 22 7.29 2.16
-5 6 21 167.18 7.37
-5 -6 21 184.45 8.39
-5 6 20 49.56 3.87
-5 6 20 49.36 3.97
-5 -6 20 58.73 4.68
-5 6 19 39.91 3.53
-5 6 19 45.58 3.89
5 -6 -19 38.73 2.94
-5 -6 19 45.58 4.15
-5 6 19 42.16 3.21
-5 6 18 290.15 10.89
-5 6 18 297.26 11.26
5 -6 -18 267.39 9.87
-5 6 18 254.64 10.09
-5 -6 18 292.71 11.94
-5 6 17 13.31 2.38
-5 6 17 15.63 2.62
5 -6 -17 15.57 2.15
-5 6 17 17.23 2.15
5 6 -17 10.92 2.23
-5 -6 17 17.46 3.12
-5 6 16 148.15 7.1
-5 6 16 162.44 7.61
5 -6 -16 129.69 6.19
5 -6 -16 153.81 7.05
-5 6 16 144.92 6.72
-5 -6 16 143.82 7.95
-5 6 15 428.19 14.87
-5 6 15 436.79 15.22
-5 6 15 460.63 15.37
5 -6 -15 408.14 13.9
5 -6 -15 419.15 14.94
-5 -6 15 454.79 16.27
-5 6 14 216.09 9.36
-5 6 14 217.09 9.21
-5 -6 14 215.65 10.03
5 -6 -14 203.27 9.24
-5 6 13 84.38 5.25
-5 6 13 81.94 5.05
5 -6 -13 82.26 4.7
5 -6 -13 78.14 5.62
-5 -6 13 81.18 5.72
5 6 -13 78.38 4.9
-5 6 12 89.35 5.19
5 6 -12 78.75 4.44
-5 6 12 87.31 5.21
-5 6 12 74.27 4.79
5 -6 -12 81.69 4.62
-5 -6 12 80.74 6.13
5 -6 -12 94.52 6.34
-5 -6 12 66.52 4.83
5 6 -12 76.29 4.84
-5 6 11 87.96 4.99
-5 6 11 76.59 4.6
5 6 -11 73.59 4.18
5 -6 -11 76.74 4.41
5 -6 -11 71.55 5.39
-5 -6 11 70.39 4.99
-5 -6 11 76.6 4.85
5 6 -11 69.17 4.63
-5 6 10 406.02 13.59
-5 6 10 416.77 13.54
5 6 -10 389.3 13.05
5 -6 -10 404.25 13.29
5 -6 -10 374.97 14.03
5 6 -10 392.08 14.23
-5 -6 10 389.9 14.12
5 -6 -10 366.52 14.74
-5 -6 10 411.32 14.17
5 6 -10 396.26 13.93
-5 6 9 529.72 16.55
5 -6 -9 508.75 16.41
5 6 -9 501.03 16.19
5 6 -9 535.75 17.54
5 -6 -9 502.43 18.28
5 -6 -9 523.15 17.68
-5 -6 9 569.71 17.51
-5 -6 9 511.91 17.21
5 6 -9 536.64 17.32
5 -6 -8 18.04 2.1
5 -6 -8 12.35 2.6
5 6 -8 21.32 2.54
5 -6 -8 15.22 2.51
5 6 -8 13.63 1.8
5 6 -8 16.29 2.35
-5 -6 8 16.8 2.25
5 -6 -7 4.65 1.76
5 6 -7 7.93 1.71
5 -6 -7 7.25 1.5
5 6 -7 9.14 1.46
-5 -6 7 8.3 1.63
5 6 -7 7.74 1.75
5 6 -6 462.04 15.57
5 6 -6 465.98 14.49
5 6 -6 482.82 15.78
5 -6 -5 44.77 4.07
5 6 -5 39.37 3.33
5 6 -4 1033.78 29.23
5 -6 -4 987.1 30.13
5 6 -4 970.27 29.22
5 6 -3 659.6 20.21
5 6 -3 642.48 20.45
5 6 -2 21.65 1.81
5 6 -2 22.52 2.46
5 6 -2 27.23 2.84
5 6 -1 3.04 0.79
5 6 -1 0.19 1.23
5 6 0 336.8 10.81
5 6 0 366.72 13.16
5 6 1 137.8 6.28
5 6 1 138.8 5.39
-5 6 -1 133.74 6.22
5 6 2 1634.02 43.44
5 6 2 1556.79 41.99
-5 6 -2 1527.04 43.21
-5 6 -3 430.02 14.21
5 -6 3 410.46 15.05
5 6 3 440.74 14.27
5 6 4 213.06 8.39
5 -6 4 204.95 8.95
5 6 4 214.95 7.98
-5 6 -4 200.62 8.35
5 -6 4 212.08 9.3
5 6 5 4.72 1.51
5 -6 5 8.28 1.82
5 -6 5 2.24 1.5
5 -6 5 3.81 1.73
-5 6 -5 4.08 1.41
5 6 5 4.09 1.26
5 6 6 14.72 1.72
5 -6 6 18.24 2.39
5 6 6 20.52 2.33
5 -6 6 19.29 2.6
-5 6 -6 24.67 2.57
5 -6 6 16.17 2.68
5 6 6 13.66 1.93
5 6 7 170.22 6.57
5 -6 7 171.03 7.47
5 -6 7 145.5 7.45
5 -6 7 161.14 8.09
-5 6 -7 166.42 7.53
5 6 7 166.1 6.96
5 6 7 167.9 7.22
5 -6 8 1677.2 46.87
5 -6 8 1692.13 47.89
-5 6 -8 1741.88 47.09
5 -6 8 1558.49 46.86
5 6 8 1763.43 46.34
5 6 8 1676.45 46.37
5 6 9 240.06 9.14
5 -6 9 237.06 9.94
5 -6 9 216.53 9.45
-5 6 -9 248.87 9.83
5 -6 9 237.65 10.44
5 6 9 214.75 8.36
5 6 9 240.39 9.26
5 6 10 272.42 11.03
5 -6 10 286.86 11.05
5 -6 10 299.4 11.91
-5 6 -10 280.98 11.12
5 6 10 265.35 9.7
5 6 10 294.01 10.58
5 6 10 279.21 10.28
5 6 11 105.58 5.4
5 6 11 118.4 6.39
5 -6 11 120.61 6.56
5 -6 11 115.32 6.91
-5 6 -11 111.39 6.16
5 6 11 105.13 5.12
5 6 11 121.61 5.94
5 6 12 65.66 4.05
5 -6 12 75.81 4.38
5 6 12 70.64 4.85
5 -6 12 69.53 5.11
-5 6 -12 77 5.06
5 6 12 78.65 4.66
5 -6 12 78.15 5.13
5 -6 13 229.35 8.71
5 6 13 227.78 9.66
5 -6 13 234.05 9.98
5 -6 13 226.4 9.15
5 -6 13 220.86 9.88
-5 6 -13 232.98 9.87
5 6 13 233.27 9.25
5 6 14 1109.78 33.09
5 -6 14 1188.33 33.74
5 -6 14 1113.52 32.63
5 -6 14 1094.75 33.33
-5 6 -14 1139.6 33.59
5 6 14 1148.83 32.66
5 6 15 105.05 5.34
5 6 15 115.71 6.17
5 -6 15 112.22 6.39
5 -6 15 114.45 5.9
5 -6 15 105.63 6.06
5 6 15 114.92 5.93
5 6 16 293.87 10.7
5 6 16 312.23 11.7
5 -6 16 330.5 12.27
5 -6 16 316.33 11.51
5 6 16 297.95 11.23
5 6 17 73.9 4.19
5 6 17 78.83 4.92
5 -6 17 87.47 5.39
5 -6 17 75.44 4.7
5 6 17 76.49 4.63
5 6 18 80.44 4.34
5 6 18 77.05 4.81
5 -6 18 87.86 4.95
5 -6 18 100.75 5.61
5 6 18 98.23 5.14
5 6 19 91.54 5.01
5 -6 19 83.83 4.78
5 6 20 439.79 13.95
5 -6 20 455.75 14.53
5 6 21 8.89 1.74
5 -6 21 7.23 1.89
5 6 22 265.33 9.1
5 -6 22 280.05 9.64
-5 -7 24 76.09 3.92
-5 7 24 69.4 3.5
-5 -7 23 30.07 2.76
-5 7 23 27.3 2.29
-5 7 22 70.61 3.99
-5 -7 22 77.86 4.64
-5 7 21 2.77 1.49
-5 -7 21 2.94 1.7
-5 7 20 30.69 3.01
-5 -7 20 34.3 3.53
-5 7 19 3.74 1.75
-5 7 19 3.42 1.82
-5 -7 19 2.87 2.2
-5 7 18 229.46 9.41
-5 7 18 231.29 9.55
5 7 -18 228.28 8.85
-5 7 17 106.56 5.88
-5 7 17 122.67 6.27
-5 -7 17 121.52 6.97
5 7 -17 111.95 5.77
-5 7 16 185.86 8.13
5 7 -16 167.13 7.77
-5 7 16 173.03 8
5 7 -16 175.13 8.41
5 -7 -16 186.76 7.95
-5 -7 16 193.94 9.19
-5 7 15 38.85 3.53
-5 7 15 35.29 3.49
5 7 -15 28.83 3.38
5 -7 -15 35.34 3.53
-5 -7 15 30.18 3.69
-5 7 14 25.43 3.06
-5 7 14 24.55 2.99
-5 7 14 23.1 2.94
-5 -7 14 29.34 3.57
5 -7 -14 21.21 3.07
-5 7 13 60.39 4.38
-5 7 13 65.18 4.48
5 -7 -13 49.55 4.63
-5 7 13 57.02 4.35
-5 -7 13 61.42 4.93
5 7 -13 56.61 4.33
-5 7 12 381.41 13.33
-5 7 12 376.59 13.41
5 -7 -12 363.7 14.49
-5 7 12 359.4 13.52
-5 -7 12 378.96 14.36
5 7 -12 363.92 13.61
-5 7 11 588.24 18.31
-5 7 11 569.74 18.17
5 -7 -11 546.97 19.62
-5 7 11 559.8 18.54
-5 -7 11 562.37 19.09
5 7 -11 529.51 18.53
-5 7 10 200.23 8.2
-5 7 10 193.49 8.21
5 -7 -10 178.07 9.68
5 -7 -10 177.2 8.58
-5 7 10 193.7 8.61
-5 -7 10 196.01 9.12
5 7 -10 186.08 8.6
-5 7 9 152.07 6.64
5 -7 -9 124.61 8.28
5 -7 -9 137.84 7.31
-5 7 9 141.82 7.09
-5 -7 9 132.12 6.95
5 7 -9 145.8 7.22
-5 7 8 1.14 1.13
5 -7 -8 4.63 2.52
5 -7 -8 1.51 1.59
-5 -7 8 0.91 1.55
-5 7 8 5.14 2.39
5 7 -8 1.17 1.33
5 -7 -7 20.67 3.08
-5 7 7 21.6 2.79
5 7 -7 23.1 2.77
5 -7 -6 1066.68 32.61
5 -7 -6 1142.74 33.56
-5 7 6 1080.07 31.79
5 7 -6 1054.02 31.94
5 -7 -5 574.92 19.3
5 -7 -5 559.41 18.85
-5 7 5 506.81 17.57
5 7 -5 531.84 17.95
5 7 -4 102.66 5.6
5 -7 -4 99.56 6.37
5 -7 -4 96.9 6.16
-5 7 4 96.72 5.43
5 7 -4 93.9 5.61
5 7 -3 257.04 9.97
5 7 -3 260.75 10.22
5 -7 -3 256.44 11.1
-5 7 3 245.29 9.95
5 7 -3 264.88 10.65
5 7 -2 219.87 8.96
5 7 -2 222.37 9.11
5 7 -2 222.98 9.74
5 7 -1 37.89 3.16
5 7 -1 38.93 3.28
5 -7 -1 38.6 3.95
5 -7 -1 36.18 3.89
5 7 -1 39.94 3.75
5 -7 0 956.93 29.89
5 -7 0 912.92 29.59
5 7 0 1020.8 28.49
5 7 0 1009.69 30.19
5 7 1 780.8 22.87
5 -7 1 751.79 24.41
5 -7 1 774.48 24.67
5 7 2 4.52 1.31
5 7 2 3.09 1.47
5 -7 2 7.04 2.2
5 -7 2 5.09 2
5 7 3 691.46 21.29
5 7 3 691.91 20.53
5 -7 3 642.25 22.08
5 7 3 709.49 20.5
5 7 4 296.86 10.46
5 7 4 304.13 11.4
5 -7 4 316.2 12.33
5 7 4 319.81 10.78
5 7 5 220.51 8.34
5 -7 5 220.17 9.27
5 -7 5 230.41 10.06
5 -7 5 233.38 10.31
5 7 5 241.83 8.79
5 7 5 234.88 9.34
5 -7 6 542.27 17.82
5 7 6 508.16 16.49
5 7 6 582.77 18.03
5 -7 6 533.58 18.65
5 -7 6 568.76 19.43
5 7 6 593.76 17.41
5 -7 7 1220.85 35.87
5 7 7 1269.11 35.91
5 -7 7 1175.15 36.55
5 -7 7 1280.58 37.46
5 7 7 1311.53 35.47
5 -7 8 1.4 1.92
5 7 8 2.02 1.33
5 -7 8 0.84 1.84
5 -7 8 1.42 2.27
5 7 8 3.12 1.68
5 7 9 469.08 15.95
5 -7 9 489.04 16.4
5 -7 9 472.17 16.77
5 -7 9 503.5 17.83
5 7 9 470.67 15.36
5 7 9 512.22 16
5 7 10 270.92 10.8
5 7 10 277.19 10.33
5 -7 10 266.74 10.62
5 -7 10 249.91 10.7
5 -7 10 288.63 11.87
5 7 10 248.53 9.56
5 7 10 289.63 10.41
5 -7 11 165.38 7.59
5 7 11 146.71 7.36
5 -7 11 154.41 8.13
5 7 11 139.88 6.36
5 7 11 160.89 7.08
5 7 11 150.77 6.83
5 7 12 200.38 8.26
5 7 12 214.33 9.16
5 -7 12 214.4 9.14
5 -7 12 218.21 9.88
5 7 12 199.22 7.95
5 7 12 218.48 8.75
5 -7 13 242.83 9.86
5 7 13 238.68 9.74
5 -7 13 230.37 10.32
5 7 13 257.25 9.55
5 -7 14 189.68 8.29
5 7 14 178.94 8.14
5 -7 14 156.56 8.15
5 -7 14 175.02 8.41
5 7 14 184.04 7.8
5 7 15 593.1 19.02
5 7 15 645.69 19.99
5 -7 15 633.86 20.17
5 -7 15 627.04 20.38
5 7 15 633.47 19.57
5 7 16 174.92 7.18
5 7 16 171.93 7.68
5 -7 16 180.14 8.04
5 -7 16 163.87 7.79
5 7 16 179.17 7.59
5 7 17 163.93 6.73
5 7 17 165.71 7.29
5 -7 17 179.11 7.71
5 7 17 155.04 6.98
5 7 18 25.9 2.36
5 7 18 29.49 2.84
5 -7 18 30.22 3
5 7 19 213.1 8.19
5 -7 19 220.39 8.61
5 7 20 67.49 3.75
5 -7 20 70.34 4.11
5 -7 21 294.17 9.86
5 7 21 284.31 9.5
-5 8 23 6.99 1.35
-5 -8 23 5.49 1.44
-5 8 22 7.52 1.45
-5 -8 22 7.98 1.67
-5 8 21 19.26 2.05
-5 -8 21 24.47 2.65
-5 8 20 309.88 10.91
-5 -8 20 331.94 11.67
-5 8 19 9.55 1.93
-5 8 19 5.41 1.64
-5 -8 19 7.92 2.09
-5 8 18 49.53 3.58
-5 8 18 45.13 3.43
-5 -8 18 42.89 3.91
5 8 -18 39.68 2.99
-5 8 17 45.37 3.77
-5 8 17 53.03 3.86
-5 -8 17 55.47 4.46
5 8 -17 46.11 3.39
-5 8 16 30.2 2.99
-5 8 16 23.97 2.77
-5 -8 16 28.99 3.49
5 8 -16 25.14 2.7
-5 8 15 14.59 2.25
-5 8 15 10.89 2.23
5 8 -15 16.97 2.48
5 -8 -15 13.06 2.36
-5 -8 15 15.69 2.85
5 8 -14 718.47 23.97
-5 8 14 762.37 23.22
5 -8 -14 759.42 24
-5 8 14 811.99 23.86
-5 8 14 731.78 23.73
-5 -8 14 823.24 24.85
5 8 -14 745.69 23.61
-5 8 13 10.33 2.05
-5 8 13 12.31 2.29
5 -8 -13 10.58 2.65
5 8 -13 8.65 2.15
5 8 -13 14.8 2.48
-5 -8 13 12.68 2.65
-5 8 13 10.51 2.19
5 8 -13 8.46 1.97
5 8 -12 8.88 2.18
-5 8 12 10.23 1.96
-5 8 12 10.18 2.09
5 -8 -12 10.97 2.75
-5 -8 12 9.92 2.48
-5 8 12 8.14 2.01
5 8 -12 8.64 2.1
-5 8 11 2.86 1.6
-5 8 11 3.4 1.65
5 8 -11 4.19 1.86
5 -8 -11 2.86 2.21
-5 -8 11 5.39 2.15
-5 8 11 3.15 1.57
5 8 -11 2.57 1.4
-5 8 10 13.06 2.3
5 -8 -10 13 3.21
-5 -8 10 12.75 2.99
-5 8 10 9.6 2.14
5 8 -10 16.42 2.67
5 8 -10 9.07 2.05
-5 8 9 54.91 3.89
5 -8 -9 52.22 5.34
5 8 -9 55.85 4.43
5 -8 -9 51.66 4.67
-5 8 9 52.47 4.2
5 8 -9 45.74 4.07
-5 8 8 1261.43 35.03
5 8 -8 1325.48 36.51
5 -8 -8 1243.37 38.15
5 -8 -8 1219.97 36.74
-5 8 8 1173.94 35.82
5 8 -8 1204.04 36.4
5 8 -7 2.93 1.95
5 -8 -7 2.59 3.1
-5 8 7 0.39 1.57
5 8 -7 0.86 1.38
5 8 -6 78.84 5.19
5 -8 -6 75.05 6.05
-5 8 6 70.11 4.83
5 -8 -6 67.63 6.42
5 8 -6 66.17 4.84
5 8 -5 43.93 4.04
5 -8 -5 40.25 4.99
5 -8 -5 40.61 5.58
-5 8 5 36.34 3.52
5 8 -5 41.16 3.89
5 8 -4 186.52 8.23
5 -8 -4 158.96 9.26
5 -8 -4 173.64 9.55
-5 8 4 163.39 7.93
5 8 -4 170.96 8.35
5 8 -3 69.79 5.23
5 8 -3 67.52 4.65
5 -8 -3 77.73 6.77
-5 8 3 68.31 4.84
5 8 -3 74.09 5.22
5 8 -2 1622.8 45.01
5 8 -2 1612.94 45.27
-5 8 2 1539.42 45.15
5 8 -2 1669.12 46.61
-5 8 1 6.34 2.11
5 8 -1 2.02 1.47
5 8 -1 4.32 2.02
5 8 -1 1.2 1.71
5 8 0 419.28 14.23
5 -8 0 387.57 15.8
5 8 0 428.39 14.73
-5 8 0 409.27 14.67
5 -8 0 436.49 16.37
5 8 1 77.87 4.7
5 -8 1 69.66 6.2
-5 8 -1 77.69 4.99
5 -8 1 76.17 6.26
5 8 2 73.21 4.55
5 -8 2 73.82 5.7
-5 8 -2 73.57 4.85
5 -8 2 71.23 5.56
5 8 3 6.1 1.79
5 8 3 5 1.86
5 -8 3 5.01 2.53
5 -8 3 1.22 2.16
-5 8 -3 6.75 1.94
5 8 4 992.08 29.45
5 -8 4 1016.66 31.8
-5 8 -4 1082.47 31.05
5 8 4 1059.2 30.59
5 8 5 73.64 4.27
5 -8 5 84.42 5.93
-5 8 -5 81.46 5.33
5 8 5 83.07 4.61
5 8 5 87.73 5.14
5 8 6 832.61 25.38
5 -8 6 820.31 26.57
-5 8 -6 820.51 25.73
5 -8 6 813.77 26.8
5 8 6 851.9 24.49
5 -8 7 29.98 3.76
-5 8 -7 30.69 3.36
5 -8 7 37.79 4.2
5 8 7 35.21 3.27
5 8 7 30.33 2.95
5 8 8 1.27 1.32
5 -8 8 1.16 1.88
5 -8 8 1.79 2.02
-5 8 -8 3.5 1.64
5 8 8 2.22 1.43
5 -8 9 11.27 2.24
5 8 9 16.3 2.31
5 -8 9 15.02 2.73
5 -8 9 17.73 3.27
5 8 9 14.09 2.09
-5 8 -9 14.07 2.48
5 8 9 16.17 2.2
5 -8 10 398.87 14.17
5 8 10 407.71 14.64
5 8 10 424.98 14.3
5 -8 10 393.85 14.85
-5 8 -10 410.62 14.92
5 -8 10 439.08 16.16
5 8 10 390.21 13.52
5 8 10 430.75 14.02
5 -8 11 3.27 1.88
5 8 11 3.72 1.42
5 8 11 2.78 1.9
5 -8 11 2.99 1.71
5 8 11 7.06 1.81
5 -8 11 3.5 2.26
5 8 11 5.15 1.6
-5 8 -11 7.07 1.89
5 8 11 3.22 1.66
5 8 12 856.39 26.35
5 8 12 943.52 27.54
5 -8 12 918.44 27.21
5 -8 12 867.41 27.21
5 -8 12 966.43 29.14
5 8 12 885.14 26.23
5 8 12 965.9 27
5 8 12 925.54 26.84
5 8 13 6.2 2.01
5 -8 13 2.18 1.72
5 8 13 1.58 1.06
5 -8 13 3.89 2.16
5 8 13 3.31 1.31
5 8 13 3.16 1.65
5 8 14 0.28 1.43
5 8 14 0.82 1.68
5 -8 14 1.15 1.57
5 -8 14 1.68 1.77
5 -8 14 0.21 1.8
5 8 14 1.03 1.59
5 8 15 4.3 1.53
5 8 15 2.6 1.55
5 -8 15 0.63 1.63
5 -8 15 2.75 1.9
5 8 15 2.96 1.56
5 -8 16 242.81 9.4
5 8 16 232.23 8.79
5 8 16 250.63 9.38
5 -8 16 231.83 9.71
5 8 16 251.55 9.18
5 -8 17 2.11 1.58
5 8 17 1.37 1.22
5 8 17 0.77 1.32
5 8 18 634.71 19.28
5 8 18 698.88 19.89
5 -8 18 681.62 20.07
5 8 19 9.2 1.66
-5 9 21 1.76 1.1
-5 -9 21 1.51 0.96
-5 9 20 4 1.26
-5 -9 20 4.03 1.34
-5 9 19 6.95 1.54
-5 -9 19 6.36 1.61
-5 9 18 49.43 3.36
-5 -9 18 46.36 3.6
-5 9 17 111.07 5.45
-5 9 17 101.15 5.02
-5 -9 17 115.68 5.87
5 9 -17 105.68 4.92
-5 9 16 410.64 14.18
-5 9 16 414.95 13.81
5 9 -16 435.18 14.04
-5 9 15 4.64 1.57
-5 9 15 4.93 1.8
5 9 -15 4.16 1.57
5 -9 -15 4.27 1.64
-5 -9 15 8.03 2.12
-5 9 14 3.08 1.4
5 9 -14 5.59 1.73
-5 9 14 4.56 1.81
5 -9 -14 4.46 1.76
-5 -9 14 4.71 1.87
-5 9 13 5.26 1.56
-5 9 13 3.46 1.59
5 9 -13 5.08 1.92
5 -9 -13 6.16 2.24
-5 9 12 108.27 5.48
-5 9 12 110.8 5.84
5 -9 -12 115.4 6.87
5 9 -12 125.93 6.51
-5 9 11 244.17 9.54
5 9 -11 255.91 10.32
-5 9 11 237.7 10.01
5 9 -11 224.32 10.21
5 -9 -11 250.67 11.26
-5 9 10 402.45 13.74
5 9 -10 431.84 14.85
5 -9 -10 401.1 15.96
-5 9 10 373.74 14.18
5 9 -10 402.47 14.98
-5 9 9 51.11 3.73
5 -9 -9 43.51 4.24
-5 9 9 45.76 3.95
5 9 -9 50.78 4.2
5 -9 -9 44.2 4.89
5 9 -9 45.21 4.1
-5 9 8 295.41 10.68
5 9 -8 327.84 12.11
5 -9 -8 299.24 13.21
-5 9 8 274.11 11.32
5 -9 -8 287.98 12.07
5 9 -8 281.24 11.9
5 9 -7 64.87 4.58
5 -9 -7 49.06 4.67
-5 9 7 50.05 4.22
5 9 -7 51.69 4.43
-5 9 6 238.06 10.36
5 -9 -6 277.14 11.8
5 9 -6 246.62 10.97
5 9 -6 281.2 11
5 9 -5 471.7 16.56
5 -9 -5 496.32 18.5
5 -9 -5 508.06 18.03
-5 9 5 466.53 16.52
5 9 -5 468.91 17.17
5 9 -4 271.86 10.94
5 -9 -4 251.41 12.01
5 -9 -4 271.62 12.06
-5 9 4 254.9 10.77
5 9 -4 266.55 11.48
5 9 -3 252.07 10.27
5 -9 -3 252.64 11.67
5 -9 -3 229.24 11.04
-5 9 3 227.57 10.03
5 9 -3 237.44 10.81
5 9 -2 357.61 12.92
5 9 -2 348.7 13.01
5 -9 -2 336.32 14.3
-5 9 2 338.33 13.03
5 9 -2 336.24 13.85
5 9 -1 2.49 1.78
5 9 -1 1.55 1.58
-5 9 1 4.33 1.91
5 9 -1 0.53 1.62
-5 9 0 464.19 16.2
5 9 0 466.28 15.63
5 9 0 445.55 15.93
5 9 1 595.19 19.81
5 -9 1 594.12 21.21
-5 9 -1 608.91 20.08
5 -9 1 642.36 21.69
5 9 1 613.91 19.38
5 -9 2 51.37 4.78
5 9 2 52.71 3.8
5 -9 2 48.88 4.76
-5 9 -2 53.41 4.32
5 9 3 371.28 13.15
5 -9 3 380.64 15.12
-5 9 -3 392.08 14.27
5 -9 3 396.46 15.4
5 9 4 272.79 10.96
5 -9 4 280.52 12.14
-5 9 -4 291.5 11.41
5 -9 4 253.97 11.93
5 9 4 270.66 10.16
5 9 5 95.69 5.65
5 -9 5 94.91 6.48
-5 9 -5 89 5.67
5 9 6 29.09 3.06
5 -9 6 31.64 3.93
-5 9 -6 26.5 3.24
5 9 7 294.93 11.19
5 -9 7 280.77 12.07
-5 9 -7 268.3 11.29
5 9 7 273.82 9.97
5 9 8 27.18 2.97
5 -9 8 24.12 3.49
-5 9 -8 23.16 3.01
5 -9 8 26.73 3.81
5 9 8 27.1 2.76
5 9 8 26.1 2.58
5 9 9 295.88 11.54
5 9 9 290.19 11.28
5 -9 9 294.75 12.24
5 -9 9 311.17 13.03
5 9 9 292.37 10.75
5 9 9 300.83 10.61
5 9 10 499.55 16.37
5 9 10 478.82 16.51
5 -9 10 488.62 17.2
5 -9 10 505.23 18.14
5 9 10 457.6 15.54
5 9 10 506.47 15.74
5 9 11 32.6 2.91
5 9 11 37.63 3.52
5 -9 11 27.69 3.39
5 9 11 32.42 3.07
5 -9 11 36.8 4.28
5 9 11 34.55 2.94
5 9 11 39.3 3.13
5 9 12 140.82 6.67
5 9 12 126.13 6.1
5 -9 12 144.8 7.8
5 9 12 116.64 5.66
5 9 12 128.73 6
5 9 13 151.18 6.74
5 9 13 159.3 7.09
5 9 13 143.55 6.52
5 -9 13 165.04 8.24
5 9 13 159.78 6.75
5 9 14 52.44 3.52
5 9 14 53.95 3.76
5 -9 14 49.45 4.3
5 -9 14 51.51 4.29
5 9 14 50.58 3.49
5 9 15 362.72 12.14
5 9 15 376.88 12.43
5 -9 15 365.57 13.36
5 9 16 177.61 6.87
5 9 16 176.62 7.05
5 9 17 53.47 3.14
5 9 17 56.77 3.34
5 9 18 10.95 1.52
5 9 18 12.12 1.71
-5 10 19 188.25 6.81
-5 10 18 102.32 4.67
-5 10 17 9.17 1.63
5 10 -17 6.47 1.19
-5 10 16 69.96 3.91
5 10 -16 59.84 3.51
5 10 -15 28.9 2.64
-5 10 14 47.04 3.11
-5 10 14 56.53 3.66
5 10 -14 56.35 3.77
5 -10 -14 50.23 3.87
5 -10 -13 205.24 8.92
-5 10 13 205.23 8.21
5 10 -13 204.19 8.56
-5 10 12 72.5 4.35
5 10 -12 76.03 4.82
5 -10 -12 80.59 5.48
-5 10 11 20.35 2.4
5 -10 -11 24.2 3.4
5 10 -11 22.11 2.84
-5 10 10 276.67 10.24
5 10 -10 291.95 11.31
5 -10 -10 284 12.43
5 10 -9 25.12 3.1
-5 10 9 25.04 2.63
5 -10 -9 27.59 4.02
-5 10 8 4.78 1.49
5 10 -8 5.5 2.03
5 -10 -8 4.63 2.68
5 -10 -8 3.11 2.03
5 10 -7 344.88 12.79
5 -10 -7 342.29 14.54
5 -10 -7 330.01 13.3
-5 10 7 304.37 12.25
5 10 -7 341.66 13.34
5 10 -6 104.96 5.97
5 -10 -6 96.3 6.49
-5 10 6 83.95 5.49
5 10 -6 102.08 6.36
5 -10 -5 162.9 9.15
5 -10 -5 156.69 8.52
-5 10 5 148.88 7.53
5 10 -5 149.43 7.62
5 10 -5 153.7 8.18
5 -10 -4 602.03 20.79
-5 10 4 537.09 18.95
5 -10 -4 625.31 21.5
5 10 -4 570.46 20.11
5 10 -3 103.26 6.01
5 -10 -3 103.21 7.11
5 -10 -3 90.39 6.56
-5 10 3 91.79 5.76
5 10 -3 87.67 6.21
5 10 -2 1.91 1.75
5 10 -2 3.2 1.63
5 -10 -2 4.62 2.57
5 -10 -2 1.37 2.39
-5 10 2 2.35 1.5
5 10 -2 1.87 1.66
5 10 -1 90.37 5.35
5 10 -1 78.6 5.2
-5 10 1 74.7 5.26
5 -10 -1 78.72 6.3
5 10 0 88.19 5.31
5 10 0 83.99 5.32
-5 10 0 83.35 5.58
5 10 1 292.61 11.14
5 10 1 284.89 11.43
-5 10 -1 282.3 11.66
-5 10 -2 957.8 30.77
5 10 2 1008.64 30.03
5 -10 2 1090.91 32.74
5 -10 2 1088.57 32.98
5 -10 3 121.97 7.59
-5 10 -3 120.75 6.79
5 -10 3 126.17 7.67
5 10 4 21.14 2.73
5 -10 4 20.51 3.56
5 -10 4 21.18 3.54
-5 10 -4 17.28 2.67
5 10 5 32.67 3.35
5 -10 5 30.1 3.97
5 -10 5 41.91 4.5
5 10 6 23.06 2.76
5 -10 6 18.29 3.31
5 -10 6 17.72 3.39
5 10 7 299.81 11.62
5 -10 7 308.54 12.82
5 10 7 298.89 11.09
5 10 8 755.53 23.6
5 -10 8 774.16 24.97
5 10 8 761.81 23.01
5 10 9 50.04 3.79
5 10 9 46.75 3.88
5 -10 9 37.52 4.15
5 -10 9 56.06 5.07
5 10 9 41.97 3.39
5 10 10 130.57 6.27
5 10 10 114.02 5.75
5 10 10 120.13 6.21
5 -10 10 123.23 6.92
5 -10 10 142.95 7.86
5 10 10 121.72 5.81
5 10 11 6.8 1.67
5 10 11 11.24 2
5 10 11 8.12 1.7
5 -10 11 9.98 2.32
5 -10 11 7.11 2.48
5 10 11 5.89 1.48
5 10 12 26.03 2.7
5 10 12 25.16 2.53
5 -10 12 23.71 3.31
5 10 12 26.06 2.4
5 10 13 156.6 6.79
5 -10 13 188.88 8.49
5 10 13 177.79 7.12
5 -10 13 164.48 7.95
5 10 14 533.52 16.25
5 10 14 546.37 16.34
5 -10 14 506.75 17.53
5 10 15 20.17 2.08
5 10 15 21.09 2.13
5 10 16 99.33 4.49
5 10 16 103.96 4.46
-5 11 17 81.56 3.81
-5 11 16 2.52 1.18
-5 11 15 205.85 7.62
5 11 -14 30.37 2.5
-5 11 13 180.42 7
5 11 -13 183.27 7.42
5 -11 -13 185.41 7.59
-5 11 12 172.26 6.93
5 11 -12 190.36 7.69
5 -11 -12 180.65 8.03
-5 11 11 49.97 3.3
5 -11 -11 56.3 4.55
5 11 -11 61.12 4.06
-5 11 10 5.49 1.29
5 -11 -10 4.13 2.38
5 11 -10 4.39 1.84
5 11 -9 105.59 5.81
-5 11 9 91.15 4.66
5 -11 -9 108.08 6.89
5 -11 -8 2.12 1.92
5 -11 -8 5.62 2.92
5 11 -8 3.84 2.11
5 11 -7 575.7 19.13
5 -11 -7 575.43 19.48
5 -11 -7 583.62 20.97
5 11 -6 214.01 9.3
5 -11 -6 211.6 10.76
5 -11 -6 202.49 9.67
5 -11 -5 6.84 2.57
5 11 -5 8.45 2.26
5 -11 -4 0.26 2.32
5 -11 -3 190.28 9.85
5 -11 -3 162.87 8.97
5 11 -2 19.16 2.79
5 11 -2 17.46 2.66
5 -11 -2 20.34 3.64
5 -11 -2 20.88 3.75
5 -11 -1 1042.76 32.44
5 -11 -1 1000.86 32.56
5 11 -1 982.12 30.59
5 11 -1 1077.2 30.7
5 11 0 127.81 6.88
5 -11 0 135.73 8.28
5 -11 0 150.94 8.4
5 11 1 11.38 2.21
5 11 2 7.48 1.91
5 -11 3 15.97 3.48
5 -11 4 0.8 2.65
5 11 5 807.41 25.29
5 -11 5 865.11 27.19
5 -11 5 854.65 27.36
5 11 5 802.97 24.78
5 11 6 82.05 5.11
5 -11 6 88.68 6.24
5 -11 6 84.66 6.5
5 11 6 87.77 4.98
5 -11 7 16.14 3.36
5 -11 7 14.89 3.1
5 11 7 15.69 2.23
5 11 7 15.55 2.39
5 11 8 10.38 2.08
5 11 8 10.69 2.02
5 -11 8 8.36 2.41
5 11 8 8.34 1.81
5 11 9 12.99 2.01
5 11 9 12.4 2.01
5 11 9 13.8 2.15
5 -11 9 9.62 2.51
5 11 9 16.13 2.11
5 11 10 1.04 1.3
5 11 10 -0.14 1.4
5 -11 10 -1.71 1.99
5 -11 10 -0.68 2.26
5 11 10 1 1.2
5 11 10 0.88 1.14
5 11 11 709.84 20.83
5 11 11 678.53 20.77
5 11 11 714.86 21.09
5 -11 11 711.51 22.58
5 11 11 668.17 20.49
5 11 12 39.06 2.92
5 11 12 41.86 2.91
5 -11 12 35.64 3.61
5 11 13 107.38 4.7
5 -11 13 102.58 5.68
5 11 14 20.4 1.92
-5 12 15 323.92 10.03
-5 12 14 10.74 1.53
-5 12 13 42.48 2.69
5 -12 -12 28.97 2.6
5 -12 -11 1.34 1.47
5 -12 -10 7.59 2.12
5 -12 -9 399 14.58
5 -12 -8 11.67 2.8
5 -12 -7 57.16 5.01
5 -12 -7 54.36 4.1
5 -12 -6 52.69 5.06
5 -12 -6 53.43 4.32
5 -12 -5 10.96 3.02
5 -12 -5 6.39 2.33
5 -12 -4 118.74 6.88
5 -12 -3 481.1 17.28
5 -12 -2 154.72 8.27
5 -12 -1 0.49 2.2
5 -12 -1 0.53 2.46
5 12 0 71.61 4.74
5 -12 0 63.66 5.37
5 12 1 78.84 4.95
5 -12 1 74.86 5.77
5 12 2 82.18 5.05
5 -12 2 82.43 6.05
5 12 3 368.25 13.41
5 -12 3 396.54 15.15
5 -12 3 393.03 15.09
5 -12 4 70.07 5.53
5 -12 4 67.21 5.36
5 -12 5 -0.72 2.34
5 -12 5 0.23 2.16
5 12 5 2.58 1.61
5 12 6 92.82 5.06
5 12 6 95.13 5.24
5 -12 6 99.93 6.25
5 12 6 98.8 5.07
5 12 7 159.87 6.81
5 12 7 158.96 7.05
5 -12 7 178.21 8.32
5 12 7 159.27 6.77
5 12 8 121.27 5.6
5 12 8 127.48 5.69
5 12 8 127.7 5.98
5 -12 8 146.82 7.44
5 -12 8 130.42 6.83
5 12 8 123 5.58
5 12 9 187.09 7.1
5 12 9 171.86 6.89
5 12 9 184.79 7.33
5 12 9 164.79 6.77
5 -12 9 181.23 8.04
5 12 9 178.64 6.94
5 12 10 149.75 5.86
5 12 10 138.62 5.65
5 -12 10 148.75 6.66
5 -12 10 145.56 7.14
5 12 10 131.43 5.58
5 12 10 128.77 5.85
5 12 11 52.37 3.17
5 12 11 49.88 2.88
5 -12 11 54.12 4.08
-5 13 11 248.13 7.74
5 -13 -11 229.38 7.78
5 -13 -10 3.62 1.39
5 -13 -9 2.94 1.59
5 -13 -8 1.26 1.68
5 -13 -7 12.82 2.53
5 -13 -6 90.84 5.71
5 -13 -5 404.43 14.14
5 -13 -5 345.26 12.29
5 -13 -4 1.73 2.19
5 -13 -4 4.47 1.9
5 -13 -3 64.17 4.61
5 -13 -3 78.99 5.58
5 -13 -2 -1.11 1.82
5 -13 -2 0.45 2.18
5 -13 -1 53.48 4.34
5 -13 0 103.88 6.2
5 13 0 118.92 5.61
5 -13 1 376.21 14.27
5 13 1 413.84 13.32
5 -13 2 1.41 2.04
5 13 2 0.53 1.35
5 -13 3 245.3 10.36
5 13 4 15.21 2.03
5 -13 4 13.83 2.83
5 13 5 28.3 2.46
5 -13 5 28.17 3.44
5 -13 5 26.25 3.29
5 13 6 61.08 3.38
5 13 6 55.17 3.23
5 -13 6 58.01 4.37
5 -13 6 62.11 4.65
5 13 6 60.9 3.49
5 13 7 252.37 8.44
5 13 7 232.55 8.33
5 13 7 240.71 8.17
5 -13 7 245.14 9.48
5 13 7 255.35 8.59
5 13 8 15.92 1.89
5 13 8 14.32 1.72
5 13 8 15.21 1.65
5 13 8 16.18 1.84
6 0 -27 0.92 1.29
6 0 -26 581.72 16.66
-6 0 26 556.35 16.06
6 0 -25 1.18 1.54
-6 0 25 0.28 1.46
-6 0 25 0.23 1.13
-6 0 24 190.75 7.74
-6 0 24 197.01 8.28
-6 0 23 0.35 1.68
-6 0 23 0.15 1.65
-6 0 22 60.27 4.48
-6 0 22 50.7 3.91
-6 0 21 2.8 2.02
-6 0 21 0.35 1.58
-6 0 20 1532.04 43.92
-6 0 20 1536.99 45
6 0 -20 1533.68 44.06
6 0 -20 1514.89 43.31
-6 0 20 1545.22 43.27
6 0 -19 1.98 1.69
6 0 -19 0.38 1.26
-6 0 19 -0.74 1.89
-6 0 19 2.72 1.84
-6 0 18 701.18 23.59
6 0 -18 723.78 22.24
-6 0 18 717.02 22.34
-6 0 18 673.93 23.1
-6 0 17 1.18 1.54
6 0 -17 2.48 1.59
-6 0 17 2.19 2.21
-6 0 16 13.21 2.24
6 0 -16 10.34 1.99
-6 0 16 9.38 2.29
-6 0 15 3.58 1.76
6 0 -15 1.77 2.04
6 0 -15 0.48 1.31
-6 0 15 1.87 1.7
6 0 -14 1375.81 38.89
6 0 -14 1413.38 38.07
-6 0 14 1438.28 39.59
-6 0 13 1.51 0.94
6 0 -13 0.98 1.12
-6 0 13 -0.15 1.18
-6 0 13 1.59 1.38
6 0 -13 2.65 1.5
6 0 -12 901.4 26.02
6 0 -12 908.31 25.09
6 0 -11 1.56 1.03
6 0 -11 2.21 1.32
6 0 -10 6.76 1.63
6 0 -10 5.83 1.27
-6 0 10 8 1.5
6 0 -9 0.6 0.81
6 0 -9 1.46 1.22
-6 0 9 2.49 1.13
6 0 -8 967.3 27.88
6 0 -8 951.41 26.54
-6 0 8 962.4 27.01
6 0 -7 0.74 1.27
6 0 -7 1.05 0.73
6 0 -7 1.04 1.17
-6 0 7 1.97 0.99
6 0 -6 3824.86 102.42
6 0 -6 3713.7 100.57
-6 0 6 3989.59 101.14
6 0 -5 0.45 1.37
6 0 -5 0.98 0.79
-6 0 5 -0.38 0.89
6 0 -5 -0.3 1.32
6 0 -4 213.56 8.68
6 0 -4 259.63 9.24
6 0 -4 197.54 6.88
-6 0 4 238.35 7.77
6 0 -3 0.29 1.25
-6 0 3 2.95 0.92
6 0 -3 0.87 1.18
6 0 -2 300.47 10.63
-6 0 2 287.81 9.36
-6 0 1 7.07 1.15
-6 0 0 3167.39 82.03
-6 0 -1 1.72 0.81
6 0 2 11.14 1.68
-6 0 -2 13.61 1.4
6 0 3 0.91 0.93
-6 0 -3 2.03 0.81
6 0 4 135.18 6.17
-6 0 -4 144.47 5.42
-6 0 -5 2.1 0.88
6 0 5 0.42 1.16
6 0 6 3381.26 89.2
-6 0 -6 3388.37 88
6 0 7 0.71 1.18
6 0 7 1.53 1.22
-6 0 -7 0.74 0.8
6 0 8 140.21 6.43
6 0 8 137.29 6.53
6 0 8 131.34 6.22
-6 0 -8 151.2 6.01
6 0 8 144.84 6.16
6 0 8 144.72 6.55
6 0 9 1.41 1.29
6 0 9 1.08 1.28
6 0 9 0.82 1.31
-6 0 -9 2.2 0.95
6 0 9 0.74 1.1
6 0 9 0.77 1
6 0 10 20.39 2.45
6 0 10 25.59 2.78
6 0 10 16.39 2.53
6 0 10 19.67 2.37
6 0 10 19.73 2.61
-6 0 -10 20.83 2.19
6 0 10 27.23 2.5
6 0 11 2.08 1.43
6 0 11 -0.69 1.87
6 0 11 0.74 1.49
6 0 11 0.68 1.54
6 0 11 1.99 2.2
-6 0 -11 1.14 0.97
6 0 11 1.43 1.88
6 0 11 0.83 1.16
6 0 12 1609.63 44.77
6 0 12 1568.12 44.99
6 0 12 1559.76 44.25
6 0 12 1573.07 44.54
6 0 12 1605.86 44.71
6 0 12 1599.45 44.92
-6 0 -12 1718.43 44.22
6 0 12 1491.27 43.51
6 0 13 2.46 1.69
6 0 13 1.04 2.05
6 0 13 0.17 1.56
6 0 13 -0.37 2.27
6 0 13 -0.2 1.82
-6 0 -13 -0.65 1.24
6 0 13 1.16 1.33
6 0 14 249.26 10.58
6 0 14 241.6 9.75
6 0 14 246.26 10.17
6 0 14 247.8 10.42
6 0 14 239.03 10.08
6 0 14 236.59 9.21
6 0 15 -0.2 1.25
6 0 15 1.11 2.09
6 0 15 -0.78 1.76
6 0 15 -1.05 1.8
6 0 15 0.86 1.59
6 0 15 1.47 1.41
6 0 16 52.73 4.67
6 0 16 48.8 3.86
6 0 16 54.44 4.28
6 0 16 52.61 4.4
6 0 16 50.82 3.53
6 0 17 3.43 2.23
6 0 17 0.33 1.65
6 0 17 0.57 1.68
6 0 17 1.66 1.89
6 0 17 0.84 1.23
6 0 18 743.15 23.57
6 0 18 744.9 22.11
6 0 18 687.14 22.3
6 0 18 697.93 21.21
6 0 19 1.08 2.36
6 0 19 1.03 1.85
6 0 19 1.06 1.56
6 0 19 2.48 1.35
6 0 20 150.94 7.6
6 0 20 137.8 6.64
6 0 21 1.15 1.44
6 0 22 66.52 3.93
6 0 23 -0.11 1.41
6 1 -27 199.54 7.05
-6 -1 27 188.6 6.77
-6 -1 27 205.81 7.35
6 1 -26 25.41 2.34
-6 -1 26 25.45 2.3
-6 1 26 20.72 2.24
-6 -1 26 20.62 2.24
6 1 -25 92.57 4.77
-6 -1 25 95.41 4.97
-6 -1 25 92.67 4.71
-6 1 25 89.11 4.86
-6 -1 24 158.44 7.35
-6 1 24 163.97 6.7
-6 -1 24 178.82 7.38
-6 -1 23 547.35 17.66
-6 1 23 523.47 16.59
-6 -1 23 517.59 17.11
-6 1 22 32.5 3.08
-6 -1 22 35.28 3.38
-6 -1 21 451.56 15.86
-6 1 21 438.01 14.84
-6 -1 21 436.3 15.32
-6 1 20 34.27 3.93
-6 -1 20 34.74 4.07
6 1 -20 38.59 3.82
6 -1 -20 37.32 3.77
-6 -1 20 35.12 3.74
6 1 -20 34.05 3.4
6 -1 -20 29.26 3.18
-6 1 20 35.03 3.31
-6 -1 20 36.09 3.56
-6 1 19 334.88 13.6
-6 -1 19 337.02 13.75
6 1 -19 349.25 13.27
6 -1 -19 343.85 13.31
6 1 -19 352.02 12.83
6 -1 -19 345.34 12.61
-6 1 19 338.51 12.44
-6 -1 19 336.59 12.84
-6 1 18 307.81 13.19
-6 -1 18 312.9 13.42
6 1 -18 342.97 13
6 -1 -18 340.35 13.04
6 1 -18 350.92 12.6
6 -1 -18 329.41 12.2
-6 1 18 337.21 12.27
-6 -1 18 337.01 12.7
-6 -1 18 311.33 13.11
-6 1 18 325.6 13.1
-6 1 18 341.61 12.4
6 1 -17 892.14 27.26
6 1 -17 911.91 26.79
6 -1 -17 900.12 26.46
-6 1 17 880.06 26.49
-6 -1 17 870.62 26.86
-6 1 17 793.98 27.23
-6 1 17 902.77 26.58
-6 1 16 1.81 1.7
6 1 -16 6.1 1.87
-6 1 16 8.12 1.92
6 1 -16 0.87 1.43
6 -1 -16 3.12 1.61
-6 1 16 4.88 1.93
-6 -1 16 3.16 1.76
6 1 -15 958.07 27.99
6 1 -15 911.44 27.16
6 -1 -15 929.75 26.95
-6 1 15 916.15 28.34
-6 1 15 918.62 27.04
-6 -1 15 882.19 27.35
-6 1 15 888.44 26.79
6 1 -14 423.72 14.43
6 1 -14 427.95 13.77
6 -1 -14 415.82 13.52
-6 1 14 386.25 14.44
-6 1 14 372.67 13.33
-6 -1 14 369.7 13.61
-6 1 14 387.86 13.24
6 1 -13 330.5 11.82
6 1 -13 334.46 11.26
6 -1 -13 320.22 10.93
-6 1 13 332.45 12.18
-6 1 13 293.74 10.93
-6 -1 13 289.24 11.14
-6 1 13 287.8 10.61
6 1 -12 346.21 12.3
-6 1 12 330.53 12.4
6 1 -12 350.36 11.7
6 -1 -12 368.66 11.59
-6 1 12 340.83 11.99
6 1 -11 1137.71 32.58
6 1 -11 1155.38 31.91
6 -1 -11 1179.71 31.65
-6 1 11 1191.84 32.45
6 1 -10 15.38 2.11
6 1 -10 13.37 1.72
6 -1 -10 13.39 1.6
-6 1 10 13.71 1.92
6 1 -9 1266.27 36.12
6 1 -9 1299.38 35.31
6 -1 -9 1316.2 34.9
-6 1 9 1246.22 35.57
6 1 -8 1204.22 34.27
6 1 -8 1218.65 33.36
6 -1 -8 1182.47 32.71
-6 -1 8 1213.29 33.2
-6 1 8 1255.06 33.77
6 -1 -7 194.96 8.19
6 1 -7 212.52 8.39
6 1 -7 215.76 7.57
6 -1 -7 202.52 6.87
-6 -1 7 199.6 7.21
-6 1 7 199.77 7.62
6 -1 -6 581.24 17.64
6 1 -6 550.19 17.61
6 1 -6 562.29 16.42
6 -1 -6 543.01 15.62
-6 -1 6 549.14 16.09
-6 1 6 544.68 16.63
6 1 -5 1582.17 44.37
6 -1 -5 1790.05 44.86
6 1 -5 1528.78 42.8
6 -1 -5 1537.13 42.07
-6 -1 5 1680.47 42.76
-6 1 5 1654.45 43.42
6 1 -4 134.8 6.41
6 1 -4 126.46 5.09
-6 -1 4 140.67 5.18
-6 1 4 144.62 5.77
6 -1 -4 147.34 6.57
6 -1 -3 1769.64 46.25
-6 -1 3 1679.63 44.26
-6 1 3 1736.96 45.03
-6 -1 2 918.13 25.34
6 -1 -2 952.56 27.08
-6 1 2 932.48 25.87
-6 -1 1 555.64 15.83
-6 1 1 559.22 16.35
-6 -1 0 4.89 0.93
-6 1 0 7.83 1.22
-6 -1 -1 671.37 18.89
-6 1 -1 698.38 19.52
6 -1 2 20.94 2.23
-6 -1 -2 19.68 1.56
-6 1 -2 21.99 1.89
6 -1 3 2186.02 57.59
-6 -1 -3 2100.38 55.75
-6 1 -3 2166.92 56.51
6 -1 4 852.89 24.79
-6 -1 -4 819.98 23.05
-6 1 -4 875.46 23.91
6 -1 5 466.92 15.66
-6 -1 -5 497.32 14.27
-6 1 -5 496.19 14.9
6 -1 6 13.59 2
-6 -1 -6 12.19 1.37
-6 1 -6 15.75 1.76
-6 -1 -7 704.85 19.72
-6 1 -7 731.31 20.48
6 -1 7 676.12 21.01
6 1 8 850.15 25.17
6 -1 8 852.42 25.27
6 -1 8 882.58 25.6
6 -1 8 840.94 25.55
-6 1 -8 930.26 25.06
6 1 8 817.37 24.83
6 -1 8 861.38 25.47
6 -1 9 1307.02 36.8
6 1 9 1270.18 36.85
6 1 9 1253.76 36.27
6 -1 9 1335.17 36.93
6 -1 9 1312.15 36.89
-6 1 -9 1439.98 36.46
6 -1 9 1265.42 36.44
6 -1 9 1279.57 35.82
6 1 9 1254.09 36.09
6 1 9 1282.32 36.39
6 -1 10 258.99 10.12
6 -1 10 260.15 10.25
6 1 10 256.02 9.85
6 1 10 266.56 10.4
6 1 10 259.53 9.88
6 -1 10 261.61 10.24
6 -1 10 271.12 10.37
-6 1 -10 262.73 9.69
6 -1 10 264.93 9.43
6 1 10 259.12 9.63
6 -1 11 543.78 17.96
6 -1 11 562.5 18.17
6 1 11 528.66 18
6 1 11 537.88 17.53
6 1 11 535.03 17.5
6 -1 11 552.1 18.03
6 -1 11 568.89 18.27
-6 1 -11 604.3 17.72
6 -1 11 537.96 16.9
6 1 11 516.56 17.05
6 -1 12 120.67 6.37
6 -1 12 120.83 6.59
6 1 12 107.23 6.35
6 1 12 109.89 5.82
6 1 12 115.38 6.12
6 -1 12 117.56 6.22
6 -1 12 113.78 6.4
6 -1 12 116.93 6.33
-6 1 -12 112.02 5.89
6 -1 12 114.41 5.48
6 1 12 117.35 5.75
6 -1 13 91.89 5.96
6 1 13 95.77 6.01
6 1 13 96.34 5.42
6 1 13 97.37 5.7
6 -1 13 100.35 6
6 -1 13 95.04 5.66
6 -1 13 99.06 6.05
-6 1 -13 107.9 5.68
6 -1 13 93.38 4.94
6 1 13 103.5 5.43
6 -1 14 276.35 11.51
6 1 14 262.83 11.11
6 -1 14 265.65 10.91
6 1 14 264.61 10.42
6 -1 14 269.32 11
6 -1 14 259.27 11.06
-6 1 -14 284.79 10.79
6 -1 14 269.16 9.83
6 1 14 282.57 10.31
6 1 14 272.9 10.71
6 -1 15 515.42 18
6 1 15 493.68 17.52
6 1 15 481.84 16.49
6 1 15 523.61 17.3
6 -1 15 508.34 17.26
6 1 15 512.78 17
6 -1 15 507.56 17.36
6 -1 15 493.16 17.45
-6 1 -15 532.58 17.12
6 -1 15 471.42 15.72
6 1 15 501.47 16.29
6 -1 16 67.98 5.46
6 1 16 74.34 5.33
6 1 16 80.11 4.85
6 1 16 72.61 4.86
6 -1 16 86.93 5.5
6 -1 16 73.54 5.3
6 -1 16 74.28 4.23
6 1 16 77.92 4.62
6 -1 17 193.83 9.35
6 1 17 192.31 8.98
6 1 17 182.75 7.97
6 1 17 180.83 8.14
6 -1 17 177.62 8.46
6 -1 17 180.47 8.68
6 1 17 191.29 8.78
6 -1 17 174.55 7.19
6 1 17 178.92 7.59
6 1 18 19.2 2.59
6 -1 18 16.8 3.19
6 1 18 24.65 3.47
6 1 18 18.71 2.61
6 -1 18 16.04 2.63
6 1 18 18.65 2.87
6 -1 18 18.39 2.9
6 -1 18 17.48 2.07
6 1 18 15.7 2.18
6 1 19 63.12 4.84
6 1 19 53.07 3.96
6 1 19 53.99 4.36
6 -1 19 51.48 4.3
6 -1 19 58.08 4.27
6 1 19 52.94 3.63
6 1 20 215.07 9.34
6 -1 20 204.8 8.6
6 1 20 203.02 8.28
6 -1 20 201.94 8.82
6 1 21 106.54 5.91
6 -1 21 100.61 5.36
6 1 21 99.79 5.04
6 -1 21 98.84 5.57
6 -1 22 1.86 1.47
6 1 22 2.33 1.36
6 -1 23 88.57 4.52
6 2 -26 44.23 2.85
6 -2 -26 44.65 2.9
-6 -2 26 47.77 3.04
-6 2 26 38.92 2.8
-6 -2 26 37.5 2.84
6 2 -25 27.06 2.46
6 -2 -25 24.94 2.51
-6 -2 25 27.69 2.63
-6 2 25 30.57 2.68
-6 -2 25 27.49 2.62
-6 2 25 22.3 2.39
-6 -2 25 26.52 2.65
6 2 -24 164.4 7.06
6 -2 -24 174.06 7.26
-6 2 24 166.2 7.32
-6 -2 24 176.28 7.47
-6 -2 24 185.2 7.76
-6 2 23 36.44 3.36
-6 -2 23 36.95 3.35
-6 -2 23 43.14 3.65
-6 2 22 466.46 15.77
-6 -2 22 472.24 16.13
-6 2 22 447.88 14.67
-6 -2 22 468.37 15.86
-6 2 21 172.53 8.05
-6 -2 21 174.41 8.26
-6 2 21 159.11 7.04
-6 -2 21 175.69 8.05
-6 2 20 74.9 5.03
-6 -2 20 69.91 5.12
-6 2 20 73.46 4.39
-6 -2 20 68.38 4.98
-6 2 20 65.99 4.54
6 2 -19 3.47 1.55
-6 2 19 1.43 1.71
-6 2 19 3.87 2.04
6 -2 -19 3.67 1.77
6 -2 -19 2.83 1.45
-6 2 19 3.29 1.5
-6 -2 19 3.25 1.83
-6 -2 19 3.12 1.89
6 2 -19 2.71 1.66
-6 2 18 485.03 17.97
-6 -2 18 463.45 18.13
6 2 -18 493.94 17.41
6 -2 -18 532.4 17.85
6 2 -18 543.81 17.39
6 -2 -18 494.64 16.73
-6 2 18 501.31 16.48
-6 -2 18 507.81 17.53
-6 2 18 545.59 17.22
-6 2 17 83.61 5.81
-6 -2 17 90.28 6.23
6 2 -17 86.05 5.55
6 -2 -17 94.9 5.77
6 2 -17 84.39 5.19
6 -2 -17 87.14 5.15
-6 2 17 84.58 4.97
-6 -2 17 95.82 5.79
-6 -2 17 83.28 5.83
-6 2 17 78.46 5.52
-6 2 17 82.1 5.08
6 2 -16 1487.01 41.68
6 -2 -16 1541.24 42.06
6 2 -16 1491.39 41.23
-6 2 16 1432.18 40.58
-6 -2 16 1474.46 41.64
-6 -2 16 1442.02 42.54
-6 2 16 1397.38 41.97
6 -2 -16 1410.81 40.55
-6 2 16 1413.48 40.73
-6 2 15 172.3 7.84
6 2 -15 173.21 8.09
6 -2 -15 184.41 8.4
6 2 -15 172.52 7.75
6 -2 -15 178.09 7.51
-6 2 15 175.66 7.51
-6 -2 15 171.7 8.2
-6 -2 15 163.99 8.55
-6 2 15 164.82 8.32
-6 2 14 410.46 13.81
6 2 -14 424.76 14.76
6 -2 -14 446.37 15.04
6 2 -14 405.3 14.03
6 -2 -14 432.94 13.84
-6 -2 14 395.31 15.13
-6 2 14 427.16 15.13
-6 2 14 406.82 13.71
-6 -2 14 366.39 14.07
-6 2 13 14.94 2.08
6 2 -13 18.81 2.43
6 -2 -13 20.71 2.55
6 -2 -13 14.99 2.34
6 2 -13 16.31 2.16
6 -2 -13 14.27 1.92
-6 2 13 21.85 2.36
-6 2 13 13.52 2.26
-6 -2 13 14.38 2.35
-6 2 13 16.02 2.3
-6 2 12 369.25 12.92
6 2 -12 423.11 14.13
6 -2 -12 442.17 14.39
6 -2 -12 370.18 13.78
6 2 -12 436 13.73
-6 -2 12 401.61 14.51
-6 2 12 390.08 14.16
6 -2 -12 428.75 13.27
-6 2 12 406.18 13.89
6 -2 -11 251.14 10.01
6 2 -11 250.09 9.8
6 -2 -11 269.44 10.07
6 2 -11 256.59 9.51
6 -2 -11 254.56 8.94
-6 2 11 267.22 9.88
6 2 -10 2339.35 63.12
6 -2 -10 2398.07 63.28
6 2 -10 2455.17 62.76
6 -2 -10 2248.55 61.66
-6 2 10 2340.06 62.92
6 2 -9 138.22 6.58
6 -2 -9 151.55 6.74
6 2 -9 149.67 6.38
6 -2 -9 153.4 5.7
-6 2 9 153.14 6.58
6 2 -8 820.53 25.04
6 -2 -8 870.15 25.13
6 2 -8 849.87 25.15
6 -2 -8 856.54 25.1
6 2 -8 871.52 24.53
6 -2 -8 824.89 23.28
-6 2 8 852.06 24.68
6 2 -7 185.2 7.71
6 -2 -7 180.98 7.53
6 2 -7 160.26 7.42
6 -2 -7 178.33 7.54
6 2 -7 182.01 7.01
6 -2 -7 170.55 5.93
-6 2 7 178 7.15
6 2 -6 163 7.11
6 -2 -6 151.74 6.95
6 2 -6 168.83 7.21
6 -2 -6 180.7 7.33
6 2 -6 159.88 6.34
6 -2 -6 143.01 5.14
-6 2 6 161.71 6.6
6 2 -5 493.41 16.88
6 -2 -5 526.78 17.04
6 2 -5 604.47 17.59
6 -2 -5 562.37 17.3
6 2 -5 503.55 15.96
-6 2 5 546 16.49
6 2 -4 3030.87 84.94
6 -2 -4 3076.33 85.06
6 2 -4 3605.33 85.65
6 2 -4 3021.5 83.67
6 -2 -4 3362.83 85.42
-6 2 4 3383.97 84.42
6 -2 -3 47.11 3.54
6 2 -3 56.76 3.8
6 -2 -3 52.59 3.71
-6 2 3 47.75 3.11
-6 2 2 1688.21 47.59
6 -2 -2 1769.95 48.65
-6 2 1 43.08 2.88
-6 2 0 575.78 17.05
6 2 1 960.35 27.38
6 -2 1 968.7 27.57
-6 2 -1 948.98 26.77
6 2 2 3201.94 85.38
6 -2 2 3280.63 85.69
-6 2 -2 3278.51 84.89
6 -2 3 33.71 2.89
6 2 3 34.56 2.8
-6 2 -3 31.48 2.41
-6 2 -4 2366.03 62.35
6 2 4 2354.72 62.9
6 -2 4 2340.75 63.11
6 2 5 453.73 14.58
6 -2 5 437.47 14.68
-6 2 -5 456.19 14.14
6 2 6 24.21 2.4
6 -2 6 20.73 2.32
-6 2 -6 18.61 2
6 -2 7 235.14 9.14
-6 2 -7 240.41 8.76
6 2 7 236.4 8.81
6 2 7 232.88 8.93
6 -2 7 232.91 9.11
6 2 8 871.73 26.19
6 2 8 869.45 25.52
6 -2 8 872.21 25.72
6 -2 8 862.5 25.95
-6 2 -8 897.86 25.52
6 2 8 877.92 25.49
6 2 8 851.49 25.68
6 -2 8 916.88 26.1
6 2 9 7.21 1.84
6 -2 9 8.4 1.87
6 2 9 10.06 2.09
6 2 9 4.73 1.42
6 -2 9 9.1 1.79
6 2 9 7.84 1.56
6 2 9 8.56 1.89
6 -2 9 7.56 1.88
-6 2 -9 7.89 1.62
6 -2 9 9.29 1.55
6 2 9 11.79 1.82
6 2 10 1796.99 48.1
6 -2 10 1794.21 48.29
6 2 10 1720.74 48.41
6 2 10 1749.96 47.67
6 -2 10 1778.21 47.98
6 2 10 1686.91 47.38
6 2 10 1660.18 48.15
6 -2 10 1749.5 48.33
-6 2 -10 1798.82 47.84
6 -2 10 1664.97 46.8
6 2 10 1761.53 47.6
6 2 11 488.21 15.92
6 -2 11 481.56 16.12
6 -2 11 469.06 16.03
6 2 11 448.43 16.09
6 2 11 474.13 15.68
6 -2 11 488.03 15.95
6 2 11 464.61 15.35
6 2 11 451.84 16.08
6 -2 11 460.87 16.22
-6 2 -11 502.1 15.99
6 -2 11 468.46 14.77
6 2 11 465.11 15.46
6 2 12 82.19 5.05
6 -2 12 85.74 5.28
6 -2 12 77.03 5.32
6 2 12 75.69 5.27
6 2 12 75.67 4.7
6 -2 12 91.09 5.15
6 2 12 86.76 4.96
6 2 12 81.96 5.39
6 -2 12 81.31 5.36
-6 2 -12 79.7 4.9
6 -2 12 77.99 4.24
6 2 12 89.21 4.96
6 -2 13 110.88 6.54
6 2 13 106.92 6.25
6 2 13 100.57 5.57
6 -2 13 105.48 5.82
6 2 13 106.42 5.75
6 2 13 108.11 6.23
6 -2 13 123.66 6.62
-6 2 -13 112.82 6.02
6 -2 13 101.55 5.03
6 2 13 106 5.57
6 -2 14 615.51 20.72
6 2 14 617.19 20.36
6 2 14 615.16 19.38
6 -2 14 620.35 19.59
6 2 14 595.47 19.32
6 2 14 595.18 20.13
6 -2 14 621.47 20.37
-6 2 -14 653.26 20.14
6 2 14 591.84 19.17
6 -2 15 53.1 4.83
6 2 15 61.55 4.71
6 2 15 64.89 4.27
6 -2 15 60.7 4.29
6 2 15 50.45 3.96
6 2 15 58.8 4.58
6 -2 15 60.78 4.78
-6 2 -15 53.41 4.29
6 2 15 57.32 4.04
6 -2 16 678.74 22
6 2 16 612.65 20.9
6 2 16 632.85 19.96
6 -2 16 647.3 20.25
6 2 16 629.78 20.07
6 2 16 636.8 21
6 -2 16 652.55 21.09
6 2 16 625.98 19.82
6 2 17 191.28 8.88
6 2 17 184.16 7.87
6 -2 17 182.02 8.01
6 2 17 183.38 7.95
6 2 17 188.4 8.74
6 -2 17 183.22 8.71
6 2 17 186.97 7.88
6 2 18 18.11 2.97
6 2 18 14.75 2.31
6 -2 18 9.31 2.23
6 2 18 11.66 2.13
6 -2 18 15.43 2.73
6 2 18 18.08 2.46
6 2 19 6.98 2.33
6 2 19 7.52 1.83
6 -2 19 4.43 2.01
6 2 19 6.27 1.66
6 2 20 97.44 5.68
6 2 20 92.79 4.81
6 -2 20 88.3 5.32
6 2 20 91.27 4.68
6 2 21 30.26 3.28
6 -2 21 27.41 2.94
6 2 22 359.18 12.25
6 -2 22 340.91 11.89
6 -2 23 90.55 4.62
6 3 -26 0.85 1.02
6 -3 -26 -0.36 1.11
-6 3 26 0.66 1.01
-6 -3 26 0.75 1.23
6 3 -25 559.51 16.4
6 -3 -25 611.31 16.78
-6 -3 25 579.37 17.15
-6 3 25 494.24 16.43
-6 -3 25 512.63 16.74
6 3 -24 54.7 3.47
6 -3 -24 57.75 3.66
-6 -3 24 58.54 3.89
-6 3 24 55.12 3.63
6 3 -23 9.43 1.83
6 -3 -23 10.1 2.06
-6 3 23 10.15 2.02
-6 -3 23 12.8 2.28
-6 3 22 9.22 2.11
-6 -3 22 15.03 2.63
-6 3 21 231.09 9.33
-6 -3 21 219.37 9.5
-6 3 21 204.17 8.76
-6 3 20 52.39 4.08
-6 -3 20 56.11 4.49
-6 3 20 49.99 3.92
-6 3 19 854.9 27.89
-6 -3 19 866.97 28.51
6 3 -19 860.18 27.07
6 -3 -19 906.82 27.57
6 3 -19 933.65 27.39
-6 3 19 854.3 26.92
6 -3 -19 898.08 26.68
-6 -3 19 906.55 27.66
-6 3 19 905.37 26.79
-6 -3 18 27 3.59
6 3 -18 18.51 2.78
6 -3 -18 27.52 3.27
-6 3 18 25.56 3.25
6 3 -18 28.61 3.2
6 -3 -18 23.35 2.67
-6 3 18 29.82 3.15
-6 3 17 76.75 4.83
-6 3 17 81.09 5.7
-6 -3 17 88.19 6.12
6 3 -17 81.42 5.22
6 -3 -17 84.59 5.5
6 3 -17 88.54 5.34
6 -3 -17 80.12 4.92
-6 -3 17 81.69 5.7
-6 3 17 73.95 5.27
-6 3 16 37.55 3.55
6 3 -16 37.15 3.75
6 -3 -16 43.89 3.95
6 -3 -16 33.67 3.12
6 3 -16 41.08 3.71
-6 -3 16 35.09 3.85
-6 3 16 30.95 3.48
-6 3 15 199.22 8.39
6 -3 -15 200.07 8.22
6 3 -15 197.69 8.75
6 -3 -15 219.88 9.26
6 -3 -15 196.85 8.69
6 3 -15 193.91 8.59
-6 -3 15 196.15 9.44
-6 -3 15 198.11 9.07
-6 3 15 200.21 9.21
-6 3 14 17.86 2.47
-6 -3 14 12.49 2.58
-6 3 14 17.45 2.81
6 -3 -14 18.72 2.9
6 -3 -14 12.1 2.61
6 3 -14 17.76 2.78
6 3 -14 14.3 2.56
-6 -3 14 17.91 3.54
-6 3 14 18.03 2.85
6 -3 -14 15.21 2.08
-6 3 13 2713.24 74.28
6 3 -13 2799.89 75.07
6 -3 -13 2956.08 75.54
6 -3 -13 2864.07 74.22
6 -3 -13 2867.3 75.44
6 3 -13 3001.76 75.25
-6 3 13 2896.67 75.43
-6 -3 13 2699.63 76.1
-6 3 13 2520.83 75.28
-6 -3 13 2689.88 75.17
-6 3 12 12.26 1.91
6 -3 -12 16.84 2.14
6 3 -12 15.01 2.25
6 3 -12 14.09 2.03
6 -3 -12 14.65 2.53
6 -3 -12 13.36 1.78
6 3 -12 18.89 2.31
-6 -3 12 10.3 2.08
-6 3 12 16.66 2.34
6 -3 -12 14.73 2.2
-6 -3 12 15.63 2.55
-6 3 12 14.1 2.27
6 3 -11 349.34 12.36
6 -3 -11 350.36 12.45
6 3 -11 388.52 13.08
6 -3 -11 386.52 13.17
6 -3 -11 372.38 13.49
6 3 -11 392.99 13.04
6 -3 -11 372.89 12.02
-6 3 11 381.24 13.12
6 3 -10 6.38 1.51
6 3 -10 6.8 1.63
6 -3 -10 5.16 1.63
6 -3 -10 4.33 1.88
6 3 -10 5.69 1.66
6 -3 -10 5.55 1.16
-6 3 10 5.59 1.65
6 3 -9 108.6 5.57
6 -3 -9 112.32 5.55
6 3 -9 101.15 5.38
6 -3 -9 110.91 5.57
6 -3 -9 101.08 4.33
6 3 -9 101.66 5.27
-6 3 9 104.25 5.43
6 3 -9 104.49 4.69
6 3 -8 168.19 7.31
6 -3 -8 176.04 7.34
6 3 -8 172.59 7.38
6 -3 -8 164.87 7.3
6 3 -8 169.83 7.06
6 -3 -8 154.58 5.69
-6 3 8 169.48 7.16
6 3 -8 166.12 6.5
6 3 -7 3015.99 76.61
6 3 -7 2831.26 76.31
6 -3 -7 2931.59 76.41
6 -3 -7 2784.68 76.14
6 3 -7 2750.96 75.64
-6 3 7 2909.55 75.99
6 3 -6 8.38 1.86
6 -3 -6 6.15 1.67
6 3 -6 9.83 1.69
-6 3 6 9.9 1.76
6 3 -6 11.76 1.99
6 -3 -6 11 1.94
6 3 -5 623.9 20.2
6 -3 -5 649.98 20.4
6 -3 -5 693.23 20.61
6 3 -5 631.03 19.6
-6 3 5 657.5 19.93
6 3 -4 17.61 2.28
6 -3 -4 17.74 2.33
6 3 -4 16.09 1.91
6 3 -4 21.28 2.37
6 -3 -4 16.53 2.19
-6 3 4 21.07 2.17
6 3 -3 69.49 4.22
6 -3 -3 68.12 4.22
-6 3 3 78.67 4.16
-6 3 2 59.16 3.52
-6 3 1 2750.95 72.47
-6 3 0 55.56 3.41
6 3 1 532.67 15.92
6 -3 1 507.18 16
-6 3 -1 482.49 15.43
6 3 2 7.99 1.5
-6 3 -2 8.82 1.52
6 -3 2 10.25 1.82
6 3 3 81.06 4.42
6 -3 3 90.58 4.76
-6 3 -3 82.75 4.26
6 3 4 393.04 12.97
6 -3 4 397.46 13.23
-6 3 -4 378.12 12.63
6 3 5 1180.27 32.43
6 -3 5 1126.44 32.61
-6 3 -5 1127.24 32.03
6 3 6 35.89 2.99
-6 3 -6 45.69 3.18
6 3 6 47.17 3.27
6 3 6 47.87 3.28
6 -3 6 49.84 3.44
6 -3 6 41.62 3.41
6 3 7 1059.52 31.24
6 -3 7 1123.59 31.68
6 -3 7 1122.93 32.12
6 -3 7 1144.68 31.89
-6 3 -7 1100.9 31.45
6 3 7 1103.33 31.44
6 3 7 1122.2 31.53
6 -3 7 1118.82 31.79
6 -3 8 78.55 4.67
6 3 8 90.91 5.25
6 -3 8 80.38 4.6
6 -3 8 84.8 5.04
6 -3 8 88.04 4.87
6 3 8 74.7 4.3
-6 3 -8 78.63 4.5
6 3 8 80.19 4.52
6 3 8 83.49 4.61
6 3 9 51.98 3.54
6 -3 9 37.5 3.28
6 3 9 40.67 3.68
6 3 9 49.36 3.41
6 -3 9 48.48 3.57
6 3 9 41.43 3.03
6 -3 9 44.95 3.72
6 -3 9 40.56 3.52
-6 3 -9 45.58 3.39
6 3 10 50.21 3.62
6 -3 10 55.51 3.91
6 3 10 49.46 4.04
6 3 10 46.62 3.52
6 -3 10 52.44 3.73
6 -3 10 40.86 4.45
6 -3 10 42.71 3.75
6 3 10 42.91 3.22
-6 3 -10 45.26 3.78
6 3 11 647.74 20.36
6 -3 11 671.85 20.82
6 3 11 641.16 20.92
6 3 11 636.25 19.92
6 -3 11 661.45 20.33
6 3 11 607.27 19.51
6 -3 11 641.75 20.89
6 -3 11 677.42 20.88
-6 3 -11 670.16 20.54
6 -3 12 16.96 2.77
6 3 12 21.79 3.15
6 3 12 15.68 2.56
6 3 12 13.98 2.16
6 -3 12 16.78 2.97
6 -3 12 16.39 3.14
-6 3 -12 13.82 2.47
6 3 13 953.63 29.58
6 3 13 935 28.27
6 3 13 987.96 28.63
6 -3 13 994.22 28.96
6 -3 13 978.19 29.87
6 -3 13 1003.81 29.7
-6 3 -13 1017.39 29.54
6 3 13 991.33 28.81
6 3 14 28.99 2.87
6 -3 14 30.71 3.11
6 3 14 21.3 3.13
6 -3 14 28.33 3.38
6 -3 14 25.11 3.26
-6 3 -14 27.68 3.06
6 3 14 26.07 2.85
6 3 14 22.87 2.62
6 3 15 6.21 2.24
6 -3 15 5.41 1.85
6 3 15 3.19 1.49
6 -3 15 5.32 2.25
6 -3 15 6.89 2.21
-6 3 -15 4.01 1.71
6 3 15 4.73 1.71
6 3 15 6.55 1.81
6 3 16 40.64 3.94
6 3 16 38.82 3.25
6 -3 16 37.61 3.33
6 3 16 37.57 3.19
6 -3 16 44.41 4.17
6 -3 16 37.87 3.76
6 3 16 36.29 3.28
6 3 17 162.36 7.96
6 3 17 157.15 7.02
6 -3 17 170.48 7.41
6 3 17 144.73 6.71
6 -3 17 171.05 8.12
6 -3 17 163.2 7.91
6 3 17 164.24 7.24
6 3 18 27 3.37
6 -3 18 24.39 3.2
6 3 18 29.64 2.72
6 -3 18 31.16 3.41
6 3 18 32.37 2.95
6 3 19 485.73 16.09
6 -3 19 450.75 15.72
6 3 19 460.25 14.97
6 -3 19 471.44 16.01
6 3 20 11.31 2.37
6 -3 20 9.86 2.23
6 -3 20 10.45 2.22
6 3 20 11.96 1.9
6 3 21 18.38 2.59
6 -3 21 17.56 2.48
6 -3 22 4.03 1.7
6 3 22 4.03 1.73
6 4 -25 14.22 1.57
6 -4 -25 16.72 1.75
6 4 -24 210.67 7.57
-6 -4 24 216.41 8.45
-6 4 24 194.63 7.7
-6 -4 24 190.85 7.86
6 4 -23 71.57 3.93
6 -4 -23 75.16 4.12
-6 -4 23 80.14 4.54
-6 4 23 68.48 4.02
-6 -4 23 69.96 4.57
6 4 -22 208.63 8.3
6 -4 -22 227.08 8.69
-6 -4 22 246.95 9.39
-6 -4 22 222.05 9.41
-6 4 22 229.75 8.83
-6 4 22 215.1 8.68
6 4 -21 161.84 7.11
6 -4 -21 174.24 7.49
-6 4 21 172.88 7.57
-6 -4 21 179.14 8.3
-6 -4 21 173.71 7.96
-6 4 21 177.71 7.65
6 4 -20 260.71 9.78
6 -4 -20 259.77 9.98
-6 4 20 239.28 9.99
-6 -4 20 279.15 10.87
-6 -4 20 280 11.11
-6 4 20 252.79 10.03
-6 4 19 56.76 4.09
6 4 -19 51.37 3.77
-6 4 19 61.37 4.3
-6 -4 19 65.08 4.76
-6 -4 19 58.24 4.67
-6 4 18 479.66 16.16
-6 4 18 457.32 17.01
-6 -4 18 464 17.63
6 4 -18 471.34 16.29
6 -4 -18 522.06 16.94
6 4 -18 456.27 16.54
-6 4 18 486.6 16.4
-6 -4 18 497.05 17
6 -4 -18 469.17 16.01
-6 -4 18 506.82 17.31
-6 4 17 146.2 7
-6 4 17 140.12 7.51
-6 -4 17 143.84 8.05
6 4 -17 148.74 7.23
6 -4 -17 161.65 7.65
6 4 -17 150.04 7.48
6 -4 -17 144.68 6.89
-6 -4 17 144.91 7.76
-6 4 16 477.93 15.88
6 -4 -16 462.63 15.59
6 4 -16 447.19 15.38
-6 4 16 445.2 16.67
-6 -4 16 469.65 17.46
6 4 -16 469.06 16.05
6 -4 -16 502.45 16.62
6 -4 -16 474.1 16.05
6 4 -16 514.3 16.73
-6 -4 16 501.14 17.04
-6 -4 16 465.23 17.12
-6 4 16 455.56 16.49
-6 4 15 418.32 14.15
6 -4 -15 407.65 13.79
6 4 -15 372.18 13.53
6 -4 -15 413.44 14.06
6 4 -15 395.67 14.17
6 -4 -15 436.09 14.75
6 -4 -15 428.76 14.66
6 4 -15 408.25 14.62
-6 -4 15 418.06 15.09
-6 -4 15 395.26 15.25
-6 4 15 388.63 14.67
-6 4 14 701.5 22.05
6 4 -14 693.9 21.83
6 -4 -14 723.84 22.16
6 4 -14 738.47 22.58
6 -4 -14 793.48 23.1
6 4 -14 746.63 22.94
6 -4 -14 717.88 21.87
-6 4 14 742.88 23.01
-6 -4 14 760.49 23.44
-6 -4 14 745.67 23.85
-6 4 14 665.82 22.85
6 -4 -14 729.24 22.88
-6 -4 13 3.16 1.87
-6 4 13 2 1.51
-6 4 13 2.69 1.41
6 4 -13 5.36 1.51
6 -4 -13 5.2 1.63
6 4 -13 4.36 2.1
6 -4 -13 3.89 1.91
6 -4 -13 2.52 2.59
6 4 -13 5.3 1.99
-6 -4 13 -1.35 2.84
-6 4 13 4.86 2.13
-6 4 12 780.21 24.49
6 4 -12 804.39 24.61
6 -4 -12 845.85 24.89
6 4 -12 837.64 25.21
6 -4 -12 856.14 25.46
6 -4 -12 851.24 26.11
6 4 -12 885.24 25.72
-6 -4 12 910.15 26.68
-6 4 12 883.88 26
-6 4 12 872.36 25.84
-6 -4 12 810.1 25.56
-6 4 11 586.34 18.17
6 -4 -11 633.89 19.98
6 4 -11 547.89 18.12
6 -4 -11 575.57 18.35
6 4 -11 593.53 18.79
6 -4 -11 608.72 18.98
6 4 -11 643.9 19.31
-6 -4 11 608.95 19.73
-6 4 11 582.61 19.1
-6 4 11 610.64 19.15
6 4 -10 1021.9 28.57
6 -4 -10 943.69 28.25
6 4 -10 930.57 27.79
6 -4 -10 937.81 27.85
6 4 -10 969.29 28.38
6 -4 -10 1047.52 28.68
6 -4 -10 951.33 29.4
6 4 -10 988.52 28.57
-6 4 10 1016.45 28.78
6 4 -10 925.55 27.5
6 4 -9 316.79 11.31
6 -4 -9 320.09 11.32
6 4 -9 301.42 11.26
6 4 -9 309.14 11.29
6 -4 -9 313.47 11.35
-6 4 9 316.4 11.43
6 -4 -9 282.97 11.97
6 4 -9 308.41 10.72
6 4 -8 1022 29.43
6 -4 -8 1021.72 29.4
6 4 -8 1114.53 29.77
6 -4 -8 976.71 29.24
6 -4 -8 902.64 30.07
6 4 -8 1004.22 29.3
6 -4 -8 1013.2 30.26
-6 4 8 1039.7 29.51
6 4 -8 994.48 28.73
6 4 -7 54.94 3.86
6 -4 -7 60.11 4.03
6 4 -7 65.43 4.15
6 -4 -7 64.85 4.15
-6 4 7 59.7 3.99
6 -4 -7 63.58 4.76
6 4 -7 62.85 4.05
6 4 -7 59.65 3.69
6 -4 -6 878.8 25.69
6 -4 -6 905.95 25.83
6 4 -6 922.12 25.86
6 4 -6 836.66 25.3
-6 4 6 877.25 25.63
6 4 -6 875.03 25.11
6 -4 -5 1265.3 36.19
6 4 -5 1195.02 35.91
6 -4 -5 1305.94 36.37
6 4 -5 1260.19 35.81
6 4 -5 1343.23 36.35
-6 4 5 1334.92 36.21
6 -4 -4 1120.85 32.91
6 4 -4 1197.91 33.07
-6 4 4 1157.54 32.75
-6 4 3 96.96 4.96
-6 4 2 991.32 28.31
-6 4 1 30.84 2.74
6 4 0 721.19 21.08
6 -4 0 695.52 21.28
-6 4 0 716.39 21.16
6 4 1 1673.03 44.27
6 -4 1 1602.78 44.46
-6 4 -1 1592.12 44.21
6 4 2 632.85 18.67
6 -4 2 606.04 18.85
-6 4 -2 582.6 18.56
6 4 2 637.81 18.99
6 -4 3 17.19 2.2
-6 4 -3 15.36 2
6 4 3 18.5 2.05
6 -4 4 645.48 20.27
6 4 4 680.51 19.98
6 4 4 627.15 19.64
6 -4 4 690.42 20.25
-6 4 -4 636.45 19.78
6 4 4 656.22 19.77
6 4 5 700.17 21.05
6 4 5 741.21 21.18
6 -4 5 699.49 21.56
6 -4 5 647.35 21.95
-6 4 -5 706.49 21.16
6 4 5 703.14 20.82
6 4 5 713.54 21.05
6 -4 5 678.56 20.99
6 4 6 553.61 16.92
6 -4 6 498.85 17.81
6 -4 6 540.66 17.51
6 -4 6 531.21 17.78
-6 4 -6 552.41 17.08
6 4 6 535.67 16.88
6 4 6 551.16 16.84
6 -4 6 533.27 17.02
6 -4 7 596.5 17.79
6 4 7 555.58 17.07
6 -4 7 548.13 17.31
6 -4 7 569.88 18.09
6 4 7 549.85 17.18
6 -4 7 506.65 18.17
6 -4 7 532.86 17.32
6 -4 7 539.32 18.17
-6 4 -7 546.58 17.47
6 4 7 559.89 17.39
6 4 7 573.5 17.34
6 4 8 512.7 16.48
6 -4 8 545.62 16.98
6 4 8 489.52 17.26
6 4 8 514.38 16.27
6 -4 8 513.02 16.54
6 -4 8 531.06 17.32
6 -4 8 495.28 17.48
6 -4 8 523.82 16.77
6 -4 8 525.48 17.49
-6 4 -8 553.22 16.99
6 4 8 515.72 16.55
6 4 9 22.6 2.41
6 -4 9 22.51 2.65
6 -4 9 18.95 2.76
6 4 9 23.37 3.37
6 4 9 22.24 2.38
6 -4 9 21.65 2.51
6 -4 9 22.85 3.84
6 -4 9 20.5 2.56
6 -4 9 22.92 2.82
-6 4 -9 27.98 3.01
6 4 9 18.22 2.99
6 4 10 278.74 10.5
6 -4 10 288.1 10.86
6 4 10 271.8 11.17
6 4 10 292.03 10.47
6 -4 10 301.1 10.73
6 -4 10 293.38 11.37
6 -4 10 275.93 10.98
6 -4 10 264.33 10.89
-6 4 -10 270.61 10.66
6 4 10 280.85 10.53
6 4 11 227.69 10.04
6 4 11 228.18 8.97
6 -4 11 256.37 9.56
6 -4 11 231.03 10.01
6 -4 11 237.41 9.72
-6 4 -11 248.89 9.81
6 4 11 220.01 9.19
6 4 12 150.97 7.72
6 4 12 152.71 6.9
6 -4 12 170.99 7.39
6 -4 12 160.01 8
6 -4 12 160.93 7.65
-6 4 -12 156.1 7.53
6 4 12 163.74 7.32
6 4 13 124.61 6.89
6 4 13 126.19 6.09
6 -4 13 139.65 6.55
6 -4 13 138.06 7.05
-6 4 -13 125.44 6.74
6 -4 13 138.08 7.33
6 4 14 127 5.81
6 4 14 135.95 7.2
6 4 14 135.78 6.32
6 -4 14 149.18 6.76
6 -4 14 141.78 7.41
6 -4 14 147.87 7.29
-6 4 -14 129.22 6.94
6 4 15 127.09 7.03
6 4 15 128.06 6.14
6 -4 15 141.66 6.63
6 -4 15 140.77 7.43
6 -4 15 147.91 7.33
6 4 16 89.91 4.8
6 -4 16 83.67 4.89
6 4 16 91.66 5.73
6 -4 16 87.69 5.83
6 -4 16 94.02 5.68
6 4 17 191.68 7.86
6 -4 17 209.52 8.26
6 4 17 205.61 9.02
6 -4 17 211.3 9.22
6 -4 17 197.42 8.77
6 4 17 188.03 8.08
6 4 18 170.96 8.01
6 -4 18 181.75 8.39
6 -4 18 193.81 8.33
6 4 18 186.8 7.69
6 4 19 10.71 2.39
6 -4 19 15.54 2.52
6 -4 19 18.89 2.58
6 4 19 17.03 2.22
6 -4 20 108.23 5.67
6 -4 21 79.29 4.56
6 -4 22 50.66 3.51
-6 -5 25 14 1.46
-6 -5 25 18.07 2.1
6 5 -24 22.5 1.81
-6 -5 24 19.89 2.37
-6 -5 24 20.18 2.04
6 5 -23 648.85 19.51
-6 -5 23 748.8 21.29
-6 5 22 0.4 1.35
6 5 -22 3.06 1.19
6 -5 -22 2.35 1.22
-6 5 22 0.48 1.12
-6 -5 22 -0.28 1.42
-6 -5 22 -0.17 1.7
-6 5 22 -0.13 1.12
-6 -5 22 -0.44 1.38
6 5 -21 408.72 13.82
6 -5 -21 461.3 14.33
-6 5 21 455.75 14.39
-6 -5 21 427.56 14.7
-6 -5 21 473.01 15.61
-6 5 21 435.4 14.54
-6 5 20 5.16 1.83
6 5 -20 3.27 1.52
6 -5 -20 5.2 1.76
-6 5 20 7.73 1.62
-6 -5 20 7.25 1.81
-6 -5 20 5.2 2.33
-6 5 19 79.18 4.83
-6 5 19 79.15 4.63
6 5 -19 74.24 4.35
6 -5 -19 69.42 4.34
-6 -5 19 86.43 5.18
-6 -5 19 74.71 5.31
-6 5 18 170.12 7.59
6 5 -18 150.06 6.86
6 -5 -18 169.74 7.32
-6 5 18 163.24 7.38
-6 -5 18 160.11 7.77
-6 -5 18 176.02 8.51
-6 5 17 1156.2 33.2
-6 5 17 1071.08 33.79
6 5 -17 1013.67 32.15
6 -5 -17 1180.52 32.93
6 -5 -17 1160.24 33.48
-6 5 17 1188.31 33.32
-6 -5 17 1218.95 34.13
-6 -5 17 1223.38 34.74
6 5 -17 1172.72 33.97
-6 5 16 0.68 1.45
6 -5 -16 1.29 1.5
6 5 -16 4.97 1.53
6 -5 -16 3.15 1.52
-6 -5 16 1.92 1.79
-6 5 16 -0.21 1.43
6 -5 -16 3.09 1.8
6 5 -16 2.03 1.55
-6 -5 16 3.57 2.19
-6 5 15 875.98 26.05
6 5 -15 818.56 25.34
6 -5 -15 931.82 26
-6 5 15 841.5 26.79
-6 -5 15 913.73 28.01
6 5 -15 805.28 25.79
6 -5 -15 910.82 26.49
6 -5 -15 844.34 26.4
6 5 -15 886.72 26.82
-6 -5 15 952.74 27.7
-6 -5 15 864.23 27.32
-6 5 15 849.32 26.57
-6 5 14 77.16 5.01
6 -5 -14 87.21 5.63
6 5 -14 75.83 4.71
6 -5 -14 84.33 5.04
6 5 -14 79.45 4.63
6 -5 -14 87.63 4.88
-6 5 14 78.08 5.26
6 5 -14 81.82 4.88
6 -5 -14 79.13 4.96
6 5 -14 89.36 5.42
-6 5 14 79.27 5.17
-6 -5 14 79.32 5.53
-6 -5 14 73.38 5.43
-6 5 14 84.14 5.27
-6 5 13 5.63 1.8
-6 -5 13 2.91 1.75
-6 5 13 5 1.67
-6 5 13 4.97 2.01
6 5 -13 4.71 2.3
6 -5 -13 4.05 1.74
6 5 -13 2.78 1.61
6 5 -13 4.43 1.77
-6 -5 13 5.82 2.67
6 5 -13 3.82 1.37
6 -5 -13 2.73 1.35
-6 5 13 6.25 2.21
6 -5 -13 3.74 2.11
6 -5 -13 3.44 1.54
-6 5 12 90.54 5.01
-6 5 12 87.14 5.25
6 5 -12 76.76 4.56
6 -5 -12 83.66 4.71
6 5 -12 77.23 4.69
6 -5 -12 83.01 4.85
6 -5 -12 90.42 6.19
6 5 -12 80.99 4.92
6 -5 -12 74.69 4.71
-6 5 12 86.03 5.31
6 5 -12 82.22 5.18
-6 -5 12 82.44 5.46
-6 5 12 85.38 5.2
-6 -5 12 83.23 5.58
-6 5 11 1587.72 43.32
6 5 -11 1484.48 42.84
6 -5 -11 1590.76 43.19
6 5 -11 1556.93 43.5
6 -5 -11 1594.98 45.14
6 -5 -11 1516.08 43.36
6 5 -11 1532.54 43.4
6 -5 -11 1649.74 43.82
6 5 -11 1630.58 44.25
-6 5 11 1649.38 44.33
-6 -5 11 1572.79 44.63
-6 5 11 1501.95 43.76
-6 -5 11 1501.41 44.01
6 -5 -10 34.6 3.05
6 5 -10 43.55 3.35
6 -5 -10 38.43 3.29
6 5 -10 44.21 3.36
6 -5 -10 37.71 3.21
6 -5 -10 40.32 4.06
-6 -5 10 42.31 3.72
-6 5 10 42.36 3.43
-6 5 10 45.6 3.95
6 5 -10 41.8 3.6
6 5 -10 44.86 3.34
6 -5 -9 1851.91 50.94
6 5 -9 1806.66 51.11
6 -5 -9 1925.55 51.45
6 5 -9 1878.12 51.34
6 -5 -9 1890.95 51.39
6 -5 -9 1903.85 53.22
6 5 -9 1879.75 51.83
-6 -5 9 1889.88 51.94
-6 5 9 1736.75 51.06
-6 5 9 2005.72 52.06
6 5 -9 1909.37 51.26
6 5 -8 110.38 5.67
6 -5 -8 118.69 5.89
6 5 -8 117.13 5.84
6 -5 -8 117.54 5.85
6 5 -8 113.72 5.98
6 -5 -8 109.16 6.71
6 -5 -8 120.39 6.72
-6 5 8 115.51 6.09
6 5 -8 122.19 5.85
6 5 -7 55.6 3.79
6 -5 -7 65.27 4.13
6 5 -7 59.95 4.16
6 -5 -7 54.91 4.75
6 5 -7 63.71 4
6 -5 -7 63.95 4.11
6 -5 -7 61.9 4.77
-6 5 7 62.93 4.3
6 5 -7 61.96 3.99
6 5 -6 54.86 3.91
6 -5 -6 57.13 4.75
6 -5 -6 60.3 4.75
6 5 -6 59 3.86
6 -5 -6 56.93 3.9
-6 5 6 61.65 4.2
6 5 -6 71.71 4.21
6 -5 -5 1061.62 32.89
-6 5 5 1134.89 32.02
6 5 -5 1173.46 31.77
6 -5 -5 1080.44 31.68
6 5 -5 1076.66 31.71
6 -5 -4 8.79 2.25
6 -5 -4 10.11 2.38
-6 5 4 9.25 1.94
6 5 -4 10.1 1.89
6 -5 -3 2217.03 59.42
-6 5 3 2246.52 58.17
6 -5 -2 97.39 5.03
6 -5 -2 102.6 6.09
-6 5 2 94.5 5.14
6 5 -1 41.03 2.9
6 -5 -1 32.96 2.8
-6 5 1 41.65 3.22
6 -5 0 4.19 1.34
6 5 0 5.57 1.56
-6 5 0 4.54 1.5
6 5 0 4.94 1.25
6 -5 1 444.79 16.35
6 5 1 509.3 15.85
6 5 1 488.01 15.06
-6 5 -1 485.2 15.57
6 -5 1 459.99 15.25
6 -5 2 11.7 1.85
6 5 2 13.81 2.11
6 -5 2 12.51 2.39
-6 5 -2 12.41 1.98
6 5 2 17.62 2.11
6 5 2 14.59 1.82
6 -5 3 2753.78 73.75
6 5 3 2872.67 73.36
6 -5 3 2574.79 74.3
6 5 3 2904.38 72.81
-6 5 -3 2701.81 73.08
6 -5 3 2557.49 74.09
6 -5 3 2652.17 72.86
6 5 3 2867.88 73
6 5 4 144.95 6.49
6 -5 4 130.11 6.81
6 -5 4 133.66 7.24
6 -5 4 137.19 6.77
6 -5 4 143.58 7.33
-6 5 -4 142.87 6.51
6 5 4 143.34 6.32
6 5 4 139.85 5.99
6 -5 4 134.8 6.11
6 -5 5 186.97 7.47
6 -5 5 186.22 8.13
6 5 5 180.8 7.66
6 -5 5 168.78 8.04
6 -5 5 180.02 8.63
6 -5 5 173.68 8.42
-6 5 -5 191.57 7.91
6 5 5 191.07 7.65
6 5 5 186.56 7.33
6 -5 5 184.42 7.54
6 5 6 2.47 1.09
6 -5 6 2.02 1.21
6 -5 6 1.25 1.54
6 -5 6 2.82 1.83
6 -5 6 0.55 1.2
6 -5 6 1.65 1.58
-6 5 -6 1.29 1.43
6 5 6 2.11 1.2
6 5 6 1.16 1.17
6 5 7 35.58 2.84
6 -5 7 33.99 3.04
6 5 7 31.89 2.63
6 -5 7 34.61 2.88
6 -5 7 37.74 3.51
6 5 7 29.17 2.78
6 -5 7 29.4 3.51
6 -5 7 32.28 3.5
-6 5 -7 29.44 3.28
6 5 7 41.6 3.26
6 5 8 7.04 1.58
6 -5 8 8.31 1.79
6 5 8 9.66 1.73
6 -5 8 6.66 1.64
6 5 8 5.89 1.49
6 -5 8 4.58 1.96
6 -5 8 5.72 2.13
-6 5 -8 7.67 1.86
6 5 8 8.12 2.24
6 5 9 1404.53 38.52
6 -5 9 1392.49 38.89
6 5 9 1387.46 39.79
6 5 9 1290.61 37.95
6 -5 9 1438.87 38.64
6 -5 9 1453.54 39.86
6 5 9 1380.8 38.35
6 -5 9 1291.7 39.78
6 -5 9 1366.81 39.97
-6 5 -9 1395.42 39.27
6 5 9 1362.82 38.68
6 5 10 36.78 3.74
6 5 10 44.89 3.16
6 -5 10 38.86 3.19
6 -5 10 40.5 3.99
6 -5 10 37.86 3.85
6 -5 10 40.92 3.61
6 -5 10 32.86 3.67
-6 5 -10 38.68 3.57
6 5 10 42.55 3.43
6 5 11 147.55 7.43
6 5 11 138.86 6.25
6 -5 11 144.05 6.61
6 -5 11 147.52 7.51
6 -5 11 121.13 7.11
6 -5 11 143.46 6.91
6 -5 11 140.72 7.36
-6 5 -11 155.95 7.29
6 5 11 135.69 6.63
6 5 12 31.51 3.45
6 5 12 26.74 2.63
6 -5 12 26.75 2.82
6 -5 12 25.84 3.23
6 -5 12 24.55 2.92
6 -5 12 26.14 3.1
-6 5 -12 29.38 3.14
6 5 12 28.99 2.9
6 -5 13 -0.21 1.84
6 5 13 1.41 1.76
6 5 13 0.41 1.2
6 -5 13 -0.15 1.34
6 -5 13 0.54 1.54
-6 5 -13 4.21 1.42
6 5 13 -0.66 1.4
6 5 14 49.86 3.42
6 5 14 58.02 3.7
6 -5 14 59.91 4.01
6 -5 14 60.23 4.79
6 -5 14 57.01 4.29
6 5 14 62.46 4.25
6 5 15 836.07 25.65
6 5 15 881.34 25.93
6 -5 15 923.42 26.49
6 -5 15 945.64 28.07
6 -5 15 936.24 27.31
6 5 15 939.38 26.89
6 -5 16 12.59 2.74
6 -5 16 16.19 2.58
6 5 16 18.23 2.5
6 -5 17 142.58 7.12
6 -5 17 128.57 6.47
6 -5 18 9.49 2.32
6 -5 18 6.88 1.92
6 -5 19 0.48 1.63
6 -5 20 14.97 2.26
6 -5 21 222.97 8.5
-6 -6 24 163.09 6.53
-6 -6 23 36.47 3.08
-6 6 23 31.13 2.49
-6 -6 22 56.45 3.92
-6 6 22 49.22 3.26
-6 -6 21 57.46 4.14
-6 6 21 47.6 3.41
-6 6 20 760.24 22.01
-6 -6 20 805.72 23.21
-6 6 19 9.26 2.15
-6 -6 19 10.86 2.41
-6 6 18 319.35 11.53
6 -6 -18 290.6 10.65
-6 6 18 311.19 10.98
-6 6 17 276.61 10.49
6 -6 -17 260.64 9.71
6 -6 -17 266.05 10.31
-6 6 17 272.39 10.05
-6 -6 17 284.5 11.53
-6 6 16 2.54 1.69
6 -6 -16 4.17 1.32
6 -6 -16 1.62 1.7
-6 6 16 3.64 1.47
6 6 -16 1.63 1.37
-6 -6 16 6.29 2.26
-6 6 15 88.73 5.16
6 -6 -15 89.48 4.8
6 -6 -15 79.39 5.24
6 6 -15 78.98 5.28
-6 6 15 80.2 4.79
6 6 -14 622.6 20.72
-6 6 14 654.1 20.18
-6 6 14 645.85 20.35
6 -6 -14 634.52 19.47
6 -6 -14 651.87 20.98
-6 6 14 609.42 20.59
-6 -6 14 648.11 21.36
-6 6 13 50.34 3.75
-6 6 13 47.34 3.85
6 -6 -13 41.74 3.31
6 -6 -13 45.56 4.26
6 6 -13 43.28 3.86
-6 6 13 42.06 3.86
-6 -6 13 47 4.29
-6 6 12 752.16 22.53
6 6 -12 679.54 21.85
6 -6 -12 691.12 23.59
6 6 -12 770.19 23.34
-6 6 12 753.74 23.18
-6 -6 12 738.35 23.49
-6 6 11 242.17 9.43
6 -6 -11 221.11 8.92
6 -6 -11 201.51 10.05
6 6 -11 219.96 8.81
6 6 -11 226.22 9.68
-6 6 11 225.32 9.63
-6 -6 11 235.56 9.94
-6 -6 11 236 9.92
6 6 -11 228.42 9.27
-6 6 10 121.52 5.92
6 -6 -10 120.01 5.96
6 6 -10 119.09 6.47
6 -6 -10 113.82 7.32
-6 6 10 124.95 6.59
-6 -6 10 118.47 6.53
-6 -6 10 126.2 6.96
6 6 -10 124.29 6.21
6 6 -10 114.73 5.75
6 -6 -9 145.6 6.79
6 6 -9 149.98 7.43
6 6 -9 140.23 6.57
6 -6 -9 163.64 8.11
-6 -6 9 162.54 7.51
-6 6 9 158 7.53
6 6 -9 155.67 7.18
6 -6 -9 133.63 8.7
6 6 -8 955.98 29.87
6 -6 -8 984.34 31.56
-6 -6 8 1031.05 29.89
6 -6 -8 1065.72 31.21
6 6 -8 985.1 29.03
-6 6 8 1049.12 30.25
6 6 -8 1008.41 29.75
6 -6 -7 60.53 4.97
6 -6 -7 59.23 5.17
-6 6 7 67.8 4.74
6 6 -7 50.81 3.57
6 6 -7 53.86 3.97
6 -6 -6 1627.02 44.97
-6 6 6 1562.88 43.54
6 6 -6 1551.98 43.32
6 -6 -5 357.7 13.61
-6 6 5 332.37 12.27
6 6 -5 337.14 12.3
6 -6 -4 37.81 4.02
-6 6 4 36.24 3.29
6 6 -4 37.94 3.35
6 6 -3 33.44 2.48
-6 6 3 35.76 3.19
6 6 -2 356.12 11.56
6 -6 -2 335.58 13.42
6 -6 -2 325.69 13.36
-6 6 2 342.73 12.43
6 6 -2 364.32 12.01
6 6 -1 258.44 10.31
6 -6 -1 242.04 10.8
6 -6 -1 268.13 11.36
6 6 -1 265.04 9.27
-6 6 1 258.1 10.14
6 6 -1 277.81 9.8
6 6 0 1453.19 39.71
6 6 0 1449.08 40.35
6 -6 0 1359.41 41.1
-6 6 0 1412.02 40.15
6 6 0 1484.33 39.59
6 6 0 1384.68 38.9
6 6 1 324.43 11.13
6 6 1 319.02 10.66
6 6 1 316.05 11.66
6 -6 1 287.57 12.11
-6 6 -1 308.19 11.55
6 6 1 323.09 11.14
6 6 2 171.15 6.73
6 6 2 162.46 6.81
6 6 2 162.65 7.48
6 -6 2 155.87 7.97
-6 6 -2 161.19 7.41
6 6 2 176.9 7.16
6 6 3 51.22 3.31
6 6 3 53.52 3.82
6 -6 3 43.79 4.04
-6 6 -3 50.32 3.94
6 -6 3 51.1 4.44
6 6 3 51.56 3.52
6 6 3 45.44 3.03
6 6 4 252.11 8.96
6 6 4 256.09 10
6 -6 4 234.31 10.45
-6 6 -4 253.38 10.22
6 -6 4 256.02 11.01
6 6 4 271.96 9.72
6 6 4 253.1 9.01
6 6 5 321.4 10.9
6 -6 5 329.94 12.38
6 6 5 318.39 11.79
6 -6 5 314.6 12.5
-6 6 -5 322.3 11.98
6 -6 5 334.19 13.22
6 6 5 330.4 11.63
6 6 6 1723.23 46.73
6 -6 6 1729.05 48.47
6 6 6 1748.79 47.85
6 -6 6 1595.46 48.35
6 -6 6 1723.49 49.36
-6 6 -6 1761.49 48.18
6 6 6 1787.55 47.6
6 -6 7 181.42 8.43
6 6 7 175.82 7.23
6 -6 7 173.83 8.4
6 6 7 188.48 8
6 -6 7 187.89 9.13
-6 6 -7 187.75 8.3
6 6 7 187.59 7.87
6 6 8 198.63 7.74
6 -6 8 187.93 8.93
6 6 8 192 8.14
6 -6 8 192.76 9.49
-6 6 -8 191.01 8.57
6 6 8 196.25 8.21
6 6 9 11.62 1.89
6 -6 9 13.74 2.67
6 -6 9 10.99 2.8
6 -6 9 11.7 2.74
-6 6 -9 9.99 2.06
6 6 9 12.08 2.12
6 -6 10 28.46 2.75
6 -6 10 32.78 3.54
6 6 10 29.4 2.77
6 -6 10 24.29 3.41
6 -6 10 31.86 3.73
-6 6 -10 29.49 3.17
6 6 10 32.35 3.04
6 -6 11 103.58 5.2
6 -6 11 102.13 6.34
6 -6 11 100.56 6.32
-6 6 -11 103.13 5.97
6 6 11 102.95 5.6
6 -6 11 99.92 6.11
6 -6 12 971.84 27.78
6 -6 12 1031.43 29.66
6 -6 12 883.37 29.05
6 -6 12 919.67 29.23
-6 6 -12 943.66 29.09
6 6 12 1019.76 28.59
6 -6 13 37.26 3.09
6 -6 13 36.44 3.72
6 6 13 40.53 3.42
6 6 14 193.13 7.69
6 -6 14 190.46 7.69
6 -6 14 198.14 9.03
6 6 14 198.68 8.24
6 6 15 24.85 2.43
6 -6 15 30.56 3.52
6 6 15 28.23 2.99
6 6 16 9.49 1.68
6 -6 16 12.23 2.45
6 6 16 13.18 2.23
6 6 17 212.51 8.79
6 -6 17 222.43 9.18
6 6 17 212.92 8.4
6 6 18 304.32 11.16
6 -6 18 334.29 11.78
6 6 18 309.92 10.85
6 -6 19 5.45 1.77
6 6 19 4.62 1.59
6 6 20 72.38 3.98
6 -6 20 63.57 3.95
-6 -7 23 119.88 5.03
-6 7 23 94.18 4.25
-6 -7 22 40.14 3.09
-6 7 22 38.88 2.68
-6 -7 21 201.61 8.1
-6 7 21 185.29 7.27
-6 7 20 42.56 3.12
-6 -7 20 46.4 3.68
-6 7 19 440.71 14.21
-6 -7 19 465.5 15.19
-6 7 18 148.95 6.86
6 7 -18 148.27 6.61
-6 -7 18 169.58 7.91
-6 7 17 252.58 9.51
6 7 -17 228.08 9.17
6 -7 -17 225.94 9.07
-6 -7 17 237.72 10.19
-6 7 16 8.16 1.91
6 -7 -16 9.73 2.08
-6 -7 16 11.66 2.63
-6 7 15 85.59 5.06
6 -7 -15 86.43 5.33
-6 -7 15 95.16 6.1
-6 7 14 254.9 9.96
6 -7 -14 254.75 10.68
6 7 -14 235.96 10.32
-6 -7 14 266.95 11.06
-6 7 13 823.8 24.71
6 7 -13 780.21 25.42
6 -7 -13 803.61 25.91
-6 7 12 188.78 8
6 -7 -12 195.22 9.42
6 7 -12 175.57 8.49
-6 -7 12 195.4 9.1
-6 7 11 98.28 5.45
6 -7 -11 108.4 6.9
-6 -7 11 104.39 6.27
6 7 -11 101.84 5.76
6 7 -11 89.7 5.71
-6 -7 10 7.2 2.61
6 -7 -10 8.05 2.78
6 7 -10 6.33 1.75
6 -7 -9 281.51 12.76
6 -7 -9 290.95 12.01
-6 -7 9 278.32 11.32
6 7 -9 289.06 11.31
6 -7 -8 288.32 13.07
6 -7 -8 294.86 12.25
6 7 -8 280 11.25
6 -7 -7 758.74 25.87
6 -7 -7 779.59 25.19
6 7 -7 751.62 23.86
6 -7 -6 425.89 16.43
6 -7 -6 432.39 16.3
6 -7 -5 339.7 14.44
6 -7 -5 361.38 14.72
6 7 -5 323.87 12.64
6 -7 -4 145.02 8.97
6 7 -4 161.02 7.73
6 7 -3 49.21 4.19
6 -7 -3 39.74 5.48
6 7 -2 629.69 19.6
6 -7 -2 589.61 21.14
6 -7 -2 584.73 21.17
6 -7 -1 777.76 26.23
6 -7 -1 769.09 26.38
6 7 0 90.01 5.43
6 -7 0 86.33 6.46
6 -7 0 93.44 7.23
-6 7 0 86.72 5.43
6 7 0 88.88 5.06
6 7 1 736.7 23.02
6 7 1 779.04 24.02
6 -7 1 777.42 25.32
-6 7 -1 777.72 24.01
6 7 1 796.62 23.01
6 7 2 301.65 10.88
6 7 2 314.14 11.78
6 -7 2 310.49 12.9
-6 7 -2 300.31 11.72
6 7 2 308.1 10.92
6 7 3 126.56 5.82
6 7 3 135.97 6.71
6 -7 3 129.37 7.56
-6 7 -3 126.35 6.64
6 -7 3 124.47 7.49
6 7 3 118.22 6.08
6 7 4 189.53 7.52
6 7 4 192.66 8.54
6 -7 4 193.87 9.37
-6 7 -4 186.81 8.62
6 -7 4 197.49 9.78
6 7 4 196.39 8.04
6 7 5 1435.02 39.25
6 -7 5 1353.14 40.11
-6 7 -5 1334.01 39.21
6 -7 5 1431.99 41.02
6 7 5 1434.14 38.44
6 7 5 1271.35 37.32
6 7 6 1.82 1.45
6 -7 6 0.68 2.2
6 -7 6 5.29 2.38
-6 7 -6 5.74 1.82
6 7 6 1.7 1.76
6 7 7 240.75 9.81
6 -7 7 236.01 10.53
-6 7 -7 243.81 10.2
6 -7 7 249.64 11.15
6 7 7 256.77 9.62
6 -7 7 232.81 10.13
6 7 8 498.36 16.6
6 -7 8 466.64 17.09
-6 7 -8 491.59 17.13
6 -7 8 521.24 18.41
6 7 8 512.05 16.44
6 -7 8 507.89 17.24
6 -7 9 348 13.21
6 7 9 344.51 12.53
6 -7 9 332.69 13.03
6 -7 9 344.62 13.99
6 -7 9 373.67 14.37
-6 7 -9 373.17 13.49
6 7 9 326.57 11.75
6 7 9 397.05 12.87
6 -7 10 222.53 9.45
6 7 10 201.83 8.39
6 -7 10 198.18 9.64
6 -7 10 202.26 9.79
-6 7 -10 201.65 9.14
6 7 10 204.32 7.95
6 7 10 219.59 8.75
6 7 11 172.32 7.46
6 7 11 176.32 8.45
6 -7 11 183.21 8.5
6 -7 11 186.81 8.97
6 -7 11 183.81 9.06
6 7 11 187.16 7.94
6 7 12 15.09 2.6
6 -7 12 19.12 2.91
6 -7 12 13.25 2.67
6 -7 12 14.36 2.76
6 7 12 16.47 2.32
6 7 13 308.82 11.86
6 -7 13 322.56 12.11
6 -7 13 277.56 11.78
6 7 13 318 11.31
6 7 14 264.64 9.89
6 7 14 270.7 10.77
6 -7 14 283.55 11.1
6 7 14 302.56 10.61
6 7 15 63.97 3.79
6 7 15 63.5 4.37
6 -7 15 72.3 4.72
6 7 15 64.92 4.12
6 7 16 15.47 1.92
6 7 16 19.88 2.49
6 -7 16 15.96 2.66
6 7 16 22.29 2.48
6 7 17 126.81 6.02
6 -7 17 129.16 6.27
6 7 17 130.56 5.79
6 7 18 19.83 2.32
6 -7 18 19.51 2.45
6 7 19 206.55 7.64
6 -7 19 204.77 7.85
-6 -8 22 522.53 15.06
-6 8 22 488.55 14.61
-6 8 21 0.28 0.99
-6 -8 21 0.57 1.17
-6 8 20 2.87 1.2
-6 -8 20 4.93 1.68
-6 8 19 2.26 1.33
6 8 -19 3.2 1.08
-6 -8 19 1.81 1.58
-6 8 18 59.94 3.84
6 8 -18 61.02 3.59
-6 -8 18 66.01 4.37
-6 8 17 0.56 1.27
6 8 -17 1.77 1.32
6 -8 -17 4.49 1.6
-6 -8 17 0.9 1.73
-6 8 16 926.39 26.76
6 8 -16 904.49 26.83
6 -8 -16 864.56 26.57
-6 -8 16 964.56 27.93
-6 8 15 6.84 1.91
6 8 -15 5.63 1.86
6 -8 -15 5.92 1.95
-6 -8 15 6.09 2.13
-6 8 14 113.5 5.94
6 8 -14 121.56 6.42
6 -8 -14 121.23 6.59
-6 -8 14 131.39 6.97
6 8 -13 18.39 2.77
6 -8 -13 24.42 3.32
-6 -8 13 22.3 3.28
6 -8 -12 156.35 8.23
6 8 -12 150.15 7.53
-6 8 12 150.3 7.46
-6 -8 12 146.95 7.74
-6 8 11 0.31 1.33
6 -8 -11 1.57 2.25
-6 -8 11 5.77 2.23
-6 8 11 0.2 1.48
6 8 -11 0.21 1.61
6 8 -11 1.2 1.34
6 -8 -10 1453.22 42.56
-6 8 10 1379.05 40.47
-6 -8 10 1466.32 40.99
6 8 -10 1471.06 41.14
6 8 -10 1312.92 40.36
6 8 -9 5.32 2.27
6 -8 -9 3.2 2.67
6 -8 -9 6.76 2.37
-6 -8 9 5.95 2.13
-6 8 9 7.35 2
6 8 -9 5.4 1.76
6 8 -8 149.27 7.68
6 -8 -8 136.68 8.63
6 -8 -8 161.04 8.39
-6 8 8 137.88 7.28
-6 -8 8 158.11 7.64
6 8 -8 146.57 7.52
6 8 -7 0.21 1.74
6 -8 -7 0.3 2.29
6 -8 -7 2.86 2.35
-6 -8 7 -0.19 2.16
-6 8 7 1.02 1.42
6 8 -7 1.28 1.16
6 -8 -6 4.24 2.82
6 -8 -6 6.21 2.55
-6 8 6 4.29 1.82
6 8 -6 2.57 1.48
6 -8 -5 10.17 3.01
-6 8 5 7.93 2.03
6 8 -5 2.6 1.48
6 8 -4 1991.25 52.81
6 -8 -4 1824.19 54.08
-6 8 4 1841.93 52.51
6 8 -4 1842.28 52.88
6 8 -3 5.47 2.06
6 -8 -3 4.45 2.87
-6 8 3 7.29 2.1
6 8 -2 763.17 23.43
6 8 -2 758.43 23.82
6 -8 -2 752.92 25.32
-6 8 2 707.4 23.49
6 8 -1 0.54 1.95
6 -8 -1 1.91 2.51
6 -8 -1 2.75 2.88
6 8 0 0.17 1.67
6 -8 0 1.34 2.09
6 -8 0 0.27 2.28
6 8 1 3.74 1.86
6 8 1 3.08 1.81
6 -8 1 4.74 2.56
6 -8 1 6 2.7
6 8 2 1553.78 44.61
6 8 2 1680.6 45.98
6 -8 2 1655.02 47.36
6 8 3 28.65 2.81
6 8 3 22.81 3
6 -8 3 29.58 3.87
6 8 3 29.42 3.04
6 8 4 858.81 26.3
6 8 4 956.45 28.04
6 -8 4 883.69 28.88
6 8 4 962.32 26.81
6 8 5 5.79 1.84
6 8 5 6.4 1.46
6 -8 5 6.27 2.34
6 -8 5 5.35 2.53
6 8 5 8.2 1.95
6 8 6 0.19 1.35
6 -8 6 0.25 2.07
6 -8 6 2.67 2.21
6 8 6 1.67 1.36
6 -8 7 18.75 3.08
6 -8 7 17.85 3.37
6 8 7 21.08 2.57
6 8 7 18.13 2.61
6 8 8 893.09 26.58
6 -8 8 897.48 27.6
6 -8 8 891.56 28.42
6 8 8 828.46 25.54
6 8 8 897.59 26.02
6 8 9 22.94 3.2
6 8 9 26.68 2.85
6 -8 9 23.83 3.21
6 -8 9 27.76 3.89
6 -8 9 26.73 3.81
6 8 9 24.9 2.54
6 8 9 22.58 2.65
6 8 10 712.9 22.71
6 8 10 704.56 21.72
6 -8 10 672.62 22.24
6 -8 10 765.48 23.89
6 -8 10 797.59 24.31
6 8 10 668.33 20.99
6 8 10 709.05 21.59
6 8 11 11.81 2.52
6 -8 11 15.77 2.97
6 8 11 15.16 2.09
6 -8 11 13.91 2.87
6 8 11 12.75 1.8
6 8 11 16.84 2.43
6 8 12 -0.91 2.06
6 -8 12 0.22 1.9
6 8 12 1.46 1.53
6 8 13 9.37 2.07
6 -8 13 12.75 2.53
6 8 13 8.58 1.89
6 8 14 131.3 5.91
6 8 14 141.12 6.66
6 8 14 142.27 6.27
6 8 15 1.16 1.18
6 8 15 2.74 1.7
6 8 15 1.76 1.33
6 8 16 578.85 17.73
6 8 16 619.21 18.52
6 8 16 621.84 18.21
6 8 17 2.2 1.39
6 8 18 0.6 1.29
-6 9 20 34.63 2.31
-6 -9 20 32.42 2.29
-6 9 19 255.68 8.55
-6 -9 19 245.92 8.67
-6 9 18 192.58 6.99
-6 -9 18 192.73 7.27
-6 9 17 124.28 5.55
6 9 -17 116.8 5.24
-6 9 16 10.72 1.86
6 9 -16 9.7 1.81
6 -9 -16 11.31 1.9
-6 -9 16 10.73 2.05
-6 9 15 210.44 8.41
6 9 -15 229.21 8.81
6 -9 -15 215.04 8.66
-6 -9 15 226.01 9.06
-6 9 14 207.89 8.32
6 9 -14 199 8.59
6 -9 -14 213.28 8.96
-6 -9 14 221.97 9.05
6 -9 -13 488 17.06
-6 -9 13 525.32 16.99
6 9 -13 482.86 16.57
6 -9 -12 144.62 7.73
6 9 -12 149.83 7.34
-6 -9 12 139.59 7.16
-6 9 11 233.09 9.09
6 9 -11 259.65 10.43
6 -9 -11 253.51 11.25
6 -9 -10 1.09 2.25
6 9 -10 2.23 1.89
6 9 -9 120.5 6.66
6 -9 -9 120.54 7.84
6 -9 -9 112.63 6.69
-6 9 9 102.25 6.08
6 9 -8 160.33 7.85
6 -9 -8 150.26 8.96
6 -9 -8 155.92 8.24
-6 9 8 154.89 7.62
6 9 -8 136.29 7.49
6 9 -7 634.41 20.49
6 -9 -7 631.93 22.41
6 -9 -7 616.51 21.13
-6 9 7 580.71 19.82
6 9 -7 573.75 20.07
6 -9 -6 213.02 11.09
6 -9 -6 227.42 10.71
-6 9 6 217.03 9.52
6 9 -6 197.12 9.44
6 -9 -5 227.14 11.41
6 -9 -5 243.08 11.19
-6 9 5 199.59 9.39
6 9 -5 217.6 9.99
6 9 -4 85.82 5.59
6 -9 -4 93.41 6.7
-6 9 4 77.76 5.35
6 9 -3 110.04 6.19
6 -9 -3 100.69 7.12
-6 9 3 105.27 6.24
6 9 -2 440.95 15.36
6 -9 -2 444.09 17.2
-6 9 2 417.04 15.58
6 9 -1 627.18 20
6 9 -1 625.39 20.51
6 -9 -1 622.18 21.99
6 -9 -1 602.43 21.9
-6 9 1 600.8 20.45
6 9 0 9.27 2.08
6 -9 0 7.62 2.87
6 -9 0 9.11 2.9
-6 9 0 5.33 1.88
6 9 1 511.25 16.78
6 -9 1 487.54 18.87
6 -9 1 522.79 19.19
-6 9 -1 506.53 17.72
6 9 2 175.96 7.64
6 9 2 169.99 8.16
6 -9 2 175.77 9.31
6 -9 2 169.88 9.37
-6 9 -2 165.53 8.34
6 9 3 37.77 3.22
6 9 3 43.52 3.75
6 -9 3 35.58 4.3
-6 9 -3 37.19 3.83
6 9 4 332.89 12.05
6 9 4 363.31 13.3
6 -9 4 354.43 14.48
-6 9 -4 366.63 13.73
6 9 5 240.61 9.99
6 -9 5 240.01 11.04
-6 9 -5 222.49 10.12
6 9 6 1.15 1.38
6 -9 6 2.78 2.25
6 -9 6 4.12 2.38
6 9 6 3.59 1.4
6 9 7 175.08 8.06
6 -9 7 182.31 9.06
6 -9 7 172.65 9.31
6 9 7 164.73 7.43
6 9 7 190.71 7.49
6 9 8 209.49 8.79
6 -9 8 195.69 9.42
6 -9 8 207.14 10.18
6 -9 8 213.26 10.44
6 9 8 196.02 8.14
6 9 8 202.42 8.04
6 9 9 8.24 1.81
6 9 9 5.09 2.39
6 -9 9 6.31 2.17
6 -9 9 6.85 2.6
6 -9 9 8.78 2.91
6 9 9 7.03 1.64
6 9 9 5.95 1.63
6 9 10 230.58 9.65
6 9 10 230.97 9.01
6 -9 10 230.88 10.47
6 9 10 211.04 8.4
6 9 10 229.41 8.68
6 9 11 180.39 8.07
6 9 11 170.58 7.34
6 -9 11 179.05 8.74
6 9 11 181.87 7.11
6 9 11 180.49 7.3
6 9 12 92.28 5.2
6 -9 12 85.42 5.65
6 9 12 92.02 4.75
6 9 13 310.51 10.74
6 9 13 307.28 11.22
6 9 13 320.74 10.74
6 9 14 100.99 4.83
6 9 14 108.48 5.29
6 9 14 101.86 4.83
6 9 15 17.38 1.92
6 9 15 16.69 2.23
6 9 16 159.67 6.03
6 9 16 162.52 6.42
-6 10 18 196.07 6.75
-6 10 17 35.25 2.43
6 10 -17 32.18 2.19
-6 10 16 21.32 2.04
6 10 -16 19.71 1.96
-6 10 15 93.77 4.48
6 -10 -15 95.59 4.63
6 10 -15 89.1 4.51
-6 10 14 384.36 12.34
6 10 -14 366.72 12.65
6 -10 -14 389.01 12.88
-6 10 13 16.69 2.09
6 10 -13 16.8 2.33
6 -10 -13 20.6 2.73
6 10 -12 423.59 14.37
6 -10 -12 412.94 14.88
6 10 -11 83.86 5.14
6 -10 -11 85.76 5.88
6 10 -10 50.54 4.05
6 -10 -10 43.03 4.64
6 10 -9 126.92 6.68
6 -10 -9 109.67 7.37
6 10 -8 378.83 13.81
6 -10 -8 382.59 15.51
6 -10 -8 363.09 14.02
6 10 -7 23.5 3.1
6 -10 -7 22.38 4.13
6 -10 -7 22.94 3.44
6 10 -6 747.46 23.85
6 -10 -6 762.86 26.05
6 -10 -6 755.54 24.93
6 -10 -5 112.24 7.82
6 -10 -5 111.5 7.25
6 10 -4 8.58 2.25
6 -10 -4 9.06 3.28
6 -10 -4 9.62 2.89
6 10 -3 54.99 4.26
6 -10 -3 53.25 5.23
6 10 -2 371.71 13.4
6 -10 -2 340.11 14.72
6 10 -1 82.36 5.23
6 -10 -1 89.35 6.6
6 10 0 744.2 23.24
6 10 0 735.15 23.73
6 -10 0 787.28 25.77
6 -10 0 757.83 25.56
6 -10 1 325.02 13.93
6 -10 1 326.6 14
6 10 1 327.3 12
6 10 2 37.86 3.29
6 -10 2 30.82 4.22
6 -10 2 33.05 4.44
6 -10 3 7.03 2.67
6 -10 3 7.04 2.99
6 10 3 11.13 2.22
6 10 4 26.75 2.99
6 -10 4 26.72 3.85
6 10 5 102.43 5.81
6 -10 5 101.01 6.79
6 10 6 649.41 20.77
6 -10 6 682.46 22.4
6 -10 6 671.78 22.86
6 10 6 629.83 20.13
6 10 7 85.86 5.14
6 -10 7 96.22 6.26
6 -10 7 92.36 6.54
6 10 7 82.68 4.82
6 10 8 67.17 4.77
6 10 8 71.07 4.45
6 -10 8 60.26 4.92
6 10 8 65.64 4.05
6 10 9 6.54 1.62
6 10 9 4.49 1.96
6 -10 9 4.5 1.95
6 -10 9 3.79 2.38
6 10 9 5.69 1.46
6 10 10 1.12 1.59
6 -10 10 0.88 2
6 10 10 2.32 1.09
6 10 10 1.61 1.15
6 10 11 73.25 4.47
6 -10 11 76.45 5.23
6 10 12 359.05 12.04
6 10 12 380.51 12.55
6 -10 12 372.63 13.3
6 10 13 111.19 5.05
6 10 13 121.55 5.44
6 10 14 34.28 2.48
6 10 14 35.05 2.69
-6 11 16 11 1.38
-6 11 15 316.59 9.86
6 11 -15 315.86 9.99
-6 11 14 26.16 2.09
6 11 -14 23.54 2.15
6 -11 -14 22.84 2.16
-6 11 13 5.67 1.25
6 11 -13 5.09 1.46
6 -11 -13 7.74 1.74
-6 11 12 10.4 1.58
6 11 -12 8.61 1.8
6 -11 -12 10.3 2.05
6 11 -11 435.38 14.63
6 -11 -11 464.89 15.5
6 11 -10 2.48 1.48
6 -11 -10 4.29 2.24
6 11 -9 629.52 19.75
6 -11 -9 619.05 20.98
6 -11 -8 45.63 4.67
6 11 -8 43.17 3.71
6 11 -7 5.34 1.87
6 -11 -7 1.31 2.54
6 -11 -7 2.22 2.07
6 -11 -6 16.54 3.56
6 11 -6 16.79 2.57
6 -11 -6 12.82 2.9
6 -11 -5 369.21 15.26
6 -11 -5 374.98 14.52
6 -11 -4 9.56 3.33
6 -11 -4 12.63 3.2
6 11 -3 1091.18 31.64
6 -11 -3 1044.25 33.57
6 -11 -3 1059.35 33.07
6 11 -2 61.45 4.38
6 -11 -2 52.96 5.22
6 11 -1 2.3 1.66
6 -11 -1 1.32 2.51
6 -11 0 28.45 4.12
6 -11 1 99.11 6.9
6 -11 1 98.17 6.81
6 -11 2 40.08 4.6
6 -11 2 48.9 4.96
6 -11 3 882.08 28.18
6 -11 3 868.39 28.31
6 11 4 34.23 3.32
6 -11 4 39.94 4.34
6 -11 4 46.63 4.81
6 11 5 16.77 2.39
6 -11 5 21.19 3.38
6 11 5 18.45 2.37
6 11 6 0.83 1.27
6 -11 6 0.68 1.95
6 11 6 0.99 1.39
6 11 7 38.89 3.36
6 -11 7 29.31 3.5
6 -11 7 31.78 3.71
6 -11 7 36.66 4.14
6 11 7 45.35 3.23
6 11 8 37.71 3.29
6 -11 8 36.76 4.1
6 11 8 35.17 2.85
6 11 9 528.76 16.91
6 -11 9 571.38 18.52
6 11 9 527.89 16.31
6 11 10 0.76 1.4
6 -11 10 2.05 2.07
6 11 10 0.31 1.06
6 11 11 55.47 3.43
6 -11 11 58.15 4.27
6 11 12 14.09 1.8
6 -11 12 11.2 2.21
6 11 12 14.92 1.82
-6 12 13 1.24 0.77
6 -12 -13 3.04 0.97
-6 12 12 89.66 3.69
6 -12 -12 97.63 4.36
-6 12 11 137.97 5.18
6 -12 -11 160.63 6.36
-6 12 10 118.51 4.65
6 -12 -10 130.49 6.07
6 -12 -9 90.68 5.28
6 -12 -8 193.72 8.72
6 -12 -7 28.07 3.54
6 -12 -6 189.33 9.14
6 -12 -6 193.6 8.29
6 -12 -5 194.96 9.54
6 -12 -5 202.33 8.83
6 -12 -4 189.52 9.35
6 -12 -4 179.25 8.47
6 -12 -3 103.21 6.78
6 -12 -3 102.98 6.29
6 -12 -2 188.04 9.52
6 -12 -2 206.79 9.42
6 -12 -1 235.96 10.53
6 -12 0 177.41 8.85
6 -12 1 265.82 11.57
6 -12 1 268.8 11.47
6 -12 2 118.38 7.06
6 -12 2 116.63 6.96
6 12 2 120.05 5.81
6 -12 3 42.82 4.29
6 -12 3 38.13 4.09
6 12 3 46.65 3.4
6 -12 4 136.25 7.38
6 -12 4 158.36 8.02
6 12 4 138.69 6.3
6 12 5 256.21 9.83
6 -12 5 283.48 11.07
6 12 5 270.89 9.64
6 12 6 123.02 5.84
6 -12 6 130.51 6.63
6 12 6 134.63 5.72
6 12 7 72.99 4.16
6 -12 7 86.75 5.43
6 12 7 80.96 4.08
6 12 8 94.42 4.57
6 12 8 89.11 4.28
6 12 9 7.03 1.56
6 12 9 3.69 1.38
6 -12 9 6.36 2.3
6 12 9 5.85 1.31
6 -13 -8 13.29 2.26
6 -13 -7 498.37 15.95
6 -13 -6 66.22 4.41
6 -13 -5 33.87 3.48
6 -13 -4 27.52 3.21
6 -13 -4 25.93 2.67
6 -13 -3 14.35 2.81
6 -13 -3 9.55 2.1
6 -13 -2 8.27 2.46
6 -13 -2 6.69 1.95
6 -13 -1 428.73 14.47
6 13 -1 416.87 13.52
6 -13 0 21.59 3
6 13 0 19.64 2.23
6 -13 1 157.1 7.44
6 -13 1 161 7.69
6 -13 2 48.47 4.02
6 -13 2 46.94 4.02
6 13 3 11.94 1.9
6 -13 3 12.92 2.62
6 -13 3 10.91 2.43
6 13 3 15.46 1.96
6 -13 4 23.92 2.99
6 13 4 27.61 2.42
6 -13 4 26.67 3.27
6 13 4 29.26 2.39
7 0 -26 106.67 4.73
7 0 -25 1.48 1.34
-7 0 25 0.48 1.28
-7 0 25 -0.46 1.12
7 0 -24 1.82 1.47
-7 0 24 1.39 1.41
-7 0 24 5.4 1.44
7 0 -23 -0.86 1.69
-7 0 23 0.63 1.48
-7 0 23 0.13 1.39
7 0 -22 712.68 21.65
-7 0 22 688.57 21.84
-7 0 22 707.22 21.29
7 0 -21 1.5 1.95
-7 0 21 0.19 1.96
-7 0 21 0.79 1.53
7 0 -20 441.44 15.45
-7 0 20 465.49 15.38
7 0 -19 1.8 1.79
-7 0 19 -0.35 1.66
-7 0 18 5.45 1.82
7 0 -18 6.42 1.91
7 0 -18 7.39 2
-7 0 18 4.97 2.1
7 0 -18 7.39 1.66
-7 0 18 6.27 1.74
-7 0 17 0.24 1.43
7 0 -17 2.57 1.72
7 0 -17 -0.22 1.56
7 0 -17 2.43 1.31
-7 0 17 0.54 1.53
7 0 -16 477.7 16.23
7 0 -16 482.59 16.87
7 0 -16 477.1 15.68
-7 0 16 470.29 16.09
-7 0 16 479.03 17.27
-7 0 15 1.4 1.55
7 0 -15 -0.18 1.82
7 0 -15 1.04 1.74
7 0 -15 1.05 1.08
-7 0 15 0.17 1.92
7 0 -14 591.37 19.34
7 0 -14 666.03 20.4
7 0 -14 603.97 18.76
-7 0 14 603.34 20.48
-7 0 14 600.76 19.35
7 0 -13 0.5 2.59
7 0 -13 2.66 1.91
7 0 -13 2.66 1.04
-7 0 13 -0.8 1.58
-7 0 13 0.64 1.59
7 0 -12 176.1 7.7
7 0 -12 194.95 8.56
7 0 -12 179.22 7.14
7 0 -11 2.48 1.4
7 0 -11 0.35 1.49
7 0 -11 0.92 0.86
7 0 -11 4.13 1.49
7 0 -10 673.02 21.29
7 0 -10 652.11 20.8
7 0 -10 678.52 21.4
7 0 -10 692.11 19.93
-7 0 10 714.63 20.69
7 0 -9 1.99 1.31
7 0 -9 2.76 1.36
7 0 -9 1.33 0.79
7 0 -9 1.54 1.28
-7 0 9 2.44 1.09
7 0 -8 721.45 23.4
7 0 -8 785.13 24.06
7 0 -8 884.24 24.49
7 0 -8 758.26 22.21
-7 0 8 837.96 23.11
7 0 -7 -0.32 1.41
7 0 -7 0.52 1.3
7 0 -7 1.38 0.72
-7 0 7 3.36 1.2
7 0 -7 0.89 1.4
7 0 -6 524.09 17.68
7 0 -6 581.67 18.26
-7 0 6 534.28 16.38
7 0 -5 0.18 1.46
-7 0 5 4.02 1.13
7 0 -5 0.36 1.45
7 0 -4 73.12 4.87
-7 0 4 80.22 3.99
7 0 -3 0.73 1.3
-7 0 3 6.59 1.13
-7 0 2 1000.68 27.88
-7 0 1 2.12 0.77
-7 0 0 389.64 12.18
7 0 1 1.16 1.36
-7 0 -1 0.68 0.8
7 0 2 51.61 3.88
-7 0 -2 50.25 2.93
7 0 3 0.17 1.22
7 0 3 1.73 1.32
-7 0 -3 -0.1 0.76
7 0 4 356.39 12.55
7 0 4 343.76 12.44
-7 0 -4 362.06 11.45
7 0 4 369.41 12.98
7 0 5 1.76 1.35
7 0 5 1.75 1.27
7 0 5 2.06 1.38
7 0 5 1.71 1.18
7 0 6 252.49 9.76
7 0 6 240.2 9.37
7 0 6 259.06 10.13
7 0 7 0.51 1.26
7 0 7 1.32 1.35
7 0 7 -0.58 1.05
7 0 8 284.11 10.49
7 0 8 266.73 10.58
7 0 8 270.21 10.61
7 0 8 284.92 10.33
7 0 8 289.51 10.96
7 0 9 -0.34 1.8
7 0 9 2.36 1.57
7 0 9 0.17 1.37
7 0 9 -1.05 2.32
7 0 9 1.78 1.87
7 0 10 681.02 21.39
7 0 10 682.34 21.15
7 0 10 674.26 21.16
7 0 10 658.04 21.1
7 0 10 650.91 20.42
7 0 11 1.93 1.72
7 0 11 0.37 1.65
7 0 11 2.12 1.69
7 0 11 0.19 1.85
7 0 11 1.06 1.63
7 0 12 163.12 7.86
7 0 12 155.05 7.71
7 0 12 157.17 7.44
7 0 12 154.49 7.57
7 0 12 157.79 7.01
7 0 13 -0.2 1.75
7 0 13 0.36 1.49
7 0 13 -0.39 1.82
7 0 13 0.76 1.41
7 0 14 590.51 19.56
7 0 14 587.22 18.97
7 0 14 587.38 19.32
7 0 14 575.39 18.25
7 0 15 3.97 1.96
7 0 15 -0.34 1.62
7 0 15 0.38 1.93
7 0 15 0.14 1.28
7 0 16 132.44 7.08
7 0 16 126.68 6.42
7 0 16 128.46 6.7
7 0 16 125.13 5.85
7 0 17 2.01 2.07
7 0 17 0.78 1.53
7 0 17 0.52 1.72
7 0 17 0.13 1.26
7 0 18 16.67 2.34
7 0 18 16.6 2.86
7 0 18 16.99 2.36
7 0 18 16.59 2.05
7 0 19 0.58 1.49
7 0 20 283.85 10.09
7 0 21 -0.23 1.23
7 1 -26 82.41 4.01
-7 -1 26 86.18 3.82
7 1 -25 214.87 7.96
-7 -1 25 220.89 8.17
-7 -1 25 219.25 7.83
7 1 -24 46.6 3.26
-7 -1 24 44.32 3.34
-7 -1 24 41.18 3.07
7 1 -23 156.3 7.06
-7 -1 23 178.64 7.65
-7 1 23 173.17 6.76
-7 -1 23 174.67 7.26
7 1 -22 138.38 6.59
-7 -1 22 148.02 7.01
-7 1 22 141.47 6.19
-7 -1 22 138.84 6.6
7 1 -21 36.24 3.43
-7 -1 21 37.99 3.68
-7 1 21 35.58 3.05
-7 -1 21 32.01 3.25
7 1 -20 281.37 10.82
-7 1 20 275.7 10.36
-7 -1 20 282.38 10.93
7 1 -19 290.2 11.27
-7 1 19 294.46 10.95
-7 -1 19 296.45 11.44
7 -1 -18 14.33 2.3
-7 -1 18 8.66 1.99
-7 1 18 10.91 2.08
7 1 -18 11.17 2.11
7 1 -18 15.6 2.45
-7 1 18 10.46 2.44
-7 -1 18 6.56 2.22
7 1 -18 9.21 1.88
7 -1 -18 8.04 1.7
-7 1 18 7.79 1.9
-7 -1 18 10.62 2.17
7 1 -17 237.85 9.93
7 1 -17 255.87 10.64
7 -1 -17 255.09 10.7
7 1 -17 248.57 9.77
7 -1 -17 241.17 9.51
-7 1 17 251.27 9.86
-7 -1 17 249.45 10.26
-7 -1 17 260.46 11.14
-7 1 17 232.32 10.61
7 1 -16 94.37 5.49
7 1 -16 104.03 6.02
7 -1 -16 97.88 5.96
7 1 -16 84.92 5.01
7 -1 -16 89.59 5.02
-7 1 16 87.48 5.16
-7 -1 16 84.77 5.42
-7 1 16 85.64 5.83
7 1 -15 21.5 2.87
7 1 -15 23.26 2.88
7 1 -15 20.08 2.44
7 -1 -15 18.05 2.25
-7 1 15 21.82 2.89
-7 1 15 17.94 2.54
-7 -1 15 17.62 2.84
7 1 -14 400.35 14.27
7 1 -14 430.5 15.03
7 1 -14 429.38 14.05
7 -1 -14 428.28 13.75
-7 1 14 410.4 15.25
-7 1 14 403.95 14.09
-7 -1 14 408.43 14.47
7 1 -13 382.17 13.77
7 1 -13 429.91 14.55
7 1 -13 401.48 13.33
7 -1 -13 424.58 13.19
-7 1 13 397.36 14.64
-7 1 13 383.69 13.42
-7 -1 13 368.54 13.78
7 1 -12 22.78 2.67
7 1 -12 22.3 3.19
7 1 -12 17.6 2.04
7 -1 -12 24.56 2.24
-7 1 12 20.28 2.36
7 -1 -11 178.83 7.9
7 1 -11 171.43 7.41
7 1 -11 174.52 7.83
7 -1 -11 183.56 8.07
7 1 -11 162.39 6.87
7 -1 -11 164.07 6.49
-7 1 11 172.5 7.38
7 1 -10 417.14 14.34
7 -1 -10 422.88 14.4
7 -1 -10 477.83 15.2
7 1 -10 438.65 14.96
7 -1 -10 455.59 15.18
7 1 -10 446.57 13.89
7 -1 -10 399.54 13.06
-7 1 10 447.19 14.41
7 1 -9 21.38 2.51
7 -1 -9 23.73 2.57
7 -1 -9 23.41 2.69
7 1 -9 21.85 2.67
7 -1 -9 34.66 3.2
7 1 -9 29.35 2.38
-7 1 9 27.9 2.53
7 1 -8 350.39 12.49
7 -1 -8 340.93 12.4
7 1 -8 357.2 12.89
7 -1 -8 381.11 13.06
7 1 -8 371.17 11.67
-7 1 8 354.7 12.08
7 1 -7 148.01 6.8
7 -1 -7 140.99 6.69
7 1 -7 149.44 7.13
7 -1 -7 146.25 7.09
7 -1 -7 148.18 6.94
7 1 -7 145.14 5.81
-7 1 7 146.56 6.31
7 1 -6 82.24 5.08
7 -1 -6 92.29 5.33
7 1 -6 77.68 3.82
-7 1 6 85.14 4.41
7 1 -5 350.57 12.72
7 -1 -5 379.16 12.94
-7 1 5 364.9 11.56
7 -1 -4 847.55 26.15
-7 1 4 866.14 24.74
-7 1 3 134.62 5.87
7 -1 -3 142.82 7.05
-7 1 2 879.39 25.09
-7 1 1 9.98 1.48
-7 1 0 471.69 14.61
7 -1 1 143.01 6.89
-7 1 -1 141.87 5.89
7 -1 2 807.76 24.42
-7 1 -2 796.69 23.06
7 1 3 2.94 1.42
7 -1 3 2.72 1.43
7 -1 3 2.42 1.36
7 -1 3 1.65 1.51
-7 1 -3 1.16 0.98
7 1 4 11.08 1.86
7 -1 4 8.73 1.82
7 -1 4 5.82 1.8
7 -1 4 8.83 1.89
-7 1 -4 5.21 1.25
7 1 4 5.85 1.55
7 -1 5 1.78 1.36
7 1 5 4.75 1.58
7 -1 5 1.31 1.38
7 1 5 3.29 1.57
7 -1 5 3.88 1.68
-7 1 -5 1.35 0.94
7 1 5 -0.44 1.1
7 -1 5 1.79 1.14
7 -1 6 417.67 14.47
7 -1 6 434.4 14.82
7 1 6 420.86 14.09
-7 1 -6 445.04 13.74
7 1 6 419.84 14.02
7 -1 6 402.62 13.68
7 1 6 400.64 13.95
7 1 7 75.89 4.69
7 1 7 75.61 4.62
7 -1 7 81.36 4.97
-7 1 -7 77.04 4.29
7 1 7 79.35 4.56
7 -1 7 74.71 4.36
7 -1 7 82.04 4.94
7 1 8 398.09 14.21
7 1 8 403.41 14.24
7 1 8 413.59 14.13
7 -1 8 416.16 14.6
-7 1 -8 444.27 13.95
7 1 8 418.29 14.02
7 -1 8 413.24 13.77
7 -1 8 428.78 14.63
7 -1 9 65.19 4.61
7 1 9 62.94 4.47
7 1 9 66.91 4.47
7 1 9 59.31 4.42
7 -1 9 62.08 4.73
-7 1 -9 68.57 4.15
7 -1 9 63.51 4.05
7 1 9 60.73 4.17
7 -1 10 2.09 1.7
7 1 10 0.94 1.87
7 1 10 5.29 2.27
7 -1 10 2.66 2.4
-7 1 -10 4.14 1.62
7 1 10 1.69 1.67
7 -1 10 1.43 1.38
7 1 10 3.13 1.67
7 -1 11 63.96 4.6
7 -1 11 54.81 4.23
7 1 11 53.58 4.59
7 1 11 62.52 4.35
7 1 11 61.58 4.37
7 -1 11 63.9 4.68
7 -1 11 59.6 4.05
7 1 11 68.74 4.3
7 -1 12 502.79 16.81
7 -1 12 479.52 16.25
7 1 12 473.41 16.48
7 1 12 457.53 15.89
7 1 12 467.55 16.04
7 -1 12 486.52 16.63
7 -1 12 470.24 16.77
7 -1 12 470.94 15.31
7 1 12 466.51 15.61
7 -1 13 5.64 2.16
7 1 13 2.89 2.09
7 1 13 2.45 1.58
7 1 13 1.09 1.68
7 -1 13 2.03 1.96
7 -1 13 4.51 2.2
7 -1 13 3.43 1.43
7 1 13 2.71 1.58
7 -1 14 67.51 4.88
7 1 14 59.31 4.72
7 1 14 66.45 4.47
7 1 14 59.96 4.42
7 -1 14 67.41 4.9
7 -1 14 58.35 4.75
7 -1 14 62.76 3.91
7 1 14 56.57 4.02
7 -1 15 6.49 2.34
7 1 15 10.29 2.47
7 1 15 9.23 2.01
7 1 15 9.1 2.11
7 -1 15 9.01 2.34
7 -1 15 8.25 1.69
7 1 15 8.21 1.87
7 1 16 21.38 2.7
7 -1 16 18.87 3.06
7 1 16 17.39 2.87
7 1 16 19 2.65
7 -1 16 17.54 2.83
7 -1 16 19.07 2.12
7 1 16 18.22 2.33
7 -1 17 80.06 5.32
7 1 17 82.02 5.41
7 1 17 74.6 4.51
7 1 17 67.3 4.47
7 -1 17 67.48 4.74
7 1 17 74.07 4.25
7 1 18 170.01 7.91
7 1 18 157.84 6.91
7 1 18 160.76 7.01
7 -1 18 153.01 7.24
7 1 18 154.59 6.54
7 1 19 1.41 1.82
7 1 19 1.61 1.39
7 -1 19 2.13 1.58
7 1 19 1.89 1.2
7 1 20 22.6 2.88
7 -1 20 20.06 2.37
7 1 20 22.36 2.3
7 -1 21 18.39 2.22
7 2 -25 5.82 1.3
7 -2 -25 5.2 1.47
-7 2 25 5.64 1.38
-7 -2 25 5.45 1.44
-7 -2 25 5.47 1.4
-7 2 25 3.69 1.24
-7 -2 25 4.72 1.4
7 2 -24 356.36 11.96
7 -2 -24 376.05 12.22
-7 -2 24 343.84 12.21
-7 -2 24 369.59 12.28
7 2 -23 105.42 5.2
7 -2 -23 100.7 5.23
-7 2 23 103.69 5.33
-7 -2 23 104.8 5.52
-7 -2 23 110.13 5.5
7 2 -22 32.1 3
7 -2 -22 28.69 2.91
-7 2 22 36.77 3.21
-7 -2 22 34.53 3.28
-7 -2 22 36.46 3.29
7 2 -21 53.96 3.98
7 -2 -21 61.87 4.26
-7 2 21 59.67 4.26
-7 -2 21 53.73 4.26
-7 -2 21 58.72 4.31
7 2 -20 112.68 5.9
7 -2 -20 117.15 6.09
-7 2 20 116.02 6.25
-7 -2 20 118.38 6.48
-7 2 20 102.39 5.2
-7 -2 20 116.49 6.3
7 2 -19 21.32 2.71
7 -2 -19 23.35 2.92
-7 2 19 17.75 2.27
-7 -2 19 20.32 2.89
7 2 -18 472.58 15.93
7 -2 -18 494.03 16.22
-7 2 18 436.54 16.78
-7 -2 18 474.56 17.42
7 2 -18 468.14 16.48
7 -2 -18 512.45 16.95
7 2 -18 458.44 15.9
-7 2 18 462.63 15.29
-7 -2 18 513.27 16.71
-7 -2 18 467.88 17.08
-7 2 18 431.59 16.46
7 2 -17 107.57 6
7 -2 -17 121.2 6.36
7 2 -17 119.21 6.56
7 -2 -17 132.18 6.93
7 2 -17 114.62 6.1
-7 2 17 121.99 5.87
-7 -2 17 120.92 6.63
-7 -2 17 116.5 7
-7 2 17 105.96 6.55
-7 2 17 114.22 5.84
-7 2 16 11.12 2.03
-7 -2 16 9.73 2.31
-7 2 16 7.96 2.09
7 2 -16 11.65 2.25
7 -2 -16 11.92 2.25
7 2 -16 10.61 2.4
7 -2 -16 15.24 2.59
7 2 -16 13 2.14
7 -2 -16 11.18 1.85
-7 2 16 11.65 2.09
-7 -2 16 11.21 2.39
-7 -2 15 14.89 2.59
-7 2 15 9.46 2.22
-7 2 15 10.34 2.2
7 2 -15 16.07 2.43
7 -2 -15 7.99 2.03
7 2 -15 10.13 2.19
7 -2 -15 15.97 2.61
7 2 -15 9.36 2
7 -2 -15 6.27 1.49
-7 2 15 8.18 1.93
-7 -2 15 14.09 2.58
7 2 -14 97.21 5.53
7 -2 -14 105.1 5.83
7 2 -14 100.84 5.79
7 -2 -14 107.29 6.08
7 2 -14 102.63 5.44
7 -2 -14 96.25 4.96
-7 -2 14 110.92 6.42
-7 2 14 90.62 5.73
-7 2 14 95.19 5.1
-7 -2 14 102.71 6.07
-7 2 14 87.61 4.95
7 2 -13 98.12 5.53
7 -2 -13 100.23 5.67
7 2 -13 105.81 5.92
7 -2 -13 111.01 6.11
7 -2 -13 97.73 5.93
7 2 -13 104.43 5.49
-7 -2 13 103.05 6.25
-7 2 13 102.11 6.02
-7 2 13 122.45 6.14
-7 2 13 99.61 5.19
-7 -2 13 96.65 5.76
-7 2 13 95.7 4.87
7 2 -12 796.26 25.5
7 -2 -12 856.5 25.8
7 2 -12 839.39 25.15
7 -2 -12 869.69 25.37
7 2 -12 846.91 25.77
7 -2 -12 905.45 26.13
7 -2 -12 791.58 25.7
7 2 -12 895.33 25.1
-7 2 12 874.81 25.58
-7 2 12 777.82 24.42
7 2 -11 305.49 11.52
7 -2 -11 301.62 11.47
7 2 -11 300.81 11.05
7 -2 -11 300.76 11.12
7 2 -11 302.08 11.54
7 -2 -11 302.72 11.61
7 -2 -11 304.05 11.73
7 2 -11 299.2 10.78
-7 2 11 318.79 11.37
7 2 -10 101.7 5.43
7 -2 -10 100.2 5.44
7 2 -10 106.81 5.8
7 -2 -10 115.02 5.93
7 2 -10 109.57 5.92
7 -2 -10 117.63 6.06
7 -2 -10 102.86 5.88
7 2 -10 110.95 5.3
-7 2 10 112.08 5.63
7 2 -9 13.76 2.04
7 -2 -9 10.97 1.93
7 2 -9 16.13 2.27
7 -2 -9 11.92 2.14
7 -2 -9 12.19 2.22
7 2 -9 13.34 1.81
-7 2 9 18.13 2.26
7 2 -9 14.35 2.19
7 -2 -9 12.22 2.03
7 2 -8 45.63 3.52
7 -2 -8 40.75 3.39
7 2 -8 41.25 3.53
7 -2 -8 49 3.76
7 2 -8 41.14 3.48
7 -2 -8 45.01 3.57
7 2 -8 38.51 2.85
-7 2 8 42.19 3.25
7 -2 -7 439.24 14.77
7 2 -7 401.35 14.12
7 -2 -7 401.32 14.07
7 2 -7 409.2 14.51
7 -2 -7 431.16 14.65
7 2 -7 455.5 14.92
7 2 -7 399.15 13.23
-7 2 7 425.94 13.93
7 -2 -6 1077.42 33.33
7 2 -6 1083.2 33.04
7 2 -6 1229.59 33.95
7 -2 -6 1142.51 33.62
7 2 -6 1098.28 31.89
7 2 -6 1298.21 34.21
7 -2 -6 1238.25 33.93
-7 2 6 1166.16 32.69
7 2 -5 247.49 10.46
7 -2 -5 274.04 10.68
7 2 -5 260.09 10.6
-7 2 5 272.12 9.8
7 -2 -5 276.88 10.69
7 2 -4 86.41 5.2
7 -2 -4 81.63 5.12
-7 2 4 82.53 4.48
-7 2 3 231.24 8.68
-7 2 2 304.44 10.61
-7 2 1 225.5 8.43
7 2 0 566.63 18.24
7 -2 0 569.43 18.46
-7 2 0 561.28 17.31
7 2 1 5.45 1.64
7 -2 1 4.68 1.69
-7 2 -1 5.21 1.4
7 2 2 40.26 3.32
7 -2 2 46.91 3.64
7 2 2 51.93 3.77
7 -2 2 47.43 3.67
-7 2 -2 49.37 3.27
7 2 3 262 9.85
7 -2 3 251.83 9.93
7 2 3 250.47 10.01
-7 2 -3 255.93 9.37
7 -2 3 269.12 10.3
7 2 4 316.36 11.58
7 -2 4 323.59 11.79
7 2 4 325.25 11.96
7 -2 4 323.72 12.06
-7 2 -4 334.58 11.32
7 2 5 313.05 11.72
7 2 5 324.52 12.01
7 -2 5 328.08 12.22
7 -2 5 345.24 12.6
-7 2 -5 359.56 11.63
7 2 5 311.57 11.4
7 -2 5 322.03 11.27
7 2 6 68.85 4.44
7 -2 6 71.83 4.65
7 2 6 61.84 4.33
7 2 6 63.63 4.08
7 -2 6 69.44 4.81
-7 2 -6 68.51 4.07
7 -2 6 74.54 4.66
7 -2 6 63.07 3.91
7 2 7 0.33 1.27
7 -2 7 0.53 1.38
7 2 7 0.35 1.37
7 2 7 -0.29 1.31
-7 2 -7 0.15 1.08
7 2 7 0.16 1.2
7 -2 7 0.53 0.97
7 2 8 57.1 4.34
7 2 8 64.95 4.8
7 -2 8 59.75 4.74
7 2 8 61.92 4.1
-7 2 -8 64.31 4.17
7 2 8 67.23 4.62
7 -2 8 59.66 3.81
7 2 8 68.98 4.42
7 -2 8 68.49 4.59
7 2 9 360.95 12.76
7 -2 9 368.31 13.09
7 2 9 340.77 12.85
7 2 9 342.75 12.4
7 -2 9 351.13 12.63
7 2 9 336.76 12.13
-7 2 -9 358.91 12.38
7 -2 9 321.42 11.56
7 2 9 339.85 12.24
7 2 10 504 16.87
7 -2 10 513.52 17.17
7 2 10 510.21 17.22
7 2 10 484.23 16.46
7 -2 10 507.26 16.82
7 2 10 463.45 16.1
-7 2 -10 537.72 16.67
7 -2 10 484.14 15.71
7 2 10 523.4 16.58
7 2 11 100.49 5.73
7 -2 11 108.24 6.08
7 2 11 104.18 6.1
7 2 11 92.28 5.41
7 -2 11 111.83 6
7 2 11 90.87 5.28
7 -2 11 100.67 5.98
-7 2 -11 98.59 5.59
7 -2 11 95.33 5
7 2 11 101.45 5.49
7 2 12 3.06 1.49
7 -2 12 4.25 1.56
7 2 12 2.29 1.82
7 2 12 5.09 1.67
7 -2 12 4.15 1.72
7 2 12 2.47 1.58
7 -2 12 5.81 2.16
-7 2 -12 4.98 1.59
7 -2 12 2.38 1.25
7 2 12 2.14 1.57
7 -2 13 10.02 2.24
7 2 13 7.13 2.26
7 2 13 10.17 1.99
7 -2 13 10.63 2.25
7 2 13 6.16 1.84
7 -2 13 8.85 2.43
-7 2 -13 8.94 1.96
7 -2 13 8.74 1.65
7 2 13 7.39 1.86
7 -2 14 36.98 3.65
7 2 14 37.28 3.73
7 2 14 33.84 3.26
7 -2 14 35.08 3.39
7 2 14 34.57 3.27
7 -2 14 41.15 4.1
7 2 14 37.07 3.31
7 2 15 238.83 10.31
7 2 15 247.84 9.62
7 -2 15 248.52 9.86
7 2 15 241.15 9.51
7 2 15 231.24 9.35
7 2 16 263.05 10.69
7 2 16 254.9 9.7
7 -2 16 250.4 9.86
7 2 16 247.25 9.6
7 2 16 239.92 9.44
7 2 17 56 4.54
7 2 17 59.64 3.92
7 -2 17 57.29 4
7 2 17 55.81 3.85
7 -2 17 64.97 4.57
7 2 17 54.42 3.69
7 2 18 21.47 2.39
7 2 18 22.69 2.47
7 -2 18 27.51 2.73
7 2 18 23.13 3.07
7 -2 18 24.23 2.94
7 2 18 21.15 2.29
7 2 19 30.06 3.18
7 -2 19 28.28 2.94
7 2 19 28.08 2.41
7 2 20 1.53 1.73
7 -2 20 0.41 1.46
7 -2 21 99.33 4.96
7 3 -25 0.76 1.04
7 -3 -25 0.73 1.1
-7 -3 25 1.27 1.24
7 3 -24 27.98 2.28
7 -3 -24 29.52 2.47
-7 3 24 27.77 2.38
-7 -3 24 24.99 2.38
-7 -3 24 26.24 2.62
7 3 -23 129.17 5.83
7 -3 -23 143.53 6.14
-7 3 23 132.73 6.03
-7 -3 23 146.01 6.43
-7 -3 23 148.54 6.54
7 -3 -22 20.34 2.35
7 3 -22 13.1 2
-7 3 22 13.81 2.14
-7 -3 22 12.93 2.34
-7 -3 22 19.92 2.64
7 3 -21 581.93 18.93
7 -3 -21 631.31 19.37
-7 3 21 616.68 19.45
-7 -3 21 667.24 20.11
7 3 -20 14.31 2.31
7 -3 -20 16.52 2.51
-7 3 20 13.4 2.34
-7 -3 20 15.12 2.6
-7 3 19 -0.15 1.32
7 3 -19 1.11 1.55
7 3 -18 22.1 2.73
7 -3 -18 24.86 2.98
-7 3 18 18.43 2.46
7 3 -17 76.63 4.85
7 -3 -17 93.88 5.34
-7 3 17 83.03 5.68
-7 -3 17 81.68 5.94
7 3 -17 82.98 5.33
7 -3 -17 97.84 5.79
7 3 -17 86.83 5.28
-7 -3 17 83.71 5.83
-7 3 17 70.23 5.18
-7 3 17 90.01 4.97
7 3 -16 134.52 6.7
7 -3 -16 138.39 6.93
7 3 -16 150.39 7.33
7 -3 -16 147.22 7.48
7 3 -16 142.09 7
-7 -3 16 148.8 7.95
-7 3 16 136.82 7.4
-7 3 16 147.81 6.67
7 3 -15 860.16 26.34
7 -3 -15 903.96 26.74
7 3 -15 863.01 26.93
7 -3 -15 919.2 27.44
7 3 -15 939.55 26.95
-7 -3 15 898.7 28.12
-7 3 15 845.13 27.37
-7 3 15 876.61 25.99
-7 3 14 61.5 3.96
7 3 -14 64.71 4.56
7 -3 -14 60.7 4.52
7 3 -14 69.62 4.59
7 -3 -14 67.53 4.59
7 3 -14 66.21 4.74
7 -3 -14 65.36 4.73
7 -3 -14 66.48 4.92
7 3 -14 75.3 4.62
-7 -3 14 64.28 5.04
-7 3 14 60.57 4.71
-7 3 13 6.54 2.33
7 3 -13 11.43 2.13
7 -3 -13 7.25 1.96
7 3 -13 10.52 2.22
7 -3 -13 7.91 2.01
7 -3 -13 10.57 2.53
7 3 -13 8.87 1.83
-7 -3 13 6.6 2.54
7 3 -13 9.15 1.85
7 -3 -13 8.11 1.83
-7 3 13 7.76 1.92
-7 -3 13 8.14 2.08
-7 3 13 6 1.79
7 3 -12 0.48 2.62
7 -3 -12 0.33 2.08
7 3 -12 0.91 1.56
7 -3 -12 0.56 1.53
7 3 -12 0.16 1.5
7 3 -12 0.73 1.31
7 -3 -12 2.05 1.48
-7 3 12 1.79 1.73
7 -3 -12 0.6 2.34
-7 -3 12 0.86 1.47
-7 3 12 1.98 1.39
7 3 -11 1.73 1.66
7 -3 -11 6.46 1.7
7 3 -11 -1.43 2.3
7 -3 -11 6.95 2.19
7 -3 -11 1.61 2.48
7 3 -11 3.24 1.3
7 3 -11 8.37 1.85
7 -3 -11 0.72 1.27
-7 3 11 1.91 2.05
7 3 -10 125.76 6.28
7 -3 -10 129.44 6.36
7 3 -10 134.15 6.71
7 -3 -10 139.13 6.75
7 3 -10 139.9 6.71
7 -3 -10 135.94 6.66
7 -3 -10 126.57 6.89
7 3 -10 136.68 6.25
-7 3 10 130.67 6.45
7 3 -9 1119.24 33.21
7 -3 -9 1120.09 33.2
7 3 -9 1138.15 33.69
7 -3 -9 1150.27 33.75
7 3 -9 1181.15 33.92
7 -3 -9 1179.46 33.82
7 -3 -9 1234.01 34.66
7 3 -9 1163.35 33
-7 3 9 1225.44 33.71
7 3 -8 6.8 1.77
7 -3 -8 4.66 1.58
7 3 -8 5.51 1.69
7 -3 -8 6.7 1.78
7 -3 -8 3.43 1.87
7 3 -8 7.32 1.54
-7 3 8 9.6 1.85
7 3 -8 8.15 1.86
7 -3 -8 6.44 1.74
7 3 -7 61.94 4.16
7 -3 -7 57.14 4.02
7 3 -7 69.54 4.55
7 -3 -7 63.75 4.34
7 3 -7 72.8 4.64
7 -3 -7 65.4 4.41
7 3 -7 70.14 4.01
-7 3 7 72.24 4.34
7 3 -6 8 1.8
7 -3 -6 7.92 1.86
7 3 -6 11.7 2.15
7 -3 -6 7.85 2
7 -3 -6 7.37 2.05
7 3 -6 9.59 1.63
-7 3 6 16.73 2.17
7 3 -6 13.76 2.25
7 -3 -6 11.42 2.08
7 3 -5 150.29 7.27
7 -3 -5 159.04 7.39
7 3 -5 187.75 8.15
7 -3 -5 195.27 8.2
-7 3 5 173.92 7.36
7 -3 -5 154.05 7.75
7 -3 -4 114.95 6.36
7 -3 -4 104.69 6.31
-7 3 4 107.69 5.51
7 3 -4 127.76 6.4
7 -3 -4 104.9 5.94
7 -3 -3 1305.51 37.62
-7 3 3 1296.22 36.49
7 -3 -2 17.98 2.78
-7 3 2 14.09 1.91
7 -3 -1 127.27 7.02
-7 3 1 148.03 6.42
7 3 0 14.36 2.09
7 3 0 10.26 1.8
7 -3 0 9.23 1.92
7 -3 0 5.61 1.88
-7 3 0 10.86 1.71
7 3 1 367.44 13.15
7 -3 1 382.05 13.52
7 3 1 403.3 13.64
7 -3 1 409.09 13.94
7 -3 1 385.55 14.31
-7 3 -1 392.49 13.11
7 3 2 213.78 8.68
7 -3 2 223.33 9.04
7 -3 2 205.49 9.46
7 3 2 235.84 9.15
7 -3 2 215.27 9.11
-7 3 -2 221.08 8.64
7 -3 3 456.57 15.31
7 3 3 436.67 14.57
7 -3 3 439.8 14.9
7 -3 3 427.41 15.19
7 -3 3 429.9 15.65
-7 3 -3 429.35 14.39
7 3 3 456.56 15.06
7 3 3 438.84 14.78
7 3 4 1.08 1.2
7 -3 4 2.69 1.52
7 3 4 1.68 1.33
7 -3 4 1.48 1.58
7 -3 4 1.64 1.3
7 -3 4 1.26 1.55
-7 3 -4 2.49 1.22
7 3 4 2.67 1.41
7 -3 5 101.61 5.7
7 -3 5 104.04 5.77
7 -3 5 91.42 5.79
-7 3 -5 97.82 5.09
7 3 5 97.68 5.23
7 3 5 92.57 5.26
7 -3 5 83.65 4.6
7 3 6 101.36 5.84
7 -3 6 99.43 5.87
7 -3 6 100.94 6.18
-7 3 -6 110.49 5.59
7 3 6 104.23 5.54
7 3 6 115.05 5.77
7 -3 6 109.64 5.82
7 3 7 661.1 21.69
7 3 7 679.25 21.09
7 -3 7 724.44 21.61
7 3 7 640.36 20.55
7 -3 7 717.52 22.21
7 -3 7 685.22 22.11
-7 3 -7 649.94 20.95
7 3 7 685.27 21.23
7 3 7 740.51 21.51
7 -3 7 696.71 21.6
7 3 8 40.99 3.32
7 -3 8 43.09 3.68
7 3 8 34.18 3.92
7 3 8 41.48 3.46
7 -3 8 36.37 3.38
7 3 8 29.09 2.87
7 -3 8 36.76 3.79
-7 3 -8 34.8 3.2
7 3 9 112.63 5.85
7 -3 9 101.13 5.82
7 3 9 108.2 6.27
7 3 9 110.81 5.76
7 -3 9 105.04 5.82
7 3 9 94.68 5.27
7 -3 9 109.51 6.38
-7 3 -9 101.74 5.56
7 3 10 11.07 2.1
7 -3 10 8.7 2.06
7 3 10 14.32 2.67
7 3 10 10.41 2.11
7 -3 10 10.8 2.32
7 3 10 10.61 1.95
7 -3 10 8.93 2.45
-7 3 -10 9.36 2.18
7 3 11 61.34 4.28
7 -3 11 66.98 4.62
7 3 11 53.08 4.44
7 3 11 57.46 4.02
7 -3 11 57.57 4.16
7 3 11 48.26 3.72
7 -3 11 59.64 4.73
-7 3 -11 58.38 4.1
7 -3 12 18.35 2.59
7 3 12 14.43 2.72
7 3 12 15.38 2.26
7 3 12 15.35 2.28
7 -3 12 20.83 3.08
-7 3 -12 16.5 2.47
7 3 12 16.71 2.44
7 3 13 444.8 15.94
7 3 13 445.48 14.9
7 -3 13 450.25 15.24
7 3 13 424.27 14.54
7 -3 13 450.29 15.99
-7 3 -13 457.37 15.57
7 3 13 439.54 15.03
7 3 14 41.6 3.91
7 3 14 44.59 3.55
7 -3 14 41.22 3.64
7 3 14 37.19 3.15
7 -3 14 38.5 3.92
7 3 14 39.06 3.38
7 3 15 12.29 2.7
7 3 15 15 2.14
7 3 15 13.44 2.06
7 -3 15 13.14 2.72
7 3 15 14.79 2.33
7 -3 15 15.36 2.27
7 3 16 10.88 2.67
7 3 16 11.76 1.99
7 -3 16 13.45 2.32
7 -3 16 10.22 2.63
7 3 16 9.54 2
7 3 17 14.46 2.63
7 3 17 12.8 2.01
7 -3 17 11.06 2.11
7 -3 17 9.57 2.32
7 3 17 13.19 2.13
7 3 18 18.52 2.82
7 3 18 19.2 2.3
7 3 19 329.46 11.58
7 3 19 296.5 10.38
7 3 20 28.75 2.91
7 3 21 110.28 5.28
7 4 -25 42.87 2.3
-7 -4 25 35.96 2.16
7 4 -24 109.66 4.61
7 -4 -24 118.74 4.84
7 4 -23 77.87 3.95
7 -4 -23 88.56 4.24
-7 4 23 81.46 4.11
-7 -4 23 82.2 4.31
7 4 -22 122.26 5.55
7 -4 -22 139.55 5.95
-7 4 22 128.98 5.8
-7 -4 22 143.94 6.26
-7 -4 22 127.55 6.36
-7 4 21 58.37 3.86
-7 -4 21 69.25 4.38
7 4 -21 60.2 3.78
7 -4 -21 71.72 4.16
-7 -4 21 61.82 4.45
7 4 -20 158.66 6.96
7 -4 -20 170.8 7.3
-7 4 20 167.16 7.29
-7 -4 20 179.52 7.8
-7 -4 20 168.82 7.88
-7 4 20 154.03 7
7 4 -19 137.86 6.41
7 -4 -19 146.5 6.74
-7 4 19 138.84 6.68
-7 -4 19 150.43 7.22
-7 -4 19 142.91 7.41
-7 4 19 136.24 6.43
7 4 -18 131.63 6.32
7 -4 -18 142.31 6.68
-7 -4 18 133.63 7.21
-7 4 18 137.35 6.42
7 4 -17 268.38 10.05
7 -4 -17 280.06 10.42
7 -4 -17 263.44 10.69
7 4 -17 256.47 10.41
-7 -4 17 270.24 11.15
-7 4 17 263.21 9.96
-7 4 16 133.79 6.47
7 4 -16 142.05 7.05
7 4 -16 144.7 6.76
7 -4 -16 149.99 7.01
7 -4 -16 147.07 7.27
-7 4 16 135.36 7.34
-7 -4 16 141.7 7.89
7 4 -16 139.04 6.97
7 -4 -16 155.23 7.48
7 4 -16 148.4 7.15
-7 -4 16 140.6 7.54
-7 -4 16 139.3 7.64
-7 4 16 127.89 7.07
-7 4 15 37.02 3.15
7 4 -15 37.59 3.27
7 -4 -15 41.56 3.46
7 4 -15 36.54 3.43
7 -4 -15 38.98 3.54
7 4 -15 37.04 3.46
7 -4 -15 42.66 3.76
7 -4 -15 39.96 3.73
7 4 -15 42.45 3.64
-7 -4 15 41.22 4.04
-7 -4 15 42.73 4.08
-7 4 15 36.43 3.59
-7 4 14 205.41 8.11
7 4 -14 186.42 8.14
7 -4 -14 214.34 8.67
7 4 -14 181.32 8.41
7 -4 -14 191.85 8.67
7 4 -14 187.13 8.49
7 -4 -14 209.08 9.03
7 -4 -14 211.48 9.16
7 4 -14 212.89 8.78
-7 4 14 209.16 9.01
-7 -4 14 202.38 9.15
-7 -4 14 185.61 9.18
-7 4 14 192.93 8.89
-7 4 13 575.57 17.91
7 4 -13 551.9 18.32
7 -4 -13 604.66 18.75
7 4 -13 582.36 18.76
7 4 -13 561.16 18.72
7 -4 -13 566.99 18.87
7 4 -13 568.06 18.8
7 -4 -13 621.2 19.32
7 -4 -13 602.72 19.59
-7 4 13 593.4 19.2
-7 -4 13 603.77 20.01
-7 4 13 536.63 19
-7 -4 13 592.7 19.35
7 4 -12 92.4 5.24
7 -4 -12 103.86 5.54
7 4 -12 96.04 5.44
7 4 -12 91.13 5.43
7 -4 -12 102.55 5.76
7 -4 -12 102.6 5.66
7 4 -12 94.8 5.36
-7 -4 12 93.08 5.9
-7 4 12 93.66 5.62
-7 4 12 96.44 5.69
7 -4 -12 108.22 6.45
-7 -4 12 95.99 5.98
7 4 -11 213.19 8.99
7 -4 -11 232.49 9.08
7 4 -11 207.51 8.98
7 -4 -11 240.14 9.44
7 4 -11 205.22 8.9
7 -4 -11 236.15 9.33
7 -4 -11 198.15 9.43
7 4 -11 207.93 8.75
-7 -4 11 208.52 9.44
-7 4 11 201.22 9.03
-7 4 11 213.21 9.11
7 4 -10 156.55 7.11
7 -4 -10 158.21 7.14
7 4 -10 152.95 7.52
7 -4 -10 158.62 7.43
7 4 -10 165 7.51
7 -4 -10 164.25 7.47
7 -4 -10 152.79 8.57
7 4 -10 162.5 7.26
-7 4 10 151.91 7.49
7 4 -9 16.45 2.26
7 -4 -9 16.43 2.29
7 4 -9 14.57 2.32
7 -4 -9 14.85 2.32
7 -4 -9 20.74 2.57
7 -4 -9 14.17 2.86
-7 4 9 21.17 2.96
7 4 -9 19.2 2.36
7 4 -9 16.08 2.37
7 4 -8 183.35 7.91
7 -4 -8 177.31 7.88
7 -4 -8 184.72 8.88
7 4 -8 193.48 8.38
7 -4 -8 189.3 8.33
7 4 -8 193.48 7.97
7 -4 -8 177.03 8.09
-7 4 8 194.09 8.31
7 4 -8 189.18 8.34
7 4 -7 697.68 22.34
7 -4 -7 712.81 22.39
7 4 -7 720.61 22.91
7 -4 -7 776.65 23.14
7 4 -7 700.29 22.13
7 4 -7 776.99 23.15
7 -4 -7 777.5 23.12
-7 4 7 764.06 22.79
7 4 -6 65.69 4.46
7 -4 -6 75.67 4.66
7 -4 -6 81.59 5.51
7 4 -6 82.6 5.07
7 -4 -6 77.4 4.91
-7 4 6 81.44 4.84
7 4 -5 169.05 7.75
7 -4 -5 179.91 8.02
7 -4 -5 184.19 8.88
7 -4 -5 188.04 9
-7 4 5 197.88 8.16
7 4 -5 205.46 8.58
7 -4 -5 184.54 8.33
7 4 -4 57.56 3.87
7 -4 -4 54.09 3.89
7 -4 -4 54.21 4.53
7 -4 -4 50.7 4.54
-7 4 4 55.15 3.89
7 4 -3 93.34 5.11
7 -4 -3 88.28 5.14
7 -4 -3 94.31 5.95
7 -4 -3 97.18 6.04
-7 4 3 93.84 5.17
7 4 -2 35.3 3.03
7 -4 -2 32.76 3.04
7 -4 -2 32.85 3.6
-7 4 2 40.25 3.18
7 4 -1 936.45 27.78
7 -4 -1 933.11 28.07
7 4 -1 1001.24 28.35
7 -4 -1 970.5 28.49
7 -4 -1 929.74 28.9
7 -4 -1 962.69 29.33
-7 4 1 932.25 27.8
7 4 0 111.66 5.69
7 -4 0 118.79 6.07
7 4 0 116.66 5.91
7 -4 0 123.32 6.27
7 -4 0 114.18 6.53
7 -4 0 107.15 6.5
-7 4 0 116.38 5.8
7 4 1 25.04 2.68
7 -4 1 24.57 2.82
7 -4 1 19.36 2.8
7 -4 1 22.66 3.2
7 4 1 27.4 2.8
7 -4 1 25.92 2.9
-7 4 -1 30.2 2.8
7 4 2 20.21 2.4
7 -4 2 19.22 2.48
7 -4 2 16.59 2.62
7 -4 2 18.24 2.97
-7 4 -2 21.21 2.49
7 4 2 19.24 2.34
7 4 2 24 2.62
7 -4 2 19.03 2.54
7 4 3 213.54 8.59
7 -4 3 221.02 8.97
7 4 3 212.05 8.76
7 -4 3 221.56 9.17
7 -4 3 216.81 9.36
7 -4 3 202.12 9.63
-7 4 -3 217.22 8.74
7 4 3 216.78 8.81
7 4 4 5.65 1.54
7 -4 4 6.79 1.86
7 -4 4 5.85 2.1
7 -4 4 6.09 2.34
-7 4 -4 4.16 1.59
7 4 4 4.19 1.57
7 -4 5 707.01 23.05
7 -4 5 712.95 23.52
-7 4 -5 705.3 22.2
7 4 5 756.35 22.47
7 4 5 738.29 22.19
7 -4 5 739.33 22.59
7 4 6 12.5 2.01
7 -4 6 11.7 2.13
7 -4 6 11.46 3.01
7 4 6 8.63 2.01
7 -4 6 13.93 2.33
7 -4 6 8.8 2.34
-7 4 -6 8.67 2.06
7 4 6 9.5 2.43
7 4 7 66.98 4.27
7 -4 7 69.93 4.52
7 4 7 61.34 4.89
7 4 7 64.61 4.34
7 -4 7 65.23 4.44
7 -4 7 66.94 5
7 -4 7 61.43 5.07
-7 4 -7 59.83 4.16
7 4 7 60.88 4.25
7 4 8 2.97 1.23
7 -4 8 1.82 1.36
7 4 8 0.85 2.33
7 4 8 5.03 1.44
7 -4 8 4.26 1.57
7 -4 8 0.22 1.87
-7 4 -8 0.34 1.34
7 -4 8 -0.61 1.98
7 4 8 1.84 1.7
7 4 9 377.97 13.07
7 -4 9 378.02 13.42
7 4 9 350.05 13.67
7 4 9 368.9 12.72
7 -4 9 384.31 13.21
7 -4 9 366.64 13.81
7 -4 9 329.98 13.45
-7 4 -9 364.62 13.16
7 4 9 356.12 12.92
7 4 10 1.56 1.51
7 -4 10 1.15 1.65
7 4 10 1.94 1.83
7 4 10 1.08 1.45
7 -4 10 2.94 1.69
7 -4 10 1.25 1.86
-7 4 -10 1.46 1.39
7 4 10 1.02 1.58
7 4 11 198.51 9.39
7 4 11 204.79 8.49
7 -4 11 228.38 9.12
7 -4 11 218.92 9.75
-7 4 -11 218.25 9.24
7 4 11 216.64 8.99
7 4 12 47.18 4.13
7 4 12 44.92 3.39
7 -4 12 44.37 3.55
7 -4 12 46.3 4.19
-7 4 -12 39.19 3.71
7 4 13 105.71 6.36
7 4 13 112.88 5.66
7 -4 13 110.49 5.85
7 -4 13 116.43 6.64
7 4 14 30.13 3.49
7 4 14 26.93 2.71
7 -4 14 32.08 3.03
7 -4 14 27.23 3.49
7 4 15 266.13 10.88
7 4 15 252.62 9.65
7 -4 15 269.92 10.09
7 -4 15 285.79 11.3
7 4 16 79.32 4.36
7 -4 16 76.18 4.5
7 4 16 72.63 4.95
7 -4 16 83.61 5.42
7 4 16 74.78 4.53
7 4 17 177.5 7.91
7 -4 17 163.24 7.79
7 4 17 170.76 7.14
7 4 18 23.14 2.81
7 -4 18 17.25 2.58
7 4 18 18.9 2.21
7 4 19 52.85 3.81
7 -4 19 54.02 3.81
7 4 19 52.08 3.3
7 4 20 41.69 3.24
7 -4 20 45.59 3.34
-7 -5 24 8.83 1.28
-7 -5 24 9.13 1.8
7 5 -23 83.41 3.78
-7 -5 23 104.2 4.98
7 5 -22 38.51 2.62
-7 -5 22 41.78 3.41
-7 5 21 1.22 1.2
7 5 -21 1.49 1.21
7 -5 -21 3.56 1.29
-7 5 21 3.07 1.24
-7 -5 21 2.35 1.36
-7 -5 21 2.59 1.66
-7 5 20 11.44 1.89
7 5 -20 8.8 1.68
7 -5 -20 9.5 1.83
-7 5 20 8.32 1.7
-7 -5 20 9.44 1.94
-7 -5 20 12.09 2.43
7 5 -19 367.56 12.55
7 -5 -19 395.74 12.94
-7 5 19 372.43 12.79
-7 -5 19 378.62 13.29
-7 -5 19 401.25 14.19
-7 5 19 386.37 12.97
-7 5 18 8.3 1.83
7 5 -18 7.81 1.78
7 -5 -18 7.26 1.71
-7 5 18 7.05 1.76
-7 -5 18 8 2.05
-7 -5 18 9.1 2.51
-7 5 17 182.03 7.51
7 5 -17 163.32 7.09
7 -5 -17 168.78 7.36
-7 5 17 155.58 7.23
-7 -5 17 175.3 8.33
-7 5 16 29.17 2.83
7 5 -16 28.65 2.9
7 -5 -16 35.14 3.16
7 -5 -16 25.57 3.09
7 5 -16 26.78 3.01
-7 -5 16 33.51 3.72
-7 5 15 140.79 6.44
7 5 -15 132.62 6.27
7 -5 -15 155.18 6.74
-7 5 15 113.56 6.66
7 -5 -15 143.17 6.93
7 5 -15 122.21 6.42
7 -5 -15 136.62 7.1
7 5 -15 136.26 6.87
-7 -5 15 151.56 7.6
-7 -5 15 123.11 7.11
-7 5 14 95.98 5.12
7 5 -14 98.81 5.27
7 -5 -14 104.38 5.47
7 -5 -14 102.74 5.77
7 5 -14 85.09 5.15
7 -5 -14 102.68 6.02
7 5 -14 102.52 5.78
-7 5 14 102.09 5.96
-7 -5 14 99.3 6.09
-7 -5 14 92.35 5.94
-7 5 13 392.75 13.05
7 5 -13 373.73 13.06
7 -5 -13 400.83 13.42
7 5 -13 372.11 13.4
7 -5 -13 388.3 13.72
7 5 -13 368.92 13.46
7 -5 -13 388.67 13.71
7 -5 -13 402.73 14.5
7 5 -13 387.59 13.81
-7 5 13 384.84 14.04
-7 -5 13 403.39 14.48
-7 -5 13 388.08 14.55
-7 5 13 353.78 13.67
-7 -5 12 13.57 2.56
-7 5 12 17.58 2.56
7 5 -12 16.25 2.68
7 -5 -12 12.11 2.29
7 5 -12 15.77 2.34
7 -5 -12 16.86 2.42
7 -5 -12 14.31 2.74
7 5 -12 12.74 2.3
-7 -5 12 15.69 2.8
-7 5 12 15.98 2.5
7 5 -12 15.15 2.19
7 -5 -12 12.86 2.14
7 5 -11 188.79 8.26
7 -5 -11 219.44 8.71
7 5 -11 209.5 8.78
7 -5 -11 226.12 9.09
7 5 -11 201.11 8.73
7 -5 -11 218.44 8.99
7 5 -11 207.08 8.88
-7 -5 11 225.25 9.66
-7 5 11 200.09 8.88
-7 5 11 211.62 9.22
-7 -5 11 215.8 9.37
7 -5 -11 220.57 9.99
7 5 -10 50.52 4.29
7 -5 -10 58.87 4.17
7 5 -10 69.3 4.51
7 -5 -10 62.14 4.36
7 5 -10 58.53 4.19
7 5 -10 68.24 4.43
7 -5 -10 55.9 4.16
-7 -5 10 58.79 4.49
-7 5 10 55.43 4.15
-7 5 10 75.66 4.85
7 -5 -10 61.04 5.36
7 5 -9 96.59 5.31
7 -5 -9 106.02 5.49
7 5 -9 91.35 5.56
7 -5 -9 101.87 5.63
7 -5 -9 86.11 6.12
7 5 -9 92.8 5.36
7 5 -9 104.79 5.6
7 -5 -9 94.25 5.43
-7 5 9 109.82 5.96
7 5 -8 2.67 1.37
7 -5 -8 1.25 1.3
7 5 -8 4.67 1.52
7 -5 -8 4.16 1.46
7 -5 -8 1.93 3.04
-7 5 8 3.72 1.91
7 5 -7 110.39 5.83
7 -5 -7 118.51 6.08
7 -5 -7 117.16 7.61
7 -5 -7 130.25 7.59
-7 5 7 133.23 6.82
7 5 -7 127.23 6.36
7 -5 -7 123.51 6.29
7 -5 -6 0.49 1.31
7 -5 -6 2.64 2.3
-7 5 6 3.85 2.37
7 -5 -5 708.32 22.28
7 -5 -5 683.98 23.57
7 -5 -5 755.78 24.12
-7 5 5 765.54 22.94
7 -5 -4 151.54 7.11
7 -5 -4 153.59 8.14
7 -5 -4 158.59 8.31
-7 5 4 158.73 7.48
7 5 -3 362.1 12.45
7 -5 -3 327.95 12.19
7 -5 -3 340.08 12.5
7 -5 -3 307.33 13.11
7 -5 -3 349.39 13.69
-7 5 3 346.07 12.54
7 -5 -2 9.72 1.86
7 -5 -2 8.37 2.31
7 5 -2 5.72 1.57
7 -5 -2 6.83 1.8
-7 5 2 7.09 1.9
7 -5 -1 4.93 1.45
7 -5 -1 2.53 1.74
7 5 -1 1.13 1.24
-7 5 1 2.56 1.65
7 -5 -1 1.27 1.33
7 -5 0 0.51 1.41
7 5 0 0.96 1.21
7 -5 0 3.78 1.52
7 -5 0 2.97 1.94
7 -5 0 0.24 1.85
-7 5 0 1.89 1.72
7 5 0 1.32 1.43
7 -5 1 674.43 20.68
7 -5 1 610.96 20.57
7 -5 1 647.32 21.78
7 -5 1 651.16 22.05
-7 5 -1 655.37 20.74
7 5 1 661.75 20.61
7 5 1 704.77 20.68
7 5 2 224.36 8.81
7 5 2 209.75 8.21
7 -5 2 206.78 8.91
7 -5 2 221.27 9.9
7 -5 2 232.21 10.36
-7 5 -2 203.96 9.05
7 5 2 217.58 8.88
7 -5 2 221.14 8.98
7 5 3 277.06 10.35
7 -5 3 264.67 10.55
7 -5 3 255.64 11.16
7 -5 3 281.19 12
-7 5 -3 271.77 10.64
7 5 3 290.25 10.8
7 -5 4 22.85 3.06
7 -5 4 26.16 4.38
-7 5 -4 31.84 3.12
7 5 4 28.83 3.32
7 5 4 30.57 2.84
7 -5 4 25.84 2.8
7 5 5 39.91 3.5
7 -5 5 35.6 3.41
7 -5 5 52.69 4.58
7 -5 5 36.29 4.35
-7 5 -5 37.91 3.41
7 5 5 39.08 3.51
7 5 5 50.1 3.51
7 -5 5 44.78 3.61
7 5 6 3.66 1.52
7 -5 6 4.29 1.63
7 5 6 1.7 1.69
7 -5 6 2.3 2.74
7 -5 6 4.37 1.8
7 -5 6 3.66 2.32
-7 5 -6 6.01 1.77
7 5 6 3.34 2.11
7 5 7 425.11 14.41
7 -5 7 450.76 14.99
7 5 7 438.03 14.28
7 -5 7 438.32 14.66
7 -5 7 439.52 15.77
7 -5 7 438.52 16.16
-7 5 -7 390.72 14.64
7 5 7 435.97 14.78
7 5 8 78.04 4.61
7 -5 8 83.93 5.02
7 -5 8 74.44 5.32
7 5 8 77.51 5.48
7 5 8 77.9 4.46
7 -5 8 75.39 4.67
7 -5 8 76.65 5.7
-7 5 -8 75.35 4.83
7 5 8 74.56 4.7
7 5 9 70.65 4.34
7 -5 9 62.74 4.47
7 5 9 62.76 4.91
7 5 9 65.17 4.06
7 -5 9 68.26 4.42
7 -5 9 64.34 4.93
7 -5 9 60.1 5.07
-7 5 -9 60.84 4.42
7 5 9 68.56 4.51
7 5 10 40.22 3.97
7 5 10 36.68 3.07
7 -5 10 32.97 3.16
7 -5 10 37.11 3.86
7 -5 10 27.48 3.52
-7 5 -10 31.45 3.26
7 5 10 35.91 3.24
7 5 11 249.45 10.68
7 5 11 245.54 9.34
7 -5 11 257.94 9.83
7 -5 11 258.01 10.89
-7 5 -11 239.96 10.17
7 5 11 256.29 10.05
7 5 12 56.31 4.59
7 5 12 57.48 3.68
7 -5 12 64.19 4.09
7 -5 12 57.14 4.67
7 5 12 60.07 4.17
7 5 13 119.95 6.67
7 5 13 114.16 5.48
7 -5 13 116.14 5.79
7 -5 13 118.65 6.83
7 5 13 117.82 6.07
7 5 14 88.49 4.63
7 -5 14 93.27 5.03
7 5 14 101.14 5.91
7 -5 14 87.96 5.84
7 5 14 92.64 5.22
7 5 15 16.84 2.11
7 5 15 15.97 2.75
7 -5 15 15.16 2.14
7 -5 15 15.42 2.83
7 5 15 14.5 2.31
7 5 16 54.49 4.07
7 -5 16 50.63 4.15
7 5 17 241.64 9.61
7 -5 17 247.57 9.82
7 5 18 12.97 2.22
7 -5 18 14.98 2.35
7 -5 19 41.7 3.29
7 5 19 43.91 3.24
-7 -6 23 86.57 4.33
-7 -6 22 309.18 10.76
-7 6 21 4.81 1.34
7 6 -21 3.33 1.02
-7 -6 21 4.21 1.66
7 6 -20 158.06 6.39
-7 -6 20 178.31 7.67
-7 6 20 169.37 6.75
-7 -6 19 25.46 3.07
-7 6 19 25.99 2.52
-7 6 18 5.56 1.77
-7 -6 18 8.56 2.3
-7 6 17 107.21 5.4
7 -6 -17 94.81 4.87
-7 -6 17 111.56 6.32
-7 6 16 373.79 12.89
7 -6 -16 359.39 12.42
7 -6 -16 395.93 13.64
-7 6 16 360.58 12.55
-7 6 15 11.26 2.01
7 -6 -15 6.75 1.51
7 -6 -15 8.23 2.19
-7 -6 15 4.66 2.23
-7 6 14 322.56 11.47
7 -6 -14 323.21 11.28
7 -6 -14 323.92 12.51
7 6 -14 304.22 11.99
-7 6 14 323.73 12.36
-7 -6 14 332.22 12.85
-7 6 13 146.65 6.55
7 -6 -13 145.42 6.46
7 -6 -13 142.9 7.54
7 6 -13 137.86 7.02
-7 6 13 136.13 7.12
-7 -6 13 138.91 7.43
-7 6 12 25.47 2.65
7 -6 -12 27.34 2.69
7 -6 -12 33.42 3.84
7 6 -12 29.18 3.12
-7 6 12 25.87 3.13
-7 -6 12 26.27 3.3
7 -6 -11 161 6.98
7 -6 -11 167.22 8.55
7 6 -11 152.86 7.43
-7 6 11 151.55 7.58
-7 -6 11 156.85 7.86
7 -6 -10 101.5 6.64
-7 6 10 96.75 5.76
-7 -6 10 90.43 5.65
7 -6 -9 9.35 2.65
-7 6 9 9.51 2.21
7 -6 -8 448.09 16.82
7 -6 -8 473.07 16.87
7 -6 -7 110.71 7.58
7 -6 -7 105.22 7.04
-7 6 7 121.91 6.5
7 -6 -6 127.34 7.69
-7 6 6 123.38 6.65
7 -6 -5 144.74 8.34
-7 6 5 141.43 7.23
7 6 -4 183.31 7.62
7 -6 -4 179.2 9.37
7 -6 -4 176.42 9.43
-7 6 4 169.73 8.13
7 6 -3 166.32 7.25
7 -6 -3 165.85 9.12
7 -6 -3 176.83 9.23
-7 6 3 161.7 7.85
7 6 -3 178.22 7.7
7 -6 -2 339.98 13.83
7 -6 -2 303.7 13.36
7 6 -2 322.29 11.55
-7 6 2 321.16 12.28
7 6 -2 342.14 12.1
7 -6 -1 163.2 9.11
-7 6 1 170.22 7.97
7 6 -1 165.51 7.22
7 6 -1 185.01 7.96
7 6 0 339.25 11.94
7 -6 0 333.75 13.97
-7 6 0 328.92 12.64
7 6 0 346.34 12.3
7 6 0 358.93 12.69
7 6 1 72.23 4.42
7 -6 1 60.37 5.47
7 -6 1 67.55 5.64
7 6 1 65.84 4.14
-7 6 -1 61.43 4.51
7 6 1 74.17 4.89
7 6 2 3.01 1.15
7 6 2 5.67 1.65
7 -6 2 3.21 2.39
7 -6 2 4.73 2.67
-7 6 -2 2.83 1.73
7 6 2 7.61 2.03
7 6 3 410.57 13.49
7 -6 3 381.72 15.33
7 -6 3 417.03 16.23
-7 6 -3 423.56 14.79
7 6 3 426.83 14.37
7 6 3 422.98 13.71
7 -6 4 328.32 13.43
7 -6 4 366.51 14.47
-7 6 -4 340.42 12.76
7 6 4 355.04 12.62
7 6 4 335.57 11.76
7 6 5 197.74 8.02
7 -6 5 182.37 9.18
7 -6 5 215.6 10.38
-7 6 -5 205.11 8.94
7 6 5 226.4 8.89
7 6 6 38.14 3.1
7 -6 6 35.04 3.14
7 -6 6 37.23 3.86
7 -6 6 50.21 4.83
-7 6 -6 41.47 3.68
7 6 6 44.87 3.61
7 6 7 111.47 5.56
7 -6 7 115.06 5.76
7 -6 7 121.83 6.97
7 -6 7 108.34 7.01
-7 6 -7 117.2 6.34
7 6 7 115.44 6.03
7 6 8 119.35 6.99
7 -6 8 122.72 5.99
7 -6 8 130.28 7.22
7 -6 8 134.52 7.57
-7 6 -8 115.8 6.45
7 6 8 130.5 6.44
7 6 9 272.62 11.52
7 -6 9 274.02 10.19
7 -6 9 256.94 11.49
-7 6 -9 259.61 10.84
7 6 9 284.67 10.73
7 6 10 94.34 6.05
7 -6 10 92.43 5.01
7 -6 10 100.08 6.23
7 -6 10 90.93 6.08
-7 6 -10 82.72 5.4
7 6 10 95.34 5.43
7 -6 11 23.64 2.58
7 6 11 22.5 3.14
7 -6 11 22.21 3.25
7 -6 11 17.85 3
7 6 11 27.8 2.86
7 -6 12 100.14 5.05
7 6 12 93.85 5.88
7 -6 12 106.06 6.36
7 6 12 93.68 5.41
7 6 13 2.71 2.12
7 -6 13 6.89 2.41
7 6 13 3.75 1.68
7 6 14 160.15 6.62
7 6 14 168.79 7.92
7 -6 14 176.16 8.26
7 6 14 177.81 7.44
7 6 15 233.16 9.49
7 -6 15 242.94 9.89
7 6 15 228.21 8.92
7 6 16 11.71 2.26
7 -6 16 15.25 2.54
7 6 16 12.41 2.03
7 -6 17 3.79 1.76
7 6 17 1.65 1.27
7 -6 18 24.67 2.69
7 6 18 30.96 2.46
-7 -7 22 24.64 2.32
-7 -7 21 233.09 8.43
-7 7 21 220.9 7.67
7 7 -20 166.67 6.31
-7 7 20 182.05 6.77
7 7 -19 71.93 3.81
-7 -7 19 77.88 4.63
-7 7 19 74.36 3.99
-7 7 18 4.08 1.41
7 7 -18 2.56 1.34
-7 -7 18 5.25 1.82
-7 7 17 45.8 3.31
7 7 -17 48.19 3.56
-7 -7 17 49.51 4.03
-7 7 16 15.33 2.18
7 -7 -16 13.14 2.38
-7 -7 16 11.42 2.69
-7 7 15 383.96 13.1
7 -7 -15 369.84 13.75
-7 7 14 444.46 14.45
7 -7 -14 410.85 15.25
-7 -7 14 462.91 15.91
-7 7 13 10.34 1.93
7 -7 -13 7.97 2.46
-7 -7 13 8.53 2.57
-7 7 12 10.53 1.91
7 -7 -12 9.09 2.62
-7 -7 12 10.68 2.53
-7 7 12 11.92 2.28
7 -7 -11 69.92 5.65
-7 7 11 71.53 4.99
-7 -7 11 81.86 5.42
7 -7 -10 186.9 9.48
-7 -7 10 186.25 8.46
7 -7 -9 206.49 10.24
-7 7 9 185.28 8.71
-7 -7 9 195.51 8.85
7 -7 -8 380.95 15.53
7 -7 -8 399.45 15.23
-7 7 8 359.69 13.74
7 -7 -7 25.65 4.09
7 -7 -7 26.26 4.05
-7 7 7 27.01 3.26
7 -7 -6 175.93 9.63
-7 7 6 181.44 8.41
7 -7 -6 175.05 9.46
7 -7 -5 5.9 2.66
-7 7 5 6.45 2.07
7 -7 -4 266.87 12.45
7 -7 -4 284.25 12.77
-7 7 4 278.15 11.32
7 7 -3 200.36 8.86
7 -7 -3 197.43 10.03
7 -7 -3 181.02 9.72
-7 7 3 168.8 8.41
7 -7 -2 225.87 11.02
7 -7 -2 227.69 11.13
-7 7 2 217.23 9.67
7 7 -2 227.88 9.69
7 7 -2 232.26 9.12
7 7 -1 32.67 3.51
7 -7 -1 27.74 3.96
7 -7 -1 31.81 4.31
-7 7 1 29.09 3.26
7 7 -1 30.66 3.12
7 7 0 554.31 17.82
7 -7 0 510.77 19.54
-7 7 0 542.29 18.31
7 7 0 548.9 17.53
7 7 1 22.8 2.91
7 -7 1 24.24 3.83
-7 7 -1 28.11 3.17
7 7 1 27.23 3.08
7 -7 2 242.01 11.38
7 -7 2 251.56 11.75
-7 7 -2 247.14 10.44
7 7 2 259.25 9.87
7 7 2 243.08 9.47
7 7 3 27.08 2.7
7 -7 3 25.44 3.79
7 -7 3 29.48 4.27
-7 7 -3 33.96 3.44
7 7 3 36.41 3.16
7 7 4 89.59 4.67
7 -7 4 89.24 6.33
7 -7 4 93.81 6.75
-7 7 -4 85.51 5.51
7 7 4 100.38 5.43
7 -7 5 13.5 2.84
7 -7 5 12.68 3.17
-7 7 -5 14.02 2.39
7 7 5 12.8 2.19
7 -7 6 409.33 15.68
7 -7 6 461.04 17.19
-7 7 -6 444.45 15.68
7 7 6 445.33 14.92
7 -7 7 79.61 5.46
7 -7 7 85.37 6.28
-7 7 -7 80.39 5.34
7 7 7 88.7 5.11
7 7 8 90.6 5.99
7 -7 8 101.98 6.71
-7 7 -8 87.6 5.58
7 7 8 82.54 4.54
7 7 8 96.03 5.31
7 7 9 33.71 3.76
7 -7 9 35.57 4.08
7 7 9 36.83 3.32
7 7 10 28.86 3.54
7 -7 10 26.93 3.6
7 7 10 32.9 3.04
7 -7 11 26.36 3.34
7 7 11 25.85 2.85
7 7 12 485.75 15.81
7 7 13 67.78 3.95
7 7 13 75.48 4.41
7 7 14 13.01 1.84
7 7 14 12.92 2.01
7 7 15 24.91 2.46
7 7 16 12.62 1.88
7 7 17 1.76 1.36
7 8 -20 45.92 2.36
-7 -8 20 57.02 3.29
-7 8 20 51.79 2.76
-7 8 19 4.58 1.15
7 8 -19 3.87 1.01
-7 -8 19 4.79 1.49
-7 8 18 456.66 14.07
7 8 -18 436.59 14.02
-7 8 17 32.08 2.54
7 8 -17 29.75 2.63
-7 -8 17 33.3 3.12
-7 8 16 2.5 1.25
7 8 -16 2.54 1.42
7 -8 -16 3 1.59
-7 -8 16 1.17 1.65
-7 8 15 14.81 2.06
7 8 -15 17.08 2.36
7 -8 -15 16.87 2.47
-7 -8 15 15.85 2.54
-7 8 14 1.96 1.36
7 8 -14 2.72 1.6
7 -8 -14 3.82 2.02
-7 -8 14 4.88 2.12
-7 8 13 42.54 3.24
7 8 -13 42.95 3.83
7 -8 -13 44.29 4.16
-7 -8 13 52.64 4.28
-7 8 12 974.54 28.32
7 8 -12 980.99 29.7
7 -8 -12 984.93 30.38
-7 -8 12 1032.51 30
7 8 -11 36.86 3.76
7 -8 -11 43.73 4.58
-7 -8 11 43.35 3.91
7 8 -10 0.62 1.76
7 -8 -10 0.8 2.26
-7 -8 10 1.6 1.8
7 8 -9 44.85 4.15
7 -8 -9 39.32 4.72
-7 -8 9 41.56 3.84
7 -8 -8 32.57 4.5
7 -8 -8 26.86 3.9
-7 -8 8 29.56 3.3
7 -8 -7 1.8 2.64
7 -8 -7 2.7 2.51
-7 -8 7 2.26 1.77
7 8 -6 652.98 21.4
7 -8 -6 631.75 22.98
7 -8 -6 637.26 22.44
7 8 -5 72.31 5.25
7 -8 -5 76.66 6.18
7 8 -4 1.47 1.82
7 -8 -4 4.12 2.53
7 8 -3 11.61 2.44
7 -8 -3 13.8 3.37
7 -8 -3 10.92 3.14
7 8 -2 216.81 9.36
7 -8 -2 210.81 10.86
7 -8 -2 214.97 10.92
7 8 -1 58.54 4.32
7 -8 -1 48.38 5.3
7 -8 -1 53.41 5.5
-7 8 1 56.04 4.48
7 8 0 366.36 13.1
7 -8 0 344.53 14.83
7 -8 0 391.9 15.55
-7 8 0 348.66 13.68
7 8 1 25.23 2.81
7 -8 1 24.6 3.94
-7 8 -1 30.25 3.4
7 8 1 25.12 2.68
7 8 2 83.56 4.79
7 -8 2 86.83 6.47
-7 8 -2 77.07 5.43
7 8 2 92.77 4.98
7 8 3 11.84 1.94
7 -8 3 16.7 3.29
7 -8 3 12.86 3.47
-7 8 -3 11.35 2.36
7 8 3 11.37 2.06
7 8 4 491.97 16.12
7 -8 4 547.04 19.06
7 -8 4 532.3 19.49
-7 8 -4 508.51 17.86
7 8 4 528.71 16.81
7 -8 5 27.44 3.8
7 -8 5 32.21 4.53
-7 8 -5 34.62 3.59
7 8 5 31.39 3.07
7 -8 6 78.51 6.26
7 8 6 80.39 4.61
7 -8 7 4.2 1.86
7 -8 7 4.32 2.5
7 8 7 6.64 1.65
7 8 7 10.5 2.03
7 -8 8 83.81 6.12
7 8 8 75.6 4.37
7 8 8 94.73 5.02
7 -8 9 34.28 4.21
7 8 9 45.52 3.44
7 -8 10 408.34 14.97
7 8 10 391.58 13.42
7 -8 11 4.42 2.24
7 8 11 1.12 1.44
7 8 12 14.67 2.06
7 8 13 39.04 2.89
7 8 13 40.36 3.05
7 8 14 70.09 3.69
7 8 14 66.92 3.83
7 8 15 8.13 1.89
7 8 15 6.71 1.49
7 8 16 252.41 9
7 9 -19 11.55 1.14
-7 -9 19 11.33 1.43
-7 9 19 11.85 1.32
7 9 -18 31.01 2.09
-7 -9 18 35.13 2.43
-7 9 18 30.59 2.08
-7 9 17 25.3 2.01
7 9 -17 24.2 2.11
-7 -9 17 25.83 2.37
-7 9 16 154.93 6.01
7 9 -16 157.7 6.42
7 -9 -16 155.67 6.38
-7 -9 16 175.33 6.82
-7 9 15 140.54 5.76
7 9 -15 140.55 6.27
7 -9 -15 155.29 6.52
-7 -9 15 152.06 6.57
-7 9 14 92.44 4.43
7 9 -14 92.86 5.02
7 -9 -14 95.2 5.21
-7 -9 14 100.66 5.23
-7 9 13 11.38 1.73
7 9 -13 16.59 2.4
7 -9 -13 11.65 2.33
-7 -9 13 15.78 2.43
-7 9 12 4.7 1.4
7 9 -12 9.43 2.08
7 -9 -12 4.66 2.17
-7 -9 12 6.19 1.96
7 9 -11 23.28 3.1
7 -9 -11 24.41 3.51
-7 -9 11 22.99 2.91
7 9 -10 625.63 20.29
7 -9 -10 637.55 21.59
-7 -9 10 614.96 19.84
7 9 -9 186.8 8.68
7 -9 -9 188.08 9.77
-7 -9 9 182.4 8.16
7 9 -8 58.84 4.63
7 -9 -8 58.03 5.6
7 -9 -7 -0.29 2.62
7 -9 -7 1.52 2.45
7 -9 -6 3.87 2.82
7 -9 -6 3.77 2.65
7 9 -5 14.11 2.57
7 -9 -5 15.92 3.7
7 -9 -5 15.98 3.5
7 9 -4 557.58 18.92
7 -9 -4 571.21 20.65
7 9 -3 86.16 5.42
7 -9 -3 82.74 6.5
7 9 -2 62.73 4.53
7 -9 -2 56.46 5.68
7 -9 -2 64.11 5.93
7 9 -1 26.21 2.95
7 -9 -1 25.56 4.2
7 -9 -1 33.04 4.39
7 9 0 42.36 3.54
7 -9 0 37.23 4.62
7 -9 0 39.96 4.64
7 9 1 44.18 3.49
7 -9 1 39.55 4.75
7 -9 1 47.22 5.12
7 9 2 428.12 14.17
7 -9 2 401.16 16.26
7 9 3 32.31 2.88
7 -9 3 33.76 4.34
7 -9 4 -1.56 2.55
7 -9 4 1.7 2.68
7 -9 5 3.9 2.25
7 -9 5 3.35 2.66
7 9 5 4.77 1.53
7 -9 6 94.16 6.13
7 -9 6 94.06 6.84
7 9 6 84.65 4.91
7 9 6 96.99 4.91
7 -9 7 89.75 5.73
7 -9 7 102.75 6.79
7 9 7 89.77 4.92
7 9 7 93.45 4.86
7 9 8 432.57 15.86
7 -9 8 484.38 16.95
7 9 8 436.14 14.32
7 9 8 453.56 14.46
7 9 9 0.76 1.87
7 -9 9 1.12 2.06
7 9 9 0.9 1.34
7 9 10 1.59 1.68
7 -9 10 2.03 1.93
7 9 10 2.21 1.43
7 9 11 11.57 2.28
7 -9 11 9.92 2.24
7 9 11 10.26 1.76
7 9 12 82.39 4.27
7 9 12 86.53 4.84
7 9 12 83.53 4.18
7 9 13 56.54 3.31
7 9 13 61.38 3.87
7 9 13 61.99 3.41
7 9 14 74.89 3.71
7 9 14 82.63 4.32
7 10 -17 18.47 1.6
-7 10 17 17.18 1.4
-7 10 16 193.05 6.49
7 10 -16 212.61 7.07
-7 10 15 15.04 1.53
7 10 -15 16.5 1.84
7 -10 -15 18.81 1.96
-7 10 14 177.09 6.35
7 10 -14 182.72 7.12
7 -10 -14 199.11 7.38
-7 10 13 138.41 5.34
7 10 -13 143.27 6.25
7 -10 -13 147.35 6.54
7 10 -12 12.36 2.02
7 -10 -12 14.05 2.4
7 10 -11 40.4 3.36
7 -10 -11 40.18 3.84
7 10 -10 94.17 5.33
7 -10 -10 90.83 5.91
7 10 -9 28.8 3.07
7 -10 -9 32.33 4.02
7 10 -8 181.08 8.22
7 -10 -8 191.84 9.56
7 -10 -7 426.59 16.62
7 -10 -7 432.33 15.79
7 -10 -6 23.79 4.04
7 -10 -6 24.13 3.66
7 10 -5 14.94 2.54
7 -10 -5 12.26 3.47
7 -10 -5 6.55 2.95
7 10 -4 43.66 3.87
7 -10 -4 41.05 4.7
7 10 -3 8.52 2.28
7 -10 -3 10.41 3.15
7 10 -2 238.97 9.77
7 -10 -2 232.72 11.35
7 -10 -2 232.43 11.16
7 10 -1 348.45 12.59
7 -10 -1 328.94 14.28
7 -10 -1 357.55 14.57
7 10 0 72.84 4.65
7 -10 0 76.92 6.25
7 -10 0 80.82 6.33
7 10 1 2.37 1.51
7 -10 1 5.15 2.58
7 -10 1 1.63 2.56
7 -10 2 1.06 2.62
7 -10 2 -0.27 2.77
7 -10 3 7.38 2.77
7 -10 4 244.86 10.98
7 -10 5 299.77 12.19
7 -10 5 315.86 13.05
7 10 5 293.39 10.79
7 -10 6 49.74 4.3
7 -10 6 51.93 4.83
7 10 6 48.12 3.49
7 10 7 20.4 2.89
7 -10 7 19.99 3.37
7 10 7 23.46 2.39
7 10 8 85.81 5.22
7 -10 8 96.07 6.07
7 10 8 87.29 4.43
7 10 9 45.36 3.64
7 -10 9 53.21 4.38
7 10 10 32.35 3.01
7 -10 10 30.21 3.24
7 10 11 103.66 4.85
7 10 11 111.49 5.34
7 10 12 20.71 2.06
7 10 12 21.06 2.36
7 11 -14 80.22 3.73
7 -11 -14 76.73 3.62
7 11 -13 141.04 5.62
7 -11 -13 139.59 5.67
7 11 -12 15.61 1.9
7 -11 -12 16.46 2.16
7 11 -11 163.38 6.69
7 -11 -11 164.35 7.08
7 11 -10 4.49 1.55
7 -11 -10 4.14 1.79
7 11 -9 68.14 4.26
7 -11 -9 73.15 4.91
7 11 -8 95.43 5.15
7 -11 -8 89.33 5.8
7 -11 -7 91.19 6.01
7 -11 -6 82.16 5.9
7 -11 -5 257.59 11.12
7 11 -5 241.03 9.66
7 -11 -5 245.06 10.47
7 11 -4 0.16 1.49
7 -11 -4 1.21 2.31
7 -11 -4 0.44 2.06
7 11 -3 79.66 4.81
7 -11 -3 80.45 5.73
7 11 -2 122.65 6.12
7 -11 -2 121.71 7.21
7 -11 -1 7.38 2.83
7 -11 -1 9.73 2.91
7 -11 0 97.67 6.53
7 -11 0 100.09 6.56
7 -11 1 358.25 14.17
7 -11 1 365.82 14.32
7 -11 2 0.23 2.2
7 -11 2 0.95 2.39
7 -11 3 143.06 7.54
7 -11 3 134.16 7.67
7 -11 4 55.77 4.51
7 11 4 56.92 3.71
7 11 5 25.52 2.85
7 -11 5 26.2 3.25
7 11 5 27.14 2.54
7 11 6 106.15 5.65
7 -11 6 120.06 6.69
7 11 6 103.13 4.98
7 11 7 216.46 8.5
7 -11 7 210.37 9.23
7 11 7 206.17 7.63
7 11 8 2.24 1.55
7 -11 8 1.74 1.93
7 11 9 43.97 3.14
7 -11 9 45.97 3.74
7 11 10 23.11 2.14
7 11 10 23.37 2.29
7 -11 10 20.09 2.54
7 -12 -10 44.54 3.16
7 -12 -9 12.9 2.14
7 -12 -8 17.66 2.48
7 -12 -7 74.06 4.68
7 -12 -6 6.95 2.21
7 -12 -5 194.15 8.66
7 -12 -4 9.54 2.54
7 -12 -4 6.68 2.03
7 -12 -3 199.51 8.59
7 -12 -2 1.28 1.87
7 -12 -1 96.56 5.93
7 -12 -1 95.85 5.74
7 -12 0 10.49 2.77
7 -12 0 17.54 3.02
7 -12 1 158.53 7.59
7 -12 1 160.38 7.69
7 12 1 148.84 6.42
7 -12 2 -0.36 1.82
7 -12 2 0.95 2.01
7 12 2 2.36 1.32
7 -12 3 240.4 9.6
7 -12 3 236.82 9.95
7 12 3 247.01 8.66
7 12 4 3.11 1.55
7 -12 4 4.6 1.85
7 12 4 2.81 1.25
7 12 5 114.11 5.37
7 12 5 122.25 5.04
7 12 6 2.35 1.49
7 -12 6 -0.16 1.92
7 12 6 1.61 1.15
8 0 -25 0.09 1.24
-8 0 25 0.56 1.18
8 0 -24 68.46 3.8
-8 0 24 60.75 3.66
8 0 -23 0.5 1.43
-8 0 23 0.79 1.39
-8 0 23 -0.21 1.05
8 0 -22 80.29 4.59
-8 0 22 75.62 4.55
-8 0 22 74.53 4.08
8 0 -21 -0.91 1.83
-8 0 21 0.33 1.69
-8 0 21 0.13 1.32
8 0 -20 641.12 19.8
-8 0 20 608.4 19.25
8 0 -19 -1.04 2.18
-8 0 19 0.48 1.53
8 0 -18 34.59 3.5
-8 0 18 32.44 3.16
8 0 -17 1.3 1.74
-8 0 17 1.21 1.5
8 0 -16 116.78 6.33
8 0 -16 106.04 6.38
8 0 -16 125.43 6.84
-8 0 16 125.75 6.33
-8 0 16 113 6.87
-8 0 15 -0.48 1.52
8 0 -15 0.37 1.58
8 0 -15 -0.65 1.49
-8 0 15 0.53 1.41
8 0 -15 -0.64 1.37
8 0 -14 707.87 21.95
8 0 -14 724.09 22.51
8 0 -14 681.92 22.33
-8 0 14 649.24 22.52
-8 0 14 690.24 21.58
8 0 -13 0.36 1.74
8 0 -13 -0.41 1.5
-8 0 13 0.51 1.57
8 0 -13 1.44 1.32
-8 0 13 0.69 1.45
8 0 -12 7.79 2.23
8 0 -12 9.41 2.38
8 0 -12 11.28 2.15
8 0 -11 6.11 2.1
8 0 -11 2.75 1.67
8 0 -11 1.79 1.41
8 0 -10 1.39 1.94
8 0 -10 0.39 1.58
8 0 -10 0.98 1.34
8 0 -9 0.35 2.47
8 0 -9 1.54 1.98
8 0 -9 2.56 1.6
8 0 -8 1590.41 45.77
8 0 -8 1658.66 46.51
8 0 -8 1691.84 46.56
8 0 -7 3.97 1.76
8 0 -7 1.42 2.03
8 0 -7 1.82 1.7
8 0 -6 189.65 8.56
8 0 -6 205.02 9.11
8 0 -5 1.07 1.42
8 0 -5 3.24 1.5
8 0 -4 6.23 1.54
8 0 -3 5.37 1.57
8 0 -2 1559.7 44.38
8 0 -1 3.2 1.44
8 0 -1 3.28 1.57
8 0 0 151.62 7.68
8 0 0 176.43 8.27
8 0 1 2.8 1.56
8 0 1 -0.22 1.4
8 0 2 3.88 1.75
8 0 2 1.79 1.51
8 0 3 1.77 1.66
8 0 3 -1.07 1.5
8 0 4 934.58 28.92
8 0 4 1014.82 29.5
8 0 4 924.49 28.31
8 0 5 -0.43 1.44
8 0 5 2.06 2.16
8 0 6 1118.66 33.06
8 0 6 1096.67 32.46
8 0 6 1116.82 32.77
8 0 6 1069.49 31.85
8 0 7 1.2 1.7
8 0 7 0.77 2.27
8 0 7 2.34 1.9
8 0 8 3.24 1.69
8 0 8 0.77 1.84
8 0 8 2.84 1.84
8 0 8 2.65 1.59
8 0 9 2.04 1.69
8 0 9 1.71 1.51
8 0 9 0.97 1.8
8 0 9 2.79 1.54
8 0 10 1044.32 30.71
8 0 10 984.88 30.03
8 0 10 1023.93 30.42
8 0 10 1004.51 29.54
8 0 11 0.21 1.79
8 0 11 1.73 1.47
8 0 11 1.31 1.86
8 0 11 4.33 2.2
8 0 11 2.08 1.61
8 0 12 1298.6 37.97
8 0 12 1299.92 36.87
8 0 12 1313.52 37.51
8 0 12 1328.23 37.85
8 0 12 1276.93 36.71
8 0 13 3.24 1.61
8 0 13 1.95 1.71
8 0 13 2.69 1.92
8 0 13 0.45 1.41
8 0 14 -0.17 1.9
8 0 14 2.73 1.64
8 0 14 1.86 1.82
8 0 14 -0.57 1.37
8 0 15 1.4 1.43
8 0 15 0.48 1.7
8 0 15 -0.35 1.75
8 0 15 -0.13 1.25
8 0 16 212.23 8.47
8 0 16 206.57 8.68
8 0 16 207.89 7.85
8 0 17 1.35 1.41
8 0 17 -0.15 1.55
8 0 18 611.34 18.3
8 0 18 598.8 18.47
8 0 19 0.8 1.31
8 1 -24 7.7 1.63
-8 -1 24 10.35 1.79
-8 -1 24 9.73 1.53
8 1 -23 44.04 3.14
-8 -1 23 40.66 3.2
-8 -1 23 44.81 3.04
8 1 -22 217.12 8.63
-8 -1 22 245.6 9.15
-8 -1 22 226.97 8.61
8 1 -21 2.96 1.66
-8 -1 21 5.78 1.84
-8 1 21 3.21 1.2
-8 -1 21 4.66 1.61
8 1 -20 48.31 3.85
-8 1 20 50.6 3.44
-8 -1 20 50.86 3.82
8 1 -19 33.53 3.35
-8 1 19 31.68 2.93
-8 -1 19 30.46 3.15
8 1 -18 85.4 5.25
-8 1 18 83.21 4.85
-8 -1 18 87.77 5.28
8 1 -17 198.07 8.79
-8 1 17 201.9 8.38
-8 -1 17 206.67 8.91
8 1 -16 285.92 11.01
8 -1 -16 262.92 11.14
8 1 -16 273.79 11.32
8 -1 -16 276.48 11.42
-8 1 16 271.37 10.43
-8 -1 16 292.52 11.13
-8 -1 16 277.15 11.8
-8 1 16 263.5 11.49
8 1 -15 59.85 4.4
8 -1 -15 58.7 4.59
8 1 -15 63.95 4.72
8 -1 -15 59.5 4.64
-8 -1 15 60.29 4.93
-8 1 15 55.36 4.7
-8 1 15 60.09 4.13
-8 -1 15 57.26 4.43
8 1 -14 7.07 2.09
8 1 -14 12.87 2.2
8 -1 -14 6.55 1.81
-8 1 14 6.95 1.84
-8 -1 14 3.48 1.71
8 -1 -14 6.52 1.83
-8 -1 14 5.94 1.78
-8 1 14 7.61 1.97
8 1 -13 34.68 3.38
8 -1 -13 38.14 3.5
8 1 -13 24.6 3.15
-8 1 13 30.7 3.46
-8 1 13 33.58 3.11
-8 -1 13 31.87 3.28
8 1 -12 254.63 10.09
8 1 -12 270.15 10.64
8 -1 -12 237.97 10.22
-8 1 12 235.51 9.47
8 1 -11 501.88 16.94
8 1 -11 503.83 17.35
8 -1 -11 520.76 17.54
-8 1 11 527.94 16.83
8 1 -10 233.78 9.76
8 1 -10 235.42 10.04
8 -1 -10 255.73 10.24
-8 1 10 247.39 9.47
8 1 -9 23.45 3.07
8 1 -9 23.9 3.71
8 -1 -9 23.02 2.86
-8 1 9 25.8 2.64
8 1 -8 23 2.83
8 1 -8 21.23 3.3
8 -1 -8 23.18 3.07
8 -1 -8 19.98 2.75
-8 1 8 20.03 2.28
8 1 -7 85.94 5.24
8 1 -7 95.63 6.04
8 -1 -7 98.1 5.61
8 -1 -7 102.41 5.9
-8 1 7 89.13 4.79
8 1 -6 784.91 25.42
8 -1 -6 836.4 25.53
8 -1 -6 890.57 26.4
-8 1 6 847.54 24.61
8 -1 -5 975.61 28.32
-8 1 5 946.75 27.25
8 -1 -5 1020.27 29.35
8 1 -4 326.83 12.82
8 -1 -4 366.29 12.75
-8 1 4 348.15 11.82
8 -1 -3 352.74 12.45
-8 1 3 362.27 11.91
8 1 -2 221.29 9.65
8 -1 -2 225.84 9.05
-8 1 2 228.53 8.59
8 1 -1 68.47 4.91
8 -1 -1 82.91 5.45
8 -1 -1 74.61 4.6
-8 1 1 87.01 4.48
8 1 0 323.09 12.82
8 -1 0 343.55 12.04
-8 1 0 332.73 11.6
8 1 1 646.05 21.68
8 -1 1 730.49 22.61
8 1 2 85.95 5.46
8 -1 2 83.6 5.54
8 1 3 253.74 10.72
8 -1 3 287.61 11.43
8 1 4 130.07 7.36
8 -1 4 134.62 7.16
8 1 4 128.28 6.92
8 -1 4 124.88 6.38
8 -1 5 157.96 7.93
8 -1 5 160.85 7.96
8 1 5 153.76 7.43
8 -1 5 156.62 7.43
8 -1 6 413.76 15.07
8 1 6 419.01 14.52
8 -1 6 400.3 14.13
8 -1 6 429.9 15.15
8 -1 7 751.35 23.31
8 1 7 685.48 22.39
8 1 7 730.57 22.47
8 -1 7 692.52 21.98
8 -1 7 763.05 23.31
8 -1 8 1.44 1.68
8 1 8 1.41 1.41
8 1 8 1.81 1.96
8 -1 8 0.2 1.84
8 1 8 1.49 1.71
8 -1 8 1.59 1.48
8 1 8 0.86 1.45
8 -1 9 808.55 25.03
8 1 9 814.18 24
8 1 9 778.7 24.41
8 1 9 801.28 24.44
8 -1 9 782.36 24.82
8 -1 9 782.19 23.7
8 1 9 766.93 23.95
8 -1 10 435.22 15.22
8 1 10 401.29 14.48
8 1 10 414.07 14.23
8 1 10 424.21 14.69
8 -1 10 421.36 15.1
8 -1 10 409.44 13.94
8 1 10 392.88 14.1
8 -1 11 198.91 9.12
8 1 11 208.21 8.64
8 1 11 203.91 8.78
8 1 11 184.8 8.58
8 -1 11 205.64 9.21
8 -1 11 198.29 8.16
8 1 11 191.9 8.31
8 -1 12 183.5 8.49
8 1 12 185.07 7.96
8 1 12 177.18 7.96
8 1 12 164.12 7.84
8 -1 12 161.33 8.09
8 -1 12 165 7.21
8 1 12 168.21 7.55
8 1 13 393.22 13.84
8 1 13 401.71 13.98
8 1 13 386.94 13.98
8 -1 13 393.48 14.47
8 -1 13 396.4 13.18
8 1 13 397.75 13.54
8 1 14 11.37 2.32
8 1 14 10.92 2.3
8 1 14 12.58 2.42
8 -1 14 10.34 2.61
8 -1 14 9.67 1.71
8 1 14 11.6 2.1
8 1 15 409.11 14.1
8 1 15 412.95 13.96
8 1 15 415.04 14.15
8 -1 15 416.71 14.66
8 1 15 397.3 13.47
8 1 16 126.95 6.09
8 1 16 114.3 5.69
8 1 16 109.57 5.68
8 -1 16 122.5 6.28
8 1 16 112.92 5.37
8 1 17 123.46 5.96
8 1 17 121.89 5.71
8 1 17 123.94 5.77
8 -1 17 130.05 6.25
8 1 17 120.59 5.38
8 1 18 62.06 3.65
8 1 18 59.39 3.62
8 -1 18 58.77 3.86
8 1 18 57.66 3.29
8 -1 19 216.96 8.14
8 2 -24 82.23 4.02
8 -2 -24 87.46 4.19
-8 2 24 89.39 4.2
-8 -2 24 92.42 4.34
-8 -2 24 80.83 4.08
8 2 -23 31.41 2.61
8 -2 -23 35.94 2.78
-8 2 23 35.43 2.81
-8 -2 23 33.64 2.8
-8 -2 23 33.25 2.72
8 2 -22 0.25 1.37
8 -2 -22 3 1.59
-8 2 22 3.5 1.47
-8 -2 22 2 1.55
-8 -2 22 2.3 1.35
8 2 -21 25.2 2.71
8 -2 -21 27.17 2.87
-8 2 21 29.55 2.84
-8 -2 21 31.61 3.07
-8 -2 21 35.44 3.13
8 2 -20 16.52 2.33
8 -2 -20 17.5 2.44
-8 2 20 13.12 2.38
-8 -2 20 17.13 2.53
-8 -2 20 11.42 2.27
8 2 -19 195.35 8.37
8 -2 -19 217.57 8.75
-8 2 19 190.2 7.58
-8 -2 19 199.64 8.72
8 2 -18 385.56 13.39
8 -2 -18 404.4 13.71
-8 -2 18 383.46 13.7
8 2 -17 0.52 1.52
8 -2 -17 0.54 1.73
-8 2 17 1.27 1.3
-8 -2 17 2.49 2
8 2 -16 190.56 8.23
8 -2 -16 205.3 8.57
8 2 -16 164.43 8.14
8 -2 -16 181.53 8.53
8 2 -16 174.68 8.32
8 -2 -16 194.39 8.73
8 2 -16 160.51 7.46
-8 2 16 180.59 7.51
-8 -2 16 186.94 8.5
-8 -2 16 170.53 8.76
-8 2 16 158.79 8.33
-8 -2 15 0.74 1.72
-8 2 15 0.69 1.56
8 2 -15 5.16 1.96
8 -2 -15 4.99 2.06
8 -2 -15 4.89 1.87
8 2 -15 2.05 1.65
8 2 -15 2.62 1.23
-8 2 15 9.02 1.96
-8 -2 15 4.47 2.01
8 2 -15 2.05 1.53
8 -2 -15 1.9 1.58
8 2 -14 3.73 1.82
8 -2 -14 4.78 1.81
8 2 -14 7.07 1.84
8 -2 -14 5.67 1.72
8 2 -14 3.6 1.42
-8 2 14 4.6 1.59
-8 -2 14 4.23 1.99
8 2 -14 3.46 1.6
8 -2 -14 2.72 1.61
-8 -2 14 5 1.71
-8 2 14 3.14 1.35
8 2 -13 171.85 7.71
8 -2 -13 181.35 7.96
8 2 -13 166.98 7.99
8 -2 -13 184.66 8.34
8 2 -13 161.38 7.85
8 -2 -13 160.86 7.92
8 2 -13 155.14 6.94
-8 -2 13 156.11 8.3
-8 2 13 150.26 7.97
-8 2 13 173.89 7.31
-8 -2 13 164.82 7.87
8 2 -12 499.83 16.72
8 -2 -12 507.07 16.9
8 2 -12 511.46 17.23
8 -2 -12 529.31 17.5
8 2 -12 507.6 17.22
8 -2 -12 520.04 17.41
8 2 -12 479.34 15.82
-8 2 12 532.53 16.91
-8 2 12 480.31 15.99
8 2 -11 1.38 2.08
8 -2 -11 0.35 2.02
8 2 -11 4.05 1.71
8 -2 -11 1.77 1.57
8 -2 -11 3.32 2.5
8 2 -11 1.58 1.04
-8 2 11 2.55 1.43
8 2 -11 0.59 1.2
8 -2 -11 0.6 1.34
8 -2 -10 465.87 16.05
8 2 -10 449.23 15.59
8 -2 -10 468.32 15.74
8 2 -10 431.85 15.8
8 -2 -10 472.81 16.17
8 2 -10 486.7 16.29
8 -2 -10 513.08 16.69
8 2 -10 418.26 14.34
-8 2 10 493.47 15.73
8 2 -9 195.38 8.83
8 -2 -9 208.76 8.92
8 2 -9 204.07 9.14
8 -2 -9 192.01 8.9
8 2 -9 197.65 8.94
8 -2 -9 222.4 9.26
-8 2 9 204.03 8.51
8 2 -8 5.16 2.49
8 -2 -8 3.72 2.24
8 2 -8 1 2.06
8 -2 -8 2.19 1.94
8 -2 -8 1.79 2.84
-8 2 8 1.75 1.5
8 2 -8 4.02 1.48
8 -2 -8 2.98 1.48
8 2 -7 119.3 6.42
8 -2 -7 128.68 6.57
8 -2 -7 125.41 6.69
8 2 -7 123.84 6.73
8 -2 -7 124.5 6.73
-8 2 7 122.21 6.04
8 2 -6 588.1 19.58
8 -2 -6 565.85 19.4
8 -2 -6 615.03 19.82
-8 2 6 595.17 18.95
8 2 -6 652.35 20.54
8 -2 -6 649.81 20.43
8 2 -5 76.83 5
8 -2 -5 77.25 5.03
8 -2 -5 71.56 4.93
-8 2 5 82.11 4.64
8 2 -5 84.99 5.44
8 2 -4 1296.38 39.51
8 -2 -4 1336.99 39.64
8 -2 -4 1425.36 39.64
-8 2 4 1463.29 38.99
8 2 -3 218.65 9.73
8 -2 -3 216.06 9.68
8 -2 -3 238.75 9.62
-8 2 3 249.57 9.26
8 2 -2 126.6 6.99
8 -2 -2 140.58 7.28
8 -2 -2 151.27 7.05
-8 2 2 147.56 6.58
8 2 -1 184.67 8.53
8 -2 -1 162.59 8.21
8 2 -1 197.56 8.98
8 -2 -1 188.07 8.83
8 -2 -1 196.16 8.2
-8 2 1 182.12 7.7
8 2 0 517.7 17.87
8 -2 0 502.17 17.92
8 2 0 558.77 18.53
8 -2 0 559.99 18.6
8 -2 0 532.23 17.21
-8 2 0 531.4 16.97
8 2 1 113.54 6.45
8 -2 1 119.58 6.72
8 -2 1 125.44 6.1
8 2 1 129.05 6.97
8 -2 1 134.57 7.18
-8 2 -1 122.82 5.93
8 2 2 1485.56 43.15
8 -2 2 1482.95 43.3
8 2 2 1634.97 43.97
-8 2 -2 1501.82 42.15
8 -2 2 1509.08 43.86
8 2 3 375.66 14.13
8 -2 3 389.98 14.42
8 2 3 386.82 14.38
8 -2 3 395.75 14.58
-8 2 -3 383.26 13.21
8 2 4 99 5.38
8 2 4 104.71 6.14
8 -2 4 107.9 6.36
-8 2 -4 107.92 5.58
8 -2 4 97.07 5.52
8 -2 4 103.65 6.29
8 2 5 12.36 2.02
8 2 5 12.41 2.3
8 -2 5 14.44 2.54
-8 2 -5 11.82 2.53
8 -2 5 8.8 2.16
8 2 6 157.94 7.27
-8 2 -6 167.47 7.34
8 2 6 161.88 7.74
8 -2 6 149.94 7.02
8 2 6 170.14 7.94
8 -2 6 162.93 7.98
8 2 7 278.17 10.76
8 2 7 273.32 11.02
8 -2 7 280.8 11.29
-8 2 -7 284.29 10.68
8 2 7 282.93 11.02
8 -2 7 282.82 10.52
8 2 7 293.73 11.39
8 -2 7 301.56 11.76
8 2 8 1386.3 39.08
8 -2 8 1399.1 39.42
8 2 8 1361.29 38.44
8 2 8 1330.78 38.67
8 -2 8 1342.57 38.96
8 -2 8 1311.71 37.71
8 2 8 1331.88 38.45
8 2 9 190.85 8.55
8 -2 9 187.22 8.61
8 2 9 173.41 7.96
8 2 9 170.2 7.99
8 -2 9 175.33 8.21
8 2 9 169.71 7.85
8 -2 9 186.68 8.8
8 -2 9 176.5 7.48
8 2 9 177.6 7.96
8 2 10 189.6 8.57
8 -2 10 206.01 9.09
8 2 10 185.83 8.34
8 2 10 183.43 8.34
8 -2 10 193.72 8.66
8 2 10 180.59 8.14
8 -2 10 195.23 9.05
8 -2 10 184.28 7.68
8 2 10 189.7 8.28
8 2 11 1.39 1.55
8 -2 11 3.16 1.76
8 2 11 5.93 1.83
8 2 11 2.31 1.6
8 -2 11 2.84 1.85
8 2 11 2.72 1.69
8 -2 11 3.19 2.14
8 -2 11 1.53 1.32
8 2 11 1.71 1.48
8 2 12 147.01 7.13
8 2 12 137.98 6.81
8 -2 12 146.88 7.14
8 2 12 144.17 6.83
8 -2 12 153.89 7.74
8 -2 12 135.94 6.12
8 2 12 130.46 6.61
8 2 13 174.24 7.99
8 2 13 181.18 7.87
8 -2 13 174.04 8
8 2 13 170.49 7.64
8 -2 13 183.33 8.69
8 2 13 169.05 7.59
8 2 14 679.88 21.51
8 2 14 672.5 21.05
8 -2 14 696.8 21.38
8 2 14 664.61 20.9
8 -2 14 701.05 22.15
8 2 14 687.62 20.95
8 2 15 18.8 2.53
8 -2 15 20.02 2.55
8 2 15 19.68 2.83
8 -2 15 23.61 3.11
8 2 15 17.27 2.38
8 2 15 21.32 2.46
8 2 16 284.32 10.68
8 2 16 273.89 10.13
8 -2 16 280.99 10.32
8 -2 16 290.51 11.07
8 2 16 281.16 10.01
8 2 17 51.64 3.84
8 2 17 50.89 3.42
8 -2 17 43.96 3.33
8 -2 17 54.99 3.99
8 2 17 57.89 3.44
8 -2 18 31.25 3.05
8 2 18 32.19 2.98
8 2 18 35.2 2.55
8 -2 19 21.46 2.48
8 3 -24 7.38 1.32
8 -3 -24 9.89 1.54
-8 3 24 9.92 1.49
-8 -3 24 9.45 1.57
-8 -3 24 9.34 1.67
8 3 -23 39.96 2.69
8 -3 -23 43.63 2.91
-8 3 23 40 2.74
-8 -3 23 41.7 2.92
-8 -3 23 41.97 3.03
8 3 -22 32.65 2.67
8 -3 -22 40.15 2.96
-8 3 22 39.93 2.97
-8 -3 22 35.19 2.97
-8 -3 22 44.4 3.26
8 3 -21 278.99 10.2
8 -3 -21 292.57 10.5
-8 3 21 307.53 10.63
-8 -3 21 316.66 10.99
-8 -3 21 298.14 10.91
8 3 -20 7.55 1.81
8 -3 -20 5.86 1.83
-8 3 20 6.43 1.78
-8 -3 20 9.81 2.04
-8 -3 20 8.84 2.06
8 3 -19 94.24 5.17
8 -3 -19 93.22 5.29
8 3 -18 25.27 2.84
8 -3 -18 31.54 3.13
8 3 -17 34.85 3.27
8 -3 -17 38.42 3.42
8 3 -16 6.55 1.93
8 -3 -16 7.13 2.1
8 3 -15 512.05 16.61
8 -3 -15 541.2 17.03
8 3 -15 492.38 16.91
8 -3 -15 547.38 17.57
8 3 -15 469.78 16.8
8 -3 -15 508.76 17.23
8 3 -15 462.89 16.02
-8 -3 15 481.85 17.66
-8 3 15 472.32 17.18
-8 -3 14 7.42 2.04
-8 3 14 4.18 1.76
8 3 -14 11.28 2.26
8 -3 -14 7.39 2.3
8 3 -14 9.52 2.09
8 -3 -14 6.35 2.03
8 3 -14 6.92 1.63
8 3 -14 5.74 1.69
8 -3 -14 8.64 2.05
8 3 -13 461.93 15.66
8 -3 -13 500.55 16.12
8 3 -13 472.34 16.13
8 -3 -13 489.76 16.47
8 3 -13 434.84 15.93
8 -3 -13 458.18 16.22
8 -3 -13 475.46 16.54
8 3 -13 440.55 15.12
-8 -3 13 478.15 16.96
-8 3 13 448.24 16.36
-8 3 13 473.78 16
8 3 -12 38.44 3.45
8 -3 -12 40.31 3.5
8 3 -12 33.44 3.35
8 -3 -12 40.26 3.57
8 3 -12 33.72 3.42
8 -3 -12 36.58 3.46
8 -3 -12 34.95 3.82
8 3 -12 31.24 2.87
-8 -3 12 36.26 3.81
-8 3 12 32.7 3.4
-8 3 12 40.94 3.54
8 -3 -11 24.99 2.99
8 3 -11 23.91 2.99
8 -3 -11 30.09 3.25
8 3 -11 20.19 2.83
8 3 -11 21.67 2.69
8 -3 -11 25.97 2.94
8 -3 -11 25.87 3.3
8 3 -11 21.59 2.4
-8 3 11 19.44 2.81
8 3 -10 59.22 4.4
8 -3 -10 64.29 4.57
8 3 -10 57.69 4.42
8 -3 -10 63.37 4.57
8 -3 -10 61.99 4.95
8 3 -10 69.02 4.67
8 3 -10 60.44 3.81
8 -3 -10 62.62 4.51
-8 3 10 60.65 4.27
8 3 -9 607.01 20
8 -3 -9 617.74 20.12
8 3 -9 611.34 19.18
8 3 -9 645.55 20.72
8 -3 -9 644.23 20.73
8 3 -9 657.27 20.76
8 -3 -9 664.41 20.8
-8 3 9 659.72 20.3
8 3 -8 22.65 3.5
8 -3 -8 18.31 2.9
-8 3 8 14.78 2.59
8 3 -8 18.75 2.64
8 -3 -8 16.65 2.55
8 3 -7 782.62 25.6
8 -3 -7 822.51 25.67
8 -3 -7 882.08 26.52
-8 3 7 836.09 25.52
8 3 -7 881.99 26.52
8 -3 -7 885.6 26.4
8 3 -6 82.08 5.35
8 -3 -6 85.98 5.4
8 -3 -6 86.96 5.9
-8 3 6 80.27 5.13
8 3 -6 97.67 5.88
8 -3 -6 87.55 5.56
8 3 -5 39.82 3.7
8 -3 -5 37.76 3.49
8 -3 -5 37.7 3.83
-8 3 5 36.49 3.35
8 -3 -4 17.21 2.43
8 3 -4 14.87 2.36
8 -3 -4 13.98 2.48
-8 3 4 17.8 2.37
8 3 -3 608.15 20.82
8 -3 -3 622.77 20.99
8 -3 -3 696.54 21.34
-8 3 3 687.37 20.7
8 3 -2 4.18 1.71
8 -3 -2 7.74 1.87
8 3 -2 4.14 1.43
8 -3 -2 6.41 1.65
8 -3 -2 2.51 1.66
-8 3 2 6.03 1.62
8 -3 -1 1513.93 42.55
8 3 -1 1396.34 42.45
8 -3 -1 1395.58 42.62
8 3 -1 1633.35 43.59
8 -3 -1 1562.71 43.53
-8 3 1 1523.48 42.1
8 3 0 137.66 7.17
8 -3 0 125.61 7.01
8 3 0 151.04 7.46
8 -3 0 133.91 7.26
-8 3 0 139.71 6.63
8 -3 0 123.46 6.63
8 3 1 19.38 2.85
8 3 1 14.19 2.82
8 -3 1 14.27 2.89
8 -3 1 18.87 2.86
8 -3 1 12.5 2.21
8 -3 1 19.21 3.14
-8 3 -1 17.96 2.6
8 3 2 2.3 2.86
8 -3 2 2.68 2.53
8 -3 2 1.17 1.37
8 -3 2 0.46 2.41
8 3 2 1.27 1.56
8 -3 2 0.23 1.56
-8 3 -2 1.69 2.01
8 3 2 0.39 2.33
8 3 3 534.48 18.5
8 -3 3 558.32 18.93
8 3 3 598.69 19.2
8 -3 3 560.69 19.28
8 -3 3 594.77 19.69
-8 3 -3 568.08 18.26
8 3 3 534.25 18.45
8 -3 4 8.93 2.22
8 3 4 8.64 2.26
8 -3 4 10.07 2.84
-8 3 -4 8.38 2.06
8 3 4 6.85 1.93
8 3 4 7.93 2.44
8 -3 4 7.65 1.85
8 3 5 2276.71 60.99
8 3 5 2137.54 60.02
-8 3 -5 2273.17 60.17
8 3 5 2256.72 60.57
8 3 5 2206.46 60.54
8 -3 5 2078.78 59.27
8 -3 5 2259.4 61.06
8 3 6 61.57 4.51
8 -3 6 63.61 5.03
-8 3 -6 64.11 4.4
8 3 6 65.66 4.57
8 -3 6 53.92 3.83
8 3 6 72.29 4.78
8 -3 6 67.68 4.87
8 3 7 92.99 5.58
8 3 7 94.83 5.4
8 -3 7 93.8 5.59
8 -3 7 95.5 6.09
-8 3 -7 90.19 5.3
8 -3 7 79.81 4.67
8 3 7 93.97 5.55
8 -3 7 91.43 5.68
8 3 8 17.81 2.58
8 -3 8 17.03 2.75
8 3 8 17.14 2.66
8 3 8 13.8 2.36
8 -3 8 15.89 2.61
8 -3 8 16.15 2.98
-8 3 -8 19.35 2.49
8 3 9 60.72 4.37
8 -3 9 59.1 4.53
8 3 9 55.07 4.38
8 3 9 58.15 4.21
8 -3 9 66.49 4.71
8 -3 9 64.54 4.95
-8 3 -9 51.79 4.07
8 3 10 39.33 3.64
8 -3 10 45.9 4.03
8 3 10 39.08 3.75
8 3 10 39.63 3.47
8 -3 10 39.83 3.68
8 -3 10 47.42 4.44
-8 3 -10 34.53 3.35
8 3 11 1116.84 32.94
8 -3 11 1148.3 33.44
8 3 11 1095.34 32.94
8 3 11 1090.19 32.34
8 -3 11 1157.64 32.93
8 3 11 1109.42 32.48
8 3 12 58.59 4.52
8 3 12 64.79 4.36
8 -3 12 62.34 4.47
8 3 12 65.82 4.44
8 3 13 223.09 9.43
8 3 13 218.39 8.84
8 -3 13 223.33 9.14
8 3 13 210.63 8.82
8 3 14 29.63 2.8
8 -3 14 23.11 2.79
8 3 14 20.81 2.91
8 3 14 26.43 2.73
8 3 15 11.3 2.26
8 3 15 10.5 1.89
8 -3 15 9.36 1.99
8 3 15 7.96 1.84
8 3 16 27.05 2.98
8 3 16 28.91 2.64
8 -3 16 32.38 2.83
8 3 16 27.06 2.63
8 3 17 726.44 21.79
8 3 17 708.81 20.91
8 -3 17 726.26 21.21
8 3 17 713.04 20.99
8 3 18 3.16 1.61
8 3 18 4.95 1.44
8 3 19 139.45 5.9
8 4 -23 47.18 2.66
8 -4 -23 57.13 2.97
-8 4 23 49.1 2.75
-8 -4 23 54.46 3.03
8 4 -22 22.46 2.06
8 -4 -22 24.96 2.24
-8 4 22 24.77 2.14
-8 -4 22 26.33 2.32
8 4 -21 43.15 2.93
8 -4 -21 47.49 3.21
-8 4 21 43.46 2.99
-8 -4 21 46.62 3.26
8 4 -20 19.02 2.14
8 -4 -20 24.05 2.42
-8 4 20 22.32 2.36
-8 -4 20 20.03 2.46
-8 -4 20 24.49 2.88
8 4 -19 211.37 8.41
8 -4 -19 224.29 8.75
-8 4 19 228.3 8.78
-8 -4 19 234.14 9.18
-8 -4 19 231.48 9.52
8 4 -18 65.09 4.19
8 -4 -18 67.76 4.39
-8 4 17 12.24 1.84
8 4 -17 14.39 2.07
8 -4 -17 14.21 2.27
-8 -4 17 15.7 2.75
8 4 -16 23.18 2.56
8 -4 -16 26.68 2.87
-8 -4 16 31.19 3.47
-8 4 16 22.14 2.37
8 4 -15 262.36 10.28
8 -4 -15 276.9 10.64
-8 -4 15 295.95 11.62
8 4 -14 50.86 3.74
8 -4 -14 47.71 3.73
8 4 -14 41.8 3.62
8 -4 -14 49.05 3.91
8 4 -14 38.74 3.57
8 -4 -14 44.15 3.83
8 -4 -14 49 4.21
8 4 -14 42.63 3.44
-8 -4 14 46.45 4.28
-8 4 14 40.86 3.83
-8 -4 14 51.61 4.3
8 4 -13 285.98 10.68
8 -4 -13 290.81 10.92
8 4 -13 266.33 10.8
8 -4 -13 291.44 11.23
8 4 -13 263.18 10.8
8 -4 -13 281.15 11.1
8 -4 -13 288.31 11.55
8 4 -13 265.09 10.36
-8 4 13 277.62 11.05
-8 -4 13 291.49 11.85
-8 4 13 257.44 11.09
-8 -4 13 303.09 11.64
8 4 -12 169.23 7.56
8 -4 -12 198.91 8.12
8 4 -12 163.53 7.83
8 -4 -12 185.74 8.27
8 -4 -12 180.72 8.53
8 4 -12 158.72 7.75
8 4 -12 163.36 7.35
8 -4 -12 183.08 8.19
-8 -4 12 159.89 8.32
-8 4 12 155.38 7.87
-8 4 12 173.43 7.99
-8 -4 12 163.33 8.12
8 4 -11 35.18 3.17
8 -4 -11 36.42 3.28
8 4 -11 37.17 3.42
8 -4 -11 33.75 3.39
8 -4 -11 36.8 3.87
8 4 -11 24.77 2.74
8 4 -11 32.4 3.21
8 -4 -11 36.5 3.33
-8 -4 11 34.14 3.51
-8 4 11 32.17 3.19
-8 4 11 31.62 3.28
8 4 -10 198.38 8.61
8 -4 -10 222.66 8.96
8 4 -10 204.29 9.04
8 -4 -10 224.26 9.37
8 -4 -10 221.44 9.69
8 4 -10 205.96 9.01
8 -4 -10 211.63 9.14
-8 4 10 214.69 9.07
8 4 -9 264.27 10.53
8 -4 -9 277.7 10.71
8 -4 -9 284.6 11.57
8 4 -9 274.41 10.96
8 -4 -9 264.29 10.86
-8 4 9 278.12 10.94
8 4 -8 354.66 12.92
8 -4 -8 340.02 12.78
-8 4 8 355.76 13.09
8 4 -8 375.57 13.54
8 -4 -8 370.76 13.46
8 4 -7 201.27 8.99
8 -4 -7 220.6 9.18
-8 4 7 213.33 9.17
8 4 -7 226.83 9.62
8 4 -6 255.71 10.89
8 -4 -6 272.23 10.93
8 -4 -6 284.46 11.59
-8 4 6 288.6 10.99
8 4 -5 124.91 7.28
8 -4 -5 134.5 7.1
8 -4 -5 149.85 7.7
-8 4 5 154.17 7.27
8 4 -4 283.1 11.74
8 -4 -4 303.93 11.87
8 -4 -4 313.63 12.43
-8 4 4 318.21 11.85
8 4 -3 755.44 24.38
8 -4 -3 762.62 24.56
8 4 -3 826.29 25.1
8 -4 -3 786.21 24.95
8 -4 -3 802.35 25.16
-8 4 3 799.87 24.41
8 4 -2 238.42 10.53
8 -4 -2 235.28 10.52
8 4 -2 289.78 11.23
8 -4 -2 265.72 11.01
8 -4 -2 270.15 11.3
8 -4 -2 269.26 11.63
-8 4 2 276.85 10.73
8 4 -1 83.55 5.8
8 -4 -1 74.54 5.36
8 4 -1 104 5.88
8 -4 -1 96.55 6.05
8 -4 -1 83.27 5.48
8 -4 -1 87.37 6.22
-8 4 1 90.59 5.43
8 4 0 446.07 15.84
8 -4 0 456.83 16.05
8 -4 0 442.46 15.82
8 -4 0 420.54 16.3
8 4 0 467.64 16.07
8 -4 0 445.77 16.1
-8 4 0 439.84 15.35
8 4 1 69.26 5.34
8 -4 1 67.27 5.25
8 -4 1 72.91 5.13
8 -4 1 76.38 5.71
-8 4 -1 73.58 4.85
8 4 1 75.2 5.07
8 -4 1 70.35 5.18
8 4 1 67.81 4.95
8 4 2 416.99 15.08
8 -4 2 451.66 15.76
8 4 2 452.19 15.69
8 -4 2 438.29 15.96
8 -4 2 423.08 15.23
8 -4 2 420.64 16.16
-8 4 -2 440 15.21
8 4 2 465.73 15.72
8 -4 3 1000.38 30.78
8 -4 3 1077.04 32.59
8 4 3 1138.43 31.82
-8 4 -3 1039.23 31.02
8 -4 3 1030.73 31.83
8 4 3 1054.93 31.4
8 4 4 551.85 18.91
8 -4 4 571.01 19.4
8 -4 4 568.37 19.92
-8 4 -4 571.77 18.69
8 4 4 605.1 19.01
8 4 4 570.47 18.97
8 -4 4 575.49 19.17
8 4 5 16.39 2.86
8 -4 5 19.73 3.47
-8 4 -5 19.65 2.77
8 4 5 19.3 2.46
8 -4 5 24.08 2.85
8 4 5 19.99 2.8
8 4 6 287.87 11.3
8 4 6 259.9 10.49
8 -4 6 261.48 10.82
8 -4 6 279.33 11.68
-8 4 -6 259.68 10.61
8 4 6 272.49 10.86
8 4 6 309.72 11.26
8 -4 6 289.33 11.37
8 4 7 242.49 9.88
8 -4 7 246.55 10.28
8 4 7 246.41 10.26
8 4 7 237.56 9.59
8 -4 7 238 9.95
8 -4 7 226.83 10.44
8 -4 7 245.59 10.53
-8 4 -7 240.17 9.85
8 4 7 236.96 9.87
8 4 8 210.29 8.82
8 -4 8 194.83 8.92
8 4 8 202.67 9.1
8 4 8 192.51 8.37
8 -4 8 209.74 8.96
8 -4 8 202 9.59
8 -4 8 201.07 9.2
-8 4 -8 184.79 8.56
8 4 8 218.41 9.04
8 4 9 194.04 8.36
8 -4 9 196.88 8.76
8 4 9 181.43 8.5
8 4 9 170.33 7.76
8 -4 9 179.26 8.16
8 -4 9 182.17 8.92
-8 4 -9 175.39 8.15
8 4 9 177.09 8.09
8 4 10 325.66 12.19
8 -4 10 337.52 12.68
8 4 10 313.9 12.51
8 4 10 320.7 11.77
8 -4 10 334.19 12.31
8 -4 10 335.15 13.13
8 4 10 325.89 12.18
8 4 11 27.5 3.31
8 4 11 24.72 2.7
8 -4 11 26.97 2.95
8 -4 11 28.34 3.69
8 4 12 222.12 9.58
8 4 12 202.5 8.55
8 -4 12 229.92 9.2
8 -4 12 236.55 10.16
8 4 13 207.79 9.28
8 4 13 216.22 8.6
8 -4 13 229.29 9.06
8 -4 13 234.25 10.01
8 4 14 262.42 10.48
8 4 14 253.29 9.54
8 -4 14 274.12 10.07
8 -4 14 280.12 11.16
8 4 15 152.37 7.1
8 4 15 146.5 6.22
8 -4 15 147.45 6.52
8 -4 15 158.24 7.56
8 4 15 140.31 6.46
8 4 16 175.6 7.57
8 4 16 170.09 6.73
8 -4 16 178.4 7.06
8 -4 16 185.52 8.04
8 4 16 167.68 7.04
8 4 17 45.58 3.48
8 -4 17 53.67 3.88
8 4 17 49.75 3.23
8 4 18 144.01 6.18
8 4 18 140.92 5.7
-8 -5 23 154.44 6.1
8 5 -22 1.61 0.86
8 5 -22 0.73 0.69
-8 -5 22 1.46 0.95
-8 -5 22 -0.12 1.28
8 5 -21 31.26 2.28
-8 -5 21 35.51 2.96
8 5 -20 35.99 2.54
-8 -5 20 29.74 2.65
-8 -5 20 33.87 3.12
8 5 -19 7.05 1.5
8 -5 -19 8.48 1.69
-8 5 19 8.83 1.64
-8 -5 19 11.33 1.91
-8 -5 19 11.83 2.24
-8 5 18 5.42 1.46
8 5 -18 6.9 1.56
8 -5 -18 12.33 1.84
-8 5 18 9.34 1.63
-8 -5 18 9.39 1.84
-8 -5 18 7.01 2.27
8 5 -17 326.04 11.56
8 -5 -17 372.93 12.1
-8 -5 17 346.66 12.94
-8 5 17 337.71 11.44
8 5 -16 43.91 3.34
8 -5 -16 47.08 3.54
-8 -5 16 51.78 4.23
-8 5 16 45.18 3.19
8 5 -15 19.96 2.37
8 -5 -15 19.46 2.52
8 -5 -15 19.05 2.93
-8 -5 15 25.08 3.23
8 5 -14 44.85 3.42
8 -5 -14 42.26 3.38
8 -5 -14 49.8 4.14
-8 -5 14 44.09 4.11
8 5 -13 3.15 1.62
8 -5 -13 0.95 1.58
8 -5 -13 1.65 1.39
8 -5 -13 3.99 2
8 5 -13 1.65 1.13
-8 -5 13 2.86 2.16
-8 5 13 3.3 1.59
8 5 -12 270.72 10.06
8 -5 -12 275.95 10.26
8 -5 -12 266.75 11.16
8 5 -12 253.94 10.07
8 5 -12 251.73 10.28
-8 5 12 272.59 10.8
-8 -5 12 256 11.04
-8 -5 12 273.73 11.08
8 5 -11 829.92 25.1
8 -5 -11 910.86 25.57
8 -5 -11 885.68 26.91
-8 -5 11 808.5 26.25
-8 5 11 815.01 25.82
8 5 -11 820.05 25.59
-8 -5 11 859.31 26.19
8 5 -10 33.64 3.12
8 -5 -10 35.17 3.24
8 -5 -10 38.9 4.04
-8 -5 10 34.31 3.68
-8 5 10 28.45 3.11
-8 5 10 33.53 3.37
8 5 -10 32.87 3.27
8 5 -9 3.01 1.42
8 5 -9 7.36 1.85
8 -5 -9 4.05 1.71
8 -5 -9 3.69 2.2
-8 5 9 4.67 1.72
8 5 -8 3.51 2.03
8 -5 -8 2.24 1.71
-8 5 8 2.33 1.61
8 5 -7 1.54 1.78
8 -5 -7 4.42 1.97
-8 5 7 0.97 1.64
8 5 -6 56.84 4.29
8 -5 -6 55.36 4.35
8 -5 -6 72.21 5.38
-8 5 6 67.91 4.73
8 -5 -5 1269.79 35.41
8 -5 -5 1272.5 36.68
-8 5 5 1237.43 35.59
8 -5 -4 17.74 2.47
8 5 -4 16.07 2.5
8 5 -4 16.13 2.39
8 -5 -4 14.5 2.49
8 -5 -4 16.78 3.41
8 -5 -4 16.09 3.32
-8 5 4 20.52 2.95
8 5 -3 160.81 7.59
8 -5 -3 162.58 7.76
8 5 -3 162.43 7.79
8 -5 -3 148.62 7.66
8 -5 -3 152.41 8.33
8 -5 -3 153.53 8.65
-8 5 3 159.55 7.75
8 5 -2 3.8 1.92
8 -5 -2 3.79 1.79
8 -5 -2 3.06 2.44
-8 5 2 5.89 1.97
8 5 -2 4.96 1.61
8 -5 -2 4.3 1.7
8 5 -1 11.47 2.17
8 -5 -1 10.79 2.12
8 5 -1 6.94 1.73
8 -5 -1 9.64 2.9
8 -5 -1 6.48 1.94
8 -5 -1 4.91 3.03
-8 5 1 9.01 2.36
8 5 -1 7.21 2.62
8 5 0 205.76 8.76
8 -5 0 207.47 9.12
8 -5 0 198.84 9.31
8 -5 0 204.32 9.64
8 -5 0 228.44 10.52
-8 5 0 207.58 9.12
8 5 0 193.15 9.08
8 5 0 204.46 9.02
8 5 1 1076.4 32.61
8 -5 1 1137.32 33.33
8 5 1 1175.3 33.34
8 5 1 1143.13 32.33
8 -5 1 1056.61 33.34
8 -5 1 1108.93 33.8
8 -5 1 1155.6 34.87
-8 5 -1 1096.92 33.1
8 5 1 1208.38 33.54
8 -5 2 28.22 3.36
8 -5 2 32.34 3.82
8 -5 2 36.68 4.36
-8 5 -2 33.73 3.46
8 5 2 41.03 3.64
8 5 2 36.05 3.64
8 -5 3 487.29 17.16
8 -5 3 520.38 18.5
-8 5 -3 510.24 17.08
8 5 3 504.55 17.01
8 5 3 498.53 16.62
8 -5 3 479.04 16.88
8 5 4 28.71 2.92
8 -5 4 32.85 3.32
8 -5 4 27.9 3.31
8 -5 4 35.83 4.19
-8 5 -4 27.17 3.1
8 5 4 35.3 3.43
8 5 4 28.71 3.05
8 -5 4 31.28 3.35
8 -5 5 18.05 2.68
8 5 5 22.52 2.6
8 -5 5 23.45 2.84
8 -5 5 19.62 3.36
-8 5 -5 21.56 2.77
8 5 5 23.38 2.86
8 5 5 26.05 2.73
8 5 6 21.66 2.57
8 -5 6 18.17 2.65
8 5 6 15.94 2.78
8 5 6 15.64 2.34
8 -5 6 19.9 2.73
8 -5 6 18.52 3.27
-8 5 -6 14.25 2.31
8 5 6 18.38 2.64
8 5 7 914.81 26.53
8 -5 7 904.01 26.98
8 5 7 861.41 27.32
8 5 7 851.65 25.96
8 -5 7 917.17 26.74
8 -5 7 909.61 27.91
-8 5 -7 807.66 26.46
8 5 7 896.74 26.78
8 5 8 16.64 2.37
8 -5 8 17.87 2.61
8 5 8 20.28 3.09
8 5 8 17.89 2.41
8 -5 8 16.48 2.56
8 -5 8 14.2 2.76
-8 5 -8 17.27 2.56
8 5 8 21.1 2.8
8 5 9 483.54 15.65
8 5 9 426.88 16.13
8 5 9 463.73 15.14
8 -5 9 459.82 15.57
8 -5 9 462.61 16.22
8 5 9 468.75 15.85
8 5 10 37.45 3.76
8 5 10 42.38 3.27
8 -5 10 44.56 3.61
8 -5 10 46.93 4.47
8 5 10 43.06 3.69
8 5 11 4.84 2.22
8 5 11 6.11 1.7
8 -5 11 5.27 1.8
8 -5 11 9.35 2.87
8 5 11 5.24 1.99
8 5 12 56.9 4.43
8 5 12 55.28 3.64
8 -5 12 56.05 3.9
8 -5 12 61.43 4.91
8 5 12 58.67 4.1
8 5 13 331.25 12.69
8 5 13 336.56 11.53
8 -5 13 353.32 12.02
8 -5 13 381.7 13.7
8 5 13 354.5 12.34
8 5 14 2.57 1.82
8 5 14 5.71 1.32
8 -5 14 6.17 1.47
8 -5 14 2.27 2.04
8 5 14 2.72 1.58
8 5 15 584.95 18.53
8 5 16 37.82 3.14
8 5 17 11.53 2.01
-8 -6 22 16.05 1.93
8 6 -21 2.28 0.87
-8 -6 21 2.57 1.39
8 6 -20 180.95 6.77
-8 -6 20 198.45 7.74
8 6 -19 192.62 7.54
-8 -6 19 224.95 8.58
-8 6 18 6.62 1.38
-8 -6 18 5.74 1.96
-8 -6 17 26.29 3.04
-8 6 17 20.03 2.1
-8 -6 16 47.28 4.01
-8 6 16 42.17 2.96
8 -6 -15 16.6 2.02
8 -6 -15 16.05 2.86
-8 -6 15 20.16 3.07
8 -6 -14 639.27 19.72
8 -6 -14 669.06 21.3
-8 -6 14 681.52 21.51
8 -6 -13 275.6 10.02
8 -6 -13 289.61 11.49
-8 -6 13 275.41 11.27
8 -6 -12 50.08 3.59
8 -6 -12 58.14 4.72
-8 -6 12 55.97 4.61
8 -6 -11 1.32 1.29
8 -6 -11 2.75 2
-8 -6 11 1.6 1.75
-8 6 11 0.39 1.3
8 -6 -10 47.04 3.59
8 -6 -10 53.01 4.76
-8 6 10 53.56 4.23
8 -6 -9 65.98 4.28
8 -6 -9 76.32 5.69
-8 6 9 62.76 4.64
8 -6 -8 696.64 21.38
8 -6 -8 734.67 23.6
-8 6 8 660.53 21.98
8 -6 -7 216.07 8.85
-8 6 7 209.96 9.36
8 -6 -6 91.61 5.44
-8 6 6 95.58 5.75
8 -6 -5 179.24 7.97
8 -6 -5 176.08 9.11
8 -6 -5 167.82 9.2
-8 6 5 165.37 8.12
8 -6 -4 8.4 1.87
8 -6 -4 4.4 2.55
8 -6 -4 3.84 2.52
-8 6 4 8.11 1.93
8 6 -4 2.75 1.84
8 -6 -3 166.25 7.71
8 -6 -3 172.34 8.99
8 -6 -3 178.3 9.46
-8 6 3 156.43 7.91
8 6 -3 162.77 7.72
8 -6 -2 1088.2 32.25
8 -6 -2 1105.28 33.93
-8 6 2 1043.92 32.53
8 6 -2 1160.82 32.58
8 -6 -1 134.54 6.76
8 6 -1 142.61 6.91
8 -6 -1 123.51 7.53
-8 6 1 122.4 6.82
8 6 -1 140.61 6.99
8 6 0 258.21 10.21
8 -6 0 269.01 11.7
8 -6 0 257.16 11.97
-8 6 0 252.63 10.72
8 6 0 270.71 10.66
8 6 1 79.23 4.74
8 -6 1 72.68 5.73
8 -6 1 85.62 6.47
-8 6 -1 77.01 5.17
8 6 1 84.35 4.85
8 6 1 86.5 5.25
8 6 2 1.1 1.33
8 6 2 2.03 1.3
8 -6 2 4.04 2.2
8 -6 2 2.23 2.42
-8 6 -2 0.4 1.5
8 6 2 0.74 1.62
8 -6 3 155.01 7.25
8 -6 3 145.88 7.91
8 -6 3 170.87 9.14
-8 6 -3 149.41 7.63
8 6 3 161.15 7.6
8 6 3 165.16 7.15
8 6 4 1002.53 29.06
8 -6 4 951.5 29.16
8 -6 4 977.98 30.17
8 -6 4 1115.99 32.36
-8 6 -4 942.99 29.87
8 6 4 1073.56 30.08
8 6 5 3.54 1.36
8 -6 5 9.22 1.7
8 -6 5 4.16 1.86
8 -6 5 3.48 2.48
-8 6 -5 6.74 1.99
8 6 5 6.21 2.02
8 6 6 497.58 16.24
8 6 6 488.12 17.56
8 -6 6 512.02 16.51
8 -6 6 539.61 18.71
-8 6 -6 469.35 16.91
8 6 6 522.7 17.02
8 6 7 78.3 4.51
8 6 7 72.53 5.3
8 -6 7 66.73 4.4
8 -6 7 80.89 5.83
8 6 7 79.88 5.02
8 6 8 60.4 4.7
8 -6 8 54.37 3.93
8 -6 8 48.78 4.54
8 6 8 59.91 4.27
8 6 9 164.49 8.31
8 -6 9 178.81 7.49
8 -6 9 173.62 8.33
8 6 9 176.21 7.89
8 6 10 423.81 15.57
8 -6 10 437.76 15.33
8 6 10 456.88 15.1
8 6 11 1.56 1.97
8 6 11 0.32 1.5
8 6 12 428.32 14.99
8 6 12 432.61 14.42
8 6 13 135.96 6.84
8 6 13 148.2 6.53
8 6 14 22.7 2.74
8 6 14 23.09 2.48
8 6 15 29.5 2.88
8 6 15 34.34 2.77
8 6 16 192.53 7.67
8 6 16 198.62 7.38
8 7 -20 7.93 1.17
-8 -7 20 8.5 1.71
8 7 -19 39.67 2.61
-8 -7 19 41.29 3.14
-8 7 18 2.12 0.92
8 7 -18 1.79 1.17
-8 -7 18 2.39 1.51
-8 7 17 1.8 0.96
8 7 -17 3.22 1.42
-8 -7 17 4.64 1.72
8 7 -16 301.61 11.04
-8 -7 16 325.97 11.74
8 -7 -15 125.5 6.33
-8 -7 15 128.76 6.59
8 -7 -14 2.2 1.85
-8 -7 14 3.32 1.97
8 -7 -13 159.89 7.86
-8 -7 13 154.98 7.64
8 -7 -12 222.42 9.93
-8 -7 12 220.57 9.58
8 -7 -11 26.19 3.59
-8 -7 11 24.05 3.15
8 -7 -10 285.07 12.17
-8 -7 10 281.3 11.26
8 -7 -9 361.12 14.32
-8 -7 9 344.22 13.04
8 -7 -8 12.03 2.96
-8 7 8 13.96 2.45
-8 7 7 321.99 12.45
8 -7 -6 195.7 9.76
-8 7 6 156.51 7.96
8 7 -5 37.61 3.8
8 -7 -5 36.95 4.48
8 -7 -5 37.51 4.57
-8 7 5 32.25 3.42
8 7 -4 303.48 12.04
8 -7 -4 309.87 13.24
8 -7 -4 310.48 13.48
-8 7 4 279.37 11.82
8 7 -4 314.62 11.35
8 7 -3 159.68 7.66
8 -7 -3 143.99 8.44
8 -7 -3 144.27 8.61
-8 7 3 146.14 7.51
8 7 -3 139.65 6.81
8 7 -2 109.29 6.11
8 -7 -2 107.04 7.09
8 -7 -2 108.89 7.34
-8 7 2 99.45 6.02
8 7 -2 100.34 5.65
8 7 -1 545.07 18.07
8 -7 -1 577.14 20.04
-8 7 1 536.76 18.58
8 7 -1 539.25 17.79
8 7 0 214.69 8.93
8 -7 0 218.82 10.5
-8 7 0 212.55 9.57
8 7 0 214.98 8.99
8 7 1 111.77 5.86
8 -7 1 128.57 7.61
8 -7 1 114.68 7.7
-8 7 -1 121.2 6.73
8 7 1 121.83 6.25
8 7 2 30.76 2.86
8 -7 2 35.16 4.09
8 -7 2 32.83 4.3
-8 7 -2 28.26 3.27
8 7 2 38.19 3.4
8 7 3 217.5 8.56
8 -7 3 239.66 10.64
-8 7 -3 216.43 9.75
8 7 3 234.34 9.55
8 -7 4 309.21 12.54
8 -7 4 343.96 14.08
8 7 4 314.82 11.87
8 -7 5 438.08 15.85
8 7 5 452.86 15.6
8 7 6 216.54 9.96
8 -7 6 227.4 10.7
8 7 6 221.44 9.17
8 7 7 95.46 6.1
8 -7 7 95.71 6.46
8 7 7 105.73 5.65
8 7 8 3.81 2.32
8 -7 8 5.66 2.3
8 7 8 4.92 1.92
8 7 9 164.69 8.11
8 -7 9 164.98 8.08
8 7 9 169.94 7.47
8 7 10 225.37 9.71
8 7 10 230.49 9.03
8 7 11 490 16.86
8 7 11 521.18 16.3
8 7 12 81.34 4.97
8 7 12 79.47 4.48
8 7 13 163 7.35
8 7 13 178.01 7.05
8 7 14 5.66 1.77
8 7 14 8.24 1.63
8 7 15 118.62 5.56
8 7 15 122.77 5.24
8 8 -19 6.5 1.12
-8 -8 19 8.34 1.48
8 8 -18 153.52 5.97
-8 -8 18 179.98 6.62
8 8 -17 -0.21 1.03
-8 -8 17 1.97 1.34
8 8 -16 77.09 4.2
-8 -8 16 81.25 4.49
8 8 -15 9.63 1.76
8 -8 -15 7.04 1.76
-8 -8 15 7.33 1.94
8 8 -14 17.41 2.35
8 -8 -14 18.62 2.6
-8 -8 14 14.73 2.4
8 8 -13 3.05 1.75
8 -8 -13 6.66 2.05
-8 -8 13 3.7 1.96
8 8 -12 418.73 14.78
8 -8 -12 438.9 15.45
-8 -8 12 443.89 15
8 8 -11 22.6 2.97
8 -8 -11 22.33 3.36
-8 -8 11 18.97 2.9
8 8 -10 342.9 13
8 -8 -10 360.54 14.03
-8 -8 10 356.81 12.94
8 -8 -9 28.41 3.91
-8 -8 9 31.88 3.34
8 -8 -8 64.44 5.47
-8 -8 8 58.03 4.37
8 8 -7 13.69 2.62
8 -8 -7 5.58 2.65
-8 -8 7 11.84 2.42
8 8 -6 332.18 12.8
8 8 -5 3.27 1.86
8 -8 -5 1.94 2.46
8 8 -4 674.16 21.56
8 -8 -4 669.99 23.06
8 -8 -4 643.75 22.99
8 8 -3 5.06 1.93
8 -8 -3 5.52 2.91
8 -8 -3 5.71 2.98
8 8 -2 13.26 2.38
8 -8 -2 9.94 3.09
8 -8 -2 16.62 3.66
8 8 -1 12.04 2.26
8 -8 -1 9.56 2.92
8 -8 -1 6.03 3
8 8 -1 11.34 1.97
8 8 0 188.43 8.07
8 -8 0 187.26 9.64
8 8 0 184.4 7.81
8 8 1 4.37 1.59
8 -8 1 2.88 2.38
8 8 1 1.84 1.44
8 8 2 1107.46 32.58
8 -8 2 1206.07 35.4
8 -8 2 1190.75 36.11
8 8 2 1156.49 33.04
8 8 3 4.52 1.32
8 -8 3 6.62 2.54
8 -8 3 2.81 2.82
8 8 3 4.85 1.76
8 -8 4 25.33 3.36
8 -8 4 26.96 4.14
8 8 4 25.14 2.75
8 -8 5 26.43 3.09
8 -8 5 30.04 4.01
8 8 5 22.48 2.63
8 8 6 34.31 3.79
8 -8 6 39.65 4.43
8 8 6 38.22 3.3
8 8 7 37.55 3.95
8 -8 7 41.99 4.4
8 8 7 42.16 3.4
8 8 8 906.85 27.89
8 -8 8 921.41 28.26
8 8 8 921.01 26.7
8 8 9 21.87 3
8 -8 9 24.04 3.12
8 8 9 21.57 2.49
8 8 10 20.3 2.79
8 8 10 23.9 2.48
8 8 11 3.35 1.62
8 8 11 2.8 1.35
8 8 12 11.15 1.68
8 8 12 14.24 2.22
8 8 12 17.43 2.04
8 8 13 6.24 1.87
8 8 13 10.46 1.65
8 8 14 660.98 19.21
8 8 14 633.91 18.56
8 9 -17 5 1.21
-8 -9 17 5.08 1.17
8 9 -16 58.33 3.2
-8 -9 16 58.31 3.21
8 9 -15 99.91 4.75
8 -9 -15 108.87 4.93
-8 -9 15 103.18 4.74
8 9 -14 10.36 1.69
8 -9 -14 11.68 1.96
-8 -9 14 11.86 1.93
8 9 -13 64.41 3.98
8 -9 -13 69.75 4.39
-8 -9 13 76.42 4.18
8 9 -12 302.82 10.97
8 -9 -12 312.28 11.49
-8 -9 12 300.21 10.74
8 9 -11 3.59 1.57
8 -9 -11 -0.38 2.01
-8 -9 11 4.61 1.65
8 9 -10 107.2 5.8
8 -9 -10 108.56 6.38
-8 -9 10 107.42 5.54
8 -9 -9 152.8 7.88
-8 -9 9 143.05 6.69
8 -9 -8 13.68 3.14
-8 -9 8 17.22 2.48
8 9 -7 165.74 7.71
8 -9 -7 156.54 8.53
-8 -9 7 157.33 7.07
8 9 -6 381.57 13.79
8 9 -5 7.81 2.17
8 -9 -5 5.82 2.67
8 9 -4 66.61 4.72
8 -9 -4 75.02 5.95
8 -9 -4 77.81 6.06
8 9 -3 136.23 6.84
8 -9 -3 138.47 8.22
8 -9 -3 142.29 8.32
8 9 -2 9.31 2.08
8 -9 -2 10.73 3.09
8 -9 -2 8.82 3.17
8 9 -1 296.14 11.15
8 -9 -1 309.97 13.06
8 -9 -1 298.88 13.09
8 9 0 377.17 12.99
8 -9 0 370.04 14.77
8 -9 0 375.43 15.15
8 9 1 84.16 4.7
8 -9 1 78.27 5.92
8 9 2 11.59 1.93
8 -9 2 10.38 2.93
8 -9 3 170.46 8.46
8 -9 3 163.47 8.99
8 -9 4 48.31 4.26
8 -9 4 48.22 4.97
8 9 4 46.56 3.27
8 -9 5 328.21 13.13
8 9 5 301.12 10.78
8 9 5 309.72 10.6
8 -9 6 439.14 15.64
8 9 6 415.27 13.22
8 9 7 141.19 7.08
8 -9 7 160.6 7.8
8 9 7 139.45 6
8 -9 8 1.51 1.84
8 9 8 2.91 1.29
8 -9 9 31.95 3.2
8 9 9 27.94 2.38
8 9 10 93.46 4.32
8 9 11 337.51 11.02
8 9 11 352.05 10.91
8 9 12 75.4 3.65
8 9 12 83.13 3.72
8 10 -14 149.82 5.86
8 -10 -14 158.01 6.03
8 10 -13 36.72 2.66
8 -10 -13 36.15 2.79
8 10 -12 0.58 1.28
8 -10 -12 1.46 1.41
8 10 -11 12.67 1.93
8 -10 -11 11.74 2.19
8 10 -10 15.77 2.17
8 -10 -10 15.62 2.55
8 -10 -9 303.06 11.62
8 -10 -8 497.41 17.08
8 10 -7 29.86 2.95
8 -10 -7 28.29 3.52
8 10 -6 65.54 4.32
8 -10 -6 71.67 5.24
8 10 -5 0.32 1.56
8 10 -4 13.66 2.26
8 -10 -4 10.24 2.79
8 10 -3 188.03 8.07
8 -10 -3 197.53 9.49
8 -10 -3 213.3 9.72
8 10 -2 451.9 15.14
8 -10 -2 475.02 16.89
8 -10 -2 466.83 16.92
8 10 -1 13.28 2.12
8 -10 -1 11.84 2.91
8 -10 -1 16.01 3.27
8 10 0 142.02 6.4
8 -10 0 145.68 7.78
8 -10 0 161.32 8.31
8 -10 1 32.09 3.66
8 -10 1 29.92 3.91
8 -10 2 1.22 1.9
8 -10 3 244.79 10.02
8 -10 4 326.11 11.88
8 10 4 307.07 10.97
8 -10 5 5.23 2.32
8 -10 6 366.84 13.56
8 -10 7 28.92 3.2
8 -10 8 -0.15 1.59
8 -10 9 104.65 5.18
8 11 -11 327.86 10.68
8 -11 -11 347.45 11.1
8 11 -10 103.44 4.68
8 -11 -10 101.89 5
8 11 -9 7.58 1.53
8 -11 -9 7.08 1.9
8 -11 -8 21.81 2.63
8 -11 -7 1.6 1.63
8 11 -6 0.88 1.28
8 -11 -6 1.35 1.77
8 11 -5 541.45 16.74
8 11 -4 29.01 2.66
8 -11 -3 80.39 5.21
8 -11 -2 29.02 3.3
8 -11 -2 29.2 3.45
8 -11 -1 5.48 2.13
8 -11 -1 3.25 2.02
8 -11 0 12.79 2.46
8 -11 0 8.29 2.56
8 -11 1 520.96 16.83
8 -11 1 493.41 17.16
8 -11 2 42.26 3.51
8 -11 2 42.95 4.09
8 11 2 39.67 2.88
8 -11 3 181.86 7.23
8 11 3 154.72 6.33
8 -11 4 54.59 4.23
8 11 4 39.91 2.71
8 -11 5 5.05 2.13
8 11 6 1.25 1.55
8 -11 6 0.88 1.87
9 0 -23 -0.78 1.35
-9 0 23 0.41 1.29
9 0 -22 722.71 20.9
-9 0 22 705.03 20.98
9 0 -21 -0.13 1.44
-9 0 21 0.82 1.47
-9 0 21 0.94 1.12
9 0 -20 108.52 5.5
-9 0 20 109.04 5.12
9 0 -19 -0.15 1.68
-9 0 19 2.29 1.57
9 0 -18 395.14 13.89
-9 0 18 401.75 13.48
9 0 -17 -1.05 2.1
-9 0 17 1.09 1.54
9 0 -16 975.05 28.89
-9 0 16 959.4 28.41
9 0 -15 -0.18 1.89
-9 0 15 0.84 1.71
9 0 -14 54.42 4.22
9 0 -14 56.84 4.44
-9 0 14 52.58 3.99
9 0 -13 4.45 1.81
9 0 -13 2.09 1.4
-9 0 13 4.4 1.65
9 0 -13 0.42 1.2
-9 0 13 0.94 1.38
9 0 -12 185.69 8.27
9 0 -12 175.74 8.41
9 0 -12 174.99 8.39
9 0 -11 0.55 1.67
9 0 -11 1.88 1.65
9 0 -11 0.21 1.43
9 0 -10 1186.01 35.18
9 0 -10 1234.34 35.92
9 0 -10 1231.18 35.9
9 0 -9 -0.21 1.53
9 0 -9 0.93 1.56
9 0 -8 165.47 7.87
9 0 -8 172.29 8.33
9 0 -7 0.22 1.45
9 0 -7 1.38 1.94
9 0 -6 8.54 2.65
9 0 -5 -0.21 2.57
9 0 -4 1723.46 49.04
9 0 -3 3.41 2.65
9 0 -2 361.39 14.79
9 0 -2 425.68 15.59
9 0 -1 0.72 2.91
9 0 -1 1.55 1.47
9 0 0 19.72 3.64
9 0 0 16.58 3.05
9 0 1 1.92 2.45
9 0 1 -0.26 2.02
9 0 2 962.42 31.42
9 0 2 1114.62 32.67
9 0 3 -0.26 1.71
9 0 3 -0.23 2.02
9 0 3 -0.84 2.02
9 0 4 364.16 14.28
9 0 4 346.2 13.33
9 0 5 -0.46 2.1
9 0 5 2.01 1.67
9 0 5 -0.2 1.65
9 0 6 30.13 3.29
9 0 6 33.92 3.7
9 0 7 -1.35 2.01
9 0 7 1.26 2.01
9 0 7 1.48 1.51
9 0 8 865.32 26.77
9 0 8 842.54 26.36
9 0 8 838.9 25.71
9 0 9 3.47 1.97
9 0 9 1.2 1.98
9 0 9 0.34 1.51
9 0 10 833.64 25.51
9 0 10 812.14 25.05
9 0 10 770.73 24.13
9 0 11 1.88 1.76
9 0 11 1.3 1.84
9 0 11 2.83 1.71
9 0 12 123.96 6.34
9 0 12 114.83 5.73
9 0 13 0.99 1.69
9 0 13 0.95 1.36
9 0 14 141.76 6.62
9 0 14 139.81 6.03
9 0 15 0.14 1.47
9 0 16 346.06 11.65
9 0 17 1.09 1.28
9 1 -23 74.2 3.82
-9 -1 23 81.53 4.05
-9 -1 23 79.37 3.62
9 1 -22 7.63 1.61
-9 -1 22 9.84 1.76
-9 -1 22 9.95 1.48
9 1 -21 266.62 9.68
-9 -1 21 285.93 10.07
-9 -1 21 269.66 9.5
9 1 -20 46.64 3.44
-9 -1 20 47.66 3.32
9 1 -19 520.81 16.77
-9 1 19 509.06 15.94
-9 -1 19 538.77 16.76
9 1 -18 165.85 7.47
-9 1 18 158.66 6.78
-9 -1 18 167.85 7.43
9 1 -17 164.57 7.68
-9 1 17 165.43 7.09
-9 -1 17 175.1 7.77
9 1 -16 40.32 3.68
-9 1 16 34.76 3.13
-9 -1 16 39.92 3.58
9 1 -15 426.76 14.9
-9 1 15 417.36 14.31
-9 -1 15 445.72 15.04
9 1 -14 174.2 8.05
9 1 -14 164.58 8.07
9 -1 -14 167.99 8.21
-9 1 14 177.06 7.57
-9 -1 14 163.17 7.78
9 1 -13 545.29 17.49
9 1 -13 524.44 17.8
9 -1 -13 492.97 17.59
9 -1 -13 546.89 17.98
-9 -1 13 495.15 18.06
-9 1 13 510.95 18.07
-9 1 13 513.4 16.71
-9 -1 13 496 17.05
9 1 -12 156.92 7.44
9 1 -12 146.57 7.58
9 -1 -12 159.7 7.84
9 -1 -12 150.21 7.63
-9 1 12 149.59 6.89
9 1 -11 237.22 9.79
9 1 -11 236.79 10.14
9 -1 -11 225.86 10.03
9 -1 -11 248.68 10.29
9 1 -10 -0.18 1.7
9 -1 -10 0.21 1.47
9 -1 -10 0.63 1.33
9 1 -9 190.53 8.49
9 -1 -9 186.08 8.78
9 1 -8 453.79 16.05
9 -1 -8 487.69 16.8
9 1 -7 950.05 28.8
9 1 -6 292.16 11.8
9 1 -5 573.73 19.48
9 1 -4 37.9 4.41
9 1 -3 87.44 6.4
9 1 -2 656.02 23.14
9 -1 -2 769.21 24.1
9 1 -1 612.86 21.88
9 -1 -1 700.5 22.7
9 1 0 122.93 7.45
9 -1 0 145.1 7.96
9 1 1 378.56 15.06
9 -1 1 417.26 15.79
9 1 2 74.89 5.69
9 -1 2 88.71 6.24
9 1 2 93.21 5.91
9 1 3 128.42 7.36
9 -1 3 124.41 7.5
9 1 3 148.51 7.63
9 -1 3 126.72 6.97
9 -1 4 444.53 16.41
9 1 4 423.38 15.5
9 -1 4 418.64 15.16
9 -1 5 591.66 19.94
9 1 5 541.86 18.71
9 -1 5 542.46 18.34
9 -1 5 555.86 19.36
9 -1 6 2.53 1.81
9 1 6 3.35 1.85
9 -1 6 2.38 1.64
9 1 7 350.94 13.67
9 1 7 364.78 13.46
9 -1 7 369.72 13.21
9 -1 7 387.7 14.35
9 1 8 208.63 9.55
9 -1 8 214.9 9.05
9 1 8 225.46 9.49
9 -1 9 53.57 4.46
9 1 9 52.07 4.34
9 -1 9 54.24 3.92
9 1 9 48.55 3.91
9 -1 10 370.87 13.78
9 1 10 351.11 13.13
9 -1 10 348.02 12.37
9 1 10 348.28 12.71
9 -1 11 329.66 12.84
9 1 11 332.18 12.41
9 -1 11 334.24 11.63
9 1 11 321.88 11.89
9 1 12 11.2 2.25
9 -1 12 9.8 1.83
9 1 12 8.8 1.91
9 1 13 204.91 8.58
9 1 13 205.42 8.2
9 1 14 79.68 4.64
9 1 14 72.81 4.18
9 1 15 17.84 2.27
9 1 15 15.08 1.95
9 1 16 58.83 3.63
9 1 16 55.96 3.24
9 1 17 101.17 4.72
9 2 -23 7.56 1.46
9 -2 -23 9.64 1.62
-9 2 23 7.66 1.48
-9 -2 23 10.28 1.65
-9 -2 23 9.56 1.53
9 2 -22 64.59 3.47
9 -2 -22 60.57 3.48
-9 2 22 66.5 3.62
-9 -2 22 64.11 3.66
-9 -2 22 58.48 3.39
9 2 -21 73.26 4.06
9 -2 -21 84.65 4.38
-9 2 21 76.15 4.26
-9 -2 21 90.03 4.61
-9 -2 21 74.35 4.18
9 2 -20 498.7 16.26
9 -2 -20 535.47 16.59
-9 2 20 521.87 16.58
-9 -2 20 560.57 17
-9 -2 20 529.9 16.63
9 2 -19 11.23 2.1
9 -2 -19 7.88 1.97
-9 -2 19 7.87 1.92
9 2 -18 281.77 10.83
9 -2 -18 313.56 11.23
-9 -2 18 311.44 11.36
9 2 -17 50.69 3.94
9 -2 -17 47.63 3.87
-9 -2 17 52.89 4.13
9 2 -16 93.59 5.32
9 -2 -16 83.45 5.19
-9 2 16 80.84 4.46
-9 -2 16 91.7 5.44
9 2 -15 134.56 6.69
9 -2 -15 141.2 6.98
-9 2 15 123.9 5.93
-9 -2 15 139.79 7.06
9 2 -14 748.79 22.63
9 -2 -14 743.92 22.78
-9 2 14 701.05 21.56
-9 -2 14 706.87 22.69
9 2 -13 16.81 2.48
9 -2 -13 13.91 2.55
9 2 -13 18.07 2.57
9 -2 -13 16.08 2.47
-9 2 13 13.19 2.11
-9 -2 13 16.42 2.61
9 2 -13 13.8 2.28
9 -2 -13 12.47 2.25
-9 -2 13 15.76 2.6
-9 2 13 13.38 2.39
9 2 -12 956.48 27.57
9 -2 -12 959.38 27.71
9 2 -12 880.64 27.75
9 -2 -12 937.46 28.17
-9 -2 12 896.63 28.44
-9 2 12 875.24 28.07
9 2 -12 858.84 27.65
9 -2 -12 938.45 28.1
-9 2 12 905.93 26.55
9 2 -11 149.68 7.1
9 -2 -11 147.02 7.17
9 2 -11 131.01 7.04
9 -2 -11 141.61 7.3
9 2 -11 130.25 7.05
9 -2 -11 147.44 7.41
-9 2 11 132.5 6.24
9 2 -10 11.46 2.19
9 -2 -10 17.02 2.66
9 2 -10 15.62 2.56
9 -2 -10 16.62 2.68
9 2 -9 181.25 8.34
9 -2 -9 191.31 8.55
9 2 -9 182.61 8.7
9 -2 -9 196.24 8.86
9 2 -8 961.2 29.38
9 -2 -8 993.33 29.51
9 -2 -8 995.53 29.78
9 2 -8 978.71 30.02
9 -2 -8 982.54 29.97
9 2 -7 6.9 2.21
9 -2 -7 4.9 2.04
9 -2 -7 4.84 2.02
9 2 -6 970.73 30.05
9 -2 -6 983.28 30.08
9 -2 -6 1042.61 30.19
9 2 -5 217.14 9.96
9 -2 -5 221.55 9.99
9 -2 -5 247.39 9.99
9 2 -4 40.11 4.35
9 -2 -4 48.11 4.43
9 -2 -4 46.82 4.19
9 2 -3 86.33 6.07
9 -2 -3 85.53 5.94
9 2 -3 89.64 6.01
9 -2 -3 90 5.96
9 -2 -3 90.42 5.38
9 2 -2 402.23 15.77
9 -2 -2 401.93 15.73
9 2 -2 446.75 16.42
9 -2 -2 422.11 16.12
9 -2 -2 457.91 15.01
9 2 -1 88.11 6.47
9 -2 -1 95.58 6.53
9 2 -1 113.05 6.85
9 -2 -1 110.27 6.79
9 -2 -1 114.28 5.9
9 2 0 1052.51 33.37
9 -2 0 1066.59 33.56
9 -2 0 1085.5 31.79
9 -2 0 1133.91 34.17
9 2 1 107.2 6.75
9 -2 1 107.79 6.9
9 -2 1 114.99 5.8
9 2 1 115.01 7.05
9 -2 1 119.42 7.25
9 2 2 104.09 6.53
9 -2 2 106.65 6.66
9 2 2 100.11 6.58
9 -2 2 108.03 6.88
9 2 3 118.9 7.05
9 -2 3 120.24 7.19
9 -2 3 106.7 6.21
9 2 4 253.53 10.97
9 -2 4 242.75 10.93
9 -2 4 214.94 9.48
9 -2 5 82.75 5.19
9 2 5 96.19 6.06
9 -2 5 93.84 6.18
9 2 6 933.3 29.69
9 -2 6 989.63 30.04
9 2 6 1004.48 29.78
9 -2 6 914.94 28.67
9 2 6 1041.93 30.33
9 -2 6 1030.09 30.58
9 -2 7 77.79 5.5
9 2 7 75.54 4.34
9 2 7 70.18 5.1
9 -2 7 75.52 5.36
9 -2 7 77.75 4.74
9 2 7 77.09 5.19
9 2 7 88.28 5.67
9 2 8 72.27 4.99
9 -2 8 62.11 4.88
9 2 8 57.06 3.84
9 2 8 66.06 4.76
9 -2 8 58.84 4.74
9 -2 8 60.17 4.11
9 2 8 65.29 4.62
9 2 9 2.5 1.56
9 -2 9 5.27 1.73
9 2 9 1.25 1.21
9 2 9 0.57 1.57
9 -2 9 -0.6 1.96
9 -2 9 1.79 1.35
9 2 9 1.28 1.66
9 2 10 38.75 3.73
9 -2 10 47.54 4.08
9 2 10 30.97 2.85
9 2 10 39.58 3.56
9 -2 10 41.44 3.8
9 -2 10 36.39 3.04
9 2 10 43.44 3.69
9 2 11 184.27 8.37
9 -2 11 189.5 8.64
9 2 11 171.23 7.2
9 2 11 174.93 8
9 -2 11 179.07 8.23
9 2 11 171.96 7.81
9 2 12 577.93 18.4
9 -2 12 572.12 18.58
9 2 12 568.01 18.18
9 2 13 53.22 3.87
9 -2 13 52.06 3.99
9 2 13 55.85 3.84
9 2 14 77.55 4.42
9 -2 14 74.17 4.51
9 2 14 71.31 4.17
9 2 15 28.76 2.58
9 -2 15 29.13 2.72
9 2 15 33.14 2.66
9 2 16 1.81 1.32
9 -2 16 1.67 1.37
9 2 16 2.3 1.23
9 2 17 88.48 4.01
9 3 -22 1.26 0.96
9 -3 -22 1.72 1.08
-9 3 22 1.81 1.06
-9 -3 22 0.89 1.18
-9 -3 22 1.23 1.22
9 3 -21 193.86 7.32
9 -3 -21 204.13 7.54
-9 3 21 202.42 7.52
-9 -3 21 217.75 7.87
-9 -3 21 208.73 7.88
9 3 -20 1.02 1.3
9 -3 -20 2.17 1.43
-9 3 20 3.06 1.4
-9 -3 20 1.2 1.36
-9 -3 20 1.09 1.38
9 3 -19 7.44 1.62
9 -3 -19 9 1.74
-9 -3 19 8.35 1.87
9 3 -18 48.49 3.48
9 -3 -18 47.19 3.57
-9 -3 18 45.25 3.79
9 3 -17 799.03 24.64
9 -3 -17 883.03 25.2
9 3 -16 1.71 1.73
9 -3 -16 2.31 1.79
9 3 -15 520.21 17.11
9 -3 -15 538.91 17.4
9 3 -14 40.07 3.49
9 -3 -14 55.78 4.08
9 3 -13 6.73 1.94
9 -3 -13 6.01 1.91
9 3 -12 31.12 3.2
9 -3 -12 30.13 3.2
-9 -3 12 27.11 3.42
-9 3 12 22.37 3.06
9 3 -12 27.2 3.1
-9 3 12 31.39 3.18
9 -3 -12 24.16 3.07
9 3 -11 1078.93 32.09
9 -3 -11 1172.83 32.59
9 -3 -11 1146.87 33.18
-9 3 11 1059.44 32.05
9 3 -11 1075.07 32.68
9 -3 -11 1115.65 32.97
9 3 -10 2.88 1.66
9 -3 -10 2.7 1.51
9 3 -10 2.66 1.8
9 -3 -10 3.45 1.79
-9 3 10 4.75 1.55
9 3 -9 749.06 23.09
9 -3 -9 761.24 23.22
-9 3 9 742.53 22.85
9 3 -9 733.37 23.55
9 -3 -9 709.17 23.42
9 3 -8 1.51 1.79
9 -3 -8 6.04 2.05
9 -3 -8 4.12 1.99
-9 3 8 1.05 1.42
9 3 -7 35.03 3.59
9 -3 -7 29.06 3.3
9 -3 -7 30.21 3.5
-9 3 7 28.08 3.04
9 3 -6 35.83 3.7
9 -3 -6 35.08 3.6
9 -3 -6 39.13 3.8
-9 3 6 34.42 3.47
9 3 -5 548.95 19.35
9 -3 -5 586.47 19.54
9 -3 -5 596.56 19.37
-9 3 5 591.5 18.86
9 3 -4 18.35 2.68
9 -3 -4 20.57 2.86
9 3 -4 14.54 2.58
9 -3 -4 12.68 2.59
9 -3 -4 10.57 2.39
-9 3 4 19.1 2.37
9 3 -3 1748.6 51.86
9 -3 -3 1842.12 52.1
9 3 -3 1888.64 52.73
9 -3 -3 1867.66 52.54
9 -3 -3 1898.67 51.44
-9 3 3 1813.74 51.01
9 3 -2 108.13 6.66
9 -3 -2 109.02 6.75
9 3 -2 130.76 7.26
9 -3 -2 119.44 6.97
9 -3 -2 112.87 6.27
-9 3 2 118.13 6.21
9 3 -1 48.01 4.35
9 -3 -1 47.54 4.44
9 -3 -1 39.43 3.8
9 3 -1 47.11 4.42
9 -3 -1 48.3 4.47
-9 3 1 43.28 3.77
9 3 0 11.95 2.81
9 -3 0 7.32 2.57
9 3 0 7.37 2.28
9 -3 0 8.95 2.24
9 -3 0 6.96 2.51
-9 3 0 5.32 2.05
9 3 1 629.53 20.9
9 3 1 584.7 20.1
9 -3 1 575.72 20.23
9 -3 1 603.49 20.85
9 -3 1 566.56 18.63
-9 3 -1 594.12 19.26
9 3 1 605.94 20.26
9 3 2 27.24 3.58
9 -3 2 26.43 3.59
9 3 2 26.17 3.46
9 -3 2 22.94 3.37
-9 3 -2 23.77 2.94
9 3 2 33.16 3.7
9 3 3 1451.7 40.64
9 3 3 1548.5 43.3
9 -3 3 1461.33 43.3
9 3 3 1602.74 42.97
9 -3 3 1344.87 41.19
9 3 4 119.11 6.01
9 3 4 138.97 7.57
9 3 4 144.86 7.49
9 3 4 142.23 7.4
9 -3 4 117.13 6.32
9 -3 4 140.26 7.54
9 3 5 3.25 1.79
9 -3 5 2.29 1.79
9 3 5 3.17 1.44
9 3 5 2.72 2.06
9 -3 5 2.45 1.44
9 3 6 2.35 1.75
9 -3 6 4.76 2.11
9 3 6 1.53 1.29
9 3 6 4.75 1.82
9 -3 6 4.89 1.92
9 -3 6 2.17 1.3
9 3 7 83.78 5.38
9 -3 7 81.49 5.46
9 3 7 77.37 4.59
9 3 7 77.51 5.13
9 -3 7 80.26 5.37
9 -3 7 67.44 4.26
9 3 8 69.09 4.84
9 -3 8 58.06 4.78
9 3 8 62.99 4.1
9 3 8 57.18 4.4
9 -3 8 57.53 4.61
9 3 9 778.92 23.89
9 -3 9 787.69 24.3
9 3 9 739.07 22.61
9 3 9 734.87 23.29
9 -3 9 737.39 23.6
9 3 10 45.79 3.83
9 -3 10 38.76 3.83
9 3 10 36.93 3.21
9 3 10 45.49 3.73
9 -3 10 39.07 3.78
9 3 10 38.37 3.65
9 3 11 53.23 3.74
9 3 11 50.95 3.78
9 -3 11 50.9 3.98
9 3 11 51.35 3.97
9 3 12 -0.7 1.45
9 3 12 -0.15 1.49
9 -3 12 -0.17 1.66
9 3 12 0.63 1.51
9 3 13 -0.13 1.31
9 3 13 1.85 1.46
9 -3 13 2.16 1.58
9 3 13 2.05 1.44
9 3 14 7.13 1.68
9 -3 14 7.14 1.84
9 3 14 5.47 1.64
9 3 15 407.53 13.54
9 -3 15 445.75 13.97
9 3 15 448.66 13.87
9 3 16 9.61 1.65
9 -3 16 9.43 1.65
9 3 16 8.17 1.61
9 3 17 29.97 2.36
9 4 -22 139.28 4.89
9 4 -22 123.43 4.74
-9 -4 22 139.4 5.13
9 4 -21 139.19 5.34
9 -4 -21 151.39 5.6
-9 4 21 139.38 5.45
-9 -4 21 142.82 5.67
9 4 -20 186.31 6.99
9 -4 -20 210.16 7.38
-9 4 20 197.7 7.24
-9 -4 20 193.7 7.42
9 4 -19 24.87 2.3
9 -4 -19 27.22 2.47
-9 4 19 25.5 2.33
-9 -4 19 28.22 2.59
9 4 -18 150.22 6.38
9 -4 -18 162.93 6.71
9 4 -17 51.76 3.5
9 -4 -17 55.15 3.73
-9 -4 17 59.22 4.28
9 4 -16 249.48 9.42
9 -4 -16 253.35 9.66
-9 -4 16 256.72 10.28
9 -4 -15 268.19 10.04
-9 -4 15 279.16 10.78
9 4 -14 368.1 12.98
9 -4 -14 385.87 13.27
-9 -4 14 385.56 13.93
9 4 -13 5.5 1.62
9 -4 -13 7.46 1.68
-9 -4 13 5.83 2.09
9 4 -12 307.74 11.37
9 -4 -12 326.4 11.7
9 -4 -12 297.34 12.13
-9 -4 12 311.67 12.12
9 4 -11 172.67 7.84
9 -4 -11 195.39 8.23
9 -4 -11 183.39 8.67
-9 4 11 178.04 8.16
9 4 -10 417.41 14.73
9 -4 -10 456.22 15.1
-9 4 10 430.94 15.05
9 4 -9 283.58 11
9 -4 -9 291.91 11.12
-9 4 9 282.15 11.07
9 4 -8 360.31 13.21
9 -4 -8 379.6 13.43
9 -4 -8 379.97 13.91
-9 4 8 349.27 13.17
9 4 -7 49.23 4
9 -4 -7 43.26 3.82
9 -4 -7 41.47 4.04
-9 4 7 44.21 3.87
9 4 -6 366.5 13.92
9 -4 -6 396.9 14.22
9 -4 -6 415.25 14.58
-9 4 6 378.99 13.86
9 4 -5 411.43 15.04
9 -4 -5 455.17 15.45
9 4 -5 408.22 15.36
9 -4 -5 409.87 15.36
9 -4 -5 430.7 15.31
-9 4 5 406.4 14.72
9 4 -4 299.51 12.32
9 -4 -4 325.27 12.62
9 4 -4 339.03 13.03
9 -4 -4 314.8 12.7
9 -4 -4 337.05 12.62
-9 4 4 305.44 11.99
9 4 -3 203.69 9.48
9 -4 -3 217.65 9.77
9 4 -3 220.1 9.97
9 -4 -3 197.15 9.58
9 -4 -3 224.79 9.58
-9 4 3 222.68 9.41
9 4 -2 443.33 16.32
9 -4 -2 438.16 16.4
9 -4 -2 495.61 16.38
9 4 -2 475.33 17.01
9 -4 -2 449.66 16.78
-9 4 2 465.14 16.12
9 4 -1 158.53 8.09
9 -4 -1 157.11 8.32
9 -4 -1 167.56 7.85
9 4 -1 168.71 8.52
-9 4 1 159.96 7.78
9 -4 -1 161.44 8.41
9 4 -1 163.02 8.2
9 4 0 295.92 12.29
9 -4 0 299.58 12.53
9 -4 0 312.56 13.01
9 -4 0 321.25 11.96
-9 4 0 308.48 12.07
9 4 0 327.68 12.78
9 4 0 331.33 13.12
9 4 1 252.33 10.67
9 -4 1 237.75 10.63
9 4 1 241.26 10.82
9 -4 1 236.83 10.92
9 -4 1 254.87 10
-9 4 -1 256.33 10.4
9 4 1 237.39 10.57
9 -4 2 238.85 9.44
9 4 2 254.47 10.82
-9 4 -2 243.02 10.06
9 -4 2 254.97 11.08
9 4 2 238.59 10.44
9 -4 2 212.85 9.24
9 4 3 137.17 7.49
9 4 3 125.86 6.38
-9 4 -3 125.44 6.78
9 4 3 157.08 7.73
9 4 3 153.1 7.55
9 -4 3 139.29 7.46
9 4 4 148.94 7.02
-9 4 -4 140.49 7.28
9 4 4 160.94 7.93
9 4 4 157.41 7.78
9 -4 4 163.03 8.07
9 4 5 529.47 17
9 4 5 496.82 17.26
9 -4 5 507.61 17.67
-9 4 -5 493.85 17.24
9 4 5 549.65 18.02
9 4 5 534.53 17.9
9 -4 5 518.81 18
9 4 6 122.8 6.54
9 -4 6 123.1 6.79
9 4 6 115.29 6
9 4 6 115.52 6.23
9 -4 6 109.3 6.33
9 4 6 121.43 6.63
9 4 7 211.07 9.09
9 -4 7 214.09 9.4
9 4 7 204.11 8.55
9 4 7 191.03 8.62
9 -4 7 201.94 9.07
9 4 7 209.61 9.19
9 4 8 272.04 10.66
9 -4 8 267.55 10.91
9 4 8 258.57 10.06
9 4 8 250.73 10.1
9 -4 8 256.12 10.48
9 4 8 253.48 10.5
9 4 9 6.35 1.9
9 -4 9 9.41 2.29
9 4 9 7.8 1.87
9 4 9 7.6 1.97
9 -4 9 4.94 1.9
9 4 9 7.47 2.29
9 4 10 88 5.03
9 4 10 89.62 5.08
9 -4 10 90.06 5.3
9 4 11 190.55 7.87
9 4 11 185.27 7.76
9 -4 11 182.56 7.97
9 4 12 125.14 5.93
9 4 12 116.44 5.67
9 -4 12 126.5 6.05
9 4 13 80.65 4.42
9 4 13 79.27 4.29
9 -4 13 77.11 4.46
9 4 14 49.5 3.34
9 4 14 51.24 3.14
9 -4 14 50.27 3.32
9 4 14 44.15 3.32
9 4 15 3.54 1.37
9 4 15 6.3 1.26
9 -4 15 5.73 1.37
9 4 15 3.34 1.4
9 4 16 42.94 2.89
9 5 -21 157.26 5.68
-9 -5 21 152.32 5.5
9 5 -20 6.37 1.1
-9 -5 20 7.32 1.28
-9 -5 20 7.73 1.71
-9 -5 19 516.91 15.13
-9 -5 19 540.98 16.05
9 5 -18 15.75 1.68
-9 -5 18 16.78 2.11
-9 -5 18 17.1 2.5
9 -5 -17 16.38 1.98
9 5 -17 13.79 1.82
-9 5 17 16.71 1.99
-9 -5 17 16.21 2.15
-9 -5 17 14.81 2.39
9 5 -16 42.72 3.07
9 -5 -16 47.46 3.26
-9 -5 16 48.91 3.94
9 5 -15 123.83 5.75
9 -5 -15 129.87 5.96
-9 -5 15 140.66 6.98
9 5 -14 46.07 3.29
9 -5 -14 51.98 3.54
-9 -5 14 49.06 4.18
9 5 -13 1029.82 30.57
9 -5 -13 1077.49 30.91
9 -5 -13 1120.68 32.17
-9 -5 13 1108.09 32.07
9 5 -12 5.7 1.62
9 -5 -12 9.07 1.97
9 -5 -12 11.37 2.71
-9 -5 12 7.72 2.35
9 5 -11 57.82 3.92
9 -5 -11 57.39 4.01
9 -5 -11 62.65 4.76
-9 -5 11 55.01 4.42
9 5 -10 2.83 1.52
9 -5 -10 0.16 1.34
9 -5 -10 0.21 1.85
9 5 -9 165.14 7.49
9 -5 -9 175.82 7.75
-9 5 9 175.29 8.05
9 5 -8 15.5 2.5
9 -5 -8 12.69 2.41
-9 5 8 18.89 2.62
9 5 -7 1198.67 35.92
9 5 -7 1225.35 35.57
9 -5 -7 1246.19 35.7
9 -5 -7 1302.12 36.78
-9 5 7 1223.91 35.96
9 5 -6 24.32 2.7
9 -5 -6 21.35 2.8
9 5 -6 16.41 2.65
9 -5 -6 18.32 3.1
-9 5 6 19.38 2.76
9 5 -5 200.38 8.93
9 -5 -5 217.63 9.27
9 5 -5 201.91 9.17
9 -5 -5 211.36 9.57
-9 5 5 206.76 9.16
9 -5 -4 27.01 3.17
9 5 -4 21.42 2.73
9 -5 -4 26.61 3.39
9 5 -4 23.81 2.84
-9 5 4 22.73 2.84
9 5 -3 2.18 1.4
9 5 -3 4.26 1.63
9 -5 -3 2.46 1.6
9 -5 -3 1.96 1.82
-9 5 3 2.07 1.49
9 5 -3 0.41 1.79
9 5 -2 76.77 5.19
9 -5 -2 91.69 5.72
9 -5 -2 86.95 5.7
-9 5 2 89.21 5.58
9 5 -2 90.69 5.7
9 5 -2 77.83 5.39
9 5 -1 1025.25 31.43
9 -5 -1 1061.4 31.95
9 5 -1 1064.5 32.13
9 -5 -1 1052.1 31.81
-9 5 1 1064.65 31.87
9 5 -1 1116.86 32.21
9 5 0 62.46 4.28
9 5 0 59.85 4.77
9 -5 0 72.46 4.98
-9 5 0 66.8 4.83
9 5 0 65.85 5.01
9 5 1 281.84 11.4
9 -5 1 278.18 10.91
-9 5 -1 249.7 10.79
9 5 1 285.93 11.4
9 -5 2 64.52 4.52
-9 5 -2 66.57 4.81
9 5 2 72.07 5.06
9 5 2 74.66 4.94
9 -5 2 75.87 5.14
9 5 3 1.32 1.57
9 -5 3 0.62 1.84
9 5 3 1.4 1.61
9 -5 3 -0.2 1.82
9 -5 3 1.93 1.32
-9 5 -3 1.38 1.44
9 5 3 2.45 1.96
9 -5 4 52.57 4.4
9 5 4 51.62 4.05
9 5 4 48.54 3.87
9 -5 4 53.02 4.32
9 5 4 52.65 4.42
9 5 4 53.07 4.08
9 5 5 841.53 25.16
9 -5 5 812.48 25.43
9 5 5 825.37 25.01
9 5 5 800.03 24.63
9 -5 5 786.11 25.03
9 5 5 860.86 25.71
9 5 6 24.99 2.89
9 -5 6 21.79 2.95
9 5 6 23.37 2.91
9 5 6 23.78 2.71
9 -5 6 19.4 2.76
9 5 6 26.98 3.14
9 5 7 466.39 15.79
9 -5 7 470.27 16.24
9 5 7 493.02 16
9 5 7 462.47 15.39
9 -5 7 454.23 15.77
9 5 7 468.48 16.17
9 5 8 25.09 2.77
9 -5 8 24.49 3.03
9 5 8 31.6 3.19
9 5 8 29.66 2.94
9 -5 8 33.71 3.25
9 5 8 33.59 3.48
9 5 9 6.79 2.04
9 5 9 7.94 1.88
9 -5 9 9.2 2.03
9 5 9 8.92 2.21
9 5 10 11.42 2.22
9 5 10 13.08 1.92
9 -5 10 12.79 2.02
9 5 10 13.82 2.41
9 5 11 211.14 8.51
9 5 11 212.89 7.96
9 -5 11 201.62 8.15
9 5 11 217.85 8.71
9 5 12 2.24 1.48
9 5 12 2.32 1.22
9 5 12 1.16 1.45
9 5 13 315.44 10.71
9 5 13 296.9 9.91
9 5 13 307.13 10.75
9 5 14 80.5 4.21
9 5 15 15.52 1.93
9 6 -20 72.05 3.39
-9 -6 20 80.56 4.02
9 6 -19 1.22 1.07
-9 -6 19 1.76 1.39
9 6 -18 233.54 8.53
-9 -6 18 250.01 9.16
-9 -6 17 10.99 2.1
-9 -6 16 711.41 21.82
-9 -6 15 108.44 5.92
-9 -6 14 95.28 5.62
9 -6 -13 -0.38 1.82
-9 -6 13 1.47 1.7
9 -6 -12 101.3 6.12
-9 -6 12 106.37 6.09
9 -6 -11 62.5 3.96
9 -6 -11 66.43 4.99
-9 -6 11 70.71 4.94
9 -6 -10 911.12 26.49
9 -6 -10 913.19 28.12
-9 -6 10 907.67 27.62
9 -6 -9 124.49 6.03
9 -6 -8 144.06 6.67
9 -6 -7 0.81 1.53
9 -6 -7 -0.68 1.93
9 6 -7 2.47 1.57
9 -6 -6 124.81 6.35
9 -6 -6 130.78 7.28
9 6 -6 127.04 6.39
9 -6 -5 128.36 6.4
9 -6 -5 127.4 7.2
9 6 -5 121.53 6.39
9 -6 -4 967.54 28.84
9 -6 -4 983.98 30.11
9 6 -4 968.2 29
9 -6 -3 93.83 5.4
9 6 -3 92.92 5.59
9 -6 -3 97.26 6.18
9 6 -3 90.29 5.54
9 6 -2 170.97 7.88
9 -6 -2 183.14 8.78
9 6 -2 165.98 7.95
9 6 -1 26.33 2.88
9 -6 -1 27.72 3.58
9 6 -1 28.18 3.19
9 6 0 10.13 2
9 6 0 11.37 2.05
9 -6 0 12.3 2.55
9 -6 0 11.41 3.14
9 6 0 8.08 2.23
9 6 1 201.44 7.98
9 -6 1 183.52 8.62
9 -6 1 197.68 9.83
9 6 1 190.81 8.65
9 6 1 184.1 8.06
9 -6 2 737.74 23.45
9 -6 2 793.74 24.03
9 -6 2 817.3 25.87
9 6 2 763.58 24.08
9 6 2 777.37 23.46
9 6 3 8.28 1.84
9 -6 3 5.37 1.9
9 -6 3 7.19 1.85
9 -6 3 8.67 2.73
9 6 3 9.07 2.31
9 6 4 498.16 16.53
9 6 4 528.14 17.3
9 -6 4 483.4 16.58
9 -6 4 555.59 18.8
9 6 4 540.86 17.53
9 6 5 51.65 3.77
9 6 5 54.61 4.2
9 -6 5 49.69 3.81
9 6 5 64.59 4.56
9 6 6 3.14 1.26
9 6 6 0.36 1.72
9 6 6 0.72 1.87
9 6 7 218.05 9.25
9 6 7 236.51 9.48
9 6 8 338.55 12.32
9 6 8 339.41 12.3
9 6 9 18.59 2.53
9 6 9 21.16 2.61
9 6 10 229.15 9.11
9 6 10 239.63 9.23
9 6 11 85.42 4.72
9 6 11 82.72 4.7
9 6 12 0.39 1.34
9 6 12 0.78 1.33
9 6 13 53.97 3.43
9 6 13 59.81 3.58
9 6 14 123.77 5.25
9 6 14 120.88 5.31
9 7 -18 121.87 4.99
-9 -7 18 123.56 5.38
9 7 -17 264.98 9.43
-9 -7 17 299.91 10.03
9 7 -16 27.86 2.51
-9 -7 16 30.02 2.78
9 7 -15 242.44 9.22
-9 -7 15 263.31 9.76
9 7 -14 142.62 6.6
9 -7 -14 153.25 6.97
-9 -7 14 152.5 6.98
9 7 -13 132.52 6.54
9 -7 -13 145.53 6.98
-9 -7 13 150.31 7
9 -7 -12 177.79 8.24
-9 -7 12 183.39 8.13
9 -7 -11 423.46 15.48
-9 -7 11 459.06 15.39
9 -7 -10 2.05 2.06
-9 -7 10 1.61 1.97
9 -7 -9 434.46 15.99
-9 -7 9 455.28 15.52
9 7 -8 258.78 10.41
-9 -7 8 243.37 10.03
9 7 -7 94.33 5.65
9 7 -6 125.01 6.53
9 -7 -6 111.7 6.78
9 7 -6 114.71 5.61
9 7 -5 347.9 12.73
9 -7 -5 337.43 13.32
9 7 -5 324.57 11.67
9 7 -4 21.01 2.78
9 -7 -4 18.44 3.07
9 7 -4 17.01 2.44
9 7 -3 482.02 16.42
9 -7 -3 516.34 17.66
9 7 -3 475.27 15.96
9 7 -2 449.3 15.43
9 7 -2 441.11 15.19
9 7 -1 56.67 3.95
9 -7 -1 59.82 4.85
9 7 -1 50.4 3.86
9 7 0 17.26 2.31
9 -7 0 19.57 3.04
9 -7 0 26.65 4.09
9 7 0 22.41 2.82
9 7 1 242.64 9.22
9 -7 1 258.37 10.52
9 -7 1 269.3 11.8
9 7 1 239.21 9.76
9 -7 2 33.21 3.45
9 -7 2 42.97 4.8
9 7 2 43.12 3.6
9 -7 3 381.67 13.63
9 7 3 391.81 13.78
9 7 4 305.33 11.73
9 -7 4 338.76 13.22
9 7 4 305.02 11.56
9 7 5 68.84 4.66
9 -7 5 73.46 5.44
9 7 5 74.63 4.67
9 7 6 0.52 1.5
9 7 6 1.43 1.59
9 7 7 120.2 6.07
9 7 7 109.09 5.7
9 7 8 75.5 4.67
9 7 8 85.98 4.75
9 7 9 390.87 13.42
9 7 9 400.27 13.24
9 7 10 232.42 8.85
9 7 10 229.16 8.65
9 7 11 92.91 4.69
9 7 11 86.83 4.5
9 7 12 18.33 2.15
9 7 12 17.64 2.02
9 7 13 52.27 3.16
9 7 13 51.23 3.14
9 8 -17 1.29 1.08
-9 -8 17 0.09 1.12
9 8 -16 2.97 1.2
-9 -8 16 4.42 1.33
9 8 -15 4.58 1.41
-9 -8 15 5.1 1.53
9 8 -14 516.64 16.41
-9 -8 14 562.29 16.75
9 8 -13 1.32 1.37
9 -8 -13 4.49 1.84
-9 -8 13 0.82 1.43
9 8 -12 487.75 16.07
9 -8 -12 521.76 16.71
-9 -8 12 516.53 16.29
9 -8 -11 7.74 2.34
-9 -8 11 10.44 2.13
9 -8 -10 6.55 2.27
-9 -8 10 8.59 2.06
9 8 -9 1.64 1.57
9 -8 -9 1.57 1.93
-9 -8 9 3.03 1.7
9 8 -8 326.55 11.9
-9 -8 8 318.53 11.66
9 8 -7 -0.17 1.53
-9 -8 7 1.13 1.68
9 8 -6 526.46 17.16
9 -8 -6 543.46 18.16
-9 -8 6 493.34 16.68
9 8 -5 7.9 2
9 -8 -5 10.49 2.64
9 8 -4 25.66 2.84
9 -8 -4 24.05 3.42
9 8 -3 4.74 1.83
9 -8 -3 4.84 2.23
9 8 -2 263.44 9.9
9 8 -2 235.31 9.1
9 8 -1 6.06 1.73
9 -8 -1 8.29 2.46
9 8 -1 5.65 1.62
9 8 0 845.75 25.25
9 8 0 839.39 25.17
9 -8 1 9.61 2.45
9 -8 1 9.59 2.87
9 8 1 7.53 1.82
9 -8 2 -1.93 1.81
9 -8 2 0.24 2.41
9 8 2 -0.14 1.36
9 -8 3 5.77 1.77
9 -8 3 1.41 2.4
9 8 3 4.43 1.58
9 8 4 56.6 4.07
9 -8 4 53.42 4.69
9 8 4 58.6 3.74
9 8 5 1.13 1.59
9 -8 5 1.45 1.93
9 8 5 2.95 1.46
9 8 6 719.54 21.79
9 8 6 703.75 21.09
9 8 7 2.97 1.73
9 8 7 2.23 1.38
9 8 8 1.82 1.52
9 8 8 1.52 1.12
9 8 9 -0.39 1.32
9 8 9 1.42 1.2
9 8 10 5.76 1.57
9 8 10 3.11 1.27
9 8 11 1.78 1.45
9 8 11 2.9 1.33
9 9 -14 65.48 3.49
-9 -9 14 67.54 3.26
9 9 -13 89.32 4.39
9 -9 -13 96.06 4.67
-9 -9 13 94.27 4.2
9 9 -12 169.12 6.83
9 -9 -12 185.43 7.3
-9 -9 12 172.91 6.57
9 9 -11 234.57 8.7
9 -9 -11 247.64 9.24
-9 -9 11 233.73 8.41
9 -9 -10 1.41 1.62
-9 -9 10 3.2 1.45
9 -9 -9 285.28 10.67
-9 -9 9 268.44 9.55
9 9 -8 149.61 6.63
9 -9 -8 159.35 7.41
-9 -9 8 146.91 6.26
9 9 -7 30.26 2.79
-9 -9 7 25.35 2.53
9 9 -6 126.67 5.88
-9 -9 6 106.88 5.2
9 9 -5 180.75 7.71
9 -9 -5 199.5 8.78
9 9 -4 15.43 2.13
9 -9 -4 15.34 2.76
9 9 -3 357.65 12.42
9 -9 -3 384.48 13.75
9 9 -2 201.13 7.97
9 -9 -2 212.02 9.17
9 9 -1 69.12 4.01
9 -9 -1 79.38 5.09
9 -9 0 54.73 4.2
9 -9 1 166.35 7.51
9 -9 2 94.98 5.16
9 -9 2 93.44 6.02
9 9 3 312.77 11.29
9 -9 3 322.03 12.44
9 9 4 211.83 8.26
9 9 4 195.68 7.1
9 9 5 49.52 3.46
9 9 5 39.04 2.63
9 9 6 14.41 2.08
9 9 6 12.22 1.56
9 9 7 28.64 2.6
9 9 7 24.63 2.04
9 9 8 159.55 6.32
9 9 8 143.99 5.42
9 9 9 165.82 6.18
9 9 9 170.16 5.96
9 10 -11 76.36 3.8
9 -10 -11 74.59 4.02
9 -10 -10 494.95 15.4
9 -10 -9 130.07 5.94
9 10 -8 61.73 3.54
9 -10 -8 57.82 3.89
9 10 -7 3.79 1.36
9 10 -6 82.22 4.25
9 10 -5 89.99 4.5
9 -10 -5 89.32 5.08
9 10 -4 456.9 14.49
9 -10 -4 479.05 15.52
9 10 -3 93.26 4.58
9 -10 -3 106.26 5.54
9 10 -2 133.69 5.57
9 -10 -2 133.63 6.43
9 -10 -1 35.64 3.12
9 -10 0 0.43 1.47
9 -10 1 51.83 3.57
9 10 2 356.92 11.81
9 10 3 23.3 2.39
9 10 4 137.88 5.87
9 10 5 120.14 5.29
9 -11 -4 2.75 1.66
9 -11 -3 5.38 1.71
9 -11 -2 54.75 3.47
10 0 -21 2.04 1.39
-10 0 21 1.21 1.33
10 0 -20 76.64 4.1
-10 0 20 73.51 4.09
10 0 -19 0.75 1.3
-10 0 19 -0.4 1.1
10 0 -18 482.43 15.14
-10 0 18 452.01 14.43
10 0 -17 1.19 1.58
-10 0 17 1.91 1.3
10 0 -16 6.02 1.87
-10 0 16 4.81 1.61
10 0 -15 1.99 1.75
-10 0 15 1.89 1.37
10 0 -14 61.27 4.41
-10 0 14 62.9 4.13
10 0 -13 -0.18 1.69
-10 0 13 -0.78 1.65
10 0 -12 529.3 17.45
-10 0 12 519.28 16.91
10 0 -11 0.18 1.69
10 0 -10 36.81 3.53
10 0 -9 -0.38 1.56
10 0 -8 57.61 4.41
10 0 -7 -0.2 1.72
10 0 -6 291.92 11.77
10 0 -5 2.61 1.62
10 0 -5 0.24 1.65
10 0 -4 16.63 2.84
10 0 -4 15.5 2.73
10 0 -3 1.66 2.04
10 0 -3 1.04 1.77
10 0 -2 163.3 8.58
10 0 -2 152.32 8.56
10 0 -1 3.05 1.94
10 0 -1 4.76 2.35
10 0 0 411.36 15.99
10 0 0 430.71 16.57
10 0 1 0.25 2.25
10 0 1 -1.14 1.77
10 0 1 0.69 1.99
10 0 2 2.25 1.83
10 0 2 2.96 2.14
10 0 3 -0.22 2.01
10 0 4 386.25 14.91
10 0 4 451.65 16.2
10 0 5 -1.21 2.07
10 0 5 0.81 1.73
10 0 6 61.51 5
10 0 6 66.3 4.78
10 0 6 76.44 5.5
10 0 7 1.6 1.77
10 0 7 -1.49 2.23
10 0 7 -0.18 1.54
10 0 8 19.22 2.64
10 0 8 18.59 2.92
10 0 8 10.52 2.34
10 0 9 2.13 1.78
10 0 9 1.73 1.89
10 0 9 2.27 1.6
10 0 10 506.8 16.92
10 0 10 469.21 16.26
10 0 10 470.62 15.59
10 0 11 3.53 1.83
10 0 11 0.95 1.35
10 0 12 22.38 2.7
10 0 12 16.55 2.09
10 0 13 -0.14 1.42
10 0 14 16.13 2.15
10 0 15 -1.28 1.4
10 1 -21 153.83 5.93
-10 -1 21 153.99 6.06
-10 -1 21 148.79 5.56
10 1 -20 204.9 7.77
-10 -1 20 224.42 8.1
-10 -1 20 216.31 7.61
10 1 -19 17.6 2.2
-10 -1 19 16.49 2
10 1 -18 19.6 2.4
-10 -1 18 16.86 2.11
10 1 -17 51.94 3.7
-10 -1 17 49.24 3.5
10 1 -16 89.22 5.06
-10 1 16 85.28 4.47
-10 -1 16 91.35 5.02
10 1 -15 202.75 8.55
-10 1 15 197.19 7.91
-10 -1 15 214.35 8.57
10 1 -14 144.33 6.92
-10 1 14 134.72 6.22
-10 -1 14 146.13 6.85
10 1 -13 0.86 1.71
-10 1 13 1.87 1.4
-10 -1 13 4.3 1.89
10 1 -12 21.07 2.7
-10 1 12 23.56 2.52
-10 -1 12 25.24 2.9
10 1 -11 38.13 3.52
-10 1 11 32.92 3.05
10 1 -10 260.09 10.46
10 1 -9 99.56 5.8
10 1 -8 296.79 11.65
10 1 -7 7.6 2.19
10 1 -6 2.29 1.89
10 1 -5 44.65 4.17
10 -1 -5 39.37 3.94
10 1 -4 416.95 15.33
10 -1 -4 388.41 15.25
10 1 -3 121.09 7.22
10 -1 -3 136.21 7.62
10 1 -2 92.57 6.32
10 -1 -2 99.71 6.59
10 1 -1 3.75 2.33
10 -1 -1 2.74 1.74
10 1 0 52.77 4.86
10 -1 0 42.74 4.56
10 1 1 78.91 5.96
10 -1 1 98.54 6.72
10 1 1 77.39 5.71
10 -1 1 88.68 5.87
10 1 2 337.84 13.8
10 -1 2 328.29 13.77
10 1 2 331.46 13.09
10 -1 2 288.33 12.33
10 1 3 12.49 2.73
10 -1 3 8.63 2.31
10 1 4 38.77 3.96
10 -1 4 31.03 3.45
10 -1 4 44.06 4.22
10 -1 5 21.8 3.38
10 1 5 29.18 3.61
10 1 5 23.09 3.19
10 -1 5 22.29 2.91
10 1 6 119.76 7.05
10 -1 6 121.71 6.49
10 1 6 131.07 6.97
10 -1 6 136.12 7.47
10 -1 7 119.84 6.82
10 1 7 106.21 6.46
10 -1 7 110.45 5.91
10 1 7 106.69 6.18
10 1 8 175.62 8.44
10 -1 8 171.36 7.75
10 1 8 185.04 8.28
10 -1 9 4.06 1.99
10 1 9 3.02 2.15
10 -1 9 3.28 1.59
10 1 9 1.86 1.73
10 -1 10 3.06 1.62
10 1 10 1.24 1.74
10 -1 10 -0.14 1.2
10 1 10 0.16 1.47
10 1 11 0.16 1.52
10 1 11 1.01 1.43
10 1 12 87.23 4.97
10 1 12 88.73 4.64
10 1 13 115.88 5.54
10 1 13 108.5 5.03
10 1 14 111.45 5.22
10 1 14 107.59 4.69
10 1 15 4.33 1.52
10 -2 -21 16.56 1.87
10 2 -21 13.37 1.69
-10 2 21 15.05 1.76
-10 -2 21 16.38 1.88
-10 -2 21 14.11 1.69
10 2 -20 37.34 2.61
10 -2 -20 41.53 2.78
-10 2 20 35.46 2.65
-10 -2 20 39.78 2.83
-10 -2 20 40.68 2.75
10 2 -19 43.86 2.98
10 -2 -19 42.98 3.02
-10 -2 19 44.65 3.1
10 2 -18 7.19 1.68
10 -2 -18 6.44 1.68
-10 -2 18 8.86 1.85
10 2 -17 59.21 3.91
10 -2 -17 66.11 4.14
-10 -2 17 65.44 4.13
10 2 -16 243.7 9.31
10 -2 -16 250.14 9.53
-10 -2 16 241.78 9.47
10 2 -15 62.99 4.19
10 -2 -15 65.08 4.3
-10 -2 15 61.43 4.31
10 2 -14 87.54 5.15
10 -2 -14 91.66 5.27
-10 -2 14 95.38 5.42
10 2 -13 75.91 4.78
10 -2 -13 84.94 5.08
-10 2 13 73.16 4.14
-10 -2 13 71.11 4.76
10 2 -12 45.14 3.69
10 -2 -12 45.03 3.75
-10 2 12 38.78 3.09
-10 -2 12 42.34 3.73
10 2 -11 84.04 5.13
-10 2 11 77.23 4.43
10 2 -10 128.94 6.67
10 -2 -10 134.15 6.77
10 2 -9 14.7 2.55
10 -2 -9 17.35 2.7
10 2 -8 141.19 7.17
10 -2 -8 138.56 7.11
10 2 -7 119.72 6.67
10 -2 -7 131.61 6.9
10 -2 -6 67.31 5
10 2 -6 71.81 5.07
10 -2 -6 76.43 5.21
10 2 -5 46.46 4.13
10 -2 -5 43.9 4.12
10 2 -5 33.23 3.55
10 -2 -5 39.81 3.8
10 -2 -4 26.53 3.47
10 2 -4 22.34 3.19
10 2 -4 25.03 3.23
10 -2 -4 20.94 3
10 2 -3 1.87 2.01
10 -2 -3 -0.23 2.1
10 2 -3 2.06 1.68
10 -2 -3 3.53 1.57
10 2 -2 111.71 7.03
10 -2 -2 113.94 6.93
10 2 -2 113.39 7.11
10 -2 -2 116.17 7.13
10 2 -1 434.47 16.71
10 -2 -1 451.92 16.84
10 2 -1 469.71 17.33
10 -2 -1 449.65 17.03
10 2 0 240.04 10.9
10 -2 0 233.31 10.86
10 2 0 230.96 11.04
10 -2 0 232.39 11.05
10 2 0 232.01 10.6
10 2 1 28.75 3.78
10 -2 1 34.93 4.17
10 2 1 31.18 3.97
10 -2 1 28.51 3.74
10 -2 1 33.34 3.57
10 -2 2 0.2 1.63
10 -2 3 74.38 5.48
10 -2 3 57.05 4.5
10 -2 4 105.72 6.13
10 2 4 121.88 7.12
10 -2 4 131.5 7.36
10 2 5 99.03 6.37
10 -2 5 110.2 6.65
10 2 5 114.9 6.61
10 -2 5 105.2 5.87
10 2 5 112.33 6.78
10 -2 5 112.2 6.83
10 2 6 119.14 6.89
10 -2 6 122.59 6.96
10 2 6 116.51 6.68
10 -2 6 109.3 6.55
10 -2 6 102.09 5.65
10 2 6 118.38 6.62
10 2 7 23.17 2.96
10 -2 7 22.85 2.92
10 2 7 11.89 2.44
10 -2 7 14.73 2.97
10 -2 7 15.36 2.33
10 2 7 15.51 2.62
10 2 8 79.65 5.28
10 -2 8 71.27 5.06
10 2 8 75.02 4.92
10 -2 8 64.26 4.76
10 2 8 71.04 4.73
10 2 9 67.99 4.77
10 -2 9 54.78 4.41
10 2 9 57.52 4.35
10 -2 9 58.95 4.46
10 2 9 55.38 4.22
10 2 10 12.71 2.39
10 2 10 12.81 2.25
10 -2 10 13.18 2.43
10 2 10 14.35 2.36
10 2 11 67.08 4.39
10 -2 11 68.52 4.5
10 2 11 75.51 4.45
10 2 12 121.42 5.95
10 -2 12 135.4 6.24
10 2 12 129.82 5.92
10 2 13 56.49 3.67
10 -2 13 56 3.72
10 2 13 57.59 3.53
10 2 14 121.08 5.25
10 -2 14 111.4 5.19
10 2 14 109.68 4.92
10 3 -20 36.46 2.38
10 -3 -20 35.7 2.42
-10 3 20 31.42 2.32
-10 -3 20 29.59 2.42
-10 -3 20 30.39 2.47
10 3 -19 250.03 8.91
10 -3 -19 274.43 9.21
-10 3 19 269.12 9.17
-10 -3 19 275.73 9.42
-10 -3 19 278.04 9.5
10 3 -18 1.43 1.21
10 -3 -18 0.12 1.19
-10 -3 18 -0.13 1.41
10 3 -17 92.7 4.64
10 -3 -17 92.98 4.77
-10 -3 17 93.77 5.06
10 3 -16 2.38 1.49
10 -3 -16 0.98 1.55
-10 -3 16 1.39 1.63
10 3 -15 44.91 3.39
10 -3 -15 51.19 3.72
-10 -3 15 50.09 3.91
10 3 -14 47.79 3.59
10 -3 -14 44.29 3.5
10 3 -13 268.84 10.34
10 -3 -13 290.4 10.71
10 3 -12 10.12 2.13
10 -3 -12 14.22 2.42
10 3 -11 200.29 8.6
10 -3 -11 221.79 9.05
10 3 -10 9.56 2.1
10 -3 -10 9.51 2.21
10 3 -9 47.35 3.87
10 -3 -9 56.02 4.16
-10 3 9 48.49 3.22
10 3 -8 122.68 6.46
10 -3 -8 121.16 6.52
10 3 -7 233.48 9.81
10 -3 -7 234.41 9.92
10 3 -6 1.2 1.78
10 -3 -6 4.39 2.13
10 -3 -6 4.79 1.96
10 3 -5 240.13 10.42
10 -3 -5 242.6 10.45
10 -3 -5 251.04 10.15
10 3 -4 21.57 3.08
10 -3 -4 16.16 2.91
10 -3 -4 14.41 2.58
10 -3 -4 17.67 2.61
10 3 -3 391.37 14.87
10 -3 -3 383.33 14.75
10 -3 -3 414.97 14.12
10 3 -3 394.08 15.26
10 -3 -3 388.39 15.11
10 3 -2 57.31 4.89
10 -3 -2 55.86 4.84
10 -3 -2 58.85 4.22
10 3 -1 27.98 3.69
10 -3 -1 23.44 3.5
10 3 -1 23.73 3.42
10 3 0 41.35 4.26
10 -3 0 40.47 4.16
10 3 0 37.78 4.13
10 3 1 377.35 14.2
10 -3 1 333.86 12.88
10 3 2 32.87 3.73
10 -3 2 20.79 2.75
10 3 3 251.14 10.8
10 -3 3 220.11 9.48
10 3 3 259.79 10.99
10 -3 3 257.11 10.98
10 3 4 6.56 1.82
10 -3 4 2.07 1.36
10 3 4 4.21 1.87
10 -3 4 4.55 1.81
10 3 4 2.61 2.01
10 -3 4 0.33 1.27
10 3 5 13 2.64
10 -3 5 13.99 2.67
10 3 5 9.38 2.34
10 -3 5 11.62 2.69
10 -3 5 10.13 1.87
10 3 6 73 5.06
10 -3 6 66.6 5
10 3 6 68.87 4.9
10 -3 6 59.88 4.78
10 3 7 157.71 7.77
10 -3 7 157.66 7.88
10 3 7 155.81 7.54
10 -3 7 147.94 7.53
10 3 8 42.95 3.81
10 -3 8 42.3 3.93
10 3 8 44.98 3.78
10 -3 8 36.7 3.68
10 3 9 191.44 8.37
10 -3 9 176.73 8.29
10 3 9 167.98 7.71
10 -3 9 180.54 8.08
10 3 9 177.82 7.97
10 3 10 25.44 2.82
10 -3 10 27.7 2.97
10 3 10 27.75 2.95
10 3 11 159.38 6.91
10 -3 11 156.86 7.03
10 3 11 157.76 6.96
10 3 12 21.08 2.28
10 -3 12 16.74 2.29
10 3 12 20.47 2.41
10 3 13 41.3 2.94
10 -3 13 41.84 3.01
10 3 13 45.93 3.1
10 3 14 3.93 1.37
10 -3 14 4.77 1.54
10 3 14 3.84 1.51
10 4 -19 23.58 1.87
10 -4 -19 25.14 2.03
-10 4 19 24.99 1.96
-10 -4 19 30.45 2.26
10 4 -18 21.02 1.97
10 -4 -18 22.35 2.08
-10 4 18 22.42 2.04
-10 -4 18 26.31 2.3
10 4 -17 220.6 7.95
10 -4 -17 228.62 8.2
10 4 -16 17.89 2.05
10 -4 -16 21.19 2.29
10 4 -15 19.63 2.17
10 -4 -15 21.43 2.29
-10 -4 15 23.22 2.8
10 4 -14 3.97 1.55
10 -4 -14 6.5 1.77
-10 -4 14 5 1.88
10 4 -13 122.55 5.95
10 -4 -13 140.81 6.39
-10 -4 13 138.12 6.77
10 4 -12 23.42 2.54
10 -4 -12 16.76 2.52
-10 -4 12 20.53 2.89
10 4 -11 233.45 9.2
10 -4 -11 242.11 9.45
-10 -4 11 232.29 9.74
10 4 -10 8.27 1.98
10 -4 -10 14.71 2.35
10 4 -9 3.15 1.37
10 -4 -9 5.64 1.68
10 -4 -9 1.15 1.65
10 4 -8 39.91 3.58
10 -4 -8 37.81 3.51
10 -4 -8 31.34 3.46
10 4 -7 161.5 7.69
10 -4 -7 165.33 7.72
10 -4 -7 172.07 7.99
10 4 -6 8.29 2.07
10 -4 -6 9.69 2.15
10 -4 -6 10.14 2.34
10 4 -5 214.69 9.5
10 -4 -5 224.63 9.6
10 -4 -5 228.22 9.48
10 4 -4 7.87 2.01
10 -4 -4 7.89 2.1
10 -4 -4 5.4 1.97
10 4 -3 77.28 5.24
10 -4 -3 76.98 5.26
10 -4 -3 77.94 4.96
10 4 -3 79.32 5.44
10 4 -2 10.9 2.18
10 -4 -2 11.65 2.33
10 -4 -2 6.3 1.96
10 4 -2 6.21 2.2
10 4 -1 456.62 16.79
10 -4 -1 491.19 17.15
10 -4 -1 486.43 16.01
10 4 -1 499.37 17.29
10 -4 0 0.93 1.41
10 4 0 3.05 2.06
10 -4 0 2.53 1.56
10 -4 1 176.17 7.32
10 4 1 182.01 8.7
10 -4 1 164.62 7.51
10 4 2 2.56 1.63
10 -4 2 2.6 1.42
10 4 2 -0.22 1.91
10 -4 2 1.67 1.25
10 4 3 180.21 8.51
10 -4 3 180.81 8.6
10 4 3 196.72 9.13
10 4 3 204.39 9.05
10 -4 3 195.97 9
10 4 4 -0.2 1.61
10 -4 4 0.84 1.59
10 4 4 1.51 1.74
10 -4 4 1.78 1.91
10 4 4 2.06 2.05
10 4 5 182.84 8.42
10 -4 5 182.69 8.53
10 4 5 167.76 7.99
10 -4 5 178.97 8.29
10 4 5 187.35 8.63
10 4 6 10.73 2.23
10 -4 6 17.97 2.69
10 4 6 11.79 2.44
10 -4 6 10.85 2.31
10 4 6 8.88 2.26
10 4 7 23.39 2.72
10 -4 7 24.26 2.78
10 4 7 20.96 2.63
10 -4 7 21.79 2.7
10 4 7 22.78 2.97
10 4 8 3.55 1.4
10 -4 8 2.6 1.48
10 4 8 5.1 1.57
10 -4 8 4.79 1.65
10 4 8 2.81 1.88
10 4 9 182.09 7.45
10 -4 9 167 7.43
10 4 10 42.09 3.14
10 -4 10 42.31 3.25
10 4 11 129.98 5.69
10 -4 11 130.52 5.85
10 4 12 18.77 1.93
10 -4 12 23.68 2.17
10 4 13 2.54 1.06
10 -4 13 3.14 1.16
10 4 13 0.67 1.33
10 5 -19 15.06 1.75
-10 -5 19 18.87 2.06
10 5 -18 -0.13 0.85
-10 -5 18 0.31 0.85
-10 -5 18 1.35 1.31
10 5 -17 37.44 2.43
-10 -5 17 39.16 2.67
10 5 -16 4.87 1.19
-10 -5 16 5.43 1.73
10 5 -15 305.76 10.46
-10 -5 15 362.39 11.97
10 5 -14 51.66 3.25
10 -5 -14 55.27 3.49
-10 -5 14 61.04 4.15
10 5 -13 29.98 2.59
10 -5 -13 26.38 2.54
-10 -5 13 31.64 3.22
10 5 -12 1.89 1.3
10 -5 -12 0.94 1.28
-10 -5 12 2.06 1.74
10 5 -11 33.07 2.82
10 -5 -11 33.09 2.9
-10 -5 11 30.84 3.24
10 5 -10 22.06 2.56
10 -5 -10 31.08 3.01
-10 -5 10 27.68 3.19
10 5 -9 295.08 10.85
10 -5 -9 298.4 10.97
10 -5 -9 314.65 11.84
10 5 -8 42.78 3.49
10 -5 -8 50.11 3.79
10 -5 -8 43.76 3.98
10 5 -7 44.83 3.41
10 -5 -7 45.27 3.48
10 -5 -7 35.78 3.6
10 5 -6 4.64 1.82
10 -5 -6 1.54 1.52
10 -5 -6 5.33 2
10 5 -6 0.87 1.56
10 5 -5 55.84 4.09
10 -5 -5 60.84 4.26
10 -5 -5 57.97 4.37
10 5 -5 56.19 4.19
10 5 -4 12.41 2.1
10 -5 -4 15.91 2.34
10 -5 -4 10.67 2.36
10 5 -4 9.7 2.25
10 5 -3 325.96 12.37
10 -5 -3 343.98 12.65
10 -5 -3 351.85 12.68
10 5 -3 340.46 12.76
10 5 -2 56.02 3.99
10 -5 -2 56.18 4.17
10 5 -2 53.81 4.32
10 5 -1 3.65 1.33
10 -5 -1 4.72 1.74
10 5 -1 2.56 2
10 5 0 7.62 1.62
10 -5 0 10.09 1.85
10 5 0 6.88 1.48
10 -5 0 5.82 1.81
10 5 0 6.32 2.18
10 5 1 218.55 8.39
10 -5 1 234.9 8.89
10 5 1 257.46 10.26
10 5 1 240.67 9.71
10 -5 1 207.23 9.36
10 5 2 9.8 2.15
10 -5 2 10.55 2.34
10 5 2 11.14 1.78
10 5 2 8.11 2.05
10 -5 2 14.76 2.43
10 5 2 13.31 2.62
10 5 3 82.96 5.03
10 -5 3 74.11 4.98
10 5 3 87.29 4.4
10 5 3 77.54 4.78
10 -5 3 73.56 4.85
10 5 3 87.18 5.52
10 5 4 25.32 2.86
10 -5 4 19.34 2.66
10 5 4 23.51 2.34
10 5 4 22.19 2.68
10 -5 4 24.41 2.89
10 5 4 25.5 3.14
10 5 5 3.51 1.61
10 -5 5 1.06 1.35
10 5 5 1.31 1.17
10 5 5 1.19 1.51
10 -5 5 4.05 1.64
10 5 5 2.39 1.95
10 5 6 131.66 6.42
10 -5 6 120.78 6.42
10 5 6 140.43 6.23
10 -5 6 122.58 6.17
10 5 7 292.3 10.62
10 5 7 266.9 10.01
10 -5 7 290.01 10.42
10 5 7 306.42 11.16
10 5 8 10.03 1.82
10 -5 8 8.59 1.89
10 5 8 11.63 2.3
10 5 9 19.23 2.1
10 5 9 19.25 2.49
10 5 10 5.37 1.21
10 5 10 3.09 1.61
10 5 11 1.83 1.07
10 5 11 3.83 1.51
10 5 12 20.97 1.68
10 5 12 27.33 2.52
10 6 -17 13.27 1.78
-10 -6 17 18.82 2.14
10 6 -16 1 1.2
-10 -6 16 1.23 1.38
-10 -6 15 31.45 2.88
-10 -6 14 26.09 2.69
-10 -6 13 131.26 6.35
-10 -6 12 228.39 9.2
10 -6 -11 64.73 4.42
-10 -6 11 65.73 4.37
10 6 -11 53.37 3.27
-10 -6 10 22.16 2.82
10 6 -10 18.76 2.09
-10 -6 9 3.76 1.88
10 6 -9 2.63 1.44
10 -6 -8 8.46 2.29
10 6 -8 5.62 1.6
10 -6 -7 209.74 9.05
10 6 -7 209.93 8.3
10 6 -6 223.05 9.03
10 -6 -6 225.82 9.47
10 6 -6 215.17 8.71
10 6 -5 24.78 2.85
10 -6 -5 26.08 3.05
10 6 -5 26.2 2.9
10 6 -4 1.28 1.43
10 -6 -4 0.55 1.78
10 6 -4 2.08 1.56
10 6 -3 1.69 1.4
10 -6 -3 0.18 1.8
10 6 -3 0.82 1.62
10 6 -2 77.48 4.5
10 -6 -2 78.89 4.95
10 6 -2 68.68 4.62
10 -6 -1 303.37 11.17
10 6 -1 293.25 11.21
10 -6 0 144.2 6.63
10 6 0 138.69 6.82
10 6 1 3.02 1.42
10 -6 1 2.11 1.31
10 6 1 3.09 1.72
10 6 2 4.63 1.45
10 6 2 2.56 1.64
10 6 3 7.02 1.58
10 6 3 6.91 1.99
10 6 4 220.57 8.32
10 6 4 237.64 9.39
10 6 5 227.94 8.42
10 6 5 239.57 9.43
10 6 6 31.54 2.58
10 6 6 30.98 3.09
10 6 7 0.21 1.05
10 6 7 -0.59 1.44
10 6 8 7.75 1.43
10 6 8 6.59 1.82
10 6 9 11.07 1.95
10 6 10 104.92 5.01
10 6 11 162.55 6.45
10 7 -16 66.49 3.5
-10 -7 16 75.95 3.83
10 7 -15 5.28 1.44
-10 -7 15 7.54 1.7
10 7 -14 86.2 4.38
-10 -7 14 90.31 4.62
10 7 -13 126.58 5.84
-10 -7 13 149.86 6.33
-10 -7 12 53.78 3.71
10 -7 -11 90.47 5.09
-10 -7 11 84.78 4.84
10 7 -10 291.44 10.7
-10 -7 10 315.21 11.13
10 7 -9 4.36 1.62
-10 -7 9 4.94 1.94
10 7 -8 109.82 5.52
10 -7 -8 109.75 5.89
-10 -7 8 106.36 5.68
10 7 -7 22.95 2.55
10 -7 -7 18.97 2.72
-10 -7 7 23.14 2.78
10 7 -7 18.01 1.95
10 7 -6 0.45 1.36
10 -7 -6 1.93 1.81
10 7 -6 1.8 1.19
10 7 -5 85.56 4.77
10 -7 -5 94.63 5.36
10 7 -5 83.98 4.39
10 7 -4 290.95 10.48
10 -7 -4 308.34 11.29
10 7 -4 280.41 10.09
10 7 -3 32.22 2.85
10 -7 -3 38.49 3.39
10 7 -3 32.16 2.83
10 7 -2 23.29 2.37
10 -7 -2 25.1 2.91
10 7 -2 24.69 2.57
10 -7 -1 8.04 1.91
10 7 -1 4.68 1.43
10 -7 0 1.89 1.41
10 7 0 1.26 1.32
10 7 1 6.03 1.51
10 7 1 6.19 1.68
10 7 2 328.44 11.13
10 7 2 339.09 11.63
10 7 3 41.2 3.01
10 7 3 46.08 3.41
10 7 4 11.23 1.72
10 7 4 8.95 1.84
10 7 5 10.89 1.73
10 7 5 8.7 1.84
10 7 6 50.24 3.1
10 7 6 55.61 3.54
10 7 7 9.86 1.49
10 7 7 7.75 1.72
10 7 8 216.03 7.56
10 7 8 231.67 8.19
10 7 9 48.61 2.79
10 7 9 55.57 3.26
10 8 -13 8.7 1.62
-10 -8 13 10.44 1.66
-10 -8 12 89.36 4.35
10 -8 -11 21.48 2.52
-10 -8 11 22.85 2.39
10 8 -10 217.67 8.13
10 -8 -10 224.41 8.58
-10 -8 10 215.12 8.14
10 8 -9 27.45 2.54
-10 -8 9 27.6 2.58
10 8 -8 135.71 6.04
-10 -8 8 144.01 6.21
10 8 -7 7.91 1.67
10 -8 -7 10.88 2.16
-10 -8 7 7.72 1.82
10 8 -6 183.93 7.39
10 -8 -6 195.22 8.07
-10 -8 6 193.52 7.6
10 8 -5 1.84 1.25
10 -8 -5 -0.47 1.5
-10 -8 5 2.67 1.48
10 8 -4 14.55 1.86
10 -8 -4 13.84 2.29
-10 -8 4 12.87 1.98
10 8 -3 5.7 1.4
10 -8 -3 6.87 1.88
10 -8 -2 151.09 6.52
10 8 -2 126.12 5.25
10 -8 -1 14.61 2.17
10 8 -1 13.16 1.77
10 -8 0 294.17 9.82
10 8 0 251.24 8.93
10 8 1 6.62 1.46
10 8 1 5.16 1.31
10 8 2 1.6 1.08
10 8 2 2.43 1.15
10 8 3 11.11 1.67
10 8 3 11.03 1.62
10 8 4 107.78 4.73
10 8 4 105.67 4.66
10 8 5 14.92 1.79
10 8 5 14.81 1.76
10 8 6 150.26 5.74
10 8 6 157.3 5.86
10 8 7 6.16 1.29
10 8 7 4.58 1.18
10 9 -10 40.81 2.71
10 -9 -10 48.03 3.19
10 9 -9 6.29 1.42
10 9 -8 281.93 9.38
10 9 -7 37.82 2.63
10 -9 -7 40.09 3.06
10 9 -6 26.73 2.23
10 -9 -6 30.46 2.73
10 9 -5 26.76 2.19
10 -9 -5 25.6 2.55
10 9 -4 55.68 3.12
10 -9 -4 58.24 3.67
10 -9 -3 32.08 2.77
10 -9 -2 135.43 5.85
10 -9 -1 1.79 1.26
10 9 0 60.7 3.25
10 9 1 4.83 1.28
10 9 2 98.13 4.27
10 9 3 18.91 1.8
10 9 4 90.75 3.92
11 0 -19 -0.45 1.21
-11 0 19 -0.65 1.22
11 0 -18 284.88 9.63
11 0 -17 -0.58 1.39
11 0 -16 79.95 4.37
-11 0 16 73.55 3.82
11 0 -15 0.41 1.49
-11 0 15 -0.22 1.2
11 0 -14 11.04 2.04
-11 0 14 8.72 1.71
11 0 -13 0.15 1.56
-11 0 13 0.39 1.29
11 0 -12 434.12 14.45
-11 0 12 412.7 13.79
11 0 -11 0.65 1.68
-11 0 11 0.7 1.49
11 0 -10 402.88 14.05
11 0 -9 0.69 1.81
11 0 -8 11.84 2.47
11 0 -7 1.12 2.02
11 0 -6 703.24 22.41
11 0 -5 2.4 1.92
11 0 -4 593.32 19.84
11 0 -3 2.99 2.3
11 0 -2 10.94 2.71
11 0 -1 0.89 2.06
11 0 -1 1.02 1.81
11 0 0 147.25 7.61
11 0 1 0.2 2
11 0 2 626.62 20.95
11 0 2 680.29 21.99
11 0 3 0.91 1.8
11 0 3 1.14 1.83
11 0 4 1.55 1.71
11 0 4 0.21 1.96
11 0 4 2 1.76
11 0 5 4.3 1.76
11 0 5 -0.2 1.76
11 0 5 1.03 1.49
11 0 6 182.73 8.49
11 0 6 183.75 8.32
11 0 6 165.33 7.56
11 0 7 0.99 1.79
11 0 7 1.25 1.82
11 0 7 -0.15 1.47
11 0 8 883.14 27.02
11 0 8 884.96 26.23
11 0 9 1.06 1.62
11 0 9 1.4 1.69
11 0 9 0.85 1.24
11 0 10 62.82 4.06
11 0 11 -0.13 1.4
11 0 12 13.72 2.01
11 1 -18 46.18 3.02
-11 -1 18 48.91 2.82
11 1 -17 8.16 1.66
-11 -1 17 7.61 1.55
11 1 -16 87.99 4.62
-11 -1 16 90.92 4.47
11 1 -15 178.71 7.39
-11 -1 15 181.67 7.19
11 1 -14 23.71 2.63
-11 -1 14 24.73 2.55
11 1 -13 133.87 6.33
-11 1 13 129.43 5.66
-11 -1 13 135.09 6.16
11 1 -12 89.13 5.13
-11 1 12 93 4.64
-11 -1 12 89.67 4.98
11 1 -11 8.98 2.11
-11 1 11 9.77 1.85
-11 -1 11 9.37 2.04
11 1 -10 209.46 8.7
-11 1 10 196.56 7.89
11 1 -9 282.42 10.92
11 1 -8 0.53 1.74
11 1 -7 324.66 12.33
11 1 -6 137.66 7.17
11 1 -5 82.3 5.45
11 1 -4 109.38 6.6
11 1 -3 225.26 10.12
11 1 -2 104.85 6.62
11 1 -1 349.21 13.83
11 -1 -1 350.2 13.11
11 1 0 306.1 12.11
11 -1 0 294.52 11.68
11 1 1 80.74 5.51
11 -1 1 80.61 5.26
11 1 2 98.63 6.06
11 -1 2 93.79 5.67
11 -1 2 99.75 6.19
11 1 3 278.08 11.25
11 -1 3 267.08 10.79
11 -1 3 298.78 11.85
11 1 4 109.9 6.49
11 1 4 111.04 6.24
11 -1 4 106.58 5.8
11 -1 4 120.52 6.72
11 1 5 351.79 13.78
11 -1 5 383.37 13.22
11 1 5 376.5 13.66
11 -1 6 254.56 10.47
11 1 6 243.28 10.11
11 -1 6 247.11 9.41
11 1 6 240.47 9.8
11 -1 7 86.96 5.43
11 1 7 89.8 5.32
11 -1 7 74.1 4.34
11 1 7 85.22 4.95
11 -1 8 8.9 2.04
11 1 8 7.43 2.03
11 1 8 8.14 1.87
11 1 9 183.4 7.8
11 1 9 184.82 7.46
11 1 10 75.36 4.35
11 1 10 69.07 3.9
11 1 11 250.71 9.13
11 1 11 254.29 8.65
11 2 -18 2.07 1.23
11 -2 -18 0.84 1.2
-11 -2 18 1.08 1.12
11 2 -17 38.15 2.72
11 -2 -17 35.71 2.68
-11 -2 17 35.94 2.66
11 2 -16 62.42 3.65
11 -2 -16 60.33 3.72
-11 -2 16 65.15 3.79
11 2 -15 38.4 3.05
11 -2 -15 46.17 3.27
-11 -2 15 42.07 3.17
11 2 -14 375.81 12.66
11 -2 -14 386.88 12.84
-11 -2 14 377.01 12.75
11 2 -13 143.5 6.49
11 -2 -13 150.32 6.68
-11 -2 13 139.38 6.49
11 2 -12 43.24 3.43
11 -2 -12 44.47 3.53
-11 -2 12 39.14 3.36
11 2 -11 3.37 1.64
11 -2 -11 5.07 1.91
-11 -2 11 3.23 1.77
11 2 -10 43.92 3.57
11 -2 -10 44.53 3.61
11 2 -9 15.37 2.56
11 -2 -9 12.86 2.35
-11 2 9 15.41 1.99
11 2 -8 520.24 17.21
11 -2 -8 520.65 17.27
11 2 -7 62.22 4.54
11 -2 -7 64.04 4.59
11 2 -6 48.78 4.15
11 -2 -6 57.84 4.45
11 2 -5 15 2.77
11 -2 -5 11.35 2.67
11 2 -4 46.09 4.2
11 -2 -4 53.79 4.42
11 2 -3 202.04 9.23
11 -2 -3 198.72 9.17
11 2 -2 701.65 22.48
11 -2 -2 687.35 22.32
11 2 -2 673.79 22.07
11 2 -1 37.63 4.09
11 -2 -1 36.12 4.03
11 2 -1 37.38 3.94
11 -2 -1 37.04 3.5
11 -2 0 272.86 10.72
11 -2 1 30.75 3.2
11 -2 2 23.05 2.82
11 2 2 23.39 3.16
11 -2 2 28.97 3.33
11 2 3 54.27 4.54
11 -2 3 54.94 4.52
11 -2 3 58.77 4.07
11 2 3 61.87 4.74
11 -2 3 63.62 4.79
11 2 4 522.93 17.85
11 -2 4 533.08 17.97
11 -2 4 490.4 16.64
11 2 4 552.43 17.95
11 2 4 554.81 18.35
11 -2 4 550.92 18.25
11 2 5 39.98 3.84
11 -2 5 42.97 4
11 2 5 37.52 3.69
11 -2 5 42.12 3.85
11 -2 5 33.33 2.95
11 2 5 42.03 3.73
11 2 6 331.88 12.2
11 -2 6 314.65 11.94
11 2 6 296.42 11.56
11 -2 6 300.97 11.57
11 2 6 306.78 11.56
11 2 7 53.73 4.22
11 -2 7 61.53 4.43
11 2 7 55.1 4.12
11 -2 7 57.43 4.17
11 2 7 56.27 4.07
11 2 8 4.93 1.68
11 -2 8 5.95 1.72
11 2 8 5.73 1.71
11 -2 8 8.09 1.91
11 2 8 4.45 1.79
11 2 9 114.76 5.65
11 -2 9 109.75 5.61
11 2 9 112.8 5.53
11 2 10 456.59 14.44
11 -2 10 451.61 14.43
11 2 10 441.02 14.21
11 2 11 11.15 1.96
11 -2 11 12.99 2.04
11 2 11 12.3 1.81
11 3 -17 398.93 12.47
11 -3 -17 419.59 12.71
-11 -3 17 418.95 12.95
11 3 -16 59.83 3.4
11 -3 -16 54.69 3.38
11 3 -15 -0.55 1.28
11 -3 -15 1.28 1.32
-11 -3 15 1.01 1.35
11 3 -14 12.05 1.9
11 -3 -14 10.88 1.89
-11 -3 14 10.06 1.99
11 3 -13 74.43 4.15
11 -3 -13 74.84 4.31
-11 -3 13 68.79 4.3
11 3 -12 7.7 1.8
11 -3 -12 8.26 1.95
11 3 -11 537.95 17.6
11 -3 -11 598.48 18.04
11 3 -10 14.16 2.29
11 -3 -10 11.04 2.16
11 3 -9 43.42 3.47
11 -3 -9 36.59 3.41
11 3 -8 9.55 2.14
11 -3 -8 8.98 1.94
11 3 -7 58.83 4.26
11 -3 -7 71.29 4.61
11 3 -6 41.15 3.62
11 -3 -6 44.46 3.85
11 3 -5 1045.24 31.67
11 -3 -5 1119.15 31.91
11 3 -4 114.41 6.35
11 -3 -4 116.85 6.42
11 3 -4 117.9 6.43
11 3 -3 187.58 8.78
11 -3 -3 213.72 9.1
11 3 -3 197.11 8.85
11 3 -2 23.68 3.1
11 -3 -2 25.01 3.17
11 3 -2 20.31 2.97
11 3 -1 6.46 2.22
11 -3 -1 6.21 1.83
11 3 0 15.94 2.9
11 -3 0 12.87 2.2
11 3 1 942.09 28.33
11 3 1 980.57 28.6
11 -3 1 969 28.45
11 3 2 22.69 2.96
11 -3 2 18.27 2.79
11 3 2 21.73 2.9
11 -3 2 16.27 2.72
11 3 2 21.25 2.99
11 -3 2 17.1 2.38
11 3 3 161.87 7.68
11 -3 3 158.09 7.56
11 3 3 155.79 7.7
11 3 3 173.97 8.02
11 -3 3 163.79 7.81
11 3 4 14 2.34
11 -3 4 13.19 2.34
11 -3 4 18.78 2.7
11 3 4 11.57 2.27
11 3 5 3.88 1.73
11 -3 5 2.37 1.64
11 3 5 4.69 1.87
11 -3 5 3.7 1.82
11 3 6 2.84 1.75
11 -3 6 4.91 1.96
11 3 6 1.9 1.54
11 -3 6 3.35 1.9
11 3 7 556.47 17.66
11 -3 7 547.98 17.61
11 3 7 542.57 17.2
11 -3 7 522.7 17.12
11 3 8 1.36 1.44
11 -3 8 2.34 1.58
11 3 8 2.75 1.69
11 3 9 320.33 10.99
11 -3 9 329.52 11.07
11 3 9 324.58 11.22
11 3 10 41.79 2.9
11 -3 10 39.63 2.88
11 3 10 44.93 3.18
11 4 -17 16.28 1.48
-11 -4 17 18.75 1.73
11 4 -16 54.68 2.97
11 -4 -16 61.88 3.18
11 4 -15 26.05 2.15
11 -4 -15 27.89 2.31
11 4 -14 95.52 4.46
11 -4 -14 98.63 4.64
11 4 -13 253.45 8.9
11 -4 -13 251.96 9.05
11 4 -12 26.52 2.44
11 -4 -12 29.07 2.68
-11 -4 12 24.89 2.74
11 4 -11 12.69 1.9
11 -4 -11 9.5 1.9
-11 -4 11 10.41 2.15
11 4 -10 78.23 4.42
11 -4 -10 86.26 4.67
-11 -4 10 83.77 4.97
11 4 -9 90.67 4.87
11 -4 -9 93.12 5.01
11 4 -8 103.36 5.4
11 -4 -8 113 5.62
11 4 -7 308.69 11.22
11 -4 -7 314.41 11.36
11 4 -6 178.19 7.81
11 -4 -6 201.47 8.18
11 4 -6 181.82 7.94
11 4 -5 8.33 1.91
11 -4 -5 7.17 1.88
11 4 -5 5.94 1.95
11 4 -4 202.6 8.47
11 -4 -4 202.37 8.51
11 4 -4 191.1 8.44
11 4 -3 171.77 7.68
11 -4 -3 164.87 7.63
11 4 -3 176.37 7.9
11 4 -2 194.35 8.44
11 -4 -2 181.16 7.48
11 -4 -1 154.02 7.19
11 4 -1 149.29 7.34
11 4 0 196.02 8.59
11 4 0 203.23 8.55
11 -4 0 179.62 8.17
11 4 1 77.58 4.84
11 -4 1 81.76 4.89
11 4 1 95.83 5.51
11 4 1 89.01 5.23
11 -4 1 84.72 5.11
11 4 2 212.03 8.75
11 -4 2 220.64 8.86
11 4 2 226.62 9.28
11 4 2 229.08 9.17
11 -4 2 200.24 8.82
11 4 3 135.48 6.54
11 4 3 122.46 6.11
11 -4 3 137.46 6.39
11 4 3 135.37 6.67
11 4 4 276.16 10.35
11 -4 4 266.88 10.23
11 4 4 260.58 9.89
11 -4 4 261.19 9.95
11 4 4 278.81 10.54
11 4 5 47.26 3.63
11 -4 5 45.96 3.56
11 4 5 44.43 3.36
11 -4 5 41.76 3.33
11 4 5 46.23 3.72
11 4 6 212.61 8.4
11 -4 6 194.26 8.17
11 4 6 194.07 7.85
11 -4 6 210.3 8.08
11 4 6 218.47 8.61
11 4 7 128.56 5.72
11 -4 7 128.45 5.75
11 4 7 141.74 6.39
11 4 8 176.18 6.79
11 -4 8 177.66 6.84
11 4 9 83.26 4.04
11 -4 9 95.54 4.23
11 4 10 94.92 4.05
11 5 -15 213.63 7.2
-11 -5 15 229.62 7.54
11 5 -14 3.31 1
-11 -5 14 2.87 1.49
11 5 -14 3.01 0.89
11 5 -13 112.03 4.65
11 5 -13 110.64 4.57
11 5 -12 4.14 1.24
-11 -5 12 4.38 1.63
11 5 -12 3.78 1.2
11 5 -11 1.6 1.08
-11 -5 11 0.71 1.43
11 5 -11 1.43 1.05
11 5 -10 38.09 2.69
-11 -5 10 42.56 3.47
11 5 -10 42.3 2.85
11 5 -9 343.3 11.7
11 -5 -9 372.19 12.01
-11 -5 9 375.05 12.74
11 5 -9 366.87 11.97
11 5 -8 5.42 1.42
11 -5 -8 5.73 1.56
11 5 -8 4.93 1.51
11 5 -7 259.39 9.46
11 -5 -7 266.31 9.64
11 5 -7 282.25 9.87
11 5 -6 7.34 1.67
11 -5 -6 9.94 1.85
11 5 -6 7.86 1.62
11 5 -6 7.62 1.76
11 5 -5 22.88 2.32
11 5 -5 18.66 2.31
11 5 -4 46.99 3.53
11 -5 -3 199.87 8.17
11 5 -3 224.34 8.66
11 5 -2 8.27 1.56
11 -5 -2 11.23 1.71
11 5 -2 7.69 1.97
11 5 -1 572.51 17.62
11 5 -1 579.04 17.92
11 -5 -1 537.82 17.71
11 5 0 13.22 2.09
11 -5 0 17.52 2.22
11 -5 0 20.14 2.28
11 5 0 12.41 1.96
11 5 0 19.64 2.58
11 5 1 5.45 1.53
11 -5 1 4.17 1.46
11 5 1 3.5 1.45
11 -5 1 4.44 1.5
11 5 1 5.76 1.76
11 5 2 21.77 2.38
11 5 2 21.86 2.34
11 -5 2 22.11 2.37
11 5 2 22.31 2.69
11 5 3 198.66 7.72
11 5 3 230.7 8.8
11 5 4 16.74 2.01
11 5 4 17.05 2.39
11 5 5 574.36 17.59
11 5 5 654.58 18.92
11 5 6 48.21 2.93
11 5 6 55.57 3.69
11 5 7 19.43 1.77
11 5 7 24.62 2.5
11 5 8 2.63 0.97
11 5 8 2.08 1.45
-11 -6 14 1.65 1.47
-11 -6 13 37.04 2.86
11 6 -12 342.72 11.39
-11 -6 12 371.5 11.93
11 6 -11 22.72 2.19
-11 -6 11 21.66 2.42
11 6 -10 285.64 9.76
11 6 -10 264.2 8.85
11 6 -9 70.26 3.89
-11 -6 9 76.98 4.42
11 6 -9 69.61 3.49
11 6 -8 3.16 1.27
-11 -6 8 3.62 1.63
11 6 -8 1.83 1.08
11 6 -7 54.31 3.38
11 6 -7 52.93 3.2
11 6 -6 254.12 8.81
11 6 -6 237.93 8.61
11 6 -5 0.55 1.06
11 6 -5 -0.23 1.28
11 6 -4 272.22 9.58
11 6 -3 179.8 7.14
11 6 -2 1.38 1.3
11 6 -1 36.32 2.88
11 6 0 198.54 7.76
11 6 1 17.7 2.22
11 6 2 480.95 15.16
11 6 3 71.29 4.1
11 6 4 8.59 1.7
11 6 5 12.81 1.89
11 6 6 46.35 3.1
11 6 7 63.87 3.56
11 7 -11 246.23 8.47
-11 -7 11 262.82 8.86
11 7 -10 73.21 3.72
-11 -7 10 80.73 4.12
11 7 -9 39.62 2.64
-11 -7 9 40.55 2.96
11 7 -8 6.1 1.29
-11 -7 8 4.44 1.51
11 7 -7 51.12 3.01
-11 -7 7 55.08 3.46
11 7 -6 175.37 6.41
11 7 -6 154.71 5.84
-11 -7 5 293.38 9.97
11 7 -5 278 8.98
11 7 -4 22.32 1.92
11 7 -3 85.31 3.9
11 7 -2 7.84 1.35
11 7 -1 61.46 3.29
11 7 0 186.25 6.78
11 7 1 270.97 9.03
11 7 2 45.16 2.8
11 7 3 135.51 5.39
11 7 4 28.92 2.22
11 8 -7 5.56 1.18
-11 -8 7 6.71 1.46
-11 -8 6 5.73 1.29
-11 -8 5 5.42 1.31
-11 -8 4 1.82 1.07
-11 -8 3 4.6 1.21
-11 -8 2 409.87 12.08
-11 -8 1 2.39 1.01
-11 -8 0 57.44 2.65
12 0 -15 -0.69 1.35
12 0 -14 690.9 20.16
12 0 -13 -0.59 1.48
12 0 -12 286.12 9.85
-12 0 12 263.48 9.06
12 0 -11 0.66 1.38
-12 0 11 0.21 1.13
12 0 -10 2.05 1.5
-12 0 10 3.75 1.35
12 0 -9 0.42 1.66
-12 0 9 2.76 1.37
12 0 -8 642.83 19.78
12 0 -7 0.15 1.52
12 0 -6 310.1 11.3
12 0 -5 1.25 1.65
12 0 -4 8.9 2.09
12 0 -4 8.04 1.81
12 0 -3 0.65 1.71
12 0 -3 -0.44 1.35
12 0 -2 227.48 8.93
12 0 -1 -0.29 1.47
12 0 0 706.58 21.06
12 0 0 675.27 21.41
12 0 1 5.37 1.52
12 0 1 2.53 1.63
12 0 2 9.95 2
12 0 2 9.97 2.03
12 0 2 9.87 1.87
12 0 3 -0.16 1.42
12 0 3 -1.19 1.63
12 0 3 0.64 1.21
12 0 4 125.75 6.1
12 0 4 121.24 5.87
12 0 4 121.88 5.47
12 0 5 0.3 1.23
12 0 5 1.21 1.51
12 0 5 1.65 1.24
12 0 6 500.31 15.76
12 0 6 491.98 15.43
12 0 6 483.51 14.74
12 0 7 1.49 1.43
12 0 7 0.76 0.99
12 1 -15 190.21 6.79
-12 -1 15 170.51 6.24
12 1 -14 40.56 2.91
-12 -1 14 44.31 2.72
12 1 -13 74.58 4.1
-12 -1 13 75.72 3.86
12 1 -12 198.94 7.83
-12 -1 12 205.05 7.54
12 1 -11 319.18 11.09
-12 -1 11 324.83 10.84
12 1 -10 3.99 1.59
-12 -1 10 3.61 1.48
12 1 -9 278.73 10.13
-12 -1 9 274.3 9.8
12 1 -8 117.46 5.76
-12 1 8 108.6 4.91
12 1 -7 51.72 3.81
12 1 -6 208.42 8.5
12 1 -5 249.52 9.68
12 1 -4 6.09 1.9
12 -1 -4 6.15 1.82
12 -1 -3 252.87 9.48
12 -1 -2 170.92 7.2
12 -1 -1 30.43 3
12 1 -1 39.99 3.29
12 -1 -1 31.2 2.86
12 1 0 82.71 4.75
12 -1 0 83.59 4.53
12 -1 0 72.37 4.64
12 1 1 108.49 5.65
12 1 1 111.4 5.61
12 -1 1 116.61 5.42
12 -1 1 106.43 5.69
12 1 2 53.14 3.79
12 -1 2 48.96 3.32
12 1 2 50.4 3.6
12 -1 2 48.22 3.71
12 -1 3 180.88 7.66
12 1 3 169.31 7.43
12 -1 3 179.04 6.96
12 1 3 175 7.27
12 -1 4 150.98 6.74
12 1 4 140.67 6.49
12 -1 4 146.49 5.93
12 1 4 149.69 6.4
12 -1 5 17.24 2.25
12 1 5 17.9 2.23
12 1 5 16.46 2.03
12 -1 6 29.72 2.71
12 1 6 30.39 2.69
12 1 6 30.2 2.51
12 1 7 53.13 3.28
12 1 7 41.21 2.82
12 2 -14 30.61 2.45
12 -2 -14 31.55 2.54
-12 -2 14 32.51 2.46
12 2 -13 8.32 1.63
12 -2 -13 12.12 1.83
-12 -2 13 7.93 1.63
12 2 -12 93.71 4.59
12 -2 -12 96.93 4.73
-12 -2 12 91.01 4.58
12 2 -11 28.82 2.64
12 -2 -11 28.69 2.66
-12 -2 11 28.92 2.68
12 2 -10 516.16 16.15
12 -2 -10 519.78 16.28
-12 -2 10 528.8 16.23
12 2 -9 122.29 5.72
12 -2 -9 129.96 5.87
-12 -2 9 111.98 5.53
12 2 -8 62.88 4.04
12 -2 -8 74.24 4.32
12 2 -7 -0.55 1.59
12 -2 -7 -0.42 1.68
12 2 -6 103.53 5.35
12 -2 -6 96.06 5.27
12 2 -6 110.08 5.37
12 2 -5 71.18 4.38
12 -2 -5 76.19 4.49
12 2 -5 61.74 4.1
12 2 -4 493.73 15.69
12 -2 -4 498.83 15.79
12 2 -4 454.43 15.37
12 -2 -4 469.12 15.07
12 2 -3 89.71 5.04
12 -2 -3 100.38 4.93
12 2 -2 90.93 4.98
12 -2 -2 90.27 4.65
12 -2 -1 43.36 3.09
12 2 -1 44.43 3.49
12 -2 -1 38.08 3.27
12 2 0 5.82 1.69
12 -2 0 4.49 1.66
12 -2 0 7.79 1.6
12 2 1 107.99 5.49
12 -2 1 113.79 5.6
12 -2 1 104.53 4.95
12 2 1 103.94 5.52
12 -2 1 116.34 5.72
12 2 2 426.81 14.12
12 -2 2 401.23 13.87
12 2 2 412.98 13.81
12 -2 2 430.88 13.87
12 2 3 34.41 3.13
12 -2 3 38.48 3.24
12 2 3 36.81 3.09
12 -2 3 46.3 3.33
12 2 3 45.95 3.34
12 2 4 92.83 4.86
12 -2 4 79.74 4.59
12 2 4 90.66 4.68
12 -2 4 82.97 4.49
12 2 4 85.59 4.59
12 2 5 27.35 2.62
12 -2 5 28.67 2.67
12 2 5 31.68 2.65
12 -2 5 31.64 2.67
12 2 5 28.47 2.58
12 2 6 0.66 1.33
12 -2 6 1.43 1.3
12 2 6 -0.76 1.19
12 2 7 77.25 3.99
12 -2 7 83.57 4.07
12 2 7 78.14 3.94
12 3 -13 544.07 16.22
12 -3 -13 567.1 16.43
-12 -3 13 562.19 16.66
12 3 -12 15.47 1.89
12 -3 -12 13.78 1.87
-12 -3 12 17.04 2.09
12 3 -11 25.33 2.26
12 -3 -11 23.57 2.29
-12 -3 11 25.57 2.48
12 3 -10 3.84 1.39
12 -3 -10 3.6 1.41
-12 -3 10 4.31 1.58
12 3 -9 100.98 4.89
12 -3 -9 109.38 5.18
12 3 -9 107.64 5
12 3 -8 23.7 2.42
12 -3 -8 26.29 2.55
12 3 -8 23.43 2.39
12 3 -7 721.97 21.64
12 -3 -7 768.95 21.92
12 3 -7 722.31 21.65
12 3 -6 48.43 3.37
12 -3 -6 53.3 3.56
12 3 -6 47.82 3.36
12 3 -5 34.62 2.93
12 -3 -5 35.51 3.01
12 3 -5 33.06 2.92
12 -3 -5 36.53 2.77
12 3 -4 0.94 1.37
12 -3 -4 0.56 1.08
12 3 -3 8.58 1.82
12 -3 -3 7.08 1.52
12 3 -2 38.23 3.15
12 3 -2 42.7 3.07
12 -3 -2 40.54 2.98
12 3 -1 733.23 21.07
12 3 -1 682.31 20.87
12 -3 -1 671.96 20.78
12 3 0 6.59 1.69
12 -3 0 4.55 1.56
12 3 0 6.81 1.75
12 -3 0 8.11 1.75
12 3 0 6.8 1.74
12 3 1 134.26 6.09
12 -3 1 126.5 5.94
12 3 1 133.28 5.95
12 -3 1 130.51 5.9
12 3 1 139.22 6.12
12 3 2 7.57 1.66
12 -3 2 7.35 1.58
12 3 2 9.38 1.76
12 -3 2 8.15 1.7
12 3 2 7.83 1.79
12 3 3 -0.39 1.14
12 -3 3 1.14 1.16
12 3 3 1.86 1.08
12 3 4 16.97 2.04
12 3 4 16.88 2.06
12 -3 4 16.27 1.98
12 3 5 389.55 12.29
12 -3 5 393.19 12.3
12 3 6 0.82 1.26
12 -3 6 1.36 1.22
12 4 -12 148.56 5.52
12 4 -12 145.4 5.47
12 4 -11 68.94 3.34
12 -4 -11 67.74 3.42
12 4 -11 63.43 3.25
12 4 -10 133.99 5.34
12 -4 -10 144.08 5.58
-12 -4 10 137.22 5.92
12 4 -10 135.34 5.42
12 4 -9 89.43 4.23
12 -4 -9 101.91 4.52
-12 -4 9 99.73 4.84
12 4 -9 91.09 4.3
12 4 -8 131.75 5.33
12 -4 -8 133.82 5.47
12 4 -8 117.04 4.99
-12 -4 8 128.86 5.81
12 4 -8 127.77 5.37
12 4 -7 0.54 1.15
12 4 -6 153.27 6.28
12 4 -5 199.83 7.61
12 4 -4 118.42 5.37
12 4 -4 110.52 5.11
12 -4 -4 115.65 5.2
12 4 -3 157.95 6.48
12 4 -3 154.42 6.3
12 -4 -3 148.39 6.22
12 4 -2 176.49 6.74
12 -4 -2 179.96 6.85
12 4 -2 191.63 7.22
12 4 -2 165.16 6.8
12 -4 -2 166.99 6.81
12 4 -1 17.65 2.01
12 -4 -1 16 2
12 4 -1 22.4 2.07
12 -4 -1 23.85 2.17
12 4 -1 18.94 2.25
12 4 0 129.02 5.74
12 -4 0 126.97 5.67
12 4 0 139.65 5.67
12 -4 0 145.55 5.77
12 4 0 145.82 6.11
12 4 1 185.69 7.14
12 -4 1 209.4 7.39
12 4 1 210.16 7.78
12 -4 2 113.38 4.69
12 4 2 102.97 4.88
12 4 3 31.71 2.3
12 -4 3 37.01 2.5
12 4 3 33.51 2.72
12 4 4 100.08 4.28
12 -4 4 106.61 4.39
12 4 4 106.02 4.84
12 5 -10 4.02 1.16
-12 -5 10 4.56 1.62
12 5 -10 3.98 0.98
12 5 -9 271.06 8.65
-12 -5 9 288.57 9.54
12 5 -9 258.34 8.51
-12 -5 8 13.03 1.95
12 5 -8 10.46 1.41
-12 -5 7 2.59 1.57
12 5 -7 1.47 1.04
12 5 -6 15.25 1.74
12 5 -5 245.35 8.16
12 5 -5 278.51 8.86
12 5 -4 4.41 0.87
12 5 -4 -0.78 1.17
12 5 -3 301.89 9.68
12 5 -3 340.61 10.5
12 5 -2 32.92 2.1
12 5 -2 38.78 2.68
12 5 -1 5.16 1.1
12 5 -1 10.27 1.59
12 5 0 4.24 1
12 5 0 6.3 1.41
12 5 1 90.89 3.77
12 5 1 113.89 4.76
12 5 2 0.19 1.22
-12 -6 6 291.9 9.1
12 6 -6 247.21 8.05
-12 -6 5 43.51 2.88
12 6 -5 39.48 2.31
12 6 -4 0.63 0.87
12 6 -3 65.02 3.13
12 6 -2 142.87 5.27
13 0 -8 5.68 1.48
-13 0 7 -0.22 0.93
13 0 -7 0.55 1.18
-13 0 6 126.56 4.97
13 0 -6 134.05 5.33
13 0 -5 0.74 1.2
13 0 -4 26.01 2.19
13 0 -3 0.45 1.07
13 0 -2 52.97 3.19
13 0 -2 57.62 3.1
13 0 -1 -0.48 1.16
13 0 -1 1.5 1.1
13 0 0 163.96 6.11
13 0 0 155.43 5.78
-13 -1 7 0.6 1.11
13 -1 -7 1.9 1.18
13 -1 -6 0.69 1.05
13 -1 -5 0.95 1.03
13 -1 -4 58.37 3.1
13 1 -3 9.94 1.6
13 -1 -3 7.91 1.42
13 1 -2 73.83 3.72
13 1 -2 67.08 3.54
13 -1 -2 74.2 3.43
13 1 -1 0.74 1.15
13 -1 -1 1.27 0.97
13 1 -1 0.35 1.09
-13 -2 6 67.82 3.53
13 2 -6 68.53 3.47
13 -2 -6 65.54 3.23
13 2 -5 107.68 4.65
13 -2 -5 112.57 4.42
13 2 -4 29.3 2.29
13 -2 -4 26.25 1.95
13 2 -3 -0.43 1.15
13 -2 -3 0.53 1.06
13 -2 -3 0.07 0.82
