#------------------------------------------------------------------------------
#$Date: 2021-01-04 20:14:26 +0200 (Mon, 04 Jan 2021) $
#$Revision: 260466 $
#$URL: file:///home/coder/svn-repositories/cod/cif/7/12/77/7127748.cif $
#------------------------------------------------------------------------------
#
# This file is available in the Crystallography Open Database (COD),
# http://www.crystallography.net/
#
# All data on this site have been placed in the public domain by the
# contributors.
#
data_7127748
loop_
_publ_author_name
'Schneider, Matthew L.'
'Linder-Patton, Oliver M'
'Bloch, Witold M.'
_publ_section_title
;
 A covalent deprotection strategy for assembling supramolecular
 coordination polymers from metal-organic cages.
;
_journal_issue                   85
_journal_name_full
'Chemical communications (Cambridge, England)'
_journal_page_first              12969
_journal_page_last               12972
_journal_paper_doi               10.1039/d0cc05349j
_journal_volume                  56
_journal_year                    2020
_chemical_formula_sum            'C168 H124 Cu4 N12 O28'
_chemical_formula_weight         3012.94
_chemical_name_systematic        CFmoc
_space_group_crystal_system      triclinic
_space_group_IT_number           2
_space_group_name_Hall           '-P 1'
_space_group_name_H-M_alt        'P -1'
_atom_sites_solution_hydrogens   geom
_audit_creation_method           SHELXL-2018/3
_audit_update_record
;
2020-06-30 deposited with the CCDC.	2020-09-29 downloaded from the CCDC.
;
_cell_angle_alpha                104.91(3)
_cell_angle_beta                 109.45(3)
_cell_angle_gamma                104.86(3)
_cell_formula_units_Z            1
_cell_length_a                   16.005(3)
_cell_length_b                   17.777(4)
_cell_length_c                   20.441(4)
_cell_measurement_reflns_used    18278
_cell_measurement_temperature    100(2)
_cell_measurement_theta_max      17.86
_cell_measurement_theta_min      0.73
_cell_volume                     4912(3)
_computing_cell_refinement       'XDS (Kabsch, 1993)'
_computing_data_collection       'BluIce (McPhillips, 2002)'
_computing_data_reduction        'XDS (Kabsch, 1993)'
_computing_molecular_graphics    'shelXle (Huebschle, 2014)'
_computing_publication_material  'CIFTAB (Sheldrick, 1997)'
_computing_structure_refinement  'SHELXL-2018/3 (Sheldrick, 2018)'
_computing_structure_solution    'SHELXT-2018/3 (Sheldrick, 2018)'
_diffrn_ambient_temperature      100(2)
_diffrn_measured_fraction_theta_full 0.914
_diffrn_measured_fraction_theta_max 0.860
_diffrn_measurement_device_type  'ADSC Quantum 210r'
_diffrn_measurement_method       'Phi Scan'
_diffrn_radiation_type           Synchrotron
_diffrn_radiation_wavelength     0.71073
_diffrn_reflns_av_R_equivalents  0.0184
_diffrn_reflns_av_unetI/netI     0.0164
_diffrn_reflns_Laue_measured_fraction_full 0.914
_diffrn_reflns_Laue_measured_fraction_max 0.860
_diffrn_reflns_limit_h_max       20
_diffrn_reflns_limit_h_min       -20
_diffrn_reflns_limit_k_max       19
_diffrn_reflns_limit_k_min       -20
_diffrn_reflns_limit_l_max       25
_diffrn_reflns_limit_l_min       -25
_diffrn_reflns_number            61323
_diffrn_reflns_point_group_measured_fraction_full 0.914
_diffrn_reflns_point_group_measured_fraction_max 0.860
_diffrn_reflns_theta_full        25.242
_diffrn_reflns_theta_max         26.371
_diffrn_reflns_theta_min         1.140
_diffrn_source                   'MX1 Beamline Australian Synchrotron'
_exptl_absorpt_coefficient_mu    0.486
_exptl_crystal_colour            green
_exptl_crystal_density_diffrn    1.019
_exptl_crystal_description       block
_exptl_crystal_F_000             1556
_exptl_crystal_recrystallization_method 'slow-vapour diffusion'
_exptl_crystal_size_max          0.05
_exptl_crystal_size_mid          0.03
_exptl_crystal_size_min          0.02
_refine_diff_density_max         0.941
_refine_diff_density_min         -0.757
_refine_diff_density_rms         0.072
_refine_ls_extinction_method     none
_refine_ls_goodness_of_fit_ref   1.072
_refine_ls_hydrogen_treatment    constr
_refine_ls_matrix_type           full
_refine_ls_number_parameters     959
_refine_ls_number_reflns         17261
_refine_ls_number_restraints     719
_refine_ls_restrained_S_all      1.058
_refine_ls_R_factor_all          0.0735
_refine_ls_R_factor_gt           0.0655
_refine_ls_shift/su_max          0.001
_refine_ls_shift/su_mean         0.000
_refine_ls_structure_factor_coef Fsqd
_refine_ls_weighting_details
'w=1/[\s^2^(Fo^2^)+(0.1202P)^2^+5.3928P] where P=(Fo^2^+2Fc^2^)/3'
_refine_ls_weighting_scheme      calc
_refine_ls_wR_factor_gt          0.2090
_refine_ls_wR_factor_ref         0.2170
_reflns_Friedel_coverage         0.000
_reflns_number_gt                14551
_reflns_number_total             17261
_reflns_threshold_expression     'I > 2\s(I)'
_cod_data_source_file            d0cc05349j2.cif
_cod_data_source_block           Fmoc_Cu4L4
_cod_original_cell_volume        4912(2)
_cod_database_code               7127748
_shelx_shelxl_version_number     2018/3
_shelx_space_group_comment
;
The symmetry employed for this shelxl refinement is uniquely defined
by the following loop, which should always be used as a source of
symmetry information in preference to the above space-group names.
They are only intended as comments.
;
_shelx_res_file
;
TITL sol_a.res in P-1
    sol_a_sq.res
    created by SHELXL-2018/3 at 08:59:04 on 25-Jun-2020
CELL  0.71073  16.0050  17.7770  20.4410  104.906  109.446  104.861
ZERR    1.000   0.0032   0.0036   0.0041    0.030    0.030    0.030
LATT  1
SFAC C H N O CU
UNIT 168 124 12 28 4
LIST 6 ! automatically inserted. Change 6 to 4 for CHECKCIF!!
L.S. 20
REM CGLS 20
BOND
SIMU
RIGU C2_2 C3_2 C4_2 C5_2
DELU C1_3 O1_3
DELU C1_4 O1_4
RIGU C1_4 O1_4
RIGU C1_3 O1_3
ACTA TABS
FMAP 2
PLAN 20
ABIN
WGHT    0.120200    5.392800
FVAR       0.24956
CU1   5    0.928601    0.834952    0.736303    11.00000    0.04053    0.04859 =
         0.04227    0.01821    0.01907    0.01354
CU2   5    0.967177    0.722606    0.651928    11.00000    0.03714    0.04835 =
         0.04112    0.01686    0.01634    0.01245
RESI 1 LIG
O1    4    0.850926    0.838033    0.640275    11.00000    0.04241    0.05288 =
         0.03871    0.00930    0.01064    0.01272
C1    1    0.831727    0.783502    0.577802    11.00000    0.03510    0.04754 =
         0.03864    0.00987    0.01523    0.00358
N1    3    0.732104    0.531664    0.216899    11.00000    0.04288    0.06454 =
         0.04076    0.01283    0.00877    0.02135
AFIX  93
H1A   2    0.770230    0.507632    0.209506    11.00000   -1.20000
H1B   2    0.750587    0.571704    0.258894    11.00000   -1.20000
AFIX   0
O2    4    0.871176    0.731958    0.568111    11.00000    0.04238    0.05388 =
         0.03987    0.01394    0.01539    0.01674
C2    1    0.753499    0.781104    0.510293    11.00000    0.03445    0.04446 =
         0.04305    0.01199    0.01407    0.00811
N2    3    0.357875    0.422399   -0.003630    11.00000    0.04143    0.05580 =
         0.04187    0.01240    0.00582    0.01639
AFIX  43
H2    2    0.325713    0.451500    0.007611    11.00000   -1.20000
AFIX   0
O3    4    0.946266    0.274098    0.252341    11.00000    0.04452    0.05858 =
         0.04441    0.02233    0.01922    0.02031
C3    1    0.702141    0.832075    0.517702    11.00000    0.04205    0.05284 =
         0.04844    0.00339    0.01224    0.01348
AFIX  43
H3    2    0.718368    0.870934    0.564592    11.00000   -1.20000
AFIX   0
O4    4    0.990039    0.186922    0.181826    11.00000    0.07451    0.07682 =
         0.05042    0.03201    0.03154    0.04388
C4    1    0.626486    0.825360    0.455348    11.00000    0.04389    0.05780 =
         0.05587    0.00367    0.00980    0.02112
AFIX  43
H4    2    0.592079    0.859670    0.460624    11.00000   -1.20000
AFIX   0
O5    4    0.344024    0.308685   -0.096485    11.00000    0.04419    0.06499 =
         0.04555    0.00551    0.00831    0.01205
C5    1    0.602089    0.768081    0.385629    11.00000    0.03789    0.05069 =
         0.04649    0.01086    0.00872    0.01301
AFIX  43
H5    2    0.550806    0.763515    0.344208    11.00000   -1.20000
AFIX   0
O6    4    0.220469    0.350063   -0.102493    11.00000    0.03862    0.06589 =
         0.04538    0.00893    0.00336    0.01307
C7    1    0.729001    0.723504    0.439597    11.00000    0.03796    0.04950 =
         0.04182    0.01288    0.01464    0.01221
AFIX  43
H7    2    0.763341    0.689114    0.434402    11.00000   -1.20000
AFIX   0
C8    1    0.627918    0.657363    0.304178    11.00000    0.03630    0.05395 =
         0.04273    0.01575    0.01203    0.01318
C9    1    0.603952    0.605635    0.243753    11.00000    0.03654    0.06071 =
         0.04145    0.01713    0.00935    0.01409
C10   1    0.576059    0.541194    0.173498    11.00000    0.04327    0.05023 =
         0.03589    0.01434    0.01015    0.01473
C11   1    0.642000    0.506184    0.161823    11.00000    0.03897    0.05442 =
         0.03468    0.01695    0.00971    0.01216
C12   1    0.610160    0.440857    0.092695    11.00000    0.04368    0.06013 =
         0.03902    0.02017    0.01451    0.01788
C13   1    0.516858    0.413167    0.036725    11.00000    0.04770    0.05271 =
         0.03506    0.01355    0.01007    0.01389
AFIX  43
H13   2    0.497818    0.370783   -0.009017    11.00000   -1.20000
AFIX   0
C14   1    0.453312    0.448259    0.049015    11.00000    0.04033    0.05502 =
         0.03592    0.01604    0.00783    0.01228
C15   1    0.483097    0.512836    0.117303    11.00000    0.04193    0.05348 =
         0.04260    0.01803    0.01410    0.01749
AFIX  43
H15   2    0.440880    0.537336    0.125655    11.00000   -1.20000
AFIX   0
C16   1    0.312096    0.356696   -0.069733    11.00000    0.04414    0.05725 =
         0.04077    0.01467    0.00956    0.01125
C17   1    0.162411    0.280778   -0.173777    11.00000    0.03909    0.06543 =
         0.04655    0.00677    0.00507    0.01083
AFIX  23
H17A  2    0.172853    0.230116   -0.170850    11.00000   -1.20000
H17B  2    0.178852    0.293225   -0.212428    11.00000   -1.20000
AFIX   0
C18   1    0.058745    0.268781   -0.191833    11.00000    0.04139    0.06944 =
         0.04778    0.01312    0.00998    0.00915
AFIX  13
H18   2    0.045118    0.261751   -0.149979    11.00000   -1.20000
AFIX   0
C19   1    0.028944    0.336350   -0.209969    11.00000    0.04121    0.06349 =
         0.06885    0.01304    0.01842    0.01084
C20   1    0.065659    0.422036   -0.168187    11.00000    0.04884    0.07050 =
         0.09003    0.00501    0.01888    0.01448
AFIX  43
H20   2    0.116478    0.445266   -0.120915    11.00000   -1.20000
AFIX   0
C21   1    0.024918    0.471630   -0.198529    11.00000    0.06458    0.06293 =
         0.13208    0.01319    0.02871    0.01625
AFIX  43
H21   2    0.050077    0.529293   -0.171831    11.00000   -1.20000
AFIX   0
C22   1   -0.050743    0.438574   -0.266163    11.00000    0.06776    0.07428 =
         0.13368    0.03844    0.02576    0.02802
AFIX  43
H22   2   -0.078116    0.473776   -0.283789    11.00000   -1.20000
AFIX   0
C23   1   -0.088718    0.353699   -0.310019    11.00000    0.05236    0.07553 =
         0.11111    0.03599    0.01555    0.01581
AFIX  43
H23   2   -0.140263    0.331502   -0.356824    11.00000   -1.20000
AFIX   0
C24   1   -0.046633    0.303279   -0.281179    11.00000    0.03659    0.06585 =
         0.07833    0.02393    0.01382    0.01260
C25   1   -0.067935    0.213497   -0.314607    11.00000    0.03743    0.05987 =
         0.06529    0.02243    0.01156    0.01153
C26   1   -0.133481    0.152576   -0.384293    11.00000    0.04146    0.07358 =
         0.05996    0.02374   -0.00179    0.00869
AFIX  43
H26   2   -0.173727    0.166783   -0.419500    11.00000   -1.20000
AFIX   0
C27   1   -0.138368    0.070506   -0.400876    11.00000    0.04494    0.06114 =
         0.05635    0.01492    0.00371    0.00530
AFIX  43
H27   2   -0.182016    0.029578   -0.447500    11.00000   -1.20000
AFIX   0
C28   1   -0.078894    0.048882   -0.348695    11.00000    0.04466    0.06020 =
         0.06307    0.01851    0.01331    0.00912
AFIX  43
H28   2   -0.083128   -0.006497   -0.360361    11.00000   -1.20000
AFIX   0
C29   1   -0.012726    0.109539   -0.278807    11.00000    0.04206    0.06737 =
         0.05693    0.02408    0.01151    0.01344
AFIX  43
H29   2    0.027242    0.095006   -0.243723    11.00000   -1.20000
AFIX   0
C30   1   -0.007198    0.191479   -0.262258    11.00000    0.03598    0.06774 =
         0.04938    0.01783    0.01069    0.00785
C31   1    0.671625    0.398233    0.081573    11.00000    0.04460    0.06160 =
         0.03483    0.01654    0.01093    0.01770
C32   1    0.720431    0.358694    0.074546    11.00000    0.04924    0.06479 =
         0.03752    0.01880    0.01324    0.01870
C33   1    0.774373    0.307430    0.067037    11.00000    0.05860    0.07240 =
         0.04761    0.02601    0.02251    0.03155
C34   1    0.767040    0.263337   -0.003262    11.00000    0.14698    0.15403 =
         0.04859    0.04455    0.03743    0.11798
AFIX  43
H34   2    0.727794    0.268513   -0.045753    11.00000   -1.20000
AFIX   0
C35   1    0.817226    0.212985   -0.009448    11.00000    0.21261    0.20549 =
         0.04834    0.04552    0.05267    0.16945
AFIX  43
H35   2    0.814385    0.186205   -0.056110    11.00000   -1.20000
AFIX   0
C36   1    0.872617    0.200513    0.052108    11.00000    0.17879    0.16778 =
         0.05570    0.04803    0.04927    0.14246
AFIX  43
H36   2    0.903247    0.162998    0.046300    11.00000   -1.20000
AFIX   0
C37   1    0.881917    0.244751    0.122740    11.00000    0.07087    0.08029 =
         0.04682    0.03061    0.02690    0.04235
C38   1    0.832930    0.296999    0.129247    11.00000    0.04845    0.05666 =
         0.04336    0.02038    0.02090    0.01926
AFIX  43
H38   2    0.838844    0.326320    0.176392    11.00000   -1.20000
AFIX   0
C39   1    0.943770    0.234234    0.190967    11.00000    0.05062    0.05758 =
         0.05558    0.02734    0.02602    0.02291
C6    1    0.653688    0.716986    0.376760    11.00000    0.03875    0.04604 =
         0.04115    0.01086    0.01383    0.00755
RESI 0
RESI 2 LIG
O1    4    0.822122    0.735712    0.717873    11.00000    0.06398    0.05520 =
         0.09230    0.03279    0.04879    0.02042
N1    3    0.665594    0.210503    0.478611    11.00000    0.08183    0.06808 =
         0.08013    0.04395    0.05089    0.02703
AFIX  93
H1A   2    0.672208    0.262443    0.491021    11.00000   -1.20000
H1B   2    0.674566    0.186560    0.440647    11.00000   -1.20000
AFIX   0
C1    1    0.812540    0.660921    0.685988    11.00000    0.05259    0.05420 =
         0.07297    0.03076    0.03008    0.01915
O2    4    0.863665    0.638934    0.655632    11.00000    0.04356    0.05283 =
         0.06140    0.02211    0.02387    0.01244
N2    3    0.576079    0.033545    0.652431    11.00000    0.05200    0.04983 =
         0.04536    0.01882    0.02612    0.01579
AFIX  43
H2    2    0.555135    0.056937    0.682474    11.00000   -1.20000
AFIX   0
C2    1    0.733010    0.592586    0.683975    11.00000    0.06952    0.05621 =
         0.12142    0.03744    0.06234    0.02335
O3    4    0.935894    0.176074    0.337892    11.00000    0.04196    0.05539 =
         0.04619    0.01930    0.02029    0.01154
C3    1    0.671347    0.612319    0.713664    11.00000    0.15047    0.05500 =
         0.30260    0.05592    0.18011    0.03741
AFIX  43
H3    2    0.678528    0.668037    0.733967    11.00000   -1.20000
AFIX   0
O4    4    0.958711    0.080271    0.256942    11.00000    0.04055    0.05915 =
         0.04320    0.01495    0.01904    0.00913
C5    1    0.590160    0.467009    0.685368    11.00000    0.15385    0.05648 =
         0.31993    0.05304    0.19338    0.02824
AFIX  43
H5    2    0.543083    0.425319    0.687194    11.00000   -1.20000
AFIX   0
O5    4    0.610979   -0.083865    0.616533    11.00000    0.09512    0.07554 =
         0.07517    0.03786    0.05115    0.04155
C6    1    0.650788    0.445682    0.654593    11.00000    0.08447    0.05821 =
         0.15066    0.04252    0.08247    0.02490
O6    4    0.557539   -0.058494    0.705438    11.00000    0.09434    0.07201 =
         0.07645    0.04417    0.05145    0.03535
C7    1    0.720922    0.509885    0.653428    11.00000    0.05295    0.05718 =
         0.09082    0.03450    0.04149    0.01958
AFIX  43
H7    2    0.760378    0.496572    0.631555    11.00000   -1.20000
AFIX   0
C8    1    0.640360    0.359409    0.625030    11.00000    0.06457    0.05717 =
         0.10790    0.03835    0.05536    0.02113
C9    1    0.632933    0.288295    0.603390    11.00000    0.05449    0.05851 =
         0.07856    0.03142    0.03813    0.01682
C10   1    0.625544    0.203030    0.581705    11.00000    0.03918    0.05245 =
         0.06162    0.02412    0.02151    0.01295
C11   1    0.640717    0.165813    0.519401    11.00000    0.04190    0.05866 =
         0.05370    0.02715    0.02158    0.01415
C12   1    0.634531    0.081854    0.502553    11.00000    0.03487    0.05697 =
         0.04011    0.01904    0.01338    0.00754
C13   1    0.613289    0.037542    0.545890    11.00000    0.03754    0.04677 =
         0.04332    0.01424    0.01374    0.00730
AFIX  43
H13   2    0.608923   -0.017896    0.533627    11.00000   -1.20000
AFIX   0
C14   1    0.598560    0.075758    0.607444    11.00000    0.03420    0.05344 =
         0.04227    0.02060    0.01403    0.00900
C15   1    0.604526    0.157835    0.624394    11.00000    0.03805    0.05106 =
         0.04650    0.01563    0.01809    0.01222
AFIX  43
H15   2    0.594283    0.183502    0.665216    11.00000   -1.20000
AFIX   0
C16   1    0.584001   -0.039553    0.653225    11.00000    0.06149    0.06508 =
         0.04855    0.02122    0.02996    0.01738
C17   1    0.579580   -0.127731    0.721774    11.00000    0.08349    0.06726 =
         0.07349    0.03753    0.03710    0.02549
AFIX  23
H17A  2    0.646906   -0.117200    0.735937    11.00000   -1.20000
H17B  2    0.542350   -0.179620    0.678220    11.00000   -1.20000
AFIX   0
C18   1    0.554542   -0.133705    0.785481    11.00000    0.11643    0.07488 =
         0.06727    0.03648    0.04203    0.02372
AFIX  13
H18   2    0.576998   -0.077008    0.822632    11.00000   -1.20000
AFIX   0
C19   1    0.447844   -0.178319    0.762754    11.00000    0.11072    0.08559 =
         0.08020    0.04336    0.05848    0.03336
C20   1    0.372858   -0.160865    0.724214    11.00000    0.14446    0.13952 =
         0.15506    0.11201    0.11240    0.09473
AFIX  43
H20   2    0.382176   -0.115895    0.708605    11.00000   -1.20000
AFIX   0
C21   1    0.278015   -0.214665    0.708303    11.00000    0.12894    0.16390 =
         0.18169    0.12767    0.10991    0.09782
AFIX  43
H21   2    0.225333   -0.204527    0.681488    11.00000   -1.20000
AFIX   0
C22   1    0.264600   -0.279641    0.731820    11.00000    0.10972    0.15763 =
         0.15766    0.10658    0.09287    0.06610
AFIX  43
H22   2    0.203190   -0.313215    0.721669    11.00000   -1.20000
AFIX   0
C23   1    0.344940   -0.296470    0.772223    11.00000    0.10947    0.11878 =
         0.11636    0.07964    0.06815    0.04549
AFIX  43
H23   2    0.336075   -0.340987    0.788436    11.00000   -1.20000
AFIX   0
C24   1    0.435775   -0.246221    0.787023    11.00000    0.10030    0.09249 =
         0.07409    0.04724    0.04541    0.02689
C25   1    0.528978   -0.249706    0.825380    11.00000    0.09665    0.09743 =
         0.07556    0.05387    0.02321    0.01304
C26   1    0.551462   -0.303821    0.857081    11.00000    0.09996    0.14359 =
         0.11739    0.09605    0.00666   -0.00249
AFIX  43
H26   2    0.504401   -0.346212    0.858199    11.00000   -1.20000
AFIX   0
C27   1    0.649821   -0.294296    0.889019    11.00000    0.09740    0.18021 =
         0.18978    0.14850   -0.01439   -0.00699
AFIX  43
H27   2    0.667440   -0.331159    0.910631    11.00000   -1.20000
AFIX   0
C28   1    0.717845   -0.230305    0.887457    11.00000    0.09361    0.20631 =
         0.16611    0.14158   -0.02108   -0.02205
AFIX  43
H28   2    0.781841   -0.223205    0.909402    11.00000   -1.20000
AFIX   0
C29   1    0.692763   -0.176382    0.853850    11.00000    0.09064    0.14133 =
         0.11738    0.08748   -0.00762   -0.01466
AFIX  43
H29   2    0.739280   -0.133803    0.852418    11.00000   -1.20000
AFIX   0
C30   1    0.600516   -0.186083    0.823270    11.00000    0.09391    0.08802 =
         0.07424    0.04736    0.01805    0.01003
C31   1    0.656867    0.044112    0.442769    11.00000    0.04250    0.05787 =
         0.04400    0.02073    0.01635    0.00997
C32   1    0.681838    0.017470    0.395161    11.00000    0.04327    0.05909 =
         0.04282    0.02193    0.01593    0.00754
C33   1    0.719982   -0.007182    0.342784    11.00000    0.04232    0.06185 =
         0.04001    0.02211    0.01707    0.01159
C34   1    0.688181   -0.089774    0.294058    11.00000    0.04952    0.05960 =
         0.04987    0.01543    0.02119    0.00035
AFIX  43
H34   2    0.639702   -0.131621    0.294357    11.00000   -1.20000
AFIX   0
C35   1    0.728729   -0.109631    0.245138    11.00000    0.05385    0.06057 =
         0.05185    0.00780    0.02407    0.00289
AFIX  43
H35   2    0.706085   -0.164748    0.211863    11.00000   -1.20000
AFIX   0
C36   1    0.802419   -0.048758    0.244973    11.00000    0.04535    0.06072 =
         0.04220    0.01412    0.01912    0.00890
AFIX  43
H36   2    0.829861   -0.063267    0.212476    11.00000   -1.20000
AFIX   0
C37   1    0.835600    0.034476    0.293602    11.00000    0.03709    0.06080 =
         0.03475    0.01899    0.01179    0.01051
C38   1    0.793849    0.054658    0.341955    11.00000    0.04090    0.05622 =
         0.03588    0.01783    0.01216    0.01017
AFIX  43
H38   2    0.815280    0.110061    0.374248    11.00000   -1.20000
AFIX   0
C39   1    0.916161    0.101402    0.295799    11.00000    0.03687    0.06122 =
         0.03507    0.02050    0.00979    0.01247
C4    1    0.599983    0.549567    0.712970    11.00000    0.19463    0.06903 =
         0.41231    0.06878    0.25455    0.04546
AFIX  43
H4    2    0.557615    0.562939    0.731397    11.00000   -1.20000
AFIX   0
RESI 0
RESI 3 DMF
O1    4    0.891246    0.922758    0.802329    11.00000    0.06535    0.06405 =
         0.05527    0.02497    0.03304    0.03186
N1    3    0.841915    1.032910    0.816047    11.00000    0.07553    0.08237 =
         0.06420    0.01735    0.02969    0.03704
C2    1    0.866708    1.047453    0.894823    11.00000    0.24823    0.17866 =
         0.07661    0.02604    0.06331    0.15000
AFIX 137
H2A   2    0.809538    1.035497    0.902573    11.00000   -1.50000
H2B   2    0.908160    1.105021    0.924846    11.00000   -1.50000
H2C   2    0.898754    1.011419    0.908927    11.00000   -1.50000
AFIX   0
C3    1    0.805585    1.088308    0.785264    11.00000    0.06963    0.08168 =
         0.08995    0.02701    0.03187    0.03881
AFIX 137
H3A   2    0.788505    1.068625    0.732480    11.00000   -1.50000
H3B   2    0.853860    1.143934    0.809270    11.00000   -1.50000
H3C   2    0.750167    1.089305    0.793514    11.00000   -1.50000
AFIX   0
C1    1    0.854717    0.969195    0.776235    11.00000    0.05482    0.06528 =
         0.05220    0.01574    0.02494    0.01565
AFIX  43
H1    2    0.835322    0.957959    0.725338    11.00000   -1.20000
AFIX   0
RESI 0
RESI 4 DMF
O1    4    1.007528    0.642373    0.581084    11.00000    0.08947    0.07916 =
         0.07045    0.01867    0.04161    0.03804
N1    3    0.990936    0.574692    0.457188    11.00000    0.26506    0.18116 =
         0.14983    0.08793    0.10650    0.07974
C2    1    1.103424    0.600898    0.490176    11.00000    0.23188    0.12025 =
         0.19409    0.05227    0.05168    0.05133
AFIX 137
H2A   2    1.118581    0.558235    0.462366    11.00000   -1.50000
H2B   2    1.128022    0.607121    0.541796    11.00000   -1.50000
H2C   2    1.131791    0.653208    0.486344    11.00000   -1.50000
AFIX   0
C3    1    0.922526    0.525048    0.385766    11.00000    0.27077    0.22535 =
         0.09634   -0.00017    0.03388    0.10909
AFIX 137
H3A   2    0.913701    0.559064    0.356347    11.00000   -1.50000
H3B   2    0.863309    0.498587    0.387424    11.00000   -1.50000
H3C   2    0.942750    0.482791    0.363604    11.00000   -1.50000
AFIX   0
C1    1    0.959859    0.607202    0.516473    11.00000    0.23133    0.17635 =
         0.10443    0.04531    0.07248    0.08679
AFIX  43
H1    2    0.895312    0.598534    0.500243    11.00000   -1.20000
RESI 0
AFIX   0
HKLF 4




REM  sol_a.res in P-1
REM wR2 = 0.2170, GooF = S = 1.072, Restrained GooF = 1.058 for all data
REM R1 = 0.0655 for 14551 Fo > 4sig(Fo) and 0.0735 for all 17261 data
REM 959 parameters refined using 719 restraints

END

WGHT      0.1206      5.3647

REM Highest difference peak  0.941,  deepest hole -0.757,  1-sigma level  0.072
Q1    1   1.1033  0.5593  0.5792  11.00000  0.05    0.94
Q2    1   1.0489  0.5918  0.6068  11.00000  0.05    0.94
Q3    1   0.5465 -0.0037  0.7392  11.00000  0.05    0.74
Q4    1   1.0619  0.6390  0.5565  11.00000  0.05    0.70
Q5    1   0.9609  0.7611  0.6787  11.00000  0.05    0.57
Q6    1   0.9185  0.8760  0.7634  11.00000  0.05    0.56
Q7    1   0.4331 -0.0998  0.7936  11.00000  0.05    0.53
Q8    1   0.2808 -0.1953  0.7821  11.00000  0.05    0.52
Q9    1   0.5583 -0.1498  0.6106  11.00000  0.05    0.51
Q10   1   0.5782  0.0547  0.7203  11.00000  0.05    0.47
Q11   1   1.1457  0.5910  0.5417  11.00000  0.05    0.47
Q12   1   0.6429  0.5542  0.7608  11.00000  0.05    0.45
Q13   1   0.3056 -0.2368  0.6562  11.00000  0.05    0.42
Q14   1   0.8593  0.5021  0.4076  11.00000  0.05    0.38
Q15   1   0.8764  0.5402  0.4463  11.00000  0.05    0.37
Q16   1   0.7120  0.6369  0.7586  11.00000  0.05    0.36
Q17   1   0.9830  0.6816  0.6215  11.00000  0.05    0.36
Q18   1   0.6240  0.4951  0.7287  11.00000  0.05    0.33
Q19   1   0.9228  1.1003  0.8810  11.00000  0.05    0.33
Q20   1   0.9595  0.5528  0.5907  11.00000  0.05    0.33
;
_shelx_res_checksum              7925
_shelx_fab_file
;
    0    0    1    108.62      0.00
    0    0    2    166.49      0.00
    0    0    3    -26.70      0.00
    0    0    4    -20.42      0.00
    0    0    5    -29.50      0.00
    0    0    6    -16.12      0.00
    0    0    7    -38.93      0.00
    0    0    8    -14.38      0.00
    0    0    9    -12.36      0.00
    0    0   10    -20.68      0.00
    0    0   11    -14.10      0.00
    0    0   12      5.10      0.00
    0    0   13      2.74      0.00
    0    0   14     14.05      0.00
    0    0   15      9.25      0.00
    0    0   16      5.67      0.00
    0    0   17      4.37      0.00
    0    0   18     -3.06      0.00
    0    0   19     -3.54      0.00
    0    0   20     -2.90      0.00
    0    0   21      2.56      0.00
    0   -1   21      3.06      0.00
    0   -1   20      1.23      0.00
    0   -1   19     -0.67      0.00
    0   -1   18      1.81      0.00
    0   -1   17     -3.18      0.00
    0   -1   16      7.04      0.00
    0   -1   15     -8.47      0.00
    0   -1   14      4.21      0.00
    0   -1   13     10.18      0.00
    0   -1   12      2.76      0.00
    0   -1   11     11.25      0.00
    0   -1   10     -6.70      0.00
    0   -1    9     -8.52      0.00
    0   -1    7      1.09      0.00
    0   -1    6    -36.18      0.00
    0   -1    5     31.07      0.00
    0   -1    4     17.72      0.00
    0   -1    3      5.68      0.00
    0   -1    2    -38.34      0.00
    0   -1    1     -5.89      0.00
    0    1    0     -8.46      0.00
    0    1    1    144.26      0.00
    0    1    2     31.80      0.00
    0    1    3     36.59      0.00
    0    1    4      3.86      0.00
    0    1    5     -9.86      0.00
    0    1    6     -3.79      0.00
    0    1    7    -12.60      0.00
    0    1    8    -11.05      0.00
    0    1    9     -1.09      0.00
    0    1   10      1.90      0.00
    0    1   11    -10.00      0.00
    0    1   12      0.68      0.00
    0    1   13     -3.94      0.00
    0    1   14      1.01      0.00
    0    1   15     -0.82      0.00
    0    1   16      4.82      0.00
    0    1   17      3.01      0.00
    0    1   18      1.91      0.00
    0    1   19     -1.61      0.00
    0    1   20     -3.60      0.00
    0   -2   21      0.80      0.00
    0   -2   20      3.28      0.00
    0   -2   19     -0.33      0.00
    0   -2   18      5.06      0.00
    0   -2   17      2.46      0.00
    0   -2   16      1.40      0.00
    0   -2   15      4.51      0.00
    0   -2   14    -13.20      0.00
    0   -2   13      0.14      0.00
    0   -2   12      3.29      0.00
    0   -2   11      3.09      0.00
    0   -2   10      6.56      0.00
    0   -2    9    -15.58      0.00
    0   -2    8     -7.38      0.00
    0   -2    7    -27.00      0.00
    0   -2    6    -13.99      0.00
    0   -2    5    -83.17      0.00
    0   -2    4     35.95      0.00
    0   -2    3    -31.10      0.00
    0   -2    2     71.56      0.00
    0   -2    1      8.17      0.00
    0    2    0     32.51      0.00
    0    2    1     73.54      0.00
    0    2    2     46.94      0.00
    0    2    3     39.41      0.00
    0    2    4     12.70      0.00
    0    2    5     -3.14      0.00
    0    2    6    -16.62      0.00
    0    2    7    -32.36      0.00
    0    2    8    -12.22      0.00
    0    2    9    -22.30      0.00
    0    2   10      1.02      0.00
    0    2   11     -6.75      0.00
    0    2   12     -5.19      0.00
    0    2   13      3.93      0.00
    0    2   14      2.18      0.00
    0    2   15      4.23      0.00
    0    2   16      3.41      0.00
    0    2   17      6.28      0.00
    0    2   18      4.29      0.00
    0    2   19      3.93      0.00
    0   -3   22     -1.44      0.00
    0   -3   21     -1.88      0.00
    0   -3   20      2.07      0.00
    0   -3   19     -0.38      0.00
    0   -3   18     -2.23      0.00
    0   -3   17      3.07      0.00
    0   -3   16     -3.76      0.00
    0   -3   15     12.11      0.00
    0   -3   14     -6.74      0.00
    0   -3   13     -2.69      0.00
    0   -3   12    -11.10      0.00
    0   -3   11     10.13      0.00
    0   -3   10      1.79      0.00
    0   -3    9     29.12      0.00
    0   -3    8      1.36      0.00
    0   -3    7     26.54      0.00
    0   -3    6     -5.75      0.00
    0   -3    5    -13.28      0.00
    0   -3    4    -30.28      0.00
    0   -3    3     38.68      0.00
    0   -3    2    -22.21      0.00
    0   -3    1     47.81      0.00
    0    3    0    -10.82      0.00
    0    3    1     11.03      0.00
    0    3    2     11.45      0.00
    0    3    3     -1.16      0.00
    0    3    4      1.78      0.00
    0    3    5     18.33      0.00
    0    3    6     28.06      0.00
    0    3    7      5.44      0.00
    0    3    8     -6.30      0.00
    0    3    9     -5.99      0.00
    0    3   10     -9.48      0.00
    0    3   11      6.36      0.00
    0    3   12      2.71      0.00
    0    3   13     -2.60      0.00
    0    3   14      3.78      0.00
    0    3   15     -3.39      0.00
    0    3   16     -3.76      0.00
    0    3   17     -1.12      0.00
    0    3   18      2.23      0.00
    0    3   19      3.19      0.00
    0   -4   22     -1.15      0.00
    0   -4   21     -3.17      0.00
    0   -4   20      0.35      0.00
    0   -4   19      6.34      0.00
    0   -4   18     -2.95      0.00
    0   -4   17      6.18      0.00
    0   -4   16     -1.95      0.00
    0   -4   15     -0.04      0.00
    0   -4   14      7.75      0.00
    0   -4   13    -11.27      0.00
    0   -4   12     -5.42      0.00
    0   -4   11    -12.43      0.00
    0   -4   10     -6.86      0.00
    0   -4    9    -13.11      0.00
    0   -4    8     -8.14      0.00
    0   -4    7     -3.62      0.00
    0   -4    6      1.25      0.00
    0   -4    5     37.77      0.00
    0   -4    4     -7.97      0.00
    0   -4    3     56.44      0.00
    0   -4    2     33.20      0.00
    0   -4    1      8.07      0.00
    0    4    0    -22.90      0.00
    0    4    1     -7.55      0.00
    0    4    2     -9.02      0.00
    0    4    3      0.67      0.00
    0    4    4     -8.25      0.00
    0    4    5    -28.19      0.00
    0    4    6     -0.27      0.00
    0    4    7      6.34      0.00
    0    4    8     -4.39      0.00
    0    4    9     -2.71      0.00
    0    4   10     -8.78      0.00
    0    4   11     -6.11      0.00
    0    4   12      0.98      0.00
    0    4   13      4.52      0.00
    0    4   14      0.24      0.00
    0    4   15      5.85      0.00
    0    4   16     -0.94      0.00
    0    4   17     -2.75      0.00
    0    4   18     -1.29      0.00
    0   -5   23      0.09      0.00
    0   -5   22     -2.57      0.00
    0   -5   21     -0.31      0.00
    0   -5   20     -8.40      0.00
    0   -5   19      1.93      0.00
    0   -5   18     -2.87      0.00
    0   -5   17     -4.07      0.00
    0   -5   16      0.84      0.00
    0   -5   15     -1.24      0.00
    0   -5   14      5.06      0.00
    0   -5   13      7.99      0.00
    0   -5   12     -1.47      0.00
    0   -5   11     -0.53      0.00
    0   -5   10     11.06      0.00
    0   -5    9      0.60      0.00
    0   -5    8     -6.74      0.00
    0   -5    7     -4.93      0.00
    0   -5    6     -7.55      0.00
    0   -5    5    -24.61      0.00
    0   -5    4     -9.36      0.00
    0   -5    2      2.11      0.00
    0   -5    1     33.86      0.00
    0    5    0     -4.05      0.00
    0    5    1     -7.56      0.00
    0    5    2      2.27      0.00
    0    5    3      2.24      0.00
    0    5    4      0.01      0.00
    0    5    5     10.22      0.00
    0    5    6    -18.68      0.00
    0    5    7     18.82      0.00
    0    5    8      3.93      0.00
    0    5    9      6.92      0.00
    0    5   10     -1.87      0.00
    0    5   11     -0.49      0.00
    0    5   12     -5.25      0.00
    0    5   13     -1.82      0.00
    0    5   14     -3.03      0.00
    0    5   15     -0.32      0.00
    0    5   16      3.01      0.00
    0    5   17      0.32      0.00
    0    5   18     -3.01      0.00
    0   -6   23      2.18      0.00
    0   -6   22      1.11      0.00
    0   -6   21      1.14      0.00
    0   -6   20     -2.63      0.00
    0   -6   19     -5.69      0.00
    0   -6   18      2.44      0.00
    0   -6   17     -3.55      0.00
    0   -6   16      0.31      0.00
    0   -6   15     -4.23      0.00
    0   -6   14      3.91      0.00
    0   -6   13      2.19      0.00
    0   -6   12      0.82      0.00
    0   -6   11      1.34      0.00
    0   -6   10    -15.44      0.00
    0   -6    9     11.79      0.00
    0   -6    8    -13.98      0.00
    0   -6    7     -3.24      0.00
    0   -6    6     -4.39      0.00
    0   -6    5     17.93      0.00
    0   -6    4     -0.41      0.00
    0   -6    3     13.73      0.00
    0   -6    2      8.04      0.00
    0   -6    1     12.91      0.00
    0    6    0     27.86      0.00
    0    6    1    -11.49      0.00
    0    6    2     -3.65      0.00
    0    6    3      8.35      0.00
    0    6    4     -3.62      0.00
    0    6    5      1.92      0.00
    0    6    6    -13.50      0.00
    0    6    7    -12.68      0.00
    0    6    8     -3.92      0.00
    0    6    9     -1.95      0.00
    0    6   10     -2.74      0.00
    0    6   11      1.59      0.00
    0    6   12      4.50      0.00
    0    6   13     -0.41      0.00
    0    6   14      1.32      0.00
    0    6   15     -1.33      0.00
    0    6   16      1.27      0.00
    0    6   17      2.51      0.00
    0   -7   23     -0.38      0.00
    0   -7   22      1.22      0.00
    0   -7   21      1.38      0.00
    0   -7   20      2.64      0.00
    0   -7   19     -6.90      0.00
    0   -7   18      0.11      0.00
    0   -7   17     -6.12      0.00
    0   -7   16     -2.13      0.00
    0   -7   15     -7.53      0.00
    0   -7   14     -1.43      0.00
    0   -7   13      9.41      0.00
    0   -7   12     15.70      0.00
    0   -7   11      9.34      0.00
    0   -7   10     13.66      0.00
    0   -7    9     -3.96      0.00
    0   -7    8     12.53      0.00
    0   -7    7    -15.05      0.00
    0   -7    6      0.15      0.00
    0   -7    5     -2.76      0.00
    0   -7    4    -14.64      0.00
    0   -7    3    -16.66      0.00
    0   -7    2    -22.94      0.00
    0   -7    1     -4.76      0.00
    0    7    0      4.92      0.00
    0    7    1     10.18      0.00
    0    7    2    -14.90      0.00
    0    7    3      5.46      0.00
    0    7    4      7.06      0.00
    0    7    5     10.78      0.00
    0    7    6     -2.38      0.00
    0    7    7     -1.68      0.00
    0    7    8     -8.04      0.00
    0    7    9      1.03      0.00
    0    7   10     -3.78      0.00
    0    7   11     -6.70      0.00
    0    7   12     -0.79      0.00
    0    7   13     -0.87      0.00
    0    7   14     -1.15      0.00
    0    7   15      0.07      0.00
    0    7   16     -1.18      0.00
    0   -8   24     -0.08      0.00
    0   -8   23     -2.36      0.00
    0   -8   22     -0.29      0.00
    0   -8   21     -2.81      0.00
    0   -8   20      2.35      0.00
    0   -8   19     -0.92      0.00
    0   -8   18     -2.06      0.00
    0   -8   17      0.50      0.00
    0   -8   16     -3.68      0.00
    0   -8   15     -5.42      0.00
    0   -8   14    -12.15      0.00
    0   -8   13     -2.79      0.00
    0   -8   12     -1.14      0.00
    0   -8   11      4.23      0.00
    0   -8   10      1.11      0.00
    0   -8    9     -2.95      0.00
    0   -8    8      3.15      0.00
    0   -8    7      0.82      0.00
    0   -8    6     -4.92      0.00
    0   -8    5     -0.49      0.00
    0   -8    4     18.20      0.00
    0   -8    3    -17.71      0.00
    0   -8    2     -7.93      0.00
    0   -8    1    -17.37      0.00
    0    8    0     -2.07      0.00
    0    8    1     11.43      0.00
    0    8    2      0.41      0.00
    0    8    3     -8.24      0.00
    0    8    4      3.06      0.00
    0    8    5      2.24      0.00
    0    8    6      5.34      0.00
    0    8    7     -9.36      0.00
    0    8    8     -0.28      0.00
    0    8    9     -8.94      0.00
    0    8   10      6.24      0.00
    0    8   11     -1.91      0.00
    0    8   12     -1.68      0.00
    0    8   13      0.95      0.00
    0    8   14     -1.66      0.00
    0    8   15     -0.98      0.00
    0    8   16      1.08      0.00
    0   -9   24      0.86      0.00
    0   -9   23     -1.13      0.00
    0   -9   22     -1.05      0.00
    0   -9   21     -1.97      0.00
    0   -9   20     -0.76      0.00
    0   -9   19     -1.16      0.00
    0   -9   18     -0.81      0.00
    0   -9   17      1.64      0.00
    0   -9   16      2.37      0.00
    0   -9   15      3.40      0.00
    0   -9   14     -4.93      0.00
    0   -9   13     -6.70      0.00
    0   -9   12      7.06      0.00
    0   -9   11      0.64      0.00
    0   -9   10      8.22      0.00
    0   -9    9      2.21      0.00
    0   -9    8     -3.82      0.00
    0   -9    7     -0.44      0.00
    0   -9    6     -9.72      0.00
    0   -9    5     -9.07      0.00
    0   -9    3     22.47      0.00
    0   -9    2     -1.87      0.00
    0   -9    1     -3.72      0.00
    0    9    0    -10.88      0.00
    0    9    1     -3.50      0.00
    0    9    2      7.19      0.00
    0    9    3      3.67      0.00
    0    9    4     -0.13      0.00
    0    9    5      4.81      0.00
    0    9    6     11.41      0.00
    0    9    7     -3.88      0.00
    0    9    8      1.09      0.00
    0    9    9     -4.54      0.00
    0    9   10     -4.03      0.00
    0    9   11      3.93      0.00
    0    9   12     -0.94      0.00
    0    9   13      0.42      0.00
    0    9   14     -0.65      0.00
    0    9   15     -2.78      0.00
    0  -10   23      0.83      0.00
    0  -10   22     -0.82      0.00
    0  -10   21      0.53      0.00
    0  -10   20     -1.64      0.00
    0  -10   19      1.08      0.00
    0  -10   18     -6.36      0.00
    0  -10   17     -0.86      0.00
    0  -10   16      1.29      0.00
    0  -10   15      3.74      0.00
    0  -10   14      7.11      0.00
    0  -10   13    -10.20      0.00
    0  -10   12     -6.18      0.00
    0  -10   11     -5.76      0.00
    0  -10   10     -2.35      0.00
    0  -10    9     -1.10      0.00
    0  -10    8      6.35      0.00
    0  -10    7      4.09      0.00
    0  -10    6      2.11      0.00
    0  -10    5     -6.64      0.00
    0  -10    4    -13.57      0.00
    0  -10    3      2.76      0.00
    0  -10    2     12.18      0.00
    0  -10    1     -0.83      0.00
    0   10    0     -0.20      0.00
    0   10    1     -5.39      0.00
    0   10    2     -3.09      0.00
    0   10    3     -9.66      0.00
    0   10    4     -0.29      0.00
    0   10    5    -11.12      0.00
    0   10    6      7.16      0.00
    0   10    7      4.70      0.00
    0   10    8     -1.39      0.00
    0   10    9      2.71      0.00
    0   10   10     -3.20      0.00
    0   10   11     -0.52      0.00
    0   10   12      1.37      0.00
    0   10   13      0.40      0.00
    0   10   14      1.21      0.00
    0  -11   23     -0.48      0.00
    0  -11   22      0.42      0.00
    0  -11   21     -0.57      0.00
    0  -11   20      0.14      0.00
    0  -11   19      0.32      0.00
    0  -11   18     -4.11      0.00
    0  -11   17     -6.74      0.00
    0  -11   16     -5.55      0.00
    0  -11   15      5.07      0.00
    0  -11   14      7.25      0.00
    0  -11   13      9.72      0.00
    0  -11   12      1.41      0.00
    0  -11   11     -2.59      0.00
    0  -11   10     -2.59      0.00
    0  -11    9     -7.08      0.00
    0  -11    8     -6.51      0.00
    0  -11    7     -2.30      0.00
    0  -11    6     -0.41      0.00
    0  -11    5     -1.35      0.00
    0  -11    4     -7.88      0.00
    0  -11    3     -9.50      0.00
    0  -11    2     -1.35      0.00
    0  -11    1      2.32      0.00
    0   11    0      1.64      0.00
    0   11    1      1.01      0.00
    0   11    2     10.46      0.00
    0   11    3     -2.79      0.00
    0   11    4     -1.31      0.00
    0   11    5     -3.56      0.00
    0   11    6     -7.64      0.00
    0   11    7      8.09      0.00
    0   11    8     -0.65      0.00
    0   11    9      1.97      0.00
    0   11   10      1.45      0.00
    0   11   11     -0.80      0.00
    0   11   12      1.17      0.00
    0   11   13     -0.68      0.00
    0  -12   23     -0.25      0.00
    0  -12   22     -2.14      0.00
    0  -12   21     -0.96      0.00
    0  -12   20     -1.20      0.00
    0  -12   19      1.58      0.00
    0  -12   18      2.27      0.00
    0  -12   17     -4.61      0.00
    0  -12   16     -2.77      0.00
    0  -12   15     -7.97      0.00
    0  -12   14      1.91      0.00
    0  -12   13      5.68      0.00
    0  -12   12      2.54      0.00
    0  -12   11      7.86      0.00
    0  -12   10     -2.84      0.00
    0  -12    9      6.10      0.00
    0  -12    8     -7.27      0.00
    0  -12    7     -1.10      0.00
    0  -12    6      2.32      0.00
    0  -12    5      1.34      0.00
    0  -12    4      6.43      0.00
    0  -12    3     -2.02      0.00
    0  -12    2     -1.49      0.00
    0  -12    1      0.10      0.00
    0   12    0     -1.93      0.00
    0   12    1     -3.30      0.00
    0   12    2      0.99      0.00
    0   12    3      7.42      0.00
    0   12    4     -3.56      0.00
    0   12    5      1.44      0.00
    0   12    6     -6.89      0.00
    0   12    7     -0.32      0.00
    0   12    8      3.42      0.00
    0   12    9      1.20      0.00
    0   12   10      2.42      0.00
    0   12   11      1.18      0.00
    0   12   12     -0.40      0.00
    0   12   13      0.54      0.00
    0  -13   23      1.34      0.00
    0  -13   22      0.72      0.00
    0  -13   21     -0.63      0.00
    0  -13   20     -2.17      0.00
    0  -13   19     -0.96      0.00
    0  -13   18      0.92      0.00
    0  -13   17      2.67      0.00
    0  -13   16     -2.81      0.00
    0  -13   15     -1.02      0.00
    0  -13   14     -3.00      0.00
    0  -13   13      0.02      0.00
    0  -13   12      0.61      0.00
    0  -13   11      5.40      0.00
    0  -13   10      4.53      0.00
    0  -13    9      7.25      0.00
    0  -13    8      6.64      0.00
    0  -13    7     -2.48      0.00
    0  -13    6     -1.14      0.00
    0  -13    5     -1.85      0.00
    0  -13    4     -3.47      0.00
    0  -13    3     -2.51      0.00
    0  -13    2     -0.81      0.00
    0  -13    1     -4.13      0.00
    0   13    0      1.59      0.00
    0   13    1     -4.17      0.00
    0   13    2     -5.82      0.00
    0   13    3      6.24      0.00
    0   13    4      1.73      0.00
    0   13    5      5.12      0.00
    0   13    6      1.14      0.00
    0   13    7     -2.75      0.00
    0   13    8     -0.29      0.00
    0   13    9      0.91      0.00
    0   13   10      0.85      0.00
    0   13   11      0.06      0.00
    0   13   12      1.79      0.00
    0  -14   22      2.02      0.00
    0  -14   21      0.59      0.00
    0  -14   20     -0.06      0.00
    0  -14   19     -2.37      0.00
    0  -14   18      0.97      0.00
    0  -14   17      0.25      0.00
    0  -14   16      0.26      0.00
    0  -14   15      0.26      0.00
    0  -14   14     -5.23      0.00
    0  -14   13      2.57      0.00
    0  -14   12     -4.38      0.00
    0  -14   11      0.22      0.00
    0  -14   10      1.80      0.00
    0  -14    9     -1.95      0.00
    0  -14    8      8.63      0.00
    0  -14    7     -0.96      0.00
    0  -14    6     -0.18      0.00
    0  -14    5      0.64      0.00
    0  -14    4      0.26      0.00
    0  -14    3      0.12      0.00
    0  -14    2     -2.26      0.00
    0  -14    1      2.92      0.00
    0   14    0     -4.47      0.00
    0   14    1      2.93      0.00
    0   14    2     -6.69      0.00
    0   14    3     -4.56      0.00
    0   14    4      3.11      0.00
    0   14    5      0.97      0.00
    0   14    6      3.87      0.00
    0   14    7      0.58      0.00
    0   14    8     -0.72      0.00
    0   14    9     -1.45      0.00
    0   14   10     -0.26      0.00
    0   14   11     -0.41      0.00
    0  -15   22      0.45      0.00
    0  -15   21      0.96      0.00
    0  -15   20      0.63      0.00
    0  -15   19     -1.70      0.00
    0  -15   18     -1.77      0.00
    0  -15   17     -1.37      0.00
    0  -15   16      0.25      0.00
    0  -15   15     -2.24      0.00
    0  -15   14     -1.02      0.00
    0  -15   13     -3.06      0.00
    0  -15   12      3.91      0.00
    0  -15   11     -2.76      0.00
    0  -15   10      2.75      0.00
    0  -15    9      1.44      0.00
    0  -15    8     -1.24      0.00
    0  -15    7      5.88      0.00
    0  -15    6     -1.24      0.00
    0  -15    5     -1.50      0.00
    0  -15    4      0.03      0.00
    0  -15    3     -2.44      0.00
    0  -15    2     -1.93      0.00
    0  -15    1     -1.25      0.00
    0   15    0      3.01      0.00
    0   15    1      1.46      0.00
    0   15    2      1.39      0.00
    0   15    3     -2.50      0.00
    0   15    4     -3.25      0.00
    0   15    5      2.02      0.00
    0   15    6      2.37      0.00
    0   15    7      2.29      0.00
    0   15    8      1.54      0.00
    0   15    9     -0.38      0.00
    0  -16   21      0.55      0.00
    0  -16   20      1.70      0.00
    0  -16   19      0.55      0.00
    0  -16   18     -1.22      0.00
    0  -16   17      1.75      0.00
    0  -16   16      0.38      0.00
    0  -16   15      1.84      0.00
    0  -16   14      0.50      0.00
    0  -16   13     -3.44      0.00
    0  -16   12      2.81      0.00
    0  -16   11     -1.43      0.00
    0  -16   10      2.38      0.00
    0  -16    9     -3.43      0.00
    0  -16    8     -0.56      0.00
    0  -16    7     -1.00      0.00
    0  -16    6      0.47      0.00
    0  -16    5      2.34      0.00
    0  -16    4      0.94      0.00
    0  -16    3      3.36      0.00
    0  -16    2     -1.35      0.00
    0  -16    1     -2.93      0.00
    0   16    0      0.82      0.00
    0   16    1      1.02      0.00
    0   16    2      3.63      0.00
    0   16    3     -0.73      0.00
    0   16    4     -0.44      0.00
    0   16    5     -1.77      0.00
    0   16    6      0.65      0.00
    0   16    7     -0.72      0.00
    0   16    8     -1.04      0.00
    0  -17   20      1.35      0.00
    0  -17   19     -0.10      0.00
    0  -17   18     -0.66      0.00
    0  -17   17     -3.54      0.00
    0  -17   16     -0.60      0.00
    0  -17   15     -0.04      0.00
    0  -17   14      2.07      0.00
    0  -17   13      0.59      0.00
    0  -17   12     -0.23      0.00
    0  -17   11      3.90      0.00
    0  -17   10     -0.62      0.00
    0  -17    9      2.92      0.00
    0  -17    8     -1.26      0.00
    0  -17    7     -1.20      0.00
    0  -17    6     -1.95      0.00
    0  -17    5     -2.26      0.00
    0  -17    4     -0.71      0.00
    0  -17    3      0.93      0.00
    0  -17    2      2.36      0.00
    0  -17    1     -0.97      0.00
    0   17    0     -1.95      0.00
    0   17    1      0.67      0.00
    0   17    2      2.22      0.00
    0   17    3      1.79      0.00
    0   17    4      1.38      0.00
    0   17    5     -1.25      0.00
    0   17    6     -0.17      0.00
    0  -18   19      0.36      0.00
    0  -18   18      0.26      0.00
    0  -18   17     -2.79      0.00
    0  -18   16      0.12      0.00
    0  -18   15     -2.00      0.00
    0  -18   14      2.92      0.00
    0  -18   13      1.31      0.00
    0  -18   12     -0.57      0.00
    0  -18   11     -0.14      0.00
    0  -18   10      0.87      0.00
    0  -18    9      0.39      0.00
    0  -18    8      0.38      0.00
    0  -18    7     -0.11      0.00
    0  -18    6      0.86      0.00
    0  -18    5     -1.53      0.00
    0  -18    4      0.11      0.00
    0  -18    3     -0.23      0.00
    0  -18    2      1.47      0.00
    0  -18    1      2.62      0.00
    0   18    0     -1.18      0.00
    0   18    1     -0.58      0.00
    0   18    2     -0.06      0.00
    0   18    3      0.75      0.00
    0   18    4      1.29      0.00
    0  -19   14     -1.90      0.00
    0  -19   13      2.09      0.00
    0  -19   12     -0.23      0.00
    0  -19   11      0.45      0.00
    0  -19   10     -1.60      0.00
    0  -19    9      0.54      0.00
    0  -19    8     -1.21      0.00
    0  -19    7     -0.60      0.00
    0  -19    6      0.44      0.00
    0  -19    5     -0.45      0.00
    0  -19    4     -0.35      0.00
    0  -19    3     -0.51      0.00
    0  -19    2     -0.70      0.00
    0  -19    1     -0.50      0.00
    0   19    0      0.70      0.00
    0   19    1      0.19      0.00
    0   19    2      0.59      0.00
    0  -20    4     -0.63      0.00
    0  -20    3     -0.22      0.00
    0  -20    2      0.57      0.00
    0  -20    1     -0.53      0.00
   -1   20    0      0.47      0.00
    1  -20    1     -0.53      0.00
    1  -20    2     -1.14      0.00
   -1   19    3      0.44      0.00
   -1   19    2      2.03      0.00
   -1   19    1     -0.46      0.00
   -1   19    0     -0.84      0.00
    1  -19    1     -0.67      0.00
    1  -19    2     -2.29      0.00
    1  -19    3      0.60      0.00
    1  -19    4     -0.67      0.00
    1  -19    5      0.23      0.00
    1  -19    6      0.18      0.00
    1  -19    7      1.04      0.00
    1  -19    8     -0.61      0.00
    1  -19    9      0.63      0.00
    1  -19   11      1.48      0.00
    1  -19   12     -1.33      0.00
    1  -19   13      0.48      0.00
   -1   18    5     -1.12      0.00
   -1   18    4     -1.07      0.00
   -1   18    3     -1.90      0.00
   -1   18    2     -0.16      0.00
   -1   18    1      1.94      0.00
   -1   18    0      1.28      0.00
    1  -18    1      0.18      0.00
    1  -18    2     -0.49      0.00
    1  -18    3     -1.49      0.00
    1  -18    4      1.46      0.00
    1  -18    5     -0.09      0.00
    1  -18    6      0.49      0.00
    1  -18    7     -0.14      0.00
    1  -18    8      1.33      0.00
    1  -18    9      0.08      0.00
    1  -18   10     -2.54      0.00
    1  -18   11     -0.12      0.00
    1  -18   12     -1.98      0.00
    1  -18   13     -0.09      0.00
    1  -18   14      0.33      0.00
    1  -18   15      2.22      0.00
    1  -18   16      3.42      0.00
    1  -18   18      1.34      0.00
   -1   17    7      0.02      0.00
   -1   17    6     -1.41      0.00
   -1   17    5      0.72      0.00
   -1   17    4     -0.10      0.00
   -1   17    3     -0.83      0.00
   -1   17    2     -3.12      0.00
   -1   17    1     -1.18      0.00
   -1   17    0      1.82      0.00
    1  -17    1     -0.77      0.00
    1  -17    2     -0.15      0.00
    1  -17    3     -3.05      0.00
    1  -17    4     -1.18      0.00
    1  -17    5      1.09      0.00
    1  -17    6      0.01      0.00
    1  -17    7      2.44      0.00
    1  -17    8      0.67      0.00
    1  -17    9     -0.67      0.00
    1  -17   10     -0.34      0.00
    1  -17   11     -3.81      0.00
    1  -17   12      0.35      0.00
    1  -17   13     -4.28      0.00
    1  -17   14      0.66      0.00
    1  -17   15     -3.13      0.00
    1  -17   16      0.99      0.00
    1  -17   17      2.58      0.00
    1  -17   18      1.16      0.00
    1  -17   19      1.35      0.00
    1  -17   20      0.03      0.00
   -1   16    8      0.54      0.00
   -1   16    7     -2.62      0.00
   -1   16    6      1.77      0.00
   -1   16    5      1.02      0.00
   -1   16    4      2.27      0.00
   -1   16    3      1.71      0.00
   -1   16    2     -2.76      0.00
   -1   16    1     -2.56      0.00
   -1   16    0      0.52      0.00
    1  -16    1      2.45      0.00
    1  -16    2      0.35      0.00
    1  -16    3     -0.20      0.00
    1  -16    4     -0.66      0.00
    1  -16    5     -1.29      0.00
    1  -16    6     -0.78      0.00
    1  -16    7     -0.21      0.00
    1  -16    8     -2.91      0.00
    1  -16    9      2.36      0.00
    1  -16   10     -2.36      0.00
    1  -16   11     -1.96      0.00
    1  -16   12      0.87      0.00
    1  -16   13      0.04      0.00
    1  -16   14     -0.05      0.00
    1  -16   15      1.07      0.00
    1  -16   16      1.21      0.00
    1  -16   17      1.32      0.00
    1  -16   18      3.03      0.00
    1  -16   19      0.95      0.00
    1  -16   20      0.85      0.00
    1  -16   21     -0.45      0.00
   -1   15   10      0.58      0.00
   -1   15    9     -0.07      0.00
   -1   15    8      0.69      0.00
   -1   15    7     -0.88      0.00
   -1   15    6     -1.87      0.00
   -1   15    5     -0.65      0.00
   -1   15    4      5.40      0.00
   -1   15    3      0.67      0.00
   -1   15    2      4.35      0.00
   -1   15    1     -2.86      0.00
   -1   15    0     -2.32      0.00
    1  -15    1      2.57      0.00
    1  -15    2      0.55      0.00
    1  -15    3     -1.19      0.00
    1  -15    4     -1.73      0.00
    1  -15    5      0.48      0.00
    1  -15    6     -0.50      0.00
    1  -15    7     -2.30      0.00
    1  -15    8      4.39      0.00
    1  -15    9     -4.46      0.00
    1  -15   10      8.15      0.00
    1  -15   11     -3.60      0.00
    1  -15   12      1.45      0.00
    1  -15   13      0.30      0.00
    1  -15   14     -2.24      0.00
    1  -15   15     -0.30      0.00
    1  -15   16     -3.59      0.00
    1  -15   17     -0.77      0.00
    1  -15   18      1.09      0.00
    1  -15   19      1.23      0.00
    1  -15   20      0.82      0.00
    1  -15   21     -1.27      0.00
    1  -15   22     -0.22      0.00
   -1   14   11      0.06      0.00
   -1   14   10      1.01      0.00
   -1   14    9      0.36      0.00
   -1   14    8     -1.12      0.00
   -1   14    7     -0.94      0.00
   -1   14    6     -1.51      0.00
   -1   14    5     -3.36      0.00
   -1   14    4     -1.74      0.00
   -1   14    3      7.61      0.00
   -1   14    2      1.49      0.00
   -1   14    1      6.77      0.00
   -1   14    0     -1.67      0.00
    1  -14    1     -0.02      0.00
    1  -14    2      4.17      0.00
    1  -14    3      2.06      0.00
    1  -14    4     -2.77      0.00
    1  -14    5     -0.66      0.00
    1  -14    6     -3.43      0.00
    1  -14    7     -6.35      0.00
    1  -14    8     -5.30      0.00
    1  -14    9     -4.57      0.00
    1  -14   10     -1.78      0.00
    1  -14   11      4.60      0.00
    1  -14   12      1.00      0.00
    1  -14   13      3.10      0.00
    1  -14   14      4.32      0.00
    1  -14   15     -0.63      0.00
    1  -14   16      0.84      0.00
    1  -14   17     -1.97      0.00
    1  -14   18     -0.10      0.00
    1  -14   19      1.40      0.00
    1  -14   20      1.21      0.00
    1  -14   22     -1.62      0.00
   -1   13   13      0.87      0.00
   -1   13   12      0.74      0.00
   -1   13   11      0.62      0.00
   -1   13   10      0.11      0.00
   -1   13    9      0.19      0.00
   -1   13    8      2.47      0.00
   -1   13    7      1.68      0.00
   -1   13    6      2.63      0.00
   -1   13    5     -0.38      0.00
   -1   13    4     -6.25      0.00
   -1   13    3     -0.61      0.00
   -1   13    2      3.55      0.00
   -1   13    1      4.74      0.00
   -1   13    0      5.33      0.00
    1  -13    1     -0.20      0.00
    1  -13    2     -1.11      0.00
    1  -13    3      0.89      0.00
    1  -13    4      0.84      0.00
    1  -13    5     -2.92      0.00
    1  -13    6      8.42      0.00
    1  -13    7     -0.97      0.00
    1  -13    8     -2.08      0.00
    1  -13    9     -2.32      0.00
    1  -13   10     -9.76      0.00
    1  -13   11      3.20      0.00
    1  -13   12     -6.01      0.00
    1  -13   13      6.64      0.00
    1  -13   14      1.27      0.00
    1  -13   15      5.24      0.00
    1  -13   16      2.11      0.00
    1  -13   17     -3.18      0.00
    1  -13   18     -1.45      0.00
    1  -13   19     -1.35      0.00
    1  -13   20      1.83      0.00
    1  -13   21      1.28      0.00
    1  -13   22      0.00      0.00
   -1   12   13     -0.42      0.00
   -1   12   12      0.98      0.00
   -1   12   11     -1.47      0.00
   -1   12   10      0.57      0.00
   -1   12    9     -2.14      0.00
   -1   12    8     -0.76      0.00
   -1   12    7      4.63      0.00
   -1   12    6     -1.82      0.00
   -1   12    5      9.81      0.00
   -1   12    4     -7.06      0.00
   -1   12    3     -6.09      0.00
   -1   12    2     -1.72      0.00
   -1   12    1      1.59      0.00
   -1   12    0      8.54      0.00
    1  -12    1      7.51      0.00
    1  -12    2      7.75      0.00
    1  -12    3      4.58      0.00
    1  -12    4      4.51      0.00
    1  -12    5     -5.69      0.00
    1  -12    6     -1.42      0.00
    1  -12    7      3.90      0.00
    1  -12    8     -0.14      0.00
    1  -12    9     -1.20      0.00
    1  -12   10     -3.52      0.00
    1  -12   11     -8.06      0.00
    1  -12   12     -1.80      0.00
    1  -12   13     -7.91      0.00
    1  -12   14      0.70      0.00
    1  -12   15      5.72      0.00
    1  -12   16      6.88      0.00
    1  -12   17      5.94      0.00
    1  -12   18     -1.75      0.00
    1  -12   19     -0.25      0.00
    1  -12   20     -1.64      0.00
    1  -12   21      0.92      0.00
    1  -12   22      0.87      0.00
    1  -12   23     -0.30      0.00
   -1   11   14     -0.87      0.00
   -1   11   13      0.20      0.00
   -1   11   12      1.13      0.00
   -1   11   11     -0.11      0.00
   -1   11   10     -0.04      0.00
   -1   11    9      1.71      0.00
   -1   11    8     -7.98      0.00
   -1   11    7      2.69      0.00
   -1   11    6      1.03      0.00
   -1   11    5      3.90      0.00
   -1   11    4     12.03      0.00
   -1   11    3     -7.15      0.00
   -1   11    2     -1.75      0.00
   -1   11    1     -2.33      0.00
   -1   11    0     -1.26      0.00
    1  -11    1     -2.80      0.00
    1  -11    2      4.45      0.00
    1  -11    3      7.39      0.00
    1  -11    4      8.13      0.00
    1  -11    5      8.90      0.00
    1  -11    6    -10.85      0.00
    1  -11    7      1.48      0.00
    1  -11    8     -2.20      0.00
    1  -11    9      3.68      0.00
    1  -11   10     -2.83      0.00
    1  -11   11      2.36      0.00
    1  -11   12     -3.73      0.00
    1  -11   13     -5.65      0.00
    1  -11   14     -6.17      0.00
    1  -11   15     -6.86      0.00
    1  -11   16      4.50      0.00
    1  -11   17      5.65      0.00
    1  -11   18      2.95      0.00
    1  -11   19      0.55      0.00
    1  -11   20     -0.26      0.00
    1  -11   21      0.62      0.00
    1  -11   22      0.34      0.00
    1  -11   23      0.20      0.00
   -1   10   15      0.07      0.00
   -1   10   14     -0.48      0.00
   -1   10   13     -3.11      0.00
   -1   10   12     -1.33      0.00
   -1   10   11      1.42      0.00
   -1   10   10     -2.58      0.00
   -1   10    9      6.39      0.00
   -1   10    8      0.14      0.00
   -1   10    7     -7.24      0.00
   -1   10    6      2.31      0.00
   -1   10    5     -3.58      0.00
   -1   10    4      4.58      0.00
   -1   10    3      5.43      0.00
   -1   10    2     -0.55      0.00
   -1   10    1     -0.07      0.00
   -1   10    0      7.99      0.00
    1  -10    1     -6.47      0.00
    1  -10    2    -11.68      0.00
    1  -10    3     -3.58      0.00
    1  -10    4      6.90      0.00
    1  -10    5     14.89      0.00
    1  -10    6      9.77      0.00
    1  -10    7     -2.14      0.00
    1  -10    8     -3.81      0.00
    1  -10    9     -0.58      0.00
    1  -10   10     -4.43      0.00
    1  -10   11     -5.47      0.00
    1  -10   12      5.17      0.00
    1  -10   13     -0.40      0.00
    1  -10   14     -2.61      0.00
    1  -10   15     -3.48      0.00
    1  -10   16     -6.98      0.00
    1  -10   17      5.11      0.00
    1  -10   18      2.71      0.00
    1  -10   19      3.92      0.00
    1  -10   20      1.47      0.00
    1  -10   21      2.04      0.00
    1  -10   22      0.40      0.00
    1  -10   23      0.14      0.00
   -1    9   16      0.87      0.00
   -1    9   15      1.44      0.00
   -1    9   14      0.34      0.00
   -1    9   13      2.37      0.00
   -1    9   12     -3.95      0.00
   -1    9   11      1.23      0.00
   -1    9   10     -0.34      0.00
   -1    9    9     -1.64      0.00
   -1    9    8     12.88      0.00
   -1    9    7     -4.40      0.00
   -1    9    6      1.78      0.00
   -1    9    5     -4.97      0.00
   -1    9    4      5.78      0.00
   -1    9    3      3.21      0.00
   -1    9    2      2.17      0.00
   -1    9    0      2.10      0.00
    1   -9    1     18.52      0.00
    1   -9    2     -1.39      0.00
    1   -9    3    -14.57      0.00
    1   -9    4      2.38      0.00
    1   -9    5     -2.67      0.00
    1   -9    6     15.55      0.00
    1   -9    7      2.30      0.00
    1   -9    8      5.07      0.00
    1   -9    9     -4.98      0.00
    1   -9   10      7.92      0.00
    1   -9   11     -6.65      0.00
    1   -9   12      2.53      0.00
    1   -9   13      5.44      0.00
    1   -9   14      3.43      0.00
    1   -9   15     -1.20      0.00
    1   -9   16     -4.46      0.00
    1   -9   17     -3.62      0.00
    1   -9   18     -0.13      0.00
    1   -9   19      1.32      0.00
    1   -9   20      1.80      0.00
    1   -9   21      1.44      0.00
    1   -9   22      2.13      0.00
    1   -9   23     -0.55      0.00
   -1    8   16      1.51      0.00
   -1    8   15      1.80      0.00
   -1    8   14      0.11      0.00
   -1    8   13      0.96      0.00
   -1    8   12      4.28      0.00
   -1    8   11     -1.95      0.00
   -1    8   10      4.79      0.00
   -1    8    9     -6.33      0.00
   -1    8    8      3.26      0.00
   -1    8    7      3.80      0.00
   -1    8    6     -5.75      0.00
   -1    8    5     -9.08      0.00
   -1    8    4     -2.30      0.00
   -1    8    3      3.37      0.00
   -1    8    2      5.13      0.00
   -1    8    1      1.18      0.00
   -1    8    0     -3.98      0.00
    1   -8    1     11.83      0.00
    1   -8    2      9.72      0.00
    1   -8    3      4.10      0.00
    1   -8    4    -25.22      0.00
    1   -8    5      4.25      0.00
    1   -8    6     -7.39      0.00
    1   -8    7      3.51      0.00
    1   -8    8     -3.44      0.00
    1   -8    9     -8.32      0.00
    1   -8   10     -2.03      0.00
    1   -8   11     -7.64      0.00
    1   -8   12     -4.65      0.00
    1   -8   13      5.04      0.00
    1   -8   14      5.73      0.00
    1   -8   15      7.95      0.00
    1   -8   16     -0.37      0.00
    1   -8   17     -1.53      0.00
    1   -8   18      1.03      0.00
    1   -8   19     -3.06      0.00
    1   -8   20      1.28      0.00
    1   -8   21     -2.02      0.00
    1   -8   22      2.33      0.00
    1   -8   23      1.07      0.00
   -1    7   17     -1.87      0.00
   -1    7   16     -2.29      0.00
   -1    7   15      1.91      0.00
   -1    7   14     -0.18      0.00
   -1    7   13     -4.79      0.00
   -1    7   12      1.90      0.00
   -1    7   11      0.28      0.00
   -1    7   10      5.95      0.00
   -1    7    9      6.70      0.00
   -1    7    8      3.97      0.00
   -1    7    7      8.22      0.00
   -1    7    6      3.42      0.00
   -1    7    5     -8.29      0.00
   -1    7    4    -16.54      0.00
   -1    7    3      1.63      0.00
   -1    7    2     -4.32      0.00
   -1    7    1    -14.72      0.00
   -1    7    0     -3.73      0.00
    1   -7    1    -27.06      0.00
    1   -7    2     28.08      0.00
    1   -7    3      5.09      0.00
    1   -7    4     11.84      0.00
    1   -7    5     -3.31      0.00
    1   -7    6     14.20      0.00
    1   -7    7     -0.85      0.00
    1   -7    8      9.72      0.00
    1   -7    9      4.14      0.00
    1   -7   10     -0.98      0.00
    1   -7   11     13.51      0.00
    1   -7   12     -5.57      0.00
    1   -7   13     -2.22      0.00
    1   -7   14      2.45      0.00
    1   -7   15      0.04      0.00
    1   -7   16      1.85      0.00
    1   -7   17     -4.17      0.00
    1   -7   18      1.89      0.00
    1   -7   19     -0.54      0.00
    1   -7   20      0.51      0.00
    1   -7   21     -2.62      0.00
    1   -7   22     -2.12      0.00
    1   -7   23      0.31      0.00
   -1    6   18     -0.05      0.00
   -1    6   17     -1.29      0.00
   -1    6   16     -2.50      0.00
   -1    6   15     -0.56      0.00
   -1    6   14      5.46      0.00
   -1    6   13      1.83      0.00
   -1    6   12     -1.33      0.00
   -1    6   11      2.40      0.00
   -1    6   10     -2.28      0.00
   -1    6    9     -0.95      0.00
   -1    6    8      0.60      0.00
   -1    6    7     10.33      0.00
   -1    6    6      3.12      0.00
   -1    6    5     20.93      0.00
   -1    6    4    -18.65      0.00
   -1    6    3      4.93      0.00
   -1    6    2      7.02      0.00
   -1    6    1      5.50      0.00
   -1    6    0    -23.40      0.00
    1   -6    1      4.41      0.00
    1   -6    2    -26.96      0.00
    1   -6    3     30.65      0.00
    1   -6    4      5.97      0.00
    1   -6    5    -10.86      0.00
    1   -6    6      1.78      0.00
    1   -6    7      2.71      0.00
    1   -6    8    -12.55      0.00
    1   -6    9     -8.39      0.00
    1   -6   10     -3.18      0.00
    1   -6   11     -5.21      0.00
    1   -6   12      6.15      0.00
    1   -6   13     -2.55      0.00
    1   -6   14      1.67      0.00
    1   -6   15      0.51      0.00
    1   -6   16      7.38      0.00
    1   -6   17     -4.31      0.00
    1   -6   18      2.51      0.00
    1   -6   19     -0.34      0.00
    1   -6   20      0.12      0.00
    1   -6   21      1.63      0.00
    1   -6   22     -1.96      0.00
    1   -6   23     -0.28      0.00
   -1    5   18      2.32      0.00
   -1    5   17     -0.28      0.00
   -1    5   16     -1.56      0.00
   -1    5   15     -3.37      0.00
   -1    5   14     -2.40      0.00
   -1    5   13      4.85      0.00
   -1    5   12      0.42      0.00
   -1    5   11      7.60      0.00
   -1    5   10      5.90      0.00
   -1    5    9      7.62      0.00
   -1    5    8     -8.41      0.00
   -1    5    7     12.23      0.00
   -1    5    6     10.20      0.00
   -1    5    5      5.69      0.00
   -1    5    4     10.75      0.00
   -1    5    3    -37.20      0.00
   -1    5    2     -5.84      0.00
   -1    5    1     -0.22      0.00
   -1    5    0    -16.94      0.00
    1   -5    1    -41.38      0.00
    1   -5    2    -32.02      0.00
    1   -5    3    -27.96      0.00
    1   -5    4     -1.75      0.00
    1   -5    5     15.61      0.00
    1   -5    6     -9.30      0.00
    1   -5    7     20.53      0.00
    1   -5    8     11.23      0.00
    1   -5    9      4.42      0.00
    1   -5   10     -2.42      0.00
    1   -5   11     -0.35      0.00
    1   -5   12      0.04      0.00
    1   -5   13     -9.14      0.00
    1   -5   14     -1.79      0.00
    1   -5   15    -10.67      0.00
    1   -5   16      0.74      0.00
    1   -5   17     -0.41      0.00
    1   -5   18     -6.35      0.00
    1   -5   19      3.00      0.00
    1   -5   20     -1.04      0.00
    1   -5   21      3.40      0.00
    1   -5   22      1.48      0.00
   -1    4   19     -0.82      0.00
   -1    4   18      2.33      0.00
   -1    4   17      5.48      0.00
   -1    4   16      0.85      0.00
   -1    4   15      1.73      0.00
   -1    4   14     -1.83      0.00
   -1    4   13     -5.60      0.00
   -1    4   12     -0.64      0.00
   -1    4   11     -2.53      0.00
   -1    4   10     -4.42      0.00
   -1    4    9      7.11      0.00
   -1    4    8    -15.22      0.00
   -1    4    7    -11.03      0.00
   -1    4    6     -4.53      0.00
   -1    4    5     20.59      0.00
   -1    4    4     25.60      0.00
   -1    4    3     28.48      0.00
   -1    4    2    -13.11      0.00
   -1    4    1     -8.77      0.00
   -1    4    0     -5.20      0.00
    1   -4    1    -16.77      0.00
    1   -4    2    -32.15      0.00
    1   -4    3      8.27      0.00
    1   -4    4     -4.85      0.00
    1   -4    5      9.94      0.00
    1   -4    6    -15.56      0.00
    1   -4    7     -8.83      0.00
    1   -4    8     -6.31      0.00
    1   -4    9     10.12      0.00
    1   -4   10      2.66      0.00
    1   -4   11     11.28      0.00
    1   -4   12      5.42      0.00
    1   -4   13      1.05      0.00
    1   -4   14     -9.96      0.00
    1   -4   15     -0.12      0.00
    1   -4   16     -9.35      0.00
    1   -4   17      6.59      0.00
    1   -4   18     -4.12      0.00
    1   -4   19      0.81      0.00
    1   -4   20     -0.12      0.00
    1   -4   21      0.30      0.00
    1   -4   22      2.78      0.00
   -1    3   20     -1.24      0.00
   -1    3   19     -4.67      0.00
   -1    3   18     -4.24      0.00
   -1    3   17      1.90      0.00
   -1    3   16      3.12      0.00
   -1    3   15      1.82      0.00
   -1    3   14      2.60      0.00
   -1    3   13      5.69      0.00
   -1    3   12     -0.58      0.00
   -1    3   11      5.86      0.00
   -1    3   10     -1.21      0.00
   -1    3    9      1.15      0.00
   -1    3    8     19.26      0.00
   -1    3    7    -11.71      0.00
   -1    3    6     -4.46      0.00
   -1    3    5    -21.43      0.00
   -1    3    4     -5.29      0.00
   -1    3    2     -6.74      0.00
   -1    3    1     40.46      0.00
   -1    3    0     -8.59      0.00
    1   -3    1     28.56      0.00
    1   -3    2    -27.16      0.00
    1   -3    3    -17.67      0.00
    1   -3    4     27.67      0.00
    1   -3    5     10.03      0.00
    1   -3    6     34.94      0.00
    1   -3    7     -5.01      0.00
    1   -3    8      8.11      0.00
    1   -3    9      2.17      0.00
    1   -3   10      0.28      0.00
    1   -3   11     -8.17      0.00
    1   -3   12      3.43      0.00
    1   -3   13      2.38      0.00
    1   -3   14     -6.61      0.00
    1   -3   15     -2.50      0.00
    1   -3   16    -12.42      0.00
    1   -3   17     -1.91      0.00
    1   -3   18     -0.47      0.00
    1   -3   19     -2.35      0.00
    1   -3   20      1.37      0.00
    1   -3   21     -0.89      0.00
   -1    2   20      1.60      0.00
   -1    2   19      0.16      0.00
   -1    2   18     -4.45      0.00
   -1    2   17     -3.44      0.00
   -1    2   16      2.55      0.00
   -1    2   15      0.47      0.00
   -1    2   14      1.08      0.00
   -1    2   13     -2.54      0.00
   -1    2   12     -2.83      0.00
   -1    2   11    -10.76      0.00
   -1    2   10      0.94      0.00
   -1    2    9    -10.53      0.00
   -1    2    8      6.41      0.00
   -1    2    7      9.34      0.00
   -1    2    6     -4.87      0.00
   -1    2    5     -2.46      0.00
   -1    2    4     11.76      0.00
   -1    2    3     -5.46      0.00
   -1    2    2     -3.79      0.00
   -1    2    1      3.01      0.00
   -1    2    0      4.08      0.00
    1   -2    1     61.20      0.00
    1   -2    2    -24.88      0.00
    1   -2    3    -48.80      0.00
    1   -2    4    -64.36      0.00
    1   -2    5     -2.20      0.00
    1   -2    6    -34.93      0.00
    1   -2    7     16.21      0.00
    1   -2    8    -12.82      0.00
    1   -2    9      6.61      0.00
    1   -2   10      6.33      0.00
    1   -2   11      4.09      0.00
    1   -2   12    -15.05      0.00
    1   -2   13     12.44      0.00
    1   -2   14     -3.24      0.00
    1   -2   15      1.61      0.00
    1   -2   16     -0.69      0.00
    1   -2   17     -8.17      0.00
    1   -2   18      1.09      0.00
    1   -2   19     -1.84      0.00
    1   -2   20     -1.15      0.00
    1   -2   21     -1.19      0.00
   -1    1   21      1.63      0.00
   -1    1   20      2.75      0.00
   -1    1   19      3.54      0.00
   -1    1   18     -1.49      0.00
   -1    1   17     -8.09      0.00
   -1    1   16     -7.67      0.00
   -1    1   15     -0.29      0.00
   -1    1   14     -0.27      0.00
   -1    1   13      4.23      0.00
   -1    1   12     16.00      0.00
   -1    1   11      3.31      0.00
   -1    1   10      4.30      0.00
   -1    1    9     -4.40      0.00
   -1    1    8     -5.03      0.00
   -1    1    7      0.99      0.00
   -1    1    6      6.11      0.00
   -1    1    5    -13.38      0.00
   -1    1    4    -38.13      0.00
   -1    1    3      3.60      0.00
   -1    1    2   -116.30      0.00
   -1    1    1   -153.85      0.00
   -1    1    0     -5.91      0.00
    1   -1    1    -71.34      0.00
    1   -1    2    222.57      0.00
    1   -1    3     37.80      0.00
    1   -1    4     61.14      0.00
    1   -1    5    -13.04      0.00
    1   -1    6     17.91      0.00
    1   -1    7    -19.93      0.00
    1   -1    8      5.56      0.00
    1   -1    9     -0.99      0.00
    1   -1   10     -4.36      0.00
    1   -1   11      0.23      0.00
    1   -1   12    -13.39      0.00
    1   -1   13    -16.87      0.00
    1   -1   14      0.56      0.00
    1   -1   15     -6.69      0.00
    1   -1   16      2.53      0.00
    1   -1   17     -0.84      0.00
    1   -1   18      2.26      0.00
    1   -1   19      2.21      0.00
    1   -1   20     -1.15      0.00
   -1    0   21     -0.18      0.00
   -1    0   20      1.50      0.00
   -1    0   19      4.60      0.00
   -1    0   18      4.00      0.00
   -1    0   17      0.13      0.00
   -1    0   16      2.44      0.00
   -1    0   15     -7.95      0.00
   -1    0   14      4.70      0.00
   -1    0   13    -13.46      0.00
   -1    0   12     -3.93      0.00
   -1    0   11      6.85      0.00
   -1    0   10      1.34      0.00
   -1    0    9     -5.05      0.00
   -1    0    8      2.28      0.00
   -1    0    7    -10.55      0.00
   -1    0    6     -2.87      0.00
   -1    0    5     -3.16      0.00
   -1    0    4     -4.38      0.00
   -1    0    3     21.09      0.00
   -1    0    2    132.36      0.00
   -1    0    1     11.06      0.00
    1    0    0    -15.08      0.00
    1    0    1      1.06      0.00
    1    0    2    -42.11      0.00
    1    0    3     78.34      0.00
    1    0    4     -8.64      0.00
    1    0    5     -2.96      0.00
    1    0    6     -7.38      0.00
    1    0    7     -9.69      0.00
    1    0    8     -7.55      0.00
    1    0    9     -0.49      0.00
    1    0   10      2.05      0.00
    1    0   11      2.37      0.00
    1    0   12      7.30      0.00
    1    0   13     -5.85      0.00
    1    0   14     -0.26      0.00
    1    0   15     -2.72      0.00
    1    0   16     -2.77      0.00
    1    0   17     -2.40      0.00
    1    0   18     -0.66      0.00
    1    0   19      2.55      0.00
    1    0   20     -1.04      0.00
   -1   -1   21     -1.86      0.00
   -1   -1   20     -0.89      0.00
   -1   -1   19      0.52      0.00
   -1   -1   18      4.55      0.00
   -1   -1   17     -0.66      0.00
   -1   -1   16      3.73      0.00
   -1   -1   15      6.66      0.00
   -1   -1   14      1.38      0.00
   -1   -1   13      7.28      0.00
   -1   -1   12    -13.12      0.00
   -1   -1   11      1.59      0.00
   -1   -1   10     14.89      0.00
   -1   -1    9      8.64      0.00
   -1   -1    8      1.42      0.00
   -1   -1    7     -3.06      0.00
   -1   -1    6      0.26      0.00
   -1   -1    5    -47.22      0.00
   -1   -1    4    -18.64      0.00
   -1   -1    3   -166.97      0.00
   -1   -1    2    -14.82      0.00
   -1   -1    1   -120.59      0.00
    1    1    0    -18.08      0.00
    1    1    1    -61.06      0.00
    1    1    2      8.54      0.00
    1    1    3     17.29      0.00
    1    1    4     56.90      0.00
    1    1    5     13.32      0.00
    1    1    6     17.84      0.00
    1    1    7      9.89      0.00
    1    1    8     -1.06      0.00
    1    1    9    -11.52      0.00
    1    1   10      3.99      0.00
    1    1   11    -10.89      0.00
    1    1   12      0.75      0.00
    1    1   13     -8.42      0.00
    1    1   14     -5.85      0.00
    1    1   15     -2.84      0.00
    1    1   16     -2.10      0.00
    1    1   17     -1.24      0.00
    1    1   18     -2.59      0.00
    1    1   19      3.18      0.00
   -1   -2   22      0.11      0.00
   -1   -2   21     -1.65      0.00
   -1   -2   20      0.57      0.00
   -1   -2   19     -3.98      0.00
   -1   -2   18      2.00      0.00
   -1   -2   17     -3.18      0.00
   -1   -2   16     -5.52      0.00
   -1   -2   15     -0.47      0.00
   -1   -2   14     -2.29      0.00
   -1   -2   13      8.24      0.00
   -1   -2   12     -3.25      0.00
   -1   -2   11    -12.29      0.00
   -1   -2   10     -9.64      0.00
   -1   -2    9     18.85      0.00
   -1   -2    8      3.67      0.00
   -1   -2    7     28.38      0.00
   -1   -2    6     14.71      0.00
   -1   -2    5     -5.32      0.00
   -1   -2    4     -7.33      0.00
   -1   -2    3    -33.66      0.00
   -1   -2    2    -66.28      0.00
   -1   -2    1     47.60      0.00
    1    2    0    -58.52      0.00
    1    2    1     14.62      0.00
    1    2    2    -26.49      0.00
    1    2    3     -6.67      0.00
    1    2    4     -7.46      0.00
    1    2    5     -7.96      0.00
    1    2    6     -0.07      0.00
    1    2    7      7.02      0.00
    1    2    8     22.84      0.00
    1    2    9      1.68      0.00
    1    2   10     -2.13      0.00
    1    2   11      3.06      0.00
    1    2   12     -1.79      0.00
    1    2   13      4.88      0.00
    1    2   14      5.31      0.00
    1    2   15      0.16      0.00
    1    2   16      2.90      0.00
    1    2   17     -1.53      0.00
    1    2   18     -3.78      0.00
    1    2   19     -3.35      0.00
   -1   -3   22      2.98      0.00
   -1   -3   21     -2.74      0.00
   -1   -3   20     -1.14      0.00
   -1   -3   19     -2.29      0.00
   -1   -3   18     -2.82      0.00
   -1   -3   17     10.29      0.00
   -1   -3   16     -3.59      0.00
   -1   -3   15      6.33      0.00
   -1   -3   14      3.76      0.00
   -1   -3   13      4.99      0.00
   -1   -3   12     14.77      0.00
   -1   -3   11     -1.35      0.00
   -1   -3   10      0.23      0.00
   -1   -3    9      2.21      0.00
   -1   -3    8     20.02      0.00
   -1   -3    7    -15.33      0.00
   -1   -3    6     14.84      0.00
   -1   -3    5     -4.80      0.00
   -1   -3    4    -47.40      0.00
   -1   -3    3      6.98      0.00
   -1   -3    2    -45.82      0.00
   -1   -3    1     39.17      0.00
    1    3    0     52.14      0.00
    1    3    1     23.20      0.00
    1    3    2      4.62      0.00
    1    3    3     14.37      0.00
    1    3    4     14.10      0.00
    1    3    5      2.71      0.00
    1    3    6     -1.33      0.00
    1    3    7    -11.48      0.00
    1    3    8      1.09      0.00
    1    3    9     12.11      0.00
    1    3   10      1.10      0.00
    1    3   11     -3.26      0.00
    1    3   12     -0.30      0.00
    1    3   13     -3.38      0.00
    1    3   14     -0.87      0.00
    1    3   15      4.90      0.00
    1    3   16      0.85      0.00
    1    3   17      3.30      0.00
    1    3   18     -1.16      0.00
   -1   -4   23      1.29      0.00
   -1   -4   22      2.58      0.00
   -1   -4   21      4.42      0.00
   -1   -4   20     -2.47      0.00
   -1   -4   19      6.58      0.00
   -1   -4   18     -5.92      0.00
   -1   -4   17      3.88      0.00
   -1   -4   16     -0.60      0.00
   -1   -4   15     -7.03      0.00
   -1   -4   14     -6.64      0.00
   -1   -4   13      2.04      0.00
   -1   -4   12     -7.39      0.00
   -1   -4   11      8.91      0.00
   -1   -4   10    -12.30      0.00
   -1   -4    9      1.07      0.00
   -1   -4    8      7.75      0.00
   -1   -4    7     32.07      0.00
   -1   -4    6     -1.15      0.00
   -1   -4    5     46.74      0.00
   -1   -4    4     19.40      0.00
   -1   -4    3    -11.14      0.00
   -1   -4    1    -42.63      0.00
    1    4    0    -23.44      0.00
    1    4    1     11.07      0.00
    1    4    2     -2.29      0.00
    1    4    3    -20.23      0.00
    1    4    4      4.94      0.00
    1    4    5      1.33      0.00
    1    4    6     -7.97      0.00
    1    4    7      2.27      0.00
    1    4    8    -11.64      0.00
    1    4    9      7.65      0.00
    1    4   10      7.46      0.00
    1    4   11      4.91      0.00
    1    4   12      1.48      0.00
    1    4   13      3.22      0.00
    1    4   14     -1.05      0.00
    1    4   15     -0.75      0.00
    1    4   16      1.27      0.00
    1    4   17     -0.26      0.00
    1    4   18      2.14      0.00
   -1   -5   23     -0.90      0.00
   -1   -5   22     -1.64      0.00
   -1   -5   21      4.72      0.00
   -1   -5   20      1.16      0.00
   -1   -5   19      2.73      0.00
   -1   -5   18      4.78      0.00
   -1   -5   17      0.60      0.00
   -1   -5   16     11.62      0.00
   -1   -5   15      2.59      0.00
   -1   -5   14      1.33      0.00
   -1   -5   13     -6.69      0.00
   -1   -5   12      6.22      0.00
   -1   -5   11     -2.81      0.00
   -1   -5   10     -2.91      0.00
   -1   -5    9      0.51      0.00
   -1   -5    8    -16.33      0.00
   -1   -5    7     -0.81      0.00
   -1   -5    6    -34.46      0.00
   -1   -5    5    -21.44      0.00
   -1   -5    4    -19.64      0.00
   -1   -5    3     30.46      0.00
   -1   -5    2      5.87      0.00
   -1   -5    1     20.53      0.00
    1    5    0     12.64      0.00
    1    5    1     14.69      0.00
    1    5    2     15.36      0.00
    1    5    3      6.35      0.00
    1    5    4     -8.91      0.00
    1    5    5     22.39      0.00
    1    5    6      0.61      0.00
    1    5    7      5.22      0.00
    1    5    8     -4.43      0.00
    1    5    9     -6.77      0.00
    1    5   10     -1.09      0.00
    1    5   11      0.48      0.00
    1    5   12     -2.42      0.00
    1    5   13      1.05      0.00
    1    5   14      2.56      0.00
    1    5   15     -0.90      0.00
    1    5   16     -1.25      0.00
    1    5   17      0.45      0.00
   -1   -6   23      0.63      0.00
   -1   -6   22     -4.39      0.00
   -1   -6   21      0.71      0.00
   -1   -6   20      3.88      0.00
   -1   -6   19      3.05      0.00
   -1   -6   18      6.71      0.00
   -1   -6   17     -0.31      0.00
   -1   -6   16      6.55      0.00
   -1   -6   15      4.85      0.00
   -1   -6   14     -0.77      0.00
   -1   -6   13     -8.45      0.00
   -1   -6   12    -10.49      0.00
   -1   -6   11      0.93      0.00
   -1   -6   10      3.41      0.00
   -1   -6    9      0.78      0.00
   -1   -6    8     13.53      0.00
   -1   -6    7      2.46      0.00
   -1   -6    6     24.80      0.00
   -1   -6    5     -4.31      0.00
   -1   -6    4     16.10      0.00
   -1   -6    3     10.58      0.00
   -1   -6    2     13.18      0.00
   -1   -6    1    -11.77      0.00
    1    6    0      2.32      0.00
    1    6    1      3.41      0.00
    1    6    2      0.37      0.00
    1    6    3      3.66      0.00
    1    6    4    -19.14      0.00
    1    6    5     -1.72      0.00
    1    6    6      5.04      0.00
    1    6    7      7.52      0.00
    1    6    8     -0.13      0.00
    1    6    9      4.69      0.00
    1    6   10     -2.62      0.00
    1    6   11      3.77      0.00
    1    6   12     -0.08      0.00
    1    6   13     -1.76      0.00
    1    6   14      0.55      0.00
    1    6   15      0.51      0.00
    1    6   16     -2.28      0.00
   -1   -7   24      0.27      0.00
   -1   -7   23      0.17      0.00
   -1   -7   22      0.66      0.00
   -1   -7   21     -4.70      0.00
   -1   -7   20      5.18      0.00
   -1   -7   19      0.97      0.00
   -1   -7   18      8.11      0.00
   -1   -7   17      4.07      0.00
   -1   -7   16      4.23      0.00
   -1   -7   15      9.03      0.00
   -1   -7   14      6.96      0.00
   -1   -7   13      1.65      0.00
   -1   -7   12     -8.51      0.00
   -1   -7   11     -1.57      0.00
   -1   -7   10     -5.91      0.00
   -1   -7    9     -8.10      0.00
   -1   -7    8    -12.56      0.00
   -1   -7    7     -5.68      0.00
   -1   -7    6    -14.68      0.00
   -1   -7    5      5.85      0.00
   -1   -7    4     -2.47      0.00
   -1   -7    3     15.56      0.00
   -1   -7    2     30.54      0.00
   -1   -7    1      6.17      0.00
    1    7    0     -6.91      0.00
    1    7    1      8.49      0.00
    1    7    2      2.60      0.00
    1    7    3     13.74      0.00
    1    7    4     -3.80      0.00
    1    7    5     -9.93      0.00
    1    7    6     -2.15      0.00
    1    7    7      3.70      0.00
    1    7    8      2.82      0.00
    1    7    9     -5.56      0.00
    1    7   10      1.49      0.00
    1    7   11     -5.90      0.00
    1    7   12      2.44      0.00
    1    7   13     -1.01      0.00
    1    7   14     -1.00      0.00
    1    7   15      0.55      0.00
    1    7   16      0.70      0.00
   -1   -8   24     -0.55      0.00
   -1   -8   23     -0.74      0.00
   -1   -8   22      3.18      0.00
   -1   -8   21     -1.24      0.00
   -1   -8   20     -0.82      0.00
   -1   -8   19      0.50      0.00
   -1   -8   18      1.11      0.00
   -1   -8   17      0.18      0.00
   -1   -8   16     -0.63      0.00
   -1   -8   15      0.81      0.00
   -1   -8   14      2.48      0.00
   -1   -8   13     -1.16      0.00
   -1   -8   12     -2.64      0.00
   -1   -8   11    -13.82      0.00
   -1   -8   10     12.58      0.00
   -1   -8    9     -1.12      0.00
   -1   -8    8      3.87      0.00
   -1   -8    7     -0.25      0.00
   -1   -8    6      2.97      0.00
   -1   -8    5    -16.27      0.00
   -1   -8    4     -5.41      0.00
   -1   -8    3    -13.15      0.00
   -1   -8    2     12.25      0.00
   -1   -8    1     26.67      0.00
    1    8    0      2.38      0.00
    1    8    1     -6.96      0.00
    1    8    2     -0.66      0.00
    1    8    3     -0.24      0.00
    1    8    4      3.76      0.00
    1    8    5     -0.09      0.00
    1    8    6     -4.03      0.00
    1    8    7     -0.62      0.00
    1    8    8      8.26      0.00
    1    8    9     -0.80      0.00
    1    8   10     -0.44      0.00
    1    8   11      0.61      0.00
    1    8   13      1.34      0.00
    1    8   14      0.24      0.00
    1    8   15      1.58      0.00
   -1   -9   24      0.29      0.00
   -1   -9   23     -0.26      0.00
   -1   -9   22      3.02      0.00
   -1   -9   21      2.51      0.00
   -1   -9   20      1.26      0.00
   -1   -9   19      4.21      0.00
   -1   -9   18      1.96      0.00
   -1   -9   17      6.77      0.00
   -1   -9   16     -5.39      0.00
   -1   -9   15      1.24      0.00
   -1   -9   14      4.98      0.00
   -1   -9   13      4.48      0.00
   -1   -9   12      5.67      0.00
   -1   -9   11     -6.43      0.00
   -1   -9   10    -12.06      0.00
   -1   -9    9     -4.69      0.00
   -1   -9    8     -7.53      0.00
   -1   -9    7     -5.79      0.00
   -1   -9    6     12.06      0.00
   -1   -9    5     13.39      0.00
   -1   -9    4      1.67      0.00
   -1   -9    3     -1.70      0.00
   -1   -9    2     -6.66      0.00
   -1   -9    1      6.06      0.00
    1    9    0     20.97      0.00
    1    9    1      2.84      0.00
    1    9    2      5.35      0.00
    1    9    3     -0.58      0.00
    1    9    4      8.54      0.00
    1    9    5     -8.92      0.00
    1    9    6      3.11      0.00
    1    9    7     -9.83      0.00
    1    9    8      1.19      0.00
    1    9    9      2.18      0.00
    1    9   10     -2.42      0.00
    1    9   11     -0.07      0.00
    1    9   12      0.07      0.00
    1    9   13     -2.07      0.00
    1    9   14      0.36      0.00
   -1  -10   24     -0.13      0.00
   -1  -10   23     -0.25      0.00
   -1  -10   22     -0.21      0.00
   -1  -10   21      1.11      0.00
   -1  -10   20      0.22      0.00
   -1  -10   19      1.37      0.00
   -1  -10   18      4.31      0.00
   -1  -10   17      1.31      0.00
   -1  -10   16      1.04      0.00
   -1  -10   15    -12.15      0.00
   -1  -10   14     -6.00      0.00
   -1  -10   13      0.55      0.00
   -1  -10   12      5.23      0.00
   -1  -10   11      7.16      0.00
   -1  -10   10      0.91      0.00
   -1  -10    9     -0.51      0.00
   -1  -10    8     -0.73      0.00
   -1  -10    7     -6.82      0.00
   -1  -10    6     -5.67      0.00
   -1  -10    5      7.90      0.00
   -1  -10    4      2.71      0.00
   -1  -10    3      1.02      0.00
   -1  -10    2    -10.70      0.00
   -1  -10    1     -5.34      0.00
    1   10    0     -5.29      0.00
    1   10    1      0.95      0.00
    1   10    2     -0.88      0.00
    1   10    3     -3.98      0.00
    1   10    4     10.76      0.00
    1   10    5     -1.90      0.00
    1   10    6     -1.57      0.00
    1   10    7     -0.85      0.00
    1   10    8     -5.86      0.00
    1   10    9      3.25      0.00
    1   10   10     -1.17      0.00
    1   10   11     -1.41      0.00
    1   10   12     -0.60      0.00
    1   10   13     -0.32      0.00
   -1  -11   24      0.31      0.00
   -1  -11   23      0.78      0.00
   -1  -11   22     -1.59      0.00
   -1  -11   21      1.63      0.00
   -1  -11   20     -3.47      0.00
   -1  -11   19      1.05      0.00
   -1  -11   18     -0.05      0.00
   -1  -11   17      7.39      0.00
   -1  -11   16      7.00      0.00
   -1  -11   15     -1.84      0.00
   -1  -11   14     -3.45      0.00
   -1  -11   13     -8.33      0.00
   -1  -11   12      0.31      0.00
   -1  -11   11     -0.21      0.00
   -1  -11   10      1.41      0.00
   -1  -11    9     -1.56      0.00
   -1  -11    8     -2.97      0.00
   -1  -11    7     -2.64      0.00
   -1  -11    6     -8.01      0.00
   -1  -11    5     -5.83      0.00
   -1  -11    4     11.07      0.00
   -1  -11    3      0.83      0.00
   -1  -11    2      8.65      0.00
   -1  -11    1     -3.42      0.00
    1   11    0      5.46      0.00
    1   11    1     -3.11      0.00
    1   11    2      1.96      0.00
    1   11    3     -3.82      0.00
    1   11    4     -1.51      0.00
    1   11    5      9.31      0.00
    1   11    6     -4.98      0.00
    1   11    7     -0.16      0.00
    1   11    8     -5.01      0.00
    1   11    9     -3.22      0.00
    1   11   10      2.21      0.00
    1   11   11     -0.47      0.00
    1   11   12     -0.49      0.00
    1   11   13      0.34      0.00
   -1  -12   23     -1.17      0.00
   -1  -12   22     -0.02      0.00
   -1  -12   21      0.18      0.00
   -1  -12   20      0.47      0.00
   -1  -12   19     -3.78      0.00
   -1  -12   18     -1.34      0.00
   -1  -12   17     -0.70      0.00
   -1  -12   16      2.16      0.00
   -1  -12   15      7.08      0.00
   -1  -12   14     -3.10      0.00
   -1  -12   13      2.14      0.00
   -1  -12   12     -5.59      0.00
   -1  -12   11      3.22      0.00
   -1  -12   10     -5.47      0.00
   -1  -12    9      3.73      0.00
   -1  -12    8     -0.17      0.00
   -1  -12    7      5.45      0.00
   -1  -12    6      0.33      0.00
   -1  -12    5     -1.70      0.00
   -1  -12    4     -3.90      0.00
   -1  -12    3      6.37      0.00
   -1  -12    2     -0.35      0.00
   -1  -12    1      0.60      0.00
    1   12    0      4.06      0.00
    1   12    1      0.38      0.00
    1   12    2     -0.04      0.00
    1   12    3      0.27      0.00
    1   12    4     -7.79      0.00
    1   12    5      4.63      0.00
    1   12    6      3.05      0.00
    1   12    7      0.26      0.00
    1   12    8      1.03      0.00
    1   12    9     -3.24      0.00
    1   12   10     -1.30      0.00
    1   12   11      0.15      0.00
    1   12   12      1.58      0.00
   -1  -13   23     -0.07      0.00
   -1  -13   22     -0.66      0.00
   -1  -13   21     -0.02      0.00
   -1  -13   20      2.31      0.00
   -1  -13   19      0.49      0.00
   -1  -13   18     -1.21      0.00
   -1  -13   17     -1.86      0.00
   -1  -13   16      1.75      0.00
   -1  -13   15      1.75      0.00
   -1  -13   14      1.67      0.00
   -1  -13   13      1.21      0.00
   -1  -13   12     -3.00      0.00
   -1  -13   11      1.71      0.00
   -1  -13   10     -2.07      0.00
   -1  -13    9     -5.05      0.00
   -1  -13    8      1.22      0.00
   -1  -13    7     -3.97      0.00
   -1  -13    6      3.52      0.00
   -1  -13    5     -3.51      0.00
   -1  -13    4     -3.22      0.00
   -1  -13    3     -3.26      0.00
   -1  -13    2      2.74      0.00
   -1  -13    1      0.78      0.00
    1   13    0     -1.77      0.00
    1   13    1      9.98      0.00
    1   13    2     -3.72      0.00
    1   13    3      4.94      0.00
    1   13    4     -4.79      0.00
    1   13    5     -5.21      0.00
    1   13    6      0.56      0.00
    1   13    7      0.91      0.00
    1   13    8      1.06      0.00
    1   13    9      0.04      0.00
    1   13   10     -0.70      0.00
    1   13   11     -1.51      0.00
   -1  -14   23      0.06      0.00
   -1  -14   22     -0.76      0.00
   -1  -14   21     -1.32      0.00
   -1  -14   20      0.66      0.00
   -1  -14   19      1.09      0.00
   -1  -14   18     -0.67      0.00
   -1  -14   17     -1.45      0.00
   -1  -14   16     -4.00      0.00
   -1  -14   15      3.21      0.00
   -1  -14   14     -0.51      0.00
   -1  -14   13      2.89      0.00
   -1  -14   12      0.59      0.00
   -1  -14   11     -2.32      0.00
   -1  -14   10      5.45      0.00
   -1  -14    9     -3.51      0.00
   -1  -14    8     -3.10      0.00
   -1  -14    7      1.35      0.00
   -1  -14    6     -1.74      0.00
   -1  -14    5      3.28      0.00
   -1  -14    4     -0.30      0.00
   -1  -14    3     -1.77      0.00
   -1  -14    2     -1.45      0.00
   -1  -14    1     -0.69      0.00
    1   14    0     -2.91      0.00
    1   14    1     -0.38      0.00
    1   14    2      5.50      0.00
    1   14    3      1.33      0.00
    1   14    4      2.45      0.00
    1   14    5     -2.81      0.00
    1   14    6     -3.93      0.00
    1   14    7     -0.51      0.00
    1   14    8      0.02      0.00
    1   14    9      0.90      0.00
    1   14   10      0.14      0.00
   -1  -15   22      0.93      0.00
   -1  -15   21     -0.86      0.00
   -1  -15   20      0.32      0.00
   -1  -15   19      0.98      0.00
   -1  -15   18      1.81      0.00
   -1  -15   17     -0.55      0.00
   -1  -15   16     -2.82      0.00
   -1  -15   15     -1.32      0.00
   -1  -15   14      0.26      0.00
   -1  -15   13     -0.59      0.00
   -1  -15   12      0.55      0.00
   -1  -15   11     -1.62      0.00
   -1  -15   10      2.53      0.00
   -1  -15    9      3.21      0.00
   -1  -15    8      0.91      0.00
   -1  -15    7     -1.55      0.00
   -1  -15    6     -0.57      0.00
   -1  -15    5     -1.18      0.00
   -1  -15    4     -1.58      0.00
   -1  -15    3      2.34      0.00
   -1  -15    2     -1.12      0.00
   -1  -15    1      3.47      0.00
    1   15    0     -2.58      0.00
    1   15    1     -3.22      0.00
    1   15    2     -0.02      0.00
    1   15    3      1.84      0.00
    1   15    4      3.23      0.00
    1   15    5      0.65      0.00
    1   15    6      0.21      0.00
    1   15    7     -1.15      0.00
    1   15    8      0.64      0.00
   -1  -16   21      0.83      0.00
   -1  -16   20     -0.03      0.00
   -1  -16   19      1.91      0.00
   -1  -16   18      3.09      0.00
   -1  -16   17      2.44      0.00
   -1  -16   16      0.83      0.00
   -1  -16   15     -4.39      0.00
   -1  -16   14      0.80      0.00
   -1  -16   13     -4.23      0.00
   -1  -16   12      1.40      0.00
   -1  -16   11     -2.66      0.00
   -1  -16   10     -1.88      0.00
   -1  -16    9      4.38      0.00
   -1  -16    8      2.50      0.00
   -1  -16    7      3.23      0.00
   -1  -16    6      2.58      0.00
   -1  -16    5      0.51      0.00
   -1  -16    4     -1.04      0.00
   -1  -16    3     -3.45      0.00
   -1  -16    2      1.01      0.00
   -1  -16    1     -0.62      0.00
    1   16    0      2.63      0.00
    1   16    1     -2.91      0.00
    1   16    2     -1.89      0.00
    1   16    3     -0.42      0.00
    1   16    4      2.45      0.00
    1   16    5      0.79      0.00
    1   16    6      1.61      0.00
    1   16    7      0.01      0.00
   -1  -17   20     -1.71      0.00
   -1  -17   19     -0.49      0.00
   -1  -17   18      0.19      0.00
   -1  -17   17      1.52      0.00
   -1  -17   16      1.62      0.00
   -1  -17   15     -2.36      0.00
   -1  -17   14     -0.99      0.00
   -1  -17   13     -1.22      0.00
   -1  -17   12     -1.03      0.00
   -1  -17   11      0.27      0.00
   -1  -17   10     -1.76      0.00
   -1  -17    9     -0.71      0.00
   -1  -17    8      1.05      0.00
   -1  -17    7      1.30      0.00
   -1  -17    6      0.25      0.00
   -1  -17    5      2.04      0.00
   -1  -17    4      1.66      0.00
   -1  -17    3     -1.40      0.00
   -1  -17    2     -1.35      0.00
   -1  -17    1     -0.47      0.00
    1   17    0      0.54      0.00
    1   17    1      1.30      0.00
    1   17    2     -1.02      0.00
    1   17    3     -1.93      0.00
    1   17    4     -0.02      0.00
    1   17    5     -0.29      0.00
   -1  -18   19     -3.37      0.00
   -1  -18   18     -1.38      0.00
   -1  -18   17     -0.56      0.00
   -1  -18   16      1.67      0.00
   -1  -18   15      1.87      0.00
   -1  -18   14     -2.00      0.00
   -1  -18   13      0.18      0.00
   -1  -18   12     -1.26      0.00
   -1  -18   11      0.84      0.00
   -1  -18   10      0.15      0.00
   -1  -18    9      0.98      0.00
   -1  -18    8      1.13      0.00
   -1  -18    7      1.91      0.00
   -1  -18    6      1.44      0.00
   -1  -18    5      0.17      0.00
   -1  -18    4      1.96      0.00
   -1  -18    3      1.15      0.00
   -1  -18    2     -0.77      0.00
   -1  -18    1     -1.21      0.00
    1   18    0     -0.09      0.00
    1   18    1     -0.75      0.00
    1   18    2      0.70      0.00
    1   18    3      0.05      0.00
   -1  -19   16     -1.27      0.00
   -1  -19   14     -0.17      0.00
   -1  -19   13      0.64      0.00
   -1  -19   12     -0.73      0.00
   -1  -19   11      0.43      0.00
   -1  -19   10     -0.49      0.00
   -1  -19    9     -1.30      0.00
   -1  -19    8      1.34      0.00
   -1  -19    7     -0.54      0.00
   -1  -19    6      1.16      0.00
   -1  -19    5      0.62      0.00
   -1  -19    4     -0.23      0.00
   -1  -19    3      0.51      0.00
   -1  -19    2     -0.34      0.00
   -1  -19    1     -0.85      0.00
    1   19    0     -0.44      0.00
    1   19    1      0.06      0.00
   -1  -20    7      1.10      0.00
   -1  -20    6     -0.27      0.00
   -1  -20    5      0.44      0.00
   -1  -20    4      0.20      0.00
   -1  -20    3      0.22      0.00
   -1  -20    2     -0.25      0.00
   -2   19    4      1.12      0.00
   -2   19    3      0.10      0.00
   -2   19    2     -1.09      0.00
   -2   19    1     -0.89      0.00
   -2   19    0     -0.96      0.00
    2  -19    1      1.54      0.00
    2  -19    2      0.87      0.00
    2  -19    3      0.76      0.00
    2  -19    4      1.68      0.00
    2  -19    5      0.76      0.00
    2  -19    6      0.81      0.00
    2  -19    7     -0.53      0.00
    2  -19    8      0.04      0.00
   -2   18    6     -0.09      0.00
   -2   18    5     -0.67      0.00
   -2   18    4      0.04      0.00
   -2   18    3      1.96      0.00
   -2   18    2      0.86      0.00
   -2   18    1      0.64      0.00
   -2   18    0     -2.13      0.00
    2  -18    1     -0.43      0.00
    2  -18    2      0.86      0.00
    2  -18    3     -1.15      0.00
    2  -18    4     -1.00      0.00
    2  -18    5     -0.70      0.00
    2  -18    6     -0.83      0.00
    2  -18    7      3.36      0.00
    2  -18    8     -1.05      0.00
    2  -18    9      3.41      0.00
    2  -18   10     -0.09      0.00
    2  -18   11      1.11      0.00
    2  -18   12      0.77      0.00
    2  -18   13      0.08      0.00
    2  -18   14      2.26      0.00
    2  -18   15     -3.25      0.00
    2  -18   16      0.40      0.00
   -2   17    8     -0.64      0.00
   -2   17    7     -0.87      0.00
   -2   17    6      0.90      0.00
   -2   17    5     -2.63      0.00
   -2   17    4     -0.17      0.00
   -2   17    3      0.79      0.00
   -2   17    2      2.05      0.00
   -2   17    1      0.54      0.00
   -2   17    0     -0.53      0.00
    2  -17    1     -2.62      0.00
    2  -17    2      1.20      0.00
    2  -17    3      0.46      0.00
    2  -17    4     -0.27      0.00
    2  -17    5     -1.99      0.00
    2  -17    6      1.06      0.00
    2  -17    7     -2.48      0.00
    2  -17    8      1.24      0.00
    2  -17    9      1.09      0.00
    2  -17   10      1.06      0.00
    2  -17   11     -0.72      0.00
    2  -17   12      0.04      0.00
    2  -17   13     -2.77      0.00
    2  -17   14     -0.30      0.00
    2  -17   15     -0.19      0.00
    2  -17   16     -1.30      0.00
    2  -17   17     -1.40      0.00
    2  -17   18     -0.96      0.00
    2  -17   19     -1.16      0.00
   -2   16    9      1.08      0.00
   -2   16    8      1.64      0.00
   -2   16    7      1.59      0.00
   -2   16    6      0.72      0.00
   -2   16    5      1.52      0.00
   -2   16    4     -1.92      0.00
   -2   16    3     -0.30      0.00
   -2   16    2      5.01      0.00
   -2   16    1      1.43      0.00
   -2   16    0      0.69      0.00
    2  -16    1     -2.78      0.00
    2  -16    2     -2.39      0.00
    2  -16    3      1.99      0.00
    2  -16    4     -0.77      0.00
    2  -16    5     -0.57      0.00
    2  -16    6     -3.89      0.00
    2  -16    7      1.31      0.00
    2  -16    8     -1.19      0.00
    2  -16    9     -1.50      0.00
    2  -16   10      5.97      0.00
    2  -16   11      0.47      0.00
    2  -16   12      3.25      0.00
    2  -16   13     -0.60      0.00
    2  -16   14      0.50      0.00
    2  -16   15      1.06      0.00
    2  -16   16     -0.28      0.00
    2  -16   17     -1.39      0.00
    2  -16   18     -2.18      0.00
    2  -16   19     -1.97      0.00
    2  -16   20      0.51      0.00
    2  -16   21     -0.32      0.00
   -2   15   11     -1.35      0.00
   -2   15   10      1.41      0.00
   -2   15    9      0.46      0.00
   -2   15    8      1.15      0.00
   -2   15    7      1.10      0.00
   -2   15    6      1.21      0.00
   -2   15    5     -1.68      0.00
   -2   15    4     -0.91      0.00
   -2   15    3     -4.62      0.00
   -2   15    2     -1.78      0.00
   -2   15    1      5.75      0.00
   -2   15    0      1.66      0.00
    2  -15    1      0.82      0.00
    2  -15    2     -2.18      0.00
    2  -15    3     -0.01      0.00
    2  -15    4      2.44      0.00
    2  -15    5      2.59      0.00
    2  -15    6      0.69      0.00
    2  -15    7     -0.08      0.00
    2  -15    8      2.99      0.00
    2  -15    9     -3.39      0.00
    2  -15   10     -2.80      0.00
    2  -15   11      0.37      0.00
    2  -15   12     -3.02      0.00
    2  -15   13      2.15      0.00
    2  -15   14     -2.16      0.00
    2  -15   15     -0.29      0.00
    2  -15   16      1.58      0.00
    2  -15   17     -0.41      0.00
    2  -15   18     -0.46      0.00
    2  -15   19     -2.11      0.00
    2  -15   20      0.04      0.00
    2  -15   21      0.83      0.00
   -2   14   12      0.66      0.00
   -2   14   11     -1.12      0.00
   -2   14   10     -1.24      0.00
   -2   14    9     -1.26      0.00
   -2   14    8     -0.24      0.00
   -2   14    7     -0.35      0.00
   -2   14    6      1.99      0.00
   -2   14    5      3.43      0.00
   -2   14    4      0.52      0.00
   -2   14    3     -1.87      0.00
   -2   14    2     -7.96      0.00
   -2   14    1     -4.25      0.00
   -2   14    0      4.36      0.00
    2  -14    1      0.79      0.00
    2  -14    2      0.70      0.00
    2  -14    3     -1.97      0.00
    2  -14    4     -1.65      0.00
    2  -14    5     -2.96      0.00
    2  -14    6      3.78      0.00
    2  -14    7     -3.69      0.00
    2  -14    8      9.10      0.00
    2  -14    9      0.81      0.00
    2  -14   10      1.81      0.00
    2  -14   11     -0.50      0.00
    2  -14   12     -1.75      0.00
    2  -14   13      0.95      0.00
    2  -14   14     -0.88      0.00
    2  -14   15      1.10      0.00
    2  -14   16      0.26      0.00
    2  -14   17      1.48      0.00
    2  -14   18     -0.51      0.00
    2  -14   19     -1.60      0.00
    2  -14   20     -1.67      0.00
    2  -14   21      0.41      0.00
    2  -14   22      1.81      0.00
   -2   13   13     -0.22      0.00
   -2   13   12      0.79      0.00
   -2   13   11      1.60      0.00
   -2   13   10      1.24      0.00
   -2   13    9     -1.25      0.00
   -2   13    8     -0.32      0.00
   -2   13    7     -4.79      0.00
   -2   13    6     -3.90      0.00
   -2   13    5      2.72      0.00
   -2   13    4      0.01      0.00
   -2   13    3      6.60      0.00
   -2   13    2     -5.94      0.00
   -2   13    1     -7.24      0.00
   -2   13    0     -6.18      0.00
    2  -13    1      3.65      0.00
    2  -13    2      0.33      0.00
    2  -13    3      5.98      0.00
    2  -13    4      6.44      0.00
    2  -13    5      1.79      0.00
    2  -13    6      0.11      0.00
    2  -13    7     -1.05      0.00
    2  -13    8     -7.62      0.00
    2  -13    9      7.81      0.00
    2  -13   10     -4.22      0.00
    2  -13   11      4.17      0.00
    2  -13   12      0.78      0.00
    2  -13   13     -2.43      0.00
    2  -13   14      1.26      0.00
    2  -13   15     -4.84      0.00
    2  -13   16     -0.40      0.00
    2  -13   17      0.65      0.00
    2  -13   18      2.53      0.00
    2  -13   19      1.22      0.00
    2  -13   20     -2.49      0.00
    2  -13   21     -0.93      0.00
    2  -13   22     -1.36      0.00
   -2   12   14     -0.73      0.00
   -2   12   13     -1.70      0.00
   -2   12   12     -0.36      0.00
   -2   12   11     -0.39      0.00
   -2   12   10      2.08      0.00
   -2   12    9      2.77      0.00
   -2   12    8     -1.63      0.00
   -2   12    7      3.10      0.00
   -2   12    6    -12.03      0.00
   -2   12    5     -4.08      0.00
   -2   12    4      1.50      0.00
   -2   12    3      0.96      0.00
   -2   12    2     11.69      0.00
   -2   12    1     -4.54      0.00
   -2   12    0     -2.22      0.00
    2  -12    1     -4.66      0.00
    2  -12    2      2.23      0.00
    2  -12    3    -10.30      0.00
    2  -12    4      3.37      0.00
    2  -12    5      3.39      0.00
    2  -12    6      1.02      0.00
    2  -12    7      4.46      0.00
    2  -12    8     -6.49      0.00
    2  -12    9      0.31      0.00
    2  -12   10     -1.51      0.00
    2  -12   11      1.40      0.00
    2  -12   12     -0.86      0.00
    2  -12   13      5.71      0.00
    2  -12   14     -0.10      0.00
    2  -12   15     -0.24      0.00
    2  -12   16     -5.66      0.00
    2  -12   17     -2.33      0.00
    2  -12   18     -0.46      0.00
    2  -12   19      1.98      0.00
    2  -12   20      0.39      0.00
    2  -12   21     -1.57      0.00
    2  -12   22     -0.19      0.00
   -2   11   15      1.60      0.00
   -2   11   14      2.56      0.00
   -2   11   13     -0.09      0.00
   -2   11   12      0.87      0.00
   -2   11   11     -1.77      0.00
   -2   11   10     -5.07      0.00
   -2   11    9      2.64      0.00
   -2   11    8     -3.78      0.00
   -2   11    7      3.02      0.00
   -2   11    6     -0.15      0.00
   -2   11    5    -12.53      0.00
   -2   11    4     -4.93      0.00
   -2   11    3     -0.44      0.00
   -2   11    2     -0.24      0.00
   -2   11    1      7.11      0.00
   -2   11    0      1.99      0.00
    2  -11    1      2.49      0.00
    2  -11    2      6.16      0.00
    2  -11    3     -1.40      0.00
    2  -11    4    -12.69      0.00
    2  -11    5     -2.41      0.00
    2  -11    6     -0.43      0.00
    2  -11    7      3.29      0.00
    2  -11    8      1.19      0.00
    2  -11    9     -2.90      0.00
    2  -11   10     -1.43      0.00
    2  -11   11     -5.25      0.00
    2  -11   12     -0.08      0.00
    2  -11   13     -3.96      0.00
    2  -11   14      7.18      0.00
    2  -11   15      3.51      0.00
    2  -11   16     -1.85      0.00
    2  -11   17     -2.30      0.00
    2  -11   18     -3.87      0.00
    2  -11   19      1.11      0.00
    2  -11   20      1.18      0.00
    2  -11   21      0.71      0.00
    2  -11   22     -0.17      0.00
   -2   10   16     -0.93      0.00
   -2   10   15      0.34      0.00
   -2   10   14      2.29      0.00
   -2   10   13      1.95      0.00
   -2   10   12     -2.02      0.00
   -2   10   11      4.23      0.00
   -2   10   10     -5.41      0.00
   -2   10    9     -3.07      0.00
   -2   10    8     -0.14      0.00
   -2   10    7     -4.39      0.00
   -2   10    6      8.66      0.00
   -2   10    5     -5.29      0.00
   -2   10    4     -5.04      0.00
   -2   10    3     -9.26      0.00
   -2   10    2      1.11      0.00
   -2   10    1     -2.84      0.00
   -2   10    0     -3.76      0.00
    2  -10    1      4.10      0.00
    2  -10    2     -3.22      0.00
    2  -10    3     12.03      0.00
    2  -10    4     -7.98      0.00
    2  -10    5    -12.10      0.00
    2  -10    6     -3.95      0.00
    2  -10    7      2.51      0.00
    2  -10    8      3.18      0.00
    2  -10    9     -0.28      0.00
    2  -10   10      4.24      0.00
    2  -10   11     -4.23      0.00
    2  -10   12     -0.15      0.00
    2  -10   13     -3.02      0.00
    2  -10   14     -0.43      0.00
    2  -10   15      7.23      0.00
    2  -10   16      4.98      0.00
    2  -10   17      0.45      0.00
    2  -10   18     -0.54      0.00
    2  -10   19     -2.44      0.00
    2  -10   20     -1.09      0.00
    2  -10   21     -0.17      0.00
    2  -10   22      0.58      0.00
    2  -10   23      1.07      0.00
   -2    9   16      0.75      0.00
   -2    9   15     -0.74      0.00
   -2    9   14     -0.56      0.00
   -2    9   13      2.47      0.00
   -2    9   12     -1.48      0.00
   -2    9   11     -2.25      0.00
   -2    9   10      5.19      0.00
   -2    9    8      1.22      0.00
   -2    9    7     -7.31      0.00
   -2    9    6      3.56      0.00
   -2    9    5      6.58      0.00
   -2    9    4     -2.60      0.00
   -2    9    3     -9.10      0.00
   -2    9    2      2.72      0.00
   -2    9    1      3.41      0.00
   -2    9    0      8.48      0.00
    2   -9    1     -1.87      0.00
    2   -9    2      9.29      0.00
    2   -9    3      7.10      0.00
    2   -9    4      4.76      0.00
    2   -9    5     -2.14      0.00
    2   -9    6    -17.22      0.00
    2   -9    7      1.86      0.00
    2   -9    8      2.83      0.00
    2   -9    9      2.91      0.00
    2   -9   10      0.80      0.00
    2   -9   11      0.39      0.00
    2   -9   12     -3.00      0.00
    2   -9   13     -3.33      0.00
    2   -9   14     -6.84      0.00
    2   -9   15      4.56      0.00
    2   -9   16      3.68      0.00
    2   -9   17      6.46      0.00
    2   -9   18      0.12      0.00
    2   -9   19      0.27      0.00
    2   -9   20     -0.72      0.00
    2   -9   21     -2.23      0.00
    2   -9   22     -0.84      0.00
    2   -9   23     -0.82      0.00
   -2    8   17      1.43      0.00
   -2    8   16     -0.91      0.00
   -2    8   15      0.25      0.00
   -2    8   14     -2.06      0.00
   -2    8   13      1.78      0.00
   -2    8   12      2.23      0.00
   -2    8   11     -9.22      0.00
   -2    8   10      0.49      0.00
   -2    8    9     -5.25      0.00
   -2    8    8     -4.99      0.00
   -2    8    7     -2.40      0.00
   -2    8    6     -1.25      0.00
   -2    8    5      8.03      0.00
   -2    8    4      4.82      0.00
   -2    8    3      2.78      0.00
   -2    8    2    -14.14      0.00
   -2    8    1     14.46      0.00
   -2    8    0     -0.79      0.00
    2   -8    1    -12.55      0.00
    2   -8    2    -11.17      0.00
    2   -8    3    -15.38      0.00
    2   -8    4     13.24      0.00
    2   -8    5     -2.54      0.00
    2   -8    6      2.45      0.00
    2   -8    7    -20.20      0.00
    2   -8    8     10.55      0.00
    2   -8    9    -13.99      0.00
    2   -8   10      3.09      0.00
    2   -8   11      2.19      0.00
    2   -8   12      2.73      0.00
    2   -8   13      5.62      0.00
    2   -8   14      0.69      0.00
    2   -8   15     -2.76      0.00
    2   -8   16      5.41      0.00
    2   -8   17      0.63      0.00
    2   -8   18      3.30      0.00
    2   -8   19     -1.96      0.00
    2   -8   20      1.83      0.00
    2   -8   21     -0.45      0.00
    2   -8   22     -0.54      0.00
    2   -8   23     -1.46      0.00
   -2    7   18      1.58      0.00
   -2    7   17      3.64      0.00
   -2    7   16      1.44      0.00
   -2    7   15     -1.80      0.00
   -2    7   14      1.10      0.00
   -2    7   13     -2.83      0.00
   -2    7   12      6.29      0.00
   -2    7   11     -0.44      0.00
   -2    7   10     -2.67      0.00
   -2    7    9     -0.51      0.00
   -2    7    8     -2.47      0.00
   -2    7    7    -14.57      0.00
   -2    7    6     -4.55      0.00
   -2    7    5     -0.42      0.00
   -2    7    4      2.17      0.00
   -2    7    3      5.42      0.00
   -2    7    2     -0.41      0.00
   -2    7    1      1.83      0.00
   -2    7    0     31.06      0.00
    2   -7    1     23.02      0.00
    2   -7    2    -15.52      0.00
    2   -7    3     12.72      0.00
    2   -7    4    -11.49      0.00
    2   -7    5     15.07      0.00
    2   -7    6      6.46      0.00
    2   -7    7      1.93      0.00
    2   -7    8     -7.44      0.00
    2   -7    9     13.29      0.00
    2   -7   10    -12.63      0.00
    2   -7   11     -3.72      0.00
    2   -7   12      0.19      0.00
    2   -7   13      2.35      0.00
    2   -7   14      4.03      0.00
    2   -7   15      0.00      0.00
    2   -7   16      2.12      0.00
    2   -7   17      0.43      0.00
    2   -7   18      4.94      0.00
    2   -7   19     -2.02      0.00
    2   -7   20      1.50      0.00
    2   -7   21      1.30      0.00
    2   -7   22      1.44      0.00
    2   -7   23     -0.41      0.00
   -2    6   18     -0.81      0.00
   -2    6   17      2.34      0.00
   -2    6   16      5.56      0.00
   -2    6   15      1.10      0.00
   -2    6   14      2.12      0.00
   -2    6   13      0.40      0.00
   -2    6   12     -3.33      0.00
   -2    6   11      1.66      0.00
   -2    6   10     -5.34      0.00
   -2    6    9      4.52      0.00
   -2    6    8     -3.00      0.00
   -2    6    7     10.13      0.00
   -2    6    6    -19.12      0.00
   -2    6    5     10.69      0.00
   -2    6    4     15.33      0.00
   -2    6    3      4.19      0.00
   -2    6    2     12.76      0.00
   -2    6    1    -12.05      0.00
   -2    6    0     11.08      0.00
    2   -6    1     29.68      0.00
    2   -6    2     20.79      0.00
    2   -6    3    -26.15      0.00
    2   -6    4      4.75      0.00
    2   -6    5    -11.01      0.00
    2   -6    6     -1.96      0.00
    2   -6    7      0.03      0.00
    2   -6    8     -7.88      0.00
    2   -6    9     -0.47      0.00
    2   -6   10      1.98      0.00
    2   -6   11     -3.62      0.00
    2   -6   12      2.02      0.00
    2   -6   13      4.06      0.00
    2   -6   14     11.86      0.00
    2   -6   15     -0.19      0.00
    2   -6   16      7.38      0.00
    2   -6   17     -2.29      0.00
    2   -6   18      0.83      0.00
    2   -6   19      1.53      0.00
    2   -6   20     -3.66      0.00
    2   -6   21      0.69      0.00
    2   -6   22      0.40      0.00
   -2    5   19     -0.31      0.00
   -2    5   18     -2.13      0.00
   -2    5   17     -0.81      0.00
   -2    5   16      1.91      0.00
   -2    5   15      6.19      0.00
   -2    5   14     -0.90      0.00
   -2    5   13      3.55      0.00
   -2    5   12      2.20      0.00
   -2    5   11     -1.26      0.00
   -2    5   10     -2.90      0.00
   -2    5    9      0.91      0.00
   -2    5    8     -5.23      0.00
   -2    5    7     -1.40      0.00
   -2    5    6    -20.36      0.00
   -2    5    5    -30.65      0.00
   -2    5    4    -11.56      0.00
   -2    5    3     24.17      0.00
   -2    5    2      7.42      0.00
   -2    5    1     36.17      0.00
   -2    5    0     -0.34      0.00
    2   -5    1     29.02      0.00
    2   -5    3     21.46      0.00
    2   -5    4     -7.36      0.00
    2   -5    5     17.18      0.00
    2   -5    6      4.04      0.00
    2   -5    7      4.73      0.00
    2   -5    8    -15.18      0.00
    2   -5    9    -15.41      0.00
    2   -5   10    -12.16      0.00
    2   -5   11    -10.94      0.00
    2   -5   12     -1.78      0.00
    2   -5   13      0.42      0.00
    2   -5   14      8.19      0.00
    2   -5   15      5.63      0.00
    2   -5   16     -0.49      0.00
    2   -5   17      7.25      0.00
    2   -5   18     -1.66      0.00
    2   -5   19      4.35      0.00
    2   -5   20     -1.42      0.00
    2   -5   21     -1.81      0.00
    2   -5   22     -0.59      0.00
   -2    4   19      0.89      0.00
   -2    4   18     -2.21      0.00
   -2    4   17     -3.15      0.00
   -2    4   16     -3.08      0.00
   -2    4   15      0.93      0.00
   -2    4   14      1.60      0.00
   -2    4   13     -0.95      0.00
   -2    4   12     -3.88      0.00
   -2    4   11      6.91      0.00
   -2    4   10     -9.16      0.00
   -2    4    9      3.44      0.00
   -2    4    8     -3.07      0.00
   -2    4    7      3.36      0.00
   -2    4    6     23.02      0.00
   -2    4    5    -12.38      0.00
   -2    4    4    -10.14      0.00
   -2    4    3    -21.31      0.00
   -2    4    2      1.42      0.00
   -2    4    1      6.44      0.00
   -2    4    0      4.32      0.00
    2   -4    2     26.18      0.00
    2   -4    3     39.28      0.00
    2   -4    4     -3.57      0.00
    2   -4    5      3.97      0.00
    2   -4    6     15.10      0.00
    2   -4    7      8.66      0.00
    2   -4    8     18.10      0.00
    2   -4    9     -1.08      0.00
    2   -4   10      2.52      0.00
    2   -4   11     -4.81      0.00
    2   -4   12     -2.43      0.00
    2   -4   13     -4.90      0.00
    2   -4   14      2.34      0.00
    2   -4   15      6.52      0.00
    2   -4   16     -1.72      0.00
    2   -4   17      4.12      0.00
    2   -4   18     -1.10      0.00
    2   -4   19      0.34      0.00
    2   -4   20      1.64      0.00
    2   -4   21     -0.87      0.00
   -2    3   20      0.97      0.00
   -2    3   19      4.64      0.00
   -2    3   18      2.15      0.00
   -2    3   17      1.03      0.00
   -2    3   16     -1.49      0.00
   -2    3   15      1.22      0.00
   -2    3   14      7.37      0.00
   -2    3   13      8.06      0.00
   -2    3   12      3.02      0.00
   -2    3   11      1.86      0.00
   -2    3   10      0.32      0.00
   -2    3    9    -20.35      0.00
   -2    3    8    -11.23      0.00
   -2    3    7    -21.33      0.00
   -2    3    6    -14.41      0.00
   -2    3    5      8.38      0.00
   -2    3    4    -26.24      0.00
   -2    3    3      4.59      0.00
   -2    3    2     22.06      0.00
   -2    3    1     17.41      0.00
   -2    3    0     24.87      0.00
    2   -3    1     23.71      0.00
    2   -3    2     34.57      0.00
    2   -3    3     50.31      0.00
    2   -3    4     24.09      0.00
    2   -3    5     -3.03      0.00
    2   -3    6    -21.82      0.00
    2   -3    7     13.02      0.00
    2   -3    8    -24.15      0.00
    2   -3    9     -5.04      0.00
    2   -3   10     -8.12      0.00
    2   -3   11     -0.99      0.00
    2   -3   12     -8.15      0.00
    2   -3   13      5.16      0.00
    2   -3   14    -14.23      0.00
    2   -3   15     11.08      0.00
    2   -3   16      1.43      0.00
    2   -3   17      3.87      0.00
    2   -3   18      3.23      0.00
    2   -3   19     -0.24      0.00
    2   -3   20      2.27      0.00
    2   -3   21      1.63      0.00
   -2    2   21     -0.99      0.00
   -2    2   20     -3.29      0.00
   -2    2   19      0.89      0.00
   -2    2   18      6.02      0.00
   -2    2   17      1.86      0.00
   -2    2   16      1.02      0.00
   -2    2   15     -6.17      0.00
   -2    2   14     -9.33      0.00
   -2    2   13     -1.41      0.00
   -2    2   12      6.03      0.00
   -2    2   11      1.41      0.00
   -2    2   10     19.84      0.00
   -2    2    9     -0.07      0.00
   -2    2    8    -11.08      0.00
   -2    2    7    -21.16      0.00
   -2    2    6    -12.28      0.00
   -2    2    5    -10.62      0.00
   -2    2    4     -4.59      0.00
   -2    2    3     20.61      0.00
   -2    2    2    -27.54      0.00
   -2    2    1     76.93      0.00
   -2    2    0    -47.24      0.00
    2   -2    1    -79.18      0.00
    2   -2    2    -21.06      0.00
    2   -2    3    -36.00      0.00
    2   -2    4     47.04      0.00
    2   -2    5     13.21      0.00
    2   -2    6      9.40      0.00
    2   -2    7    -10.42      0.00
    2   -2    8     13.79      0.00
    2   -2    9     -3.09      0.00
    2   -2   10     -3.29      0.00
    2   -2   11     15.69      0.00
    2   -2   12     -0.91      0.00
    2   -2   13      4.11      0.00
    2   -2   14     -3.52      0.00
    2   -2   15     -9.76      0.00
    2   -2   16      3.70      0.00
    2   -2   17     -3.21      0.00
    2   -2   18      2.07      0.00
    2   -2   19      0.02      0.00
    2   -2   20      0.98      0.00
   -2    1   21     -0.82      0.00
   -2    1   20     -5.15      0.00
   -2    1   19     -6.42      0.00
   -2    1   18     -0.71      0.00
   -2    1   17      4.99      0.00
   -2    1   16      3.04      0.00
   -2    1   15      3.66      0.00
   -2    1   14      7.27      0.00
   -2    1   13     -5.15      0.00
   -2    1   12      5.67      0.00
   -2    1   11     -6.40      0.00
   -2    1   10     -5.90      0.00
   -2    1    9      1.20      0.00
   -2    1    8     -7.29      0.00
   -2    1    7    -34.31      0.00
   -2    1    6    -30.56      0.00
   -2    1    5    -18.23      0.00
   -2    1    4    -38.86      0.00
   -2    1    3    -39.76      0.00
   -2    1    2     27.82      0.00
   -2    1    1      1.24      0.00
   -2    1    0    164.25      0.00
    2   -1    1     45.75      0.00
    2   -1    2     17.49      0.00
    2   -1    3     34.25      0.00
    2   -1    4     -2.94      0.00
    2   -1    5     31.42      0.00
    2   -1    6     -8.21      0.00
    2   -1    7    -16.32      0.00
    2   -1    8    -17.01      0.00
    2   -1    9     -9.73      0.00
    2   -1   10    -16.64      0.00
    2   -1   11     -2.91      0.00
    2   -1   12      5.43      0.00
    2   -1   13      1.02      0.00
    2   -1   14      7.38      0.00
    2   -1   15     -1.48      0.00
    2   -1   16      2.04      0.00
    2   -1   17      1.42      0.00
    2   -1   18     -0.95      0.00
    2   -1   19      0.79      0.00
    2   -1   20      0.07      0.00
   -2    0   21      1.02      0.00
   -2    0   20     -2.19      0.00
   -2    0   19     -6.80      0.00
   -2    0   18     -5.32      0.00
   -2    0   17     -6.03      0.00
   -2    0   16      1.16      0.00
   -2    0   15     -6.17      0.00
   -2    0   14      2.92      0.00
   -2    0   13      9.04      0.00
   -2    0   12      3.26      0.00
   -2    0   11      9.84      0.00
   -2    0   10     -2.67      0.00
   -2    0    9      7.44      0.00
   -2    0    8     18.43      0.00
   -2    0    7     12.79      0.00
   -2    0    6    -23.41      0.00
   -2    0    5     -1.77      0.00
   -2    0    4     34.80      0.00
   -2    0    3     -7.28      0.00
   -2    0    2     67.40      0.00
   -2    0    1    -28.03      0.00
    2    0    0     60.73      0.00
    2    0    1      2.88      0.00
    2    0    2     -7.64      0.00
    2    0    3    -36.29      0.00
    2    0    4     15.39      0.00
    2    0    5     -7.37      0.00
    2    0    6     28.86      0.00
    2    0    7      3.85      0.00
    2    0    8     -1.37      0.00
    2    0    9      3.40      0.00
    2    0   10     -0.24      0.00
    2    0   11     -8.92      0.00
    2    0   12      9.03      0.00
    2    0   13     -1.46      0.00
    2    0   14      6.37      0.00
    2    0   15     -2.28      0.00
    2    0   16     -0.55      0.00
    2    0   17     -1.06      0.00
    2    0   18     -1.65      0.00
    2    0   19     -0.78      0.00
   -2   -1   22     -0.79      0.00
   -2   -1   21      1.42      0.00
   -2   -1   20      3.12      0.00
   -2   -1   19     -1.90      0.00
   -2   -1   18     -1.90      0.00
   -2   -1   17     -6.77      0.00
   -2   -1   16     -1.00      0.00
   -2   -1   15     -6.83      0.00
   -2   -1   14     -9.96      0.00
   -2   -1   13      0.76      0.00
   -2   -1   12      9.87      0.00
   -2   -1   11      8.43      0.00
   -2   -1   10      5.26      0.00
   -2   -1    9    -14.07      0.00
   -2   -1    8     -9.34      0.00
   -2   -1    7      7.95      0.00
   -2   -1    6      6.55      0.00
   -2   -1    5    -37.84      0.00
   -2   -1    4     22.75      0.00
   -2   -1    3    -96.65      0.00
   -2   -1    2    -37.17      0.00
   -2   -1    1    -53.47      0.00
    2    1    0    -36.69      0.00
    2    1    1     60.84      0.00
    2    1    2     14.13      0.00
    2    1    3      8.15      0.00
    2    1    4     -0.50      0.00
    2    1    5      1.36      0.00
    2    1    6    -12.97      0.00
    2    1    7     -9.71      0.00
    2    1    8     -0.83      0.00
    2    1    9     -9.23      0.00
    2    1   10      8.91      0.00
    2    1   11     -9.19      0.00
    2    1   12     -7.84      0.00
    2    1   13      0.14      0.00
    2    1   14     -1.72      0.00
    2    1   15      2.90      0.00
    2    1   16      1.17      0.00
    2    1   17      4.37      0.00
    2    1   18      1.57      0.00
    2    1   19      0.81      0.00
   -2   -2   22     -0.34      0.00
   -2   -2   21     -1.72      0.00
   -2   -2   20      2.83      0.00
   -2   -2   19     -3.26      0.00
   -2   -2   18     -6.41      0.00
   -2   -2   17     -8.10      0.00
   -2   -2   16    -16.05      0.00
   -2   -2   15      1.19      0.00
   -2   -2   14    -14.29      0.00
   -2   -2   13     -4.88      0.00
   -2   -2   12      4.65      0.00
   -2   -2   11     18.06      0.00
   -2   -2   10     22.32      0.00
   -2   -2    9     24.14      0.00
   -2   -2    8     19.29      0.00
   -2   -2    7      4.21      0.00
   -2   -2    6     55.73      0.00
   -2   -2    5    -11.97      0.00
   -2   -2    4     24.75      0.00
   -2   -2    3     27.37      0.00
   -2   -2    2   -100.96      0.00
   -2   -2    1    -56.71      0.00
    2    2    0    -91.38      0.00
    2    2    1    -29.67      0.00
    2    2    2     27.23      0.00
    2    2    3      7.37      0.00
    2    2    4      8.14      0.00
    2    2    5     15.77      0.00
    2    2    6     22.50      0.00
    2    2    7      1.59      0.00
    2    2    8      2.42      0.00
    2    2    9     -0.79      0.00
    2    2   10      0.51      0.00
    2    2   11      5.49      0.00
    2    2   12      1.52      0.00
    2    2   13     -7.62      0.00
    2    2   14     -2.18      0.00
    2    2   15     -4.34      0.00
    2    2   16     -2.69      0.00
    2    2   17      2.77      0.00
    2    2   18      2.76      0.00
   -2   -3   23     -2.31      0.00
   -2   -3   22      0.80      0.00
   -2   -3   21     -2.21      0.00
   -2   -3   20      0.62      0.00
   -2   -3   19      4.76      0.00
   -2   -3   18     -3.55      0.00
   -2   -3   17      4.93      0.00
   -2   -3   16     -2.42      0.00
   -2   -3   15     -3.29      0.00
   -2   -3   14     -1.70      0.00
   -2   -3   13    -16.44      0.00
   -2   -3   12    -18.15      0.00
   -2   -3   10     -3.08      0.00
   -2   -3    9      4.15      0.00
   -2   -3    8      4.91      0.00
   -2   -3    7      6.32      0.00
   -2   -3    6     -5.25      0.00
   -2   -3    5     43.95      0.00
   -2   -3    4    -10.17      0.00
   -2   -3    3     83.54      0.00
   -2   -3    2     48.59      0.00
   -2   -3    1     14.16      0.00
    2    3    0    -46.79      0.00
    2    3    1    -36.38      0.00
    2    3    2    -27.21      0.00
    2    3    3      2.06      0.00
    2    3    4     -0.41      0.00
    2    3    5    -12.13      0.00
    2    3    6      6.51      0.00
    2    3    7      7.33      0.00
    2    3    8     -5.57      0.00
    2    3    9     -2.16      0.00
    2    3   10     -5.19      0.00
    2    3   11     -0.34      0.00
    2    3   12      1.82      0.00
    2    3   13     -0.02      0.00
    2    3   14     -3.37      0.00
    2    3   15     -1.43      0.00
    2    3   16     -2.48      0.00
    2    3   17     -3.84      0.00
    2    3   18      1.89      0.00
   -2   -4   23     -0.37      0.00
   -2   -4   22     -1.92      0.00
   -2   -4   21      1.05      0.00
   -2   -4   20     -7.57      0.00
   -2   -4   19      1.18      0.00
   -2   -4   18     -7.46      0.00
   -2   -4   17     -7.74      0.00
   -2   -4   16     -4.01      0.00
   -2   -4   15     -1.34      0.00
   -2   -4   14      3.86      0.00
   -2   -4   13      2.71      0.00
   -2   -4   12     -7.46      0.00
   -2   -4   11    -14.14      0.00
   -2   -4   10      4.76      0.00
   -2   -4    9      0.44      0.00
   -2   -4    8      3.59      0.00
   -2   -4    7     32.64      0.00
   -2   -4    6     14.72      0.00
   -2   -4    5     21.83      0.00
   -2   -4    4    -45.07      0.00
   -2   -4    3    -51.44      0.00
   -2   -4    2    -46.49      0.00
   -2   -4    1    -15.84      0.00
    2    4    0    -20.81      0.00
    2    4    1    -26.03      0.00
    2    4    2    -10.69      0.00
    2    4    3     -7.75      0.00
    2    4    4     -1.37      0.00
    2    4    5      7.30      0.00
    2    4    6     -4.10      0.00
    2    4    7     21.72      0.00
    2    4    8      8.66      0.00
    2    4    9      3.77      0.00
    2    4   10     -1.04      0.00
    2    4   11     -4.12      0.00
    2    4   12     -5.28      0.00
    2    4   13     -1.49      0.00
    2    4   14     -3.45      0.00
    2    4   15     -1.45      0.00
    2    4   16     -0.04      0.00
    2    4   17     -1.37      0.00
   -2   -5   23      3.20      0.00
   -2   -5   22     -1.65      0.00
   -2   -5   21      0.97      0.00
   -2   -5   20     -5.12      0.00
   -2   -5   19     -3.51      0.00
   -2   -5   18      2.36      0.00
   -2   -5   17     -4.77      0.00
   -2   -5   16     -2.10      0.00
   -2   -5   15     -3.12      0.00
   -2   -5   14      4.87      0.00
   -2   -5   13      9.22      0.00
   -2   -5   12     -1.49      0.00
   -2   -5   11     -5.76      0.00
   -2   -5   10    -20.39      0.00
   -2   -5    9     -0.53      0.00
   -2   -5    8    -28.69      0.00
   -2   -5    7     -4.45      0.00
   -2   -5    6    -10.35      0.00
   -2   -5    5     15.46      0.00
   -2   -5    4     15.40      0.00
   -2   -5    3      7.68      0.00
   -2   -5    2      4.61      0.00
   -2   -5    1      9.17      0.00
    2    5    0      8.97      0.00
    2    5    1     -8.57      0.00
    2    5    2     -4.35      0.00
    2    5    3      7.33      0.00
    2    5    4     -9.17      0.00
    2    5    5      0.82      0.00
    2    5    6    -11.39      0.00
    2    5    7     -4.11      0.00
    2    5    8      6.79      0.00
    2    5    9      4.05      0.00
    2    5   10     -1.29      0.00
    2    5   11      2.87      0.00
    2    5   12     -2.48      0.00
    2    5   13     -1.03      0.00
    2    5   14     -0.57      0.00
    2    5   15     -0.90      0.00
    2    5   16      0.95      0.00
   -2   -6   24     -1.60      0.00
   -2   -6   23      2.21      0.00
   -2   -6   22      0.68      0.00
   -2   -6   21     -1.04      0.00
   -2   -6   20     -1.98      0.00
   -2   -6   19    -11.44      0.00
   -2   -6   18     -1.73      0.00
   -2   -6   17     -2.53      0.00
   -2   -6   16     -0.97      0.00
   -2   -6   15     -3.03      0.00
   -2   -6   14      3.31      0.00
   -2   -6   13     10.27      0.00
   -2   -6   12     19.99      0.00
   -2   -6   11     11.99      0.00
   -2   -6   10     11.33      0.00
   -2   -6    9     11.47      0.00
   -2   -6    8     16.89      0.00
   -2   -6    7    -10.86      0.00
   -2   -6    6     -8.54      0.00
   -2   -6    5    -19.83      0.00
   -2   -6    4    -31.87      0.00
   -2   -6    3    -28.79      0.00
   -2   -6    2    -19.66      0.00
   -2   -6    1     -6.76      0.00
    2    6    0      7.39      0.00
    2    6    1      3.87      0.00
    2    6    2    -17.42      0.00
    2    6    3     12.98      0.00
    2    6    4      4.79      0.00
    2    6    5     11.21      0.00
    2    6    6     -0.03      0.00
    2    6    7     -1.62      0.00
    2    6    8     -2.92      0.00
    2    6    9      6.19      0.00
    2    6   10      1.01      0.00
    2    6   11     -2.28      0.00
    2    6   12      2.26      0.00
    2    6   13     -2.42      0.00
    2    6   14     -1.00      0.00
    2    6   15      0.09      0.00
    2    6   16     -1.03      0.00
   -2   -7   24     -0.95      0.00
   -2   -7   23     -2.61      0.00
   -2   -7   22      2.23      0.00
   -2   -7   21     -0.96      0.00
   -2   -7   20      3.42      0.00
   -2   -7   19     -3.61      0.00
   -2   -7   18     -6.54      0.00
   -2   -7   17     -2.57      0.00
   -2   -7   16     -2.50      0.00
   -2   -7   15     -2.70      0.00
   -2   -7   14     -4.16      0.00
   -2   -7   13      5.09      0.00
   -2   -7   12      2.50      0.00
   -2   -7   11      0.04      0.00
   -2   -7   10      1.24      0.00
   -2   -7    9     -6.50      0.00
   -2   -7    8     15.14      0.00
   -2   -7    7     11.52      0.00
   -2   -7    6      4.91      0.00
   -2   -7    5     -0.28      0.00
   -2   -7    4      7.81      0.00
   -2   -7    3    -31.33      0.00
   -2   -7    2    -18.13      0.00
   -2   -7    1    -15.71      0.00
    2    7    0     -0.20      0.00
    2    7    1     15.96      0.00
    2    7    2     -1.09      0.00
    2    7    3    -12.21      0.00
    2    7    4      2.70      0.00
    2    7    5      3.85      0.00
    2    7    6      2.45      0.00
    2    7    7     -1.04      0.00
    2    7    8     -3.40      0.00
    2    7    9     -4.24      0.00
    2    7   10      3.05      0.00
    2    7   11     -0.78      0.00
    2    7   12     -0.24      0.00
    2    7   13      2.13      0.00
    2    7   14     -1.43      0.00
    2    7   15     -0.69      0.00
   -2   -8   24      0.84      0.00
   -2   -8   23     -4.56      0.00
   -2   -8   22     -1.22      0.00
   -2   -8   21     -3.51      0.00
   -2   -8   20      0.94      0.00
   -2   -8   19     -1.69      0.00
   -2   -8   18     -2.25      0.00
   -2   -8   17     -1.24      0.00
   -2   -8   16     -1.24      0.00
   -2   -8   15      0.99      0.00
   -2   -8   14     -6.73      0.00
   -2   -8   13     -4.67      0.00
   -2   -8   12     11.75      0.00
   -2   -8   11     10.18      0.00
   -2   -8   10     10.08      0.00
   -2   -8    9      7.42      0.00
   -2   -8    8     -2.74      0.00
   -2   -8    7     -3.66      0.00
   -2   -8    6     -8.40      0.00
   -2   -8    5    -14.98      0.00
   -2   -8    4     -0.27      0.00
   -2   -8    3      9.28      0.00
   -2   -8    2    -17.32      0.00
   -2   -8    1    -11.60      0.00
    2    8    0    -10.97      0.00
    2    8    1      0.90      0.00
    2    8    2     12.03      0.00
    2    8    3      2.44      0.00
    2    8    4      2.56      0.00
    2    8    5      3.45      0.00
    2    8    6     11.80      0.00
    2    8    7     -2.38      0.00
    2    8    8      3.17      0.00
    2    8    9     -3.54      0.00
    2    8   10     -1.70      0.00
    2    8   11      0.39      0.00
    2    8   12     -1.35      0.00
    2    8   13      0.19      0.00
    2    8   14      0.35      0.00
   -2   -9   24      1.62      0.00
   -2   -9   23      0.70      0.00
   -2   -9   22     -2.39      0.00
   -2   -9   21      0.19      0.00
   -2   -9   20     -1.47      0.00
   -2   -9   19      3.69      0.00
   -2   -9   18     -1.68      0.00
   -2   -9   17      1.97      0.00
   -2   -9   16      7.86      0.00
   -2   -9   15      1.24      0.00
   -2   -9   14      2.91      0.00
   -2   -9   13    -16.14      0.00
   -2   -9   12     -8.67      0.00
   -2   -9   11     -2.90      0.00
   -2   -9   10      3.06      0.00
   -2   -9    9      5.30      0.00
   -2   -9    8     11.12      0.00
   -2   -9    7      3.72      0.00
   -2   -9    6      8.77      0.00
   -2   -9    5     -2.49      0.00
   -2   -9    4      1.74      0.00
   -2   -9    3     11.39      0.00
   -2   -9    2     10.76      0.00
   -2   -9    1     -3.66      0.00
    2    9    0     -6.13      0.00
    2    9    1     -5.93      0.00
    2    9    2     -2.43      0.00
    2    9    3     -3.75      0.00
    2    9    4      0.27      0.00
    2    9    5     -6.38      0.00
    2    9    6      8.28      0.00
    2    9    7      0.95      0.00
    2    9    8     -1.76      0.00
    2    9    9      0.68      0.00
    2    9   10     -0.58      0.00
    2    9   11      2.20      0.00
    2    9   12      1.26      0.00
    2    9   13     -0.12      0.00
   -2  -10   24      0.01      0.00
   -2  -10   23      0.33      0.00
   -2  -10   22     -0.76      0.00
   -2  -10   21     -0.69      0.00
   -2  -10   20     -3.01      0.00
   -2  -10   19     -0.30      0.00
   -2  -10   18     -5.61      0.00
   -2  -10   17     -2.11      0.00
   -2  -10   16     -0.51      0.00
   -2  -10   15     11.23      0.00
   -2  -10   14      8.50      0.00
   -2  -10   13      3.44      0.00
   -2  -10   12     -8.27      0.00
   -2  -10   11     -4.57      0.00
   -2  -10   10     -1.01      0.00
   -2  -10    9     -2.48      0.00
   -2  -10    8     -0.23      0.00
   -2  -10    7      2.81      0.00
   -2  -10    6     -7.64      0.00
   -2  -10    5     -4.34      0.00
   -2  -10    4    -11.43      0.00
   -2  -10    3     -4.97      0.00
   -2  -10    2     12.10      0.00
   -2  -10    1     -0.25      0.00
    2   10    0      5.18      0.00
    2   10    1     -7.86      0.00
    2   10    2      7.85      0.00
    2   10    3     -7.88      0.00
    2   10    4      2.23      0.00
    2   10    5     -2.58      0.00
    2   10    6     -0.23      0.00
    2   10    7     10.06      0.00
    2   10    8     -0.79      0.00
    2   10    9     -1.57      0.00
    2   10   10     -1.64      0.00
    2   10   11     -2.40      0.00
    2   10   12      0.73      0.00
    2   10   13      0.80      0.00
   -2  -11   24     -1.45      0.00
   -2  -11   23      0.66      0.00
   -2  -11   22     -0.64      0.00
   -2  -11   21      0.01      0.00
   -2  -11   20     -0.03      0.00
   -2  -11   19     -0.80      0.00
   -2  -11   18      1.89      0.00
   -2  -11   17     -8.58      0.00
   -2  -11   16     -1.74      0.00
   -2  -11   15     -2.72      0.00
   -2  -11   14      5.32      0.00
   -2  -11   13      6.48      0.00
   -2  -11   12     -0.70      0.00
   -2  -11   11     -1.39      0.00
   -2  -11   10     -3.50      0.00
   -2  -11    9      2.11      0.00
   -2  -11    8     -5.58      0.00
   -2  -11    7      4.67      0.00
   -2  -11    6      3.28      0.00
   -2  -11    5      4.48      0.00
   -2  -11    4     -3.56      0.00
   -2  -11    3     -1.02      0.00
   -2  -11    2     -2.65      0.00
   -2  -11    1      9.31      0.00
    2   11    0      2.13      0.00
    2   11    1     -1.79      0.00
    2   11    2      1.64      0.00
    2   11    3      1.93      0.00
    2   11    4     -5.25      0.00
    2   11    5      1.04      0.00
    2   11    6     -6.59      0.00
    2   11    7      2.09      0.00
    2   11    8      5.96      0.00
    2   11    9      0.97      0.00
    2   11   10      0.05      0.00
    2   11   11     -0.66      0.00
    2   11   12     -0.76      0.00
   -2  -12   24     -0.21      0.00
   -2  -12   23      1.27      0.00
   -2  -12   22      0.04      0.00
   -2  -12   21      0.45      0.00
   -2  -12   20     -0.46      0.00
   -2  -12   19      1.48      0.00
   -2  -12   18      0.75      0.00
   -2  -12   17      2.10      0.00
   -2  -12   16     -5.96      0.00
   -2  -12   15     -1.88      0.00
   -2  -12   14      0.52      0.00
   -2  -12   13      5.06      0.00
   -2  -12   12      5.45      0.00
   -2  -12   11      2.39      0.00
   -2  -12   10      1.72      0.00
   -2  -12    9      2.19      0.00
   -2  -12    8      2.44      0.00
   -2  -12    7     -6.56      0.00
   -2  -12    6      4.65      0.00
   -2  -12    5     -0.95      0.00
   -2  -12    4      4.75      0.00
   -2  -12    3     -6.63      0.00
   -2  -12    2      1.68      0.00
   -2  -12    1     -5.91      0.00
    2   12    0      5.01      0.00
    2   12    1      2.10      0.00
    2   12    2     -3.28      0.00
    2   12    3     10.69      0.00
    2   12    4     -0.69      0.00
    2   12    5      2.47      0.00
    2   12    6     -0.84      0.00
    2   12    7     -4.12      0.00
    2   12    8      0.48      0.00
    2   12    9      2.33      0.00
    2   12   10      1.30      0.00
    2   12   11      0.79      0.00
   -2  -13   23      0.80      0.00
   -2  -13   22      2.58      0.00
   -2  -13   21      0.92      0.00
   -2  -13   20      1.25      0.00
   -2  -13   19      0.09      0.00
   -2  -13   18      3.53      0.00
   -2  -13   17      3.41      0.00
   -2  -13   16     -1.98      0.00
   -2  -13   15     -2.80      0.00
   -2  -13   14    -11.49      0.00
   -2  -13   13      3.26      0.00
   -2  -13   12     -4.58      0.00
   -2  -13   11      5.90      0.00
   -2  -13   10      2.01      0.00
   -2  -13    9      4.31      0.00
   -2  -13    8      4.54      0.00
   -2  -13    7      2.00      0.00
   -2  -13    6     -6.85      0.00
   -2  -13    5      2.59      0.00
   -2  -13    4     -1.06      0.00
   -2  -13    3      3.39      0.00
   -2  -13    2     -3.10      0.00
   -2  -13    1      2.17      0.00
    2   13    0     -7.20      0.00
    2   13    1      2.22      0.00
    2   13    2     -5.69      0.00
    2   13    3     -0.70      0.00
    2   13    4      5.84      0.00
    2   13    5      2.16      0.00
    2   13    6      3.72      0.00
    2   13    7     -1.28      0.00
    2   13    8     -2.10      0.00
    2   13    9     -1.12      0.00
    2   13   10      0.12      0.00
   -2  -14   23     -0.04      0.00
   -2  -14   22      1.01      0.00
   -2  -14   21      1.27      0.00
   -2  -14   20      0.69      0.00
   -2  -14   19     -0.64      0.00
   -2  -14   18     -1.09      0.00
   -2  -14   17      3.32      0.00
   -2  -14   16      3.84      0.00
   -2  -14   15      0.53      0.00
   -2  -14   14     -1.66      0.00
   -2  -14   13     -6.29      0.00
   -2  -14   12      1.39      0.00
   -2  -14   11     -5.46      0.00
   -2  -14   10      0.56      0.00
   -2  -14    9     -1.24      0.00
   -2  -14    8      3.24      0.00
   -2  -14    7      3.09      0.00
   -2  -14    6      1.65      0.00
   -2  -14    5     -3.23      0.00
   -2  -14    4      1.01      0.00
   -2  -14    3     -1.10      0.00
   -2  -14    2     -2.51      0.00
   -2  -14    1      3.46      0.00
    2   14    0     -0.55      0.00
    2   14    1      2.50      0.00
    2   14    2     -0.56      0.00
    2   14    3     -2.99      0.00
    2   14    4      0.27      0.00
    2   14    5      2.96      0.00
    2   14    6      2.25      0.00
    2   14    7      1.83      0.00
    2   14    8     -0.25      0.00
    2   14    9     -1.08      0.00
   -2  -15   22      0.28      0.00
   -2  -15   21      1.46      0.00
   -2  -15   20      0.69      0.00
   -2  -15   19      0.38      0.00
   -2  -15   18     -2.64      0.00
   -2  -15   17      0.56      0.00
   -2  -15   16      0.23      0.00
   -2  -15   15      3.70      0.00
   -2  -15   14      0.63      0.00
   -2  -15   13     -3.57      0.00
   -2  -15   12      0.83      0.00
   -2  -15   11     -3.03      0.00
   -2  -15   10     -2.34      0.00
   -2  -15    9     -2.26      0.00
   -2  -15    8     -3.01      0.00
   -2  -15    7      1.72      0.00
   -2  -15    6      2.25      0.00
   -2  -15    5      1.60      0.00
   -2  -15    4      0.72      0.00
   -2  -15    3      1.43      0.00
   -2  -15    2     -1.04      0.00
   -2  -15    1     -2.60      0.00
    2   15    0      3.26      0.00
    2   15    1     -0.12      0.00
    2   15    2      2.76      0.00
    2   15    3     -1.72      0.00
    2   15    4     -2.31      0.00
    2   15    5     -0.20      0.00
    2   15    6      1.23      0.00
    2   15    7      0.23      0.00
   -2  -16   21     -0.08      0.00
   -2  -16   20      1.36      0.00
   -2  -16   19      0.07      0.00
   -2  -16   18      0.01      0.00
   -2  -16   17     -1.74      0.00
   -2  -16   16      2.03      0.00
   -2  -16   15     -0.53      0.00
   -2  -16   14      3.97      0.00
   -2  -16   13     -1.01      0.00
   -2  -16   12     -1.43      0.00
   -2  -16   11      2.51      0.00
   -2  -16   10     -1.95      0.00
   -2  -16    9      0.17      0.00
   -2  -16    8     -2.00      0.00
   -2  -16    7     -0.91      0.00
   -2  -16    6     -1.25      0.00
   -2  -16    5      0.91      0.00
   -2  -16    4     -0.29      0.00
   -2  -16    3      1.56      0.00
   -2  -16    2      2.39      0.00
   -2  -16    1     -1.67      0.00
    2   16    0      0.19      0.00
    2   16    1      1.27      0.00
    2   16    2      2.13      0.00
    2   16    3      1.06      0.00
    2   16    4      0.51      0.00
    2   16    5     -1.53      0.00
    2   16    6     -0.42      0.00
   -2  -17   20     -0.49      0.00
   -2  -17   19      0.11      0.00
   -2  -17   18     -1.08      0.00
   -2  -17   17     -2.52      0.00
   -2  -17   16     -0.03      0.00
   -2  -17   15      0.47      0.00
   -2  -17   14      2.40      0.00
   -2  -17   13      1.51      0.00
   -2  -17   12     -0.85      0.00
   -2  -17   11     -1.25      0.00
   -2  -17   10      1.15      0.00
   -2  -17    9     -1.86      0.00
   -2  -17    8     -0.55      0.00
   -2  -17    7     -1.61      0.00
   -2  -17    6      0.16      0.00
   -2  -17    5     -1.24      0.00
   -2  -17    4      0.76      0.00
   -2  -17    3     -0.70      0.00
   -2  -17    2      1.70      0.00
   -2  -17    1      0.25      0.00
    2   17    0     -0.60      0.00
    2   17    1     -2.07      0.00
    2   17    2      1.50      0.00
    2   17    3     -1.42      0.00
    2   17    4      0.06      0.00
   -2  -18   19     -0.40      0.00
   -2  -18   18      1.47      0.00
   -2  -18   17     -0.09      0.00
   -2  -18   16     -0.82      0.00
   -2  -18   15      0.17      0.00
   -2  -18   14     -0.53      0.00
   -2  -18   13      2.23      0.00
   -2  -18   12     -1.28      0.00
   -2  -18   11      0.67      0.00
   -2  -18   10     -0.89      0.00
   -2  -18    9      1.65      0.00
   -2  -18    8     -0.90      0.00
   -2  -18    7     -1.38      0.00
   -2  -18    6     -0.83      0.00
   -2  -18    5     -0.79      0.00
   -2  -18    4     -1.17      0.00
   -2  -18    3      0.53      0.00
   -2  -18    2     -0.38      0.00
   -2  -18    1      0.67      0.00
    2   18    0     -0.33      0.00
    2   18    1     -0.54      0.00
    2   18    2      0.53      0.00
   -2  -19   17      2.37      0.00
   -2  -19   16      0.19      0.00
   -2  -19   15      0.20      0.00
   -2  -19   14     -1.59      0.00
   -2  -19   13      0.19      0.00
   -2  -19   12     -0.25      0.00
   -2  -19   11     -1.57      0.00
   -2  -19   10      0.10      0.00
   -2  -19    9     -0.79      0.00
   -2  -19    8      0.95      0.00
   -2  -19    7     -0.86      0.00
   -2  -19    6     -0.32      0.00
   -2  -19    5     -0.78      0.00
   -2  -19    4     -0.27      0.00
   -2  -19    3     -0.85      0.00
   -2  -19    2      0.32      0.00
   -2  -19    1      0.52      0.00
   -2  -20   12     -0.01      0.00
   -2  -20   11     -0.24      0.00
   -2  -20   10     -1.13      0.00
   -2  -20    9      0.16      0.00
   -2  -20    8      0.16      0.00
   -2  -20    7      0.47      0.00
   -2  -20    6      0.00      0.00
   -2  -20    5     -0.03      0.00
   -2  -20    4     -0.09      0.00
   -3   19    5     -0.24      0.00
   -3   19    4      0.58      0.00
   -3   19    3     -2.68      0.00
   -3   19    2      0.19      0.00
   -3   19    1     -0.08      0.00
   -3   19    0      0.88      0.00
    3  -19    1     -0.56      0.00
    3  -19    2     -0.16      0.00
    3  -19    3     -0.99      0.00
    3  -19    4      1.30      0.00
   -3   18    7     -0.12      0.00
   -3   18    6     -0.70      0.00
   -3   18    5      0.88      0.00
   -3   18    4      1.20      0.00
   -3   18    3     -0.43      0.00
   -3   18    2     -2.88      0.00
   -3   18    1      0.08      0.00
   -3   18    0      0.60      0.00
    3  -18    1     -0.30      0.00
    3  -18    2     -0.66      0.00
    3  -18    3     -1.25      0.00
    3  -18    4     -0.36      0.00
    3  -18    5      2.11      0.00
    3  -18   14      0.62      0.00
    3  -18   15     -1.38      0.00
   -3   17    8      0.11      0.00
   -3   17    7     -1.33      0.00
   -3   17    6     -0.12      0.00
   -3   17    5      1.06      0.00
   -3   17    4     -0.44      0.00
   -3   17    3      0.54      0.00
   -3   17    2     -1.83      0.00
   -3   17    1     -1.21      0.00
   -3   17    0      4.27      0.00
    3  -17    1      2.05      0.00
    3  -17    2      0.22      0.00
    3  -17    3     -1.08      0.00
    3  -17    4     -1.70      0.00
    3  -17    5      0.93      0.00
    3  -17   11     -2.54      0.00
    3  -17   12      0.89      0.00
    3  -17   13     -0.11      0.00
    3  -17   14     -0.12      0.00
    3  -17   16      1.80      0.00
    3  -17   17      2.03      0.00
   -3   16   10      0.25      0.00
   -3   16    9     -1.60      0.00
   -3   16    8      0.67      0.00
   -3   16    7      0.41      0.00
   -3   16    6      0.28      0.00
   -3   16    5      1.09      0.00
   -3   16    4      3.69      0.00
   -3   16    3     -1.49      0.00
   -3   16    2     -0.52      0.00
   -3   16    1     -5.73      0.00
   -3   16    0     -0.86      0.00
    3  -16    1      3.88      0.00
    3  -16    2      3.58      0.00
    3  -16    3     -1.02      0.00
    3  -16    4     -0.27      0.00
    3  -16    5     -0.91      0.00
    3  -16   11     -1.22      0.00
    3  -16   12     -0.78      0.00
    3  -16   13      1.49      0.00
    3  -16   14     -1.15      0.00
    3  -16   15      0.62      0.00
    3  -16   16     -0.74      0.00
    3  -16   17      1.55      0.00
    3  -16   18      2.39      0.00
    3  -16   19      1.44      0.00
    3  -16   20     -0.36      0.00
   -3   15   11      0.29      0.00
   -3   15   10      0.68      0.00
   -3   15    9     -1.18      0.00
   -3   15    8     -2.57      0.00
   -3   15    7     -3.20      0.00
   -3   15    6     -2.25      0.00
   -3   15    5     -1.47      0.00
   -3   15    4      2.10      0.00
   -3   15    3      7.56      0.00
   -3   15    2      1.49      0.00
   -3   15    1      1.47      0.00
   -3   15    0     -5.33      0.00
    3  -15    1      0.43      0.00
    3  -15    2      3.29      0.00
    3  -15    3      4.06      0.00
    3  -15    4     -2.51      0.00
    3  -15    5     -0.79      0.00
    3  -15    9     -1.43      0.00
    3  -15   10      2.81      0.00
    3  -15   11      2.44      0.00
    3  -15   12      1.20      0.00
    3  -15   13      0.34      0.00
    3  -15   14      1.17      0.00
    3  -15   15     -0.21      0.00
    3  -15   16      0.99      0.00
    3  -15   17     -0.70      0.00
    3  -15   18      1.13      0.00
    3  -15   19      0.67      0.00
    3  -15   20      0.03      0.00
    3  -15   21     -1.71      0.00
   -3   14   13     -0.31      0.00
   -3   14   12     -0.40      0.00
   -3   14   11      0.08      0.00
   -3   14   10      1.44      0.00
   -3   14    9      2.89      0.00
   -3   14    8      2.49      0.00
   -3   14    7     -0.39      0.00
   -3   14    6      1.20      0.00
   -3   14    5     -6.01      0.00
   -3   14    4     -4.08      0.00
   -3   14    3     -0.01      0.00
   -3   14    2      5.55      0.00
   -3   14    1      2.42      0.00
   -3   14    0     -1.76      0.00
    3  -14    1     -5.03      0.00
    3  -14    2     -4.57      0.00
    3  -14    3      2.51      0.00
    3  -14    4      1.31      0.00
    3  -14    8     -0.92      0.00
    3  -14    9      3.25      0.00
    3  -14   10     -7.09      0.00
    3  -14   11      6.83      0.00
    3  -14   12     -2.39      0.00
    3  -14   13      2.78      0.00
    3  -14   14      0.02      0.00
    3  -14   15     -0.88      0.00
    3  -14   16     -1.74      0.00
    3  -14   17     -2.63      0.00
    3  -14   18     -1.15      0.00
    3  -14   19      0.39      0.00
    3  -14   20      2.06      0.00
    3  -14   21      0.97      0.00
   -3   13   14      1.46      0.00
   -3   13   13      0.48      0.00
   -3   13   12      0.46      0.00
   -3   13   11     -0.29      0.00
   -3   13   10     -0.04      0.00
   -3   13    9     -0.62      0.00
   -3   13    8      1.20      0.00
   -3   13    7      6.45      0.00
   -3   13    6     -1.05      0.00
   -3   13    5      6.98      0.00
   -3   13    4    -11.66      0.00
   -3   13    3     -5.84      0.00
   -3   13    2     -0.18      0.00
   -3   13    1      3.69      0.00
   -3   13    0      5.00      0.00
    3  -13    1     -0.03      0.00
    3  -13    2      1.89      0.00
    3  -13    3     -6.28      0.00
    3  -13    4      5.71      0.00
    3  -13    7      3.40      0.00
    3  -13    8     -1.46      0.00
    3  -13    9      1.31      0.00
    3  -13   10     -0.02      0.00
    3  -13   11     -3.03      0.00
    3  -13   12      3.05      0.00
    3  -13   13     -0.96      0.00
    3  -13   14      1.66      0.00
    3  -13   15      3.30      0.00
    3  -13   16      0.67      0.00
    3  -13   17      0.13      0.00
    3  -13   18     -4.34      0.00
    3  -13   19     -0.77      0.00
    3  -13   20     -0.93      0.00
    3  -13   21      1.02      0.00
   -3   12   15     -1.40      0.00
   -3   12   14      0.12      0.00
   -3   12   13      0.25      0.00
   -3   12   12      2.16      0.00
   -3   12   11      0.43      0.00
   -3   12   10      2.69      0.00
   -3   12    9      1.48      0.00
   -3   12    8     -3.12      0.00
   -3   12    7      3.70      0.00
   -3   12    6      4.75      0.00
   -3   12    5      2.51      0.00
   -3   12    4      4.75      0.00
   -3   12    3    -12.49      0.00
   -3   12    2    -10.61      0.00
   -3   12    1     -0.18      0.00
   -3   12    0     -4.16      0.00
    3  -12    1     -0.78      0.00
    3  -12    2     -2.20      0.00
    3  -12    3      2.47      0.00
    3  -12    4     -0.38      0.00
    3  -12    5      9.39      0.00
    3  -12    6     -5.77      0.00
    3  -12    7     10.91      0.00
    3  -12    8      1.13      0.00
    3  -12    9      5.49      0.00
    3  -12   10     -1.54      0.00
    3  -12   11     -1.52      0.00
    3  -12   12     -4.45      0.00
    3  -12   13     -5.91      0.00
    3  -12   14     -3.47      0.00
    3  -12   15     -1.52      0.00
    3  -12   16      3.81      0.00
    3  -12   17      2.33      0.00
    3  -12   18     -0.41      0.00
    3  -12   19     -2.62      0.00
    3  -12   20     -0.04      0.00
    3  -12   21     -0.21      0.00
    3  -12   22      1.04      0.00
   -3   11   16     -0.94      0.00
   -3   11   15     -2.00      0.00
   -3   11   14     -1.41      0.00
   -3   11   13     -2.54      0.00
   -3   11   12     -0.86      0.00
   -3   11   11      2.71      0.00
   -3   11   10     -3.71      0.00
   -3   11    9      6.30      0.00
   -3   11    8     -2.42      0.00
   -3   11    7     -2.06      0.00
   -3   11    6      3.40      0.00
   -3   11    5      2.63      0.00
   -3   11    4      8.78      0.00
   -3   11    3     -1.10      0.00
   -3   11    2     -4.15      0.00
   -3   11    1    -12.74      0.00
   -3   11    0      3.18      0.00
    3  -11    1     -9.31      0.00
    3  -11    2     -6.39      0.00
    3  -11    3     -1.13      0.00
    3  -11    5      2.95      0.00
    3  -11    6     -1.72      0.00
    3  -11    7     -3.83      0.00
    3  -11    8      4.44      0.00
    3  -11    9      4.20      0.00
    3  -11   10      6.89      0.00
    3  -11   11      0.07      0.00
    3  -11   12      2.34      0.00
    3  -11   13     -2.06      0.00
    3  -11   14     -7.87      0.00
    3  -11   15     -2.73      0.00
    3  -11   16     -4.11      0.00
    3  -11   17      4.57      0.00
    3  -11   18      2.96      0.00
    3  -11   19      1.30      0.00
    3  -11   20      0.45      0.00
    3  -11   21      0.10      0.00
    3  -11   22     -0.33      0.00
   -3   10   16      0.65      0.00
   -3   10   15     -1.13      0.00
   -3   10   14     -2.05      0.00
   -3   10   13      0.49      0.00
   -3   10   12     -2.65      0.00
   -3   10   11      3.08      0.00
   -3   10   10      1.19      0.00
   -3   10    9     -0.28      0.00
   -3   10    8     10.31      0.00
   -3   10    7     -5.31      0.00
   -3   10    6      0.81      0.00
   -3   10    5     -0.79      0.00
   -3   10    4      2.52      0.00
   -3   10    3      8.45      0.00
   -3   10    2     -6.06      0.00
   -3   10    1    -10.36      0.00
   -3   10    0    -11.97      0.00
    3  -10    1     -3.69      0.00
    3  -10    2    -11.15      0.00
    3  -10    3     -8.48      0.00
    3  -10    5      4.46      0.00
    3  -10    6     -2.82      0.00
    3  -10    7     -4.65      0.00
    3  -10    8     -5.26      0.00
    3  -10    9     -0.26      0.00
    3  -10   10      5.30      0.00
    3  -10   11      2.84      0.00
    3  -10   12      3.26      0.00
    3  -10   13      0.89      0.00
    3  -10   14     -3.57      0.00
    3  -10   15     -7.22      0.00
    3  -10   16     -5.89      0.00
    3  -10   17     -2.11      0.00
    3  -10   18      0.99      0.00
    3  -10   19      2.24      0.00
    3  -10   20      0.73      0.00
    3  -10   21      1.18      0.00
    3  -10   22      0.16      0.00
   -3    9   17     -1.01      0.00
   -3    9   16      0.02      0.00
   -3    9   15      2.48      0.00
   -3    9   14     -1.86      0.00
   -3    9   13      1.34      0.00
   -3    9   12      0.35      0.00
   -3    9   11     -0.94      0.00
   -3    9   10      7.09      0.00
   -3    9    9     -6.04      0.00
   -3    9    8      7.28      0.00
   -3    9    7      2.62      0.00
   -3    9    6     -2.40      0.00
   -3    9    5     -5.15      0.00
   -3    9    4      3.81      0.00
   -3    9    3      6.85      0.00
   -3    9    2      8.74      0.00
   -3    9    1      8.31      0.00
   -3    9    0     -7.40      0.00
    3   -9    1     10.20      0.00
    3   -9    2     -8.30      0.00
    3   -9    5     -6.21      0.00
    3   -9    6      5.28      0.00
    3   -9    7     -0.96      0.00
    3   -9    8      2.51      0.00
    3   -9    9    -10.84      0.00
    3   -9   10      6.35      0.00
    3   -9   11     -4.07      0.00
    3   -9   12     -0.35      0.00
    3   -9   13      5.38      0.00
    3   -9   14      2.64      0.00
    3   -9   15     -0.99      0.00
    3   -9   16     -3.37      0.00
    3   -9   17     -5.32      0.00
    3   -9   18     -0.09      0.00
    3   -9   19      0.16      0.00
    3   -9   20      1.30      0.00
    3   -9   21      0.98      0.00
    3   -9   22      1.40      0.00
   -3    8   18     -0.81      0.00
   -3    8   17     -2.73      0.00
   -3    8   16     -2.39      0.00
   -3    8   15      3.23      0.00
   -3    8   14      2.57      0.00
   -3    8   13     -4.33      0.00
   -3    8   12      5.06      0.00
   -3    8   11     -4.03      0.00
   -3    8   10      3.94      0.00
   -3    8    9      0.96      0.00
   -3    8    8     -0.20      0.00
   -3    8    7      5.50      0.00
   -3    8    6      6.64      0.00
   -3    8    5    -11.75      0.00
   -3    8    4     -7.52      0.00
   -3    8    3     -5.26      0.00
   -3    8    2     -4.13      0.00
   -3    8    1    -16.88      0.00
   -3    8    0     -1.26      0.00
    3   -8    1    -11.36      0.00
    3   -8    4    -17.07      0.00
    3   -8    5    -14.40      0.00
    3   -8    6     -0.56      0.00
    3   -8    7     -5.00      0.00
    3   -8    8      2.62      0.00
    3   -8    9      5.98      0.00
    3   -8   10     -5.04      0.00
    3   -8   11      8.99      0.00
    3   -8   12     -5.84      0.00
    3   -8   13     -2.31      0.00
    3   -8   14      1.36      0.00
    3   -8   15      1.15      0.00
    3   -8   16     -1.17      0.00
    3   -8   17     -3.95      0.00
    3   -8   18     -2.35      0.00
    3   -8   19     -3.15      0.00
    3   -8   20     -0.11      0.00
    3   -8   21     -2.28      0.00
    3   -8   22      0.16      0.00
   -3    7   18     -0.27      0.00
   -3    7   17     -1.44      0.00
   -3    7   16     -2.50      0.00
   -3    7   15     -3.30      0.00
   -3    7   14      5.57      0.00
   -3    7   13     -2.98      0.00
   -3    7   12      2.91      0.00
   -3    7   11      3.56      0.00
   -3    7   10     -0.70      0.00
   -3    7    9     -1.53      0.00
   -3    7    8     -2.99      0.00
   -3    7    7      7.55      0.00
   -3    7    6     -0.23      0.00
   -3    7    5     14.94      0.00
   -3    7    4    -15.96      0.00
   -3    7    3      5.54      0.00
   -3    7    2     11.07      0.00
   -3    7    1     -0.52      0.00
   -3    7    0    -16.57      0.00
    3   -7    1     -3.29      0.00
    3   -7    4     11.64      0.00
    3   -7    5    -23.89      0.00
    3   -7    6     -2.35      0.00
    3   -7    7      1.18      0.00
    3   -7    8     -3.19      0.00
    3   -7    9      0.96      0.00
    3   -7   10      2.22      0.00
    3   -7   11      0.13      0.00
    3   -7   12      1.13      0.00
    3   -7   13     -6.65      0.00
    3   -7   14     -1.33      0.00
    3   -7   15     -1.62      0.00
    3   -7   16      5.38      0.00
    3   -7   17     -3.35      0.00
    3   -7   18      2.22      0.00
    3   -7   19     -1.41      0.00
    3   -7   20     -0.52      0.00
    3   -7   21     -0.90      0.00
    3   -7   22     -1.13      0.00
   -3    6   19      1.06      0.00
   -3    6   18      0.44      0.00
   -3    6   17     -1.05      0.00
   -3    6   16     -0.31      0.00
   -3    6   15     -1.34      0.00
   -3    6   14     -0.30      0.00
   -3    6   13      3.84      0.00
   -3    6   12     -3.83      0.00
   -3    6   11      1.78      0.00
   -3    6   10      3.52      0.00
   -3    6    9      3.50      0.00
   -3    6    8      2.26      0.00
   -3    6    7     10.74      0.00
   -3    6    6     14.53      0.00
   -3    6    5      0.97      0.00
   -3    6    4     -4.77      0.00
   -3    6    3    -35.28      0.00
   -3    6    2    -15.20      0.00
   -3    6    1      6.27      0.00
    3   -6    3     -5.08      0.00
    3   -6    4      2.50      0.00
    3   -6    5      7.42      0.00
    3   -6    6    -10.27      0.00
    3   -6    7     14.36      0.00
    3   -6    8      4.39      0.00
    3   -6    9      7.81      0.00
    3   -6   10     -1.08      0.00
    3   -6   11     -4.20      0.00
    3   -6   12     -2.98      0.00
    3   -6   13    -10.44      0.00
    3   -6   14     -3.23      0.00
    3   -6   15     -6.70      0.00
    3   -6   16     -1.04      0.00
    3   -6   17     -0.25      0.00
    3   -6   18     -3.40      0.00
    3   -6   19      2.60      0.00
    3   -6   20     -0.03      0.00
    3   -6   21      0.71      0.00
    3   -6   22     -0.04      0.00
   -3    5   19      1.30      0.00
   -3    5   18      3.20      0.00
   -3    5   17      1.99      0.00
   -3    5   16     -3.89      0.00
   -3    5   15     -1.94      0.00
   -3    5   14     -1.41      0.00
   -3    5   13      3.20      0.00
   -3    5   12     -2.05      0.00
   -3    5   11     -1.68      0.00
   -3    5   10    -11.62      0.00
   -3    5    9      4.66      0.00
   -3    5    8    -17.24      0.00
   -3    5    7      1.31      0.00
   -3    5    6      2.42      0.00
   -3    5    5     17.80      0.00
   -3    5    4     21.13      0.00
   -3    5    3      5.63      0.00
   -3    5    2    -15.73      0.00
   -3    5    1     -7.56      0.00
   -3    5    0     -6.81      0.00
    3   -5    1    -25.84      0.00
    3   -5    2    -26.88      0.00
    3   -5    3    -15.97      0.00
    3   -5    4    -10.44      0.00
    3   -5    5      8.18      0.00
    3   -5    6    -16.92      0.00
    3   -5    7     -5.31      0.00
    3   -5    8      9.54      0.00
    3   -5    9     -1.06      0.00
    3   -5   10     10.11      0.00
    3   -5   11     -1.39      0.00
    3   -5   12      2.46      0.00
    3   -5   13     -8.11      0.00
    3   -5   14     -3.12      0.00
    3   -5   15     -4.79      0.00
    3   -5   16     -2.32      0.00
    3   -5   17      2.05      0.00
    3   -5   18     -2.39      0.00
    3   -5   19      1.11      0.00
    3   -5   20      1.56      0.00
    3   -5   21      1.28      0.00
   -3    4   20     -1.84      0.00
   -3    4   19     -2.10      0.00
   -3    4   18      1.63      0.00
   -3    4   17      6.31      0.00
   -3    4   16      1.94      0.00
   -3    4   15     -0.94      0.00
   -3    4   14     -2.65      0.00
   -3    4   13      1.69      0.00
   -3    4   12      1.68      0.00
   -3    4   11      8.29      0.00
   -3    4   10     -0.75      0.00
   -3    4    9      1.63      0.00
   -3    4    8     11.77      0.00
   -3    4    7    -18.52      0.00
   -3    4    6     -4.99      0.00
   -3    4    5     -5.61      0.00
   -3    4    4    -11.86      0.00
   -3    4    3     17.88      0.00
   -3    4    2    -25.94      0.00
   -3    4    1     -7.74      0.00
   -3    4    0      7.53      0.00
    3   -4    1      1.17      0.00
    3   -4    2    -16.76      0.00
    3   -4    3     -1.96      0.00
    3   -4    4      6.52      0.00
    3   -4    5     12.17      0.00
    3   -4    6     22.50      0.00
    3   -4    7     10.42      0.00
    3   -4    8      5.78      0.00
    3   -4    9     16.65      0.00
    3   -4   10      0.13      0.00
    3   -4   11     -3.43      0.00
    3   -4   12     -4.01      0.00
    3   -4   13     -0.73      0.00
    3   -4   14    -14.26      0.00
    3   -4   15      0.99      0.00
    3   -4   16    -12.29      0.00
    3   -4   17      1.91      0.00
    3   -4   18     -0.18      0.00
    3   -4   19     -0.38      0.00
    3   -4   20      0.48      0.00
    3   -4   21      0.56      0.00
   -3    3   20     -0.81      0.00
   -3    3   19     -1.24      0.00
   -3    3   18     -4.25      0.00
   -3    3   17      2.71      0.00
   -3    3   16     11.07      0.00
   -3    3   15      7.44      0.00
   -3    3   14      2.83      0.00
   -3    3   13      0.41      0.00
   -3    3   12    -10.65      0.00
   -3    3   11    -10.58      0.00
   -3    3   10      0.60      0.00
   -3    3    9     -5.53      0.00
   -3    3    8      9.83      0.00
   -3    3    7      2.53      0.00
   -3    3    6    -17.30      0.00
   -3    3    5    -16.08      0.00
   -3    3    4     14.85      0.00
   -3    3    3      2.96      0.00
   -3    3    2     15.15      0.00
   -3    3    1     26.56      0.00
   -3    3    0    -14.20      0.00
    3   -3    1     40.57      0.00
    3   -3    2    -25.16      0.00
    3   -3    3    -48.75      0.00
    3   -3    4    -34.87      0.00
    3   -3    5    -10.95      0.00
    3   -3    6     -5.47      0.00
    3   -3    7     -5.30      0.00
    3   -3    8      3.77      0.00
    3   -3    9     -4.74      0.00
    3   -3   10      3.25      0.00
    3   -3   11      3.52      0.00
    3   -3   12     -6.38      0.00
    3   -3   13     13.28      0.00
    3   -3   14     -1.03      0.00
    3   -3   15      1.27      0.00
    3   -3   16     -1.48      0.00
    3   -3   17     -5.60      0.00
    3   -3   18      1.48      0.00
    3   -3   19      0.07      0.00
    3   -3   20     -1.03      0.00
   -3    2   21      3.05      0.00
   -3    2   20      4.19      0.00
   -3    2   19     -1.46      0.00
   -3    2   18     -4.44      0.00
   -3    2   17     -9.53      0.00
   -3    2   16     -5.70      0.00
   -3    2   15      4.64      0.00
   -3    2   14      3.78      0.00
   -3    2   13      3.63      0.00
   -3    2   12     13.34      0.00
   -3    2   11     -0.50      0.00
   -3    2   10      6.85      0.00
   -3    2    9      6.10      0.00
   -3    2    8      2.37      0.00
   -3    2    7     14.64      0.00
   -3    2    6    -11.33      0.00
   -3    2    5    -18.76      0.00
   -3    2    4    -52.85      0.00
   -3    2    3      6.60      0.00
   -3    2    2    -45.94      0.00
   -3    2    1    -48.45      0.00
   -3    2    0     12.60      0.00
    3   -2    1    -10.75      0.00
    3   -2    2     63.55      0.00
    3   -2    3     13.38      0.00
    3   -2    4    -12.28      0.00
    3   -2    5     13.94      0.00
    3   -2    6      9.24      0.00
    3   -2    7     19.68      0.00
    3   -2    8      0.48      0.00
    3   -2    9      5.91      0.00
    3   -2   10    -10.70      0.00
    3   -2   11      0.73      0.00
    3   -2   12    -10.27      0.00
    3   -2   13     -4.01      0.00
    3   -2   14      5.57      0.00
    3   -2   15     -3.78      0.00
    3   -2   16      2.81      0.00
    3   -2   17     -3.24      0.00
    3   -2   18     -0.93      0.00
    3   -2   19      0.53      0.00
    3   -2   20     -0.67      0.00
   -3    1   21      1.58      0.00
   -3    1   20      5.37      0.00
   -3    1   19      5.53      0.00
   -3    1   18      2.04      0.00
   -3    1   17     -3.77      0.00
   -3    1   16     -3.23      0.00
   -3    1   15     -8.79      0.00
   -3    1   14      1.43      0.00
   -3    1   13    -12.82      0.00
   -3    1   12     -0.10      0.00
   -3    1   11      1.79      0.00
   -3    1   10      0.37      0.00
   -3    1    9     -2.79      0.00
   -3    1    8      9.92      0.00
   -3    1    7     22.98      0.00
   -3    1    6     30.83      0.00
   -3    1    5     22.58      0.00
   -3    1    4    -12.11      0.00
   -3    1    3    -18.57      0.00
   -3    1    2     36.17      0.00
   -3    1    1    -19.13      0.00
   -3    1    0     36.83      0.00
    3   -1    1     28.12      0.00
    3   -1    2     42.06      0.00
    3   -1    3     31.15      0.00
    3   -1    4    -13.63      0.00
    3   -1    5    -37.19      0.00
    3   -1    6     -1.89      0.00
    3   -1    7     -9.02      0.00
    3   -1    8     -2.26      0.00
    3   -1    9      7.25      0.00
    3   -1   10     -4.52      0.00
    3   -1   11      1.52      0.00
    3   -1   12      0.92      0.00
    3   -1   13     -5.19      0.00
    3   -1   14      7.15      0.00
    3   -1   15      2.27      0.00
    3   -1   16      3.78      0.00
    3   -1   17      0.51      0.00
    3   -1   18     -0.12      0.00
    3   -1   19     -0.17      0.00
   -3    0   22     -0.43      0.00
   -3    0   21     -3.76      0.00
   -3    0   20      1.24      0.00
   -3    0   19      4.61      0.00
   -3    0   18      7.88      0.00
   -3    0   17      3.98      0.00
   -3    0   16      3.15      0.00
   -3    0   15     -0.69      0.00
   -3    0   14     -1.13      0.00
   -3    0   13     -2.09      0.00
   -3    0   12    -13.98      0.00
   -3    0   11      5.45      0.00
   -3    0   10     18.41      0.00
   -3    0    9     15.76      0.00
   -3    0    8      0.59      0.00
   -3    0    7      3.87      0.00
   -3    0    6      1.83      0.00
   -3    0    4     55.48      0.00
   -3    0    3    -13.27      0.00
   -3    0    2     77.68      0.00
   -3    0    1    -45.75      0.00
    3    0    0    -33.66      0.00
    3    0    1    -30.93      0.00
    3    0    2      6.21      0.00
    3    0    3     35.66      0.00
    3    0    4     45.97      0.00
    3    0    5      7.81      0.00
    3    0    6      1.60      0.00
    3    0    7      5.82      0.00
    3    0    8     -8.67      0.00
    3    0    9    -12.67      0.00
    3    0   10      7.16      0.00
    3    0   11    -10.67      0.00
    3    0   12      7.58      0.00
    3    0   13     -6.54      0.00
    3    0   14     -3.29      0.00
    3    0   15      0.86      0.00
    3    0   16     -0.71      0.00
    3    0   17      1.75      0.00
    3    0   18     -0.81      0.00
    3    0   19      2.84      0.00
   -3   -1   22      1.35      0.00
   -3   -1   21     -0.30      0.00
   -3   -1   20     -0.37      0.00
   -3   -1   19      0.94      0.00
   -3   -1   18     10.47      0.00
   -3   -1   17      3.37      0.00
   -3   -1   16      1.12      0.00
   -3   -1   15     -1.60      0.00
   -3   -1   14    -12.07      0.00
   -3   -1   13     -4.89      0.00
   -3   -1   12    -20.21      0.00
   -3   -1   11    -24.08      0.00
   -3   -1   10     -7.87      0.00
   -3   -1    9     16.66      0.00
   -3   -1    8     16.52      0.00
   -3   -1    7     10.60      0.00
   -3   -1    6     41.34      0.00
   -3   -1    5    -52.27      0.00
   -3   -1    4     40.29      0.00
   -3   -1    3    -15.37      0.00
   -3   -1    2     19.55      0.00
   -3   -1    1     84.84      0.00
    3    1    0    -37.11      0.00
    3    1    1    -39.96      0.00
    3    1    2    -41.90      0.00
    3    1    3    -25.16      0.00
    3    1    4      7.48      0.00
    3    1    5      2.70      0.00
    3    1    6      0.05      0.00
    3    1    7     -0.14      0.00
    3    1    8     13.14      0.00
    3    1    9     -8.20      0.00
    3    1   10     -3.02      0.00
    3    1   11     -0.22      0.00
    3    1   12      0.80      0.00
    3    1   13      3.82      0.00
    3    1   14      3.08      0.00
    3    1   15     -0.99      0.00
    3    1   16     -0.41      0.00
    3    1   17     -2.79      0.00
    3    1   18     -2.49      0.00
   -3   -2   23     -1.01      0.00
   -3   -2   22      2.04      0.00
   -3   -2   21     -2.03      0.00
   -3   -2   20     -0.82      0.00
   -3   -2   19     -2.43      0.00
   -3   -2   18     -1.45      0.00
   -3   -2   17     10.26      0.00
   -3   -2   16      1.40      0.00
   -3   -2   15      9.39      0.00
   -3   -2   14     11.23      0.00
   -3   -2   13      3.19      0.00
   -3   -2   12      2.49      0.00
   -3   -2   11    -13.58      0.00
   -3   -2   10    -22.19      0.00
   -3   -2    9     -2.41      0.00
   -3   -2    8     19.87      0.00
   -3   -2    7    -13.93      0.00
   -3   -2    6     31.69      0.00
   -3   -2    5     12.18      0.00
   -3   -2    4    -29.30      0.00
   -3   -2    3      3.82      0.00
   -3   -2    2    -22.98      0.00
   -3   -2    1     50.09      0.00
    3    2    0     73.62      0.00
    3    2    1     22.08      0.00
    3    2    2    -14.82      0.00
    3    2    3     -9.31      0.00
    3    2    4     -5.93      0.00
    3    2    5      1.40      0.00
    3    2    6      1.98      0.00
    3    2    7     -7.19      0.00
    3    2    8      3.55      0.00
    3    2    9      3.21      0.00
    3    2   10     -3.07      0.00
    3    2   11     -4.36      0.00
    3    2   12     -0.72      0.00
    3    2   13      1.21      0.00
    3    2   14      2.18      0.00
    3    2   15      5.31      0.00
    3    2   16     -0.50      0.00
    3    2   17      1.04      0.00
    3    2   18     -1.48      0.00
   -3   -3   23     -0.75      0.00
   -3   -3   22      0.84      0.00
   -3   -3   21      1.41      0.00
   -3   -3   20     -1.11      0.00
   -3   -3   19      7.31      0.00
   -3   -3   18     -0.01      0.00
   -3   -3   17      6.58      0.00
   -3   -3   16     -0.09      0.00
   -3   -3   15     -6.94      0.00
   -3   -3   14     -5.52      0.00
   -3   -3   13      5.42      0.00
   -3   -3   12     -0.63      0.00
   -3   -3   11     -2.30      0.00
   -3   -3   10    -14.10      0.00
   -3   -3    9    -26.40      0.00
   -3   -3    8     -8.57      0.00
   -3   -3    7      0.20      0.00
   -3   -3    6    -14.09      0.00
   -3   -3    5     81.80      0.00
   -3   -3    4     49.02      0.00
   -3   -3    3     85.47      0.00
   -3   -3    2      5.99      0.00
   -3   -3    1     -4.29      0.00
    3    3    0     -1.77      0.00
    3    3    1      6.40      0.00
    3    3    2     -6.94      0.00
    3    3    3    -24.81      0.00
    3    3    4    -12.13      0.00
    3    3    5    -14.44      0.00
    3    3    6    -13.55      0.00
    3    3    7     -4.49      0.00
    3    3    8     -6.65      0.00
    3    3    9      9.41      0.00
    3    3   10      8.35      0.00
    3    3   11      3.24      0.00
    3    3   12      2.51      0.00
    3    3   13      1.55      0.00
    3    3   14     -0.43      0.00
    3    3   15     -0.73      0.00
    3    3   16      2.28      0.00
    3    3   17     -0.44      0.00
   -3   -4   23     -1.40      0.00
   -3   -4   22     -1.93      0.00
   -3   -4   21      3.67      0.00
   -3   -4   20     -2.21      0.00
   -3   -4   19      0.85      0.00
   -3   -4   18      0.90      0.00
   -3   -4   17      0.49      0.00
   -3   -4   16      9.98      0.00
   -3   -4   15      0.46      0.00
   -3   -4   14     -1.97      0.00
   -3   -4   13     -2.20      0.00
   -3   -4   12     10.55      0.00
   -3   -4   11      5.76      0.00
   -3   -4   10     -0.54      0.00
   -3   -4    9     -6.18      0.00
   -3   -4    8    -25.09      0.00
   -3   -4    7      4.80      0.00
   -3   -4    6    -57.41      0.00
   -3   -4    5    -20.07      0.00
   -3   -4    4    -27.56      0.00
   -3   -4    3     11.41      0.00
   -3   -4    2      8.80      0.00
   -3   -4    1     14.52      0.00
    3    4    0      5.31      0.00
    3    4    1     15.22      0.00
    3    4    2     13.45      0.00
    3    4    3      6.31      0.00
    3    4    4     -2.05      0.00
    3    4    5     12.07      0.00
    3    4    6     -9.43      0.00
    3    4    7     -4.66      0.00
    3    4    8     -8.50      0.00
    3    4    9     -6.44      0.00
    3    4   10      1.20      0.00
    3    4   11      3.74      0.00
    3    4   12     -1.51      0.00
    3    4   13      2.87      0.00
    3    4   14      0.16      0.00
    3    4   15     -1.79      0.00
    3    4   16      0.78      0.00
   -3   -5   24     -3.66      0.00
   -3   -5   23      0.14      0.00
   -3   -5   22     -4.93      0.00
   -3   -5   21      4.40      0.00
   -3   -5   20      4.26      0.00
   -3   -5   19      2.44      0.00
   -3   -5   18      1.37      0.00
   -3   -5   17     -2.87      0.00
   -3   -5   16     -0.35      0.00
   -3   -5   15      6.44      0.00
   -3   -5   14     -5.88      0.00
   -3   -5   13     -7.43      0.00
   -3   -5   12     -4.55      0.00
   -3   -5   11      6.88      0.00
   -3   -5   10      1.42      0.00
   -3   -5    9      6.88      0.00
   -3   -5    8     -5.68      0.00
   -3   -5    7      8.88      0.00
   -3   -5    6     29.49      0.00
   -3   -5    5      5.53      0.00
   -3   -5    4     29.42      0.00
   -3   -5    3     12.84      0.00
   -3   -5    2      9.85      0.00
   -3   -5    1    -12.93      0.00
    3    5    0      0.19      0.00
    3    5    1     -3.15      0.00
    3    5    2     -1.67      0.00
    3    5    3      2.84      0.00
    3    5    4    -14.78      0.00
    3    5    5      4.13      0.00
    3    5    6      5.73      0.00
    3    5    7      0.70      0.00
    3    5    8     -3.73      0.00
    3    5    9     -0.15      0.00
    3    5   10     -4.37      0.00
    3    5   11      3.52      0.00
    3    5   12      0.79      0.00
    3    5   13     -2.07      0.00
    3    5   14      1.08      0.00
    3    5   15     -0.70      0.00
    3    5   16     -2.81      0.00
   -3   -6   24     -2.28      0.00
   -3   -6   23     -1.68      0.00
   -3   -6   22     -1.85      0.00
   -3   -6   21     -5.91      0.00
   -3   -6   20      6.41      0.00
   -3   -6   19      3.01      0.00
   -3   -6   18      7.89      0.00
   -3   -6   17      2.23      0.00
   -3   -6   16      0.51      0.00
   -3   -6   15      1.13      0.00
   -3   -6   14      5.61      0.00
   -3   -6   13      0.71      0.00
   -3   -6   12     -4.51      0.00
   -3   -6   11     13.60      0.00
   -3   -6   10      1.82      0.00
   -3   -6    9     -2.56      0.00
   -3   -6    8    -11.43      0.00
   -3   -6    7     -9.33      0.00
   -3   -6    6    -10.12      0.00
   -3   -6    5      7.72      0.00
   -3   -6    4      0.36      0.00
   -3   -6    3     11.11      0.00
   -3   -6    2     19.92      0.00
   -3   -6    1     -5.44      0.00
    3    6    0    -15.22      0.00
    3    6    1      6.63      0.00
    3    6    2     -1.60      0.00
    3    6    3      9.63      0.00
    3    6    4     -2.32      0.00
    3    6    5    -10.27      0.00
    3    6    6     -0.35      0.00
    3    6    7      4.10      0.00
    3    6    8     -1.86      0.00
    3    6    9     -2.55      0.00
    3    6   10     -2.32      0.00
    3    6   11     -4.67      0.00
    3    6   12      0.04      0.00
    3    6   13     -1.26      0.00
    3    6   14     -1.24      0.00
    3    6   15      1.51      0.00
   -3   -7   24     -0.29      0.00
   -3   -7   23     -1.05      0.00
   -3   -7   22      2.10      0.00
   -3   -7   21     -4.35      0.00
   -3   -7   20     -2.71      0.00
   -3   -7   19     -1.29      0.00
   -3   -7   18      0.60      0.00
   -3   -7   17     -2.32      0.00
   -3   -7   16     -1.30      0.00
   -3   -7   15     -1.44      0.00
   -3   -7   14     -0.09      0.00
   -3   -7   13     -7.52      0.00
   -3   -7   12     -5.88      0.00
   -3   -7   11    -17.15      0.00
   -3   -7   10     13.82      0.00
   -3   -7    9      4.18      0.00
   -3   -7    8     15.59      0.00
   -3   -7    7      7.71      0.00
   -3   -7    6     19.58      0.00
   -3   -7    5     -5.39      0.00
   -3   -7    4      3.72      0.00
   -3   -7    3     -9.65      0.00
   -3   -7    2      1.25      0.00
   -3   -7    1     12.27      0.00
    3    7    0    -13.62      0.00
    3    7    1    -14.47      0.00
    3    7    2     -6.01      0.00
    3    7    3     -2.10      0.00
    3    7    4      1.65      0.00
    3    7    5     -2.40      0.00
    3    7    6     -4.48      0.00
    3    7    7      0.55      0.00
    3    7    8      5.11      0.00
    3    7    9     -1.80      0.00
    3    7   10      0.17      0.00
    3    7   11     -0.47      0.00
    3    7   12     -2.66      0.00
    3    7   13      0.05      0.00
    3    7   14     -1.71      0.00
   -3   -8   24      1.27      0.00
   -3   -8   23     -0.46      0.00
   -3   -8   22      3.15      0.00
   -3   -8   21      0.86      0.00
   -3   -8   20     -4.01      0.00
   -3   -8   19      0.64      0.00
   -3   -8   18     -2.43      0.00
   -3   -8   17      3.74      0.00
   -3   -8   16     -4.69      0.00
   -3   -8   15      1.33      0.00
   -3   -8   14      7.96      0.00
   -3   -8   13      5.64      0.00
   -3   -8   12      0.67      0.00
   -3   -8   11    -11.21      0.00
   -3   -8   10    -13.38      0.00
   -3   -8    9     -3.73      0.00
   -3   -8    8     -5.55      0.00
   -3   -8    7     -3.74      0.00
   -3   -8    6      9.48      0.00
   -3   -8    5      4.78      0.00
   -3   -8    4      4.14      0.00
   -3   -8    3      1.17      0.00
   -3   -8    2      2.25      0.00
   -3   -8    1      8.93      0.00
    3    8    0     12.51      0.00
    3    8    1     -3.36      0.00
    3    8    2     -1.99      0.00
    3    8    3     -1.00      0.00
    3    8    4      2.47      0.00
    3    8    5     -3.74      0.00
    3    8    6      0.30      0.00
    3    8    7     -6.12      0.00
    3    8    8      3.14      0.00
    3    8    9     -1.05      0.00
    3    8   10     -2.16      0.00
    3    8   11     -1.14      0.00
    3    8   12      0.29      0.00
    3    8   13      0.62      0.00
   -3   -9   24      1.10      0.00
   -3   -9   23      0.53      0.00
   -3   -9   22      2.14      0.00
   -3   -9   21      2.92      0.00
   -3   -9   20     -0.01      0.00
   -3   -9   19     -2.14      0.00
   -3   -9   18     -0.45      0.00
   -3   -9   17     -2.91      0.00
   -3   -9   16     -5.21      0.00
   -3   -9   15     -9.20      0.00
   -3   -9   14     -0.95      0.00
   -3   -9   13      9.30      0.00
   -3   -9   12      6.72      0.00
   -3   -9   11      5.23      0.00
   -3   -9   10     -4.53      0.00
   -3   -9    9     -0.98      0.00
   -3   -9    8      7.18      0.00
   -3   -9    7      3.62      0.00
   -3   -9    6      4.77      0.00
   -3   -9    5     13.73      0.00
   -3   -9    4     -6.13      0.00
   -3   -9    3     -6.11      0.00
   -3   -9    2     -9.72      0.00
   -3   -9    1     -6.72      0.00
    3    9    0      6.71      0.00
    3    9    1     -2.34      0.00
    3    9    2      1.32      0.00
    3    9    3     -7.86      0.00
    3    9    4      7.56      0.00
    3    9    5     -5.60      0.00
    3    9    6     -1.01      0.00
    3    9    7     -1.69      0.00
    3    9    8     -1.30      0.00
    3    9    9      5.68      0.00
    3    9   10      0.55      0.00
    3    9   11     -1.83      0.00
    3    9   12     -0.60      0.00
   -3  -10   24      0.30      0.00
   -3  -10   23      1.18      0.00
   -3  -10   22     -2.19      0.00
   -3  -10   21      2.51      0.00
   -3  -10   20     -2.00      0.00
   -3  -10   19      0.13      0.00
   -3  -10   18     -0.44      0.00
   -3  -10   17      1.00      0.00
   -3  -10   16      4.00      0.00
   -3  -10   15     -8.05      0.00
   -3  -10   14     -4.27      0.00
   -3  -10   13     -2.32      0.00
   -3  -10   12      6.84      0.00
   -3  -10   11      1.92      0.00
   -3  -10   10      0.30      0.00
   -3  -10    9     -6.35      0.00
   -3  -10    8     -4.99      0.00
   -3  -10    7     -2.31      0.00
   -3  -10    6     -6.11      0.00
   -3  -10    5      4.31      0.00
   -3  -10    4     10.33      0.00
   -3  -10    3     -1.87      0.00
   -3  -10    2     -4.53      0.00
   -3  -10    1     -5.26      0.00
    3   10    0      0.52      0.00
    3   10    1      1.82      0.00
    3   10    2      5.19      0.00
    3   10    3     -4.19      0.00
    3   10    4      2.23      0.00
    3   10    5      5.56      0.00
    3   10    6     -3.54      0.00
    3   10    7     -1.22      0.00
    3   10    8     -3.70      0.00
    3   10    9     -2.12      0.00
    3   10   10      2.24      0.00
    3   10   11      0.79      0.00
    3   10   12     -0.63      0.00
   -3  -11   24     -0.19      0.00
   -3  -11   23      0.22      0.00
   -3  -11   22     -1.08      0.00
   -3  -11   21     -0.58      0.00
   -3  -11   20     -0.55      0.00
   -3  -11   19     -3.45      0.00
   -3  -11   18     -1.60      0.00
   -3  -11   17      1.44      0.00
   -3  -11   16     -0.78      0.00
   -3  -11   15      4.58      0.00
   -3  -11   14    -10.63      0.00
   -3  -11   13     -2.22      0.00
   -3  -11   12     -0.79      0.00
   -3  -11   11      7.98      0.00
   -3  -11   10      4.68      0.00
   -3  -11    9      6.39      0.00
   -3  -11    8      0.53      0.00
   -3  -11    7      2.82      0.00
   -3  -11    6     -2.19      0.00
   -3  -11    5     -5.98      0.00
   -3  -11    4      2.59      0.00
   -3  -11    3      3.60      0.00
   -3  -11    2      2.29      0.00
   -3  -11    1     -8.89      0.00
    3   11    0      1.27      0.00
    3   11    1     -6.07      0.00
    3   11    2      0.08      0.00
    3   11    3      2.48      0.00
    3   11    4     -4.98      0.00
    3   11    5      7.30      0.00
    3   11    6      3.37      0.00
    3   11    7      0.87      0.00
    3   11    8      0.14      0.00
    3   11    9     -1.46      0.00
    3   11   10     -0.36      0.00
    3   11   11      2.17      0.00
   -3  -12   24     -0.86      0.00
   -3  -12   23      0.82      0.00
   -3  -12   22      0.23      0.00
   -3  -12   21      0.27      0.00
   -3  -12   20      1.49      0.00
   -3  -12   19     -0.79      0.00
   -3  -12   18     -1.46      0.00
   -3  -12   17     -1.78      0.00
   -3  -12   16      6.04      0.00
   -3  -12   15      5.18      0.00
   -3  -12   14      3.09      0.00
   -3  -12   13     -3.53      0.00
   -3  -12   12     -9.96      0.00
   -3  -12   11      0.72      0.00
   -3  -12   10     -3.47      0.00
   -3  -12    9      2.21      0.00
   -3  -12    8      3.36      0.00
   -3  -12    7      4.38      0.00
   -3  -12    6      4.08      0.00
   -3  -12    5     -2.29      0.00
   -3  -12    4     -4.53      0.00
   -3  -12    3     -1.18      0.00
   -3  -12    2      3.10      0.00
   -3  -12    1      2.91      0.00
    3   12    0     -3.25      0.00
    3   12    1      6.45      0.00
    3   12    2     -8.15      0.00
    3   12    3      2.16      0.00
    3   12    4     -4.95      0.00
    3   12    5     -2.61      0.00
    3   12    6      4.50      0.00
    3   12    7      2.58      0.00
    3   12    8      2.50      0.00
    3   12    9      0.46      0.00
    3   12   10     -0.64      0.00
   -3  -13   23     -2.03      0.00
   -3  -13   22     -1.34      0.00
   -3  -13   21     -1.60      0.00
   -3  -13   20      0.32      0.00
   -3  -13   19      1.86      0.00
   -3  -13   18     -2.88      0.00
   -3  -13   17     -1.33      0.00
   -3  -13   16     -5.73      0.00
   -3  -13   15      4.67      0.00
   -3  -13   14      3.85      0.00
   -3  -13   13      3.61      0.00
   -3  -13   12      1.33      0.00
   -3  -13   11     -3.74      0.00
   -3  -13   10      2.80      0.00
   -3  -13    9     -3.37      0.00
   -3  -13    8     -1.25      0.00
   -3  -13    7      1.68      0.00
   -3  -13    6      1.92      0.00
   -3  -13    5      2.59      0.00
   -3  -13    4     -0.53      0.00
   -3  -13    3     -3.57      0.00
   -3  -13    2     -2.49      0.00
   -3  -13    1      1.02      0.00
    3   13    0     -5.33      0.00
    3   13    1      2.56      0.00
    3   13    2      0.52      0.00
    3   13    3     -0.50      0.00
    3   13    4      0.36      0.00
    3   13    5     -3.64      0.00
    3   13    6     -1.16      0.00
    3   13    7      2.61      0.00
    3   13    8      1.20      0.00
    3   13    9      1.78      0.00
   -3  -14   23     -1.69      0.00
   -3  -14   22     -1.12      0.00
   -3  -14   21     -1.79      0.00
   -3  -14   20     -1.65      0.00
   -3  -14   19      1.59      0.00
   -3  -14   18      1.51      0.00
   -3  -14   17      1.29      0.00
   -3  -14   16     -3.68      0.00
   -3  -14   15      0.41      0.00
   -3  -14   14     -0.69      0.00
   -3  -14   13      3.06      0.00
   -3  -14   12      1.65      0.00
   -3  -14   11     -1.01      0.00
   -3  -14   10      1.68      0.00
   -3  -14    9      0.93      0.00
   -3  -14    8     -1.74      0.00
   -3  -14    7     -1.36      0.00
   -3  -14    6      1.02      0.00
   -3  -14    5      1.43      0.00
   -3  -14    4      0.39      0.00
   -3  -14    3      3.28      0.00
   -3  -14    2     -3.86      0.00
   -3  -14    1      1.89      0.00
    3   14    0     -2.39      0.00
    3   14    1     -3.38      0.00
    3   14    2      3.10      0.00
    3   14    3     -0.13      0.00
    3   14    4      1.55      0.00
    3   14    5      0.01      0.00
    3   14    6     -1.70      0.00
    3   14    7      0.10      0.00
    3   14    8      1.27      0.00
   -3  -15   22     -0.51      0.00
   -3  -15   21     -1.24      0.00
   -3  -15   20     -1.40      0.00
   -3  -15   19     -1.50      0.00
   -3  -15   18      0.42      0.00
   -3  -15   17      0.09      0.00
   -3  -15   16      1.09      0.00
   -3  -15   15     -4.18      0.00
   -3  -15   14      3.50      0.00
   -3  -15   13     -3.05      0.00
   -3  -15   12      3.51      0.00
   -3  -15   11     -0.01      0.00
   -3  -15   10     -0.60      0.00
   -3  -15    9      3.33      0.00
   -3  -15    8      1.60      0.00
   -3  -15    7     -0.32      0.00
   -3  -15    6     -0.68      0.00
   -3  -15    5      0.40      0.00
   -3  -15    4     -1.73      0.00
   -3  -15    3      0.79      0.00
   -3  -15    2      0.28      0.00
   -3  -15    1     -1.44      0.00
    3   15    0      0.29      0.00
    3   15    1     -3.68      0.00
    3   15    2     -2.59      0.00
    3   15    3      0.86      0.00
    3   15    4      1.47      0.00
    3   15    5      1.32      0.00
    3   15    6      1.12      0.00
   -3  -16   21      0.05      0.00
   -3  -16   20     -1.73      0.00
   -3  -16   19      0.64      0.00
   -3  -16   18     -0.03      0.00
   -3  -16   17      0.53      0.00
   -3  -16   16     -1.11      0.00
   -3  -16   15     -2.58      0.00
   -3  -16   14     -2.09      0.00
   -3  -16   13      1.72      0.00
   -3  -16   12     -1.35      0.00
   -3  -16   11      1.75      0.00
   -3  -16   10     -0.39      0.00
   -3  -16    9     -0.46      0.00
   -3  -16    8      2.53      0.00
   -3  -16    7      0.09      0.00
   -3  -16    6      0.63      0.00
   -3  -16    5     -0.16      0.00
   -3  -16    4      1.47      0.00
   -3  -16    3     -1.98      0.00
   -3  -16    2      1.84      0.00
   -3  -16    1     -0.22      0.00
    3   16    0      1.36      0.00
    3   16    1     -0.99      0.00
    3   16    2     -0.81      0.00
    3   16    3     -1.24      0.00
    3   16    4      1.34      0.00
    3   16    5      0.34      0.00
   -3  -17   20     -0.02      0.00
   -3  -17   19     -2.39      0.00
   -3  -17   18      1.25      0.00
   -3  -17   17     -0.59      0.00
   -3  -17   16      3.18      0.00
   -3  -17   15     -0.99      0.00
   -3  -17   14     -0.96      0.00
   -3  -17   13      0.33      0.00
   -3  -17   12      0.55      0.00
   -3  -17   11      0.95      0.00
   -3  -17   10     -1.26      0.00
   -3  -17    9      0.59      0.00
   -3  -17    8     -0.40      0.00
   -3  -17    7      2.56      0.00
   -3  -17    6      0.98      0.00
   -3  -17    5      0.36      0.00
   -3  -17    4      1.33      0.00
   -3  -17    3     -0.19      0.00
   -3  -17    2     -0.50      0.00
   -3  -17    1     -0.05      0.00
    3   17    0      0.89      0.00
    3   17    1     -0.86      0.00
    3   17    2     -0.82      0.00
    3   17    3     -1.52      0.00
   -3  -18   19     -0.87      0.00
   -3  -18   18     -1.61      0.00
   -3  -18   17     -0.11      0.00
   -3  -18   16      0.62      0.00
   -3  -18   15      2.82      0.00
   -3  -18   14     -0.04      0.00
   -3  -18   13      0.04      0.00
   -3  -18   12      1.22      0.00
   -3  -18   11      0.54      0.00
   -3  -18   10      1.02      0.00
   -3  -18    9     -2.12      0.00
   -3  -18    8      0.25      0.00
   -3  -18    7     -0.50      0.00
   -3  -18    6      1.30      0.00
   -3  -18    5      0.30      0.00
   -3  -18    4      0.89      0.00
   -3  -18    3     -0.09      0.00
   -3  -18    2     -0.07      0.00
   -3  -18    1     -1.56      0.00
    3   18    0      0.86      0.00
   -3  -19   17     -0.24      0.00
   -3  -19   16     -1.71      0.00
   -3  -19   15      2.15      0.00
   -3  -19   14      1.14      0.00
   -3  -19   13      1.12      0.00
   -3  -19   12      0.21      0.00
   -3  -19   11      1.27      0.00
   -3  -19   10      0.16      0.00
   -3  -19    9      0.12      0.00
   -3  -19    8     -0.99      0.00
   -3  -19    7     -0.07      0.00
   -3  -19    6     -0.45      0.00
   -3  -19    5      0.81      0.00
   -3  -19    4     -0.31      0.00
   -3  -19    3      0.86      0.00
   -3  -19    2      0.74      0.00
   -3  -20   12      1.31      0.00
   -3  -20   11     -0.44      0.00
   -3  -20   10      0.57      0.00
   -3  -20    9     -0.95      0.00
   -3  -20    8     -0.15      0.00
   -3  -20    7     -0.14      0.00
   -3  -20    6     -0.40      0.00
   -4   19    5     -0.99      0.00
   -4   19    4     -0.73      0.00
   -4   19    3      1.54      0.00
   -4   19    2      0.76      0.00
   -4   19    1      1.38      0.00
   -4   19    0     -2.58      0.00
    4  -19    2      0.72      0.00
   -4   18    7     -1.10      0.00
   -4   18    6      0.94      0.00
   -4   18    5     -1.36      0.00
   -4   18    4     -1.06      0.00
   -4   18    3      0.26      0.00
   -4   18    2      0.21      0.00
   -4   18    1     -0.15      0.00
   -4   18    0     -0.23      0.00
    4  -18    1     -2.66      0.00
    4  -18    2      2.03      0.00
   -4   17    9     -0.80      0.00
   -4   17    8     -0.27      0.00
   -4   17    7     -1.74      0.00
   -4   17    6     -0.84      0.00
   -4   17    5      0.04      0.00
   -4   17    4     -0.63      0.00
   -4   17    3      0.70      0.00
   -4   17    2      4.64      0.00
   -4   17    1      0.61      0.00
   -4   17    0      0.35      0.00
    4  -17    1     -2.10      0.00
    4  -17    2     -2.32      0.00
    4  -17    3      2.53      0.00
    4  -17   13     -0.64      0.00
    4  -17   14      1.37      0.00
    4  -17   15      0.83      0.00
    4  -17   16     -0.82      0.00
   -4   16   10      1.37      0.00
   -4   16    9      0.68      0.00
   -4   16    8     -0.39      0.00
   -4   16    7     -0.68      0.00
   -4   16    6     -1.29      0.00
   -4   16    5     -3.51      0.00
   -4   16    4     -2.76      0.00
   -4   16    3     -3.88      0.00
   -4   16    2      0.67      0.00
   -4   16    1      6.34      0.00
   -4   16    0      3.15      0.00
    4  -16    1      2.78      0.00
    4  -16    2      0.39      0.00
    4  -16   11      1.09      0.00
    4  -16   12     -1.08      0.00
    4  -16   13      1.39      0.00
    4  -16   14      0.06      0.00
    4  -16   15      1.19      0.00
    4  -16   16      2.53      0.00
    4  -16   17      0.74      0.00
    4  -16   18      0.99      0.00
    4  -16   19     -0.62      0.00
   -4   15   12      0.43      0.00
   -4   15   11     -1.53      0.00
   -4   15   10     -2.01      0.00
   -4   15    9     -0.39      0.00
   -4   15    8     -0.64      0.00
   -4   15    7      1.01      0.00
   -4   15    6      1.55      0.00
   -4   15    5      0.38      0.00
   -4   15    4      0.38      0.00
   -4   15    3     -5.59      0.00
   -4   15    2     -4.34      0.00
   -4   15    1     -0.72      0.00
   -4   15    0      5.69      0.00
    4  -15    1      2.32      0.00
    4  -15    2      0.50      0.00
    4  -15   11      1.51      0.00
    4  -15   12     -2.19      0.00
    4  -15   13      3.77      0.00
    4  -15   14      1.04      0.00
    4  -15   15      2.50      0.00
    4  -15   16      0.32      0.00
    4  -15   17      1.21      0.00
    4  -15   18     -1.02      0.00
    4  -15   19     -1.55      0.00
    4  -15   20     -0.83      0.00
   -4   14   13     -0.12      0.00
   -4   14   12      1.25      0.00
   -4   14   11      0.86      0.00
   -4   14   10     -0.01      0.00
   -4   14    9     -1.46      0.00
   -4   14    8      0.32      0.00
   -4   14    7     -3.70      0.00
   -4   14    6     -3.13      0.00
   -4   14    5      3.25      0.00
   -4   14    4     -2.99      0.00
   -4   14    3      3.44      0.00
   -4   14    2    -10.13      0.00
   -4   14    1     -4.00      0.00
   -4   14    0     -2.05      0.00
    4  -14    1      7.92      0.00
    4  -14    2      1.93      0.00
    4  -14   10     -5.45      0.00
    4  -14   11     -4.01      0.00
    4  -14   12      0.46      0.00
    4  -14   13     -3.56      0.00
    4  -14   14      3.52      0.00
    4  -14   15      0.64      0.00
    4  -14   16      3.85      0.00
    4  -14   17      2.80      0.00
    4  -14   18      3.29      0.00
    4  -14   19      0.62      0.00
    4  -14   20     -1.15      0.00
    4  -14   21     -0.85      0.00
   -4   13   14      0.04      0.00
   -4   13   13     -0.36      0.00
   -4   13   12     -0.25      0.00
   -4   13   11     -0.99      0.00
   -4   13   10      1.00      0.00
   -4   13    9     -0.81      0.00
   -4   13    8      0.02      0.00
   -4   13    7      0.86      0.00
   -4   13    6     -5.19      0.00
   -4   13    5     -1.28      0.00
   -4   13    4      7.75      0.00
   -4   13    3      0.80      0.00
   -4   13    2      5.29      0.00
   -4   13    1     -7.21      0.00
   -4   13    0     -3.96      0.00
    4  -13    1     -0.51      0.00
    4  -13    2      3.91      0.00
    4  -13    9      4.94      0.00
    4  -13   10     -0.09      0.00
    4  -13   11      2.96      0.00
    4  -13   12     -1.24      0.00
    4  -13   13      2.62      0.00
    4  -13   14     -2.20      0.00
    4  -13   15      0.33      0.00
    4  -13   16     -1.60      0.00
    4  -13   17      2.13      0.00
    4  -13   18      1.97      0.00
    4  -13   19      1.44      0.00
    4  -13   20      0.06      0.00
    4  -13   21     -1.51      0.00
   -4   12   15      1.97      0.00
   -4   12   14      0.23      0.00
   -4   12   13     -0.81      0.00
   -4   12   12     -0.61      0.00
   -4   12   11     -1.09      0.00
   -4   12   10     -3.88      0.00
   -4   12    9      2.61      0.00
   -4   12    8     -5.32      0.00
   -4   12    7      2.28      0.00
   -4   12    6     -4.97      0.00
   -4   12    5     -4.88      0.00
   -4   12    4     -0.96      0.00
   -4   12    3     10.43      0.00
   -4   12    2      6.79      0.00
   -4   12    1      4.30      0.00
   -4   12    0      0.28      0.00
    4  -12    1     -6.16      0.00
    4  -12    8     -5.92      0.00
    4  -12    9    -10.60      0.00
    4  -12   10     -1.21      0.00
    4  -12   11     -4.05      0.00
    4  -12   12      3.18      0.00
    4  -12   13      1.59      0.00
    4  -12   14      4.52      0.00
    4  -12   15      2.50      0.00
    4  -12   16     -1.99      0.00
    4  -12   17     -0.13      0.00
    4  -12   18      0.63      0.00
    4  -12   19      2.08      0.00
    4  -12   20      1.56      0.00
    4  -12   21      0.49      0.00
   -4   11   16      2.09      0.00
   -4   11   15      0.14      0.00
   -4   11   14      2.91      0.00
   -4   11   13     -0.52      0.00
   -4   11   12     -3.22      0.00
   -4   11   11      0.00      0.00
   -4   11   10     -4.42      0.00
   -4   11    9     -1.27      0.00
   -4   11    8      1.49      0.00
   -4   11    7     -3.75      0.00
   -4   11    6      7.42      0.00
   -4   11    5     -8.21      0.00
   -4   11    4     -4.07      0.00
   -4   11    3      0.80      0.00
   -4   11    2      9.24      0.00
   -4   11    1     12.04      0.00
   -4   11    0      3.41      0.00
    4  -11    1      2.00      0.00
    4  -11    7      1.72      0.00
    4  -11    8      0.46      0.00
    4  -11    9     -4.83      0.00
    4  -11   10     -2.21      0.00
    4  -11   11     -0.87      0.00
    4  -11   12     -0.15      0.00
    4  -11   13      4.35      0.00
    4  -11   14      3.63      0.00
    4  -11   15      5.67      0.00
    4  -11   16      2.34      0.00
    4  -11   17     -1.37      0.00
    4  -11   18      0.91      0.00
    4  -11   19      0.33      0.00
    4  -11   20      1.27      0.00
    4  -11   21      0.84      0.00
   -4   10   17      1.15      0.00
   -4   10   16      0.42      0.00
   -4   10   15      0.91      0.00
   -4   10   14      1.05      0.00
   -4   10   13      5.26      0.00
   -4   10   12     -2.76      0.00
   -4   10   11     -0.66      0.00
   -4   10   10      0.55      0.00
   -4   10    9     -6.49      0.00
   -4   10    8      3.11      0.00
   -4   10    7     -4.44      0.00
   -4   10    6      4.11      0.00
   -4   10    5      3.38      0.00
   -4   10    4     -4.47      0.00
   -4   10    3    -13.45      0.00
   -4   10    2      4.28      0.00
   -4   10    1      6.36      0.00
   -4   10    0     11.72      0.00
    4  -10    1     12.94      0.00
    4  -10    6    -16.62      0.00
    4  -10    7     -6.99      0.00
    4  -10    8     -0.21      0.00
    4  -10    9     -3.35      0.00
    4  -10   10      0.41      0.00
    4  -10   11     -5.40      0.00
    4  -10   12     -1.23      0.00
    4  -10   13     -0.75      0.00
    4  -10   14      0.35      0.00
    4  -10   15      6.60      0.00
    4  -10   16      5.96      0.00
    4  -10   17      2.16      0.00
    4  -10   18     -1.26      0.00
    4  -10   19     -1.04      0.00
    4  -10   20     -1.32      0.00
    4  -10   21      0.25      0.00
   -4    9   17      1.68      0.00
   -4    9   16     -0.67      0.00
   -4    9   15     -0.69      0.00
   -4    9   14     -3.07      0.00
   -4    9   13      1.50      0.00
   -4    9   12      5.29      0.00
   -4    9   11     -6.09      0.00
   -4    9   10      6.56      0.00
   -4    9    9     -2.94      0.00
   -4    9    8     -2.45      0.00
   -4    9    7     -0.23      0.00
   -4    9    6     -1.34      0.00
   -4    9    5      6.87      0.00
   -4    9    4      7.52      0.00
   -4    9    3      0.61      0.00
   -4    9    2     -8.86      0.00
   -4    9    1      9.14      0.00
   -4    9    0     -3.00      0.00
    4   -9    5      8.08      0.00
    4   -9    6     -4.10      0.00
    4   -9    7    -14.73      0.00
    4   -9    9     -4.79      0.00
    4   -9   10     -1.22      0.00
    4   -9   11      5.80      0.00
    4   -9   12      0.34      0.00
    4   -9   13      1.45      0.00
    4   -9   14      0.45      0.00
    4   -9   15     -0.92      0.00
    4   -9   16      5.33      0.00
    4   -9   17      4.95      0.00
    4   -9   18      2.17      0.00
    4   -9   20      0.13      0.00
    4   -9   21     -1.22      0.00
   -4    8   18      0.57      0.00
   -4    8   17      4.27      0.00
   -4    8   16      0.93      0.00
   -4    8   15     -1.13      0.00
   -4    8   14      0.49      0.00
   -4    8   13     -6.98      0.00
   -4    8   12      5.13      0.00
   -4    8   11     -4.84      0.00
   -4    8   10      1.32      0.00
   -4    8    9      3.30      0.00
   -4    8    8      2.46      0.00
   -4    8    7    -10.95      0.00
   -4    8    6     -4.25      0.00
   -4    8    5     -2.08      0.00
   -4    8    4     -2.85      0.00
   -4    8    3     -0.50      0.00
   -4    8    2     -5.74      0.00
   -4    8    1     -3.39      0.00
   -4    8    0     18.72      0.00
    4   -8    4     11.19      0.00
    4   -8    5     11.16      0.00
    4   -8    6     11.99      0.00
    4   -8    7     -6.83      0.00
    4   -8    8     -6.85      0.00
    4   -8    9      2.22      0.00
    4   -8   10     -6.38      0.00
    4   -8   11     -1.10      0.00
    4   -8   12      3.29      0.00
    4   -8   13      2.09      0.00
    4   -8   14      0.39      0.00
    4   -8   15     -2.35      0.00
    4   -8   16     -0.85      0.00
    4   -8   17      0.56      0.00
    4   -8   18      3.22      0.00
    4   -8   19      0.24      0.00
    4   -8   20      1.50      0.00
    4   -8   21      0.83      0.00
   -4    7   19     -0.20      0.00
   -4    7   18     -0.26      0.00
   -4    7   17      0.72      0.00
   -4    7   16      3.75      0.00
   -4    7   15     -2.42      0.00
   -4    7   14      3.23      0.00
   -4    7   13      1.75      0.00
   -4    7   12      0.37      0.00
   -4    7   11      4.27      0.00
   -4    7   10     -3.16      0.00
   -4    7    9      3.94      0.00
   -4    7    8      0.85      0.00
   -4    7    7      2.88      0.00
   -4    7    6     -5.73      0.00
   -4    7    5      8.39      0.00
   -4    7    4     15.31      0.00
   -4    7    3     -1.30      0.00
   -4    7    2     -5.07      0.00
   -4    7    1    -18.33      0.00
   -4    7    0     -3.05      0.00
    4   -7    3    -16.30      0.00
    4   -7    4      9.93      0.00
    4   -7    5      6.96      0.00
    4   -7    6     10.74      0.00
    4   -7    7      7.43      0.00
    4   -7    8     -1.36      0.00
    4   -7    9      6.13      0.00
    4   -7   10      2.38      0.00
    4   -7   11     -0.40      0.00
    4   -7   12      3.98      0.00
    4   -7   13      0.82      0.00
    4   -7   14      4.88      0.00
    4   -7   15     -4.11      0.00
    4   -7   16      2.53      0.00
    4   -7   17     -2.79      0.00
    4   -7   18      1.20      0.00
    4   -7   19      0.06      0.00
    4   -7   20      0.88      0.00
    4   -7   21      1.79      0.00
   -4    6   19     -0.57      0.00
   -4    6   18     -0.79      0.00
   -4    6   17      1.19      0.00
   -4    6   16      6.44      0.00
   -4    6   15      2.94      0.00
   -4    6   14     -2.13      0.00
   -4    6   13      0.25      0.00
   -4    6   12      3.17      0.00
   -4    6   11      7.13      0.00
   -4    6   10      4.11      0.00
   -4    6    9      1.41      0.00
   -4    6    8     -6.88      0.00
   -4    6    7     -1.78      0.00
   -4    6    6    -23.27      0.00
   -4    6    5    -17.39      0.00
   -4    6    4     -4.95      0.00
   -4    6    3     13.29      0.00
   -4    6    2     -2.39      0.00
   -4    6    1      7.00      0.00
   -4    6    0    -12.14      0.00
    4   -6    1     15.13      0.00
    4   -6    2     16.34      0.00
    4   -6    3      2.60      0.00
    4   -6    4     -6.57      0.00
    4   -6    5     13.72      0.00
    4   -6    6     -5.30      0.00
    4   -6    7     14.44      0.00
    4   -6    8     -7.30      0.00
    4   -6    9     -5.69      0.00
    4   -6   10      1.54      0.00
    4   -6   11     -3.75      0.00
    4   -6   12      1.49      0.00
    4   -6   13      0.46      0.00
    4   -6   14      3.44      0.00
    4   -6   15     -2.22      0.00
    4   -6   16     -1.47      0.00
    4   -6   17      0.70      0.00
    4   -6   18     -0.85      0.00
    4   -6   19      1.00      0.00
    4   -6   20     -0.69      0.00
    4   -6   21      0.05      0.00
   -4    5   20      0.01      0.00
   -4    5   19     -2.71      0.00
   -4    5   18     -5.46      0.00
   -4    5   17     -4.93      0.00
   -4    5   16     -0.43      0.00
   -4    5   15      7.58      0.00
   -4    5   14      0.09      0.00
   -4    5   13      0.38      0.00
   -4    5   12     -1.43      0.00
   -4    5   11      8.26      0.00
   -4    5   10     -2.36      0.00
   -4    5    9      8.24      0.00
   -4    5    8     -2.51      0.00
   -4    5    7     -5.00      0.00
   -4    5    6      9.81      0.00
   -4    5    5    -22.81      0.00
   -4    5    4    -16.28      0.00
   -4    5    3     -1.87      0.00
   -4    5    2     -9.42      0.00
   -4    5    1     -2.46      0.00
   -4    5    0     -4.91      0.00
    4   -5    1     -7.17      0.00
    4   -5    2     15.37      0.00
    4   -5    3     20.99      0.00
    4   -5    4    -11.16      0.00
    4   -5    5      1.13      0.00
    4   -5    6     12.82      0.00
    4   -5    7     -0.92      0.00
    4   -5    8     12.45      0.00
    4   -5    9      3.51      0.00
    4   -5   10      6.27      0.00
    4   -5   11      2.32      0.00
    4   -5   12      4.25      0.00
    4   -5   13     -2.21      0.00
    4   -5   14      0.19      0.00
    4   -5   15      3.75      0.00
    4   -5   16     -6.32      0.00
    4   -5   17      1.74      0.00
    4   -5   18     -2.14      0.00
    4   -5   19      0.79      0.00
    4   -5   20      1.08      0.00
    4   -5   21     -1.37      0.00
   -4    4   20      1.46      0.00
   -4    4   19      3.88      0.00
   -4    4   18     -3.57      0.00
   -4    4   17     -4.19      0.00
   -4    4   16     -8.63      0.00
   -4    4   15     -0.34      0.00
   -4    4   14      6.15      0.00
   -4    4   13     11.87      0.00
   -4    4   12      3.64      0.00
   -4    4   11     10.24      0.00
   -4    4   10      0.96      0.00
   -4    4    9     -7.48      0.00
   -4    4    8     -2.61      0.00
   -4    4    7     -1.69      0.00
   -4    4    6    -13.02      0.00
   -4    4    5      1.82      0.00
   -4    4    4    -41.17      0.00
   -4    4    3    -25.27      0.00
   -4    4    2      8.46      0.00
   -4    4    1      6.40      0.00
   -4    4    0     13.09      0.00
    4   -4    1     38.20      0.00
    4   -4    2     18.61      0.00
    4   -4    3     39.53      0.00
    4   -4    4     12.19      0.00
    4   -4    5     -4.17      0.00
    4   -4    6     -3.52      0.00
    4   -4    7      6.44      0.00
    4   -4    8      3.38      0.00
    4   -4    9     -5.24      0.00
    4   -4   10      2.09      0.00
    4   -4   11     -4.36      0.00
    4   -4   12     -6.11      0.00
    4   -4   13      0.25      0.00
    4   -4   14     -8.19      0.00
    4   -4   15      5.84      0.00
    4   -4   16      0.04      0.00
    4   -4   17     -0.31      0.00
    4   -4   18     -0.53      0.00
    4   -4   19     -0.53      0.00
    4   -4   20      0.46      0.00
   -4    3   21     -1.04      0.00
   -4    3   20     -0.72      0.00
   -4    3   19      3.18      0.00
   -4    3   18      7.02      0.00
   -4    3   17     -2.12      0.00
   -4    3   16     -4.51      0.00
   -4    3   15     -8.56      0.00
   -4    3   14     -9.20      0.00
   -4    3   13      0.68      0.00
   -4    3   12      4.89      0.00
   -4    3   11      0.34      0.00
   -4    3   10     14.79      0.00
   -4    3    9     -2.83      0.00
   -4    3    8      2.16      0.00
   -4    3    7      3.73      0.00
   -4    3    6     11.80      0.00
   -4    3    5     10.36      0.00
   -4    3    4     -9.79      0.00
   -4    3    3    -16.07      0.00
   -4    3    2    -49.44      0.00
   -4    3    1      3.93      0.00
   -4    3    0    -38.95      0.00
    4   -3    1    -37.47      0.00
    4   -3    2     -5.14      0.00
    4   -3    3     -1.81      0.00
    4   -3    5     -7.51      0.00
    4   -3    6    -10.92      0.00
    4   -3    7      2.16      0.00
    4   -3    8      8.26      0.00
    4   -3    9     13.42      0.00
    4   -3   10      0.76      0.00
    4   -3   11     13.17      0.00
    4   -3   12     -9.19      0.00
    4   -3   13      1.20      0.00
    4   -3   14     -6.89      0.00
    4   -3   15     -5.16      0.00
    4   -3   16      2.30      0.00
    4   -3   17     -2.18      0.00
    4   -3   18      0.72      0.00
    4   -3   19     -1.02      0.00
    4   -3   20     -0.59      0.00
   -4    2   21     -1.04      0.00
   -4    2   20     -3.95      0.00
   -4    2   19     -1.34      0.00
   -4    2   18      2.55      0.00
   -4    2   17      5.13      0.00
   -4    2   16     -2.14      0.00
   -4    2   15     -3.96      0.00
   -4    2   14     -1.40      0.00
   -4    2   13     -7.23      0.00
   -4    2   12      7.35      0.00
   -4    2   11     -3.93      0.00
   -4    2   10      0.48      0.00
   -4    2    9      3.87      0.00
   -4    2    8    -14.14      0.00
   -4    2    7    -21.05      0.00
   -4    2    6    -13.69      0.00
   -4    2    5     13.14      0.00
   -4    2    4     10.96      0.00
   -4    2    3      0.70      0.00
   -4    2    2      4.42      0.00
   -4    2    1    -11.87      0.00
   -4    2    0     33.67      0.00
    4   -2    1     -8.56      0.00
    4   -2    2      4.64      0.00
    4   -2    3     33.24      0.00
    4   -2    4     23.01      0.00
    4   -2    5     25.36      0.00
    4   -2    6     -5.51      0.00
    4   -2    7    -14.64      0.00
    4   -2    8     -7.01      0.00
    4   -2    9      3.31      0.00
    4   -2   10     -8.23      0.00
    4   -2   11      5.71      0.00
    4   -2   12     -1.47      0.00
    4   -2   13     -4.70      0.00
    4   -2   14     -2.05      0.00
    4   -2   15     -6.47      0.00
    4   -2   16     -0.88      0.00
    4   -2   17      1.04      0.00
    4   -2   18     -0.43      0.00
    4   -2   19      0.43      0.00
   -4    1   22      2.48      0.00
   -4    1   21     -0.83      0.00
   -4    1   20     -0.77      0.00
   -4    1   19     -7.81      0.00
   -4    1   18     -2.18      0.00
   -4    1   17      0.73      0.00
   -4    1   16      3.02      0.00
   -4    1   15     -4.68      0.00
   -4    1   14     -0.06      0.00
   -4    1   13     -4.38      0.00
   -4    1   12     -6.66      0.00
   -4    1   11     -2.32      0.00
   -4    1   10     -8.41      0.00
   -4    1    9     16.10      0.00
   -4    1    8     25.05      0.00
   -4    1    7     26.26      0.00
   -4    1    6    -18.38      0.00
   -4    1    5      7.32      0.00
   -4    1    4    -18.60      0.00
   -4    1    3     -4.15      0.00
   -4    1    2     23.00      0.00
   -4    1    1      1.19      0.00
   -4    1    0     46.80      0.00
    4   -1    1      0.54      0.00
    4   -1    2    -37.51      0.00
    4   -1    3    -34.78      0.00
    4   -1    4      1.67      0.00
    4   -1    5      3.91      0.00
    4   -1    6     17.10      0.00
    4   -1    7     12.84      0.00
    4   -1    8     -2.57      0.00
    4   -1    9      7.98      0.00
    4   -1   10      0.82      0.00
    4   -1   11    -11.00      0.00
    4   -1   12     11.29      0.00
    4   -1   13     -7.22      0.00
    4   -1   14      4.33      0.00
    4   -1   15     -6.36      0.00
    4   -1   16     -2.69      0.00
    4   -1   17     -2.21      0.00
    4   -1   18     -1.88      0.00
    4   -1   19     -0.27      0.00
   -4    0   22      0.23      0.00
   -4    0   21      3.70      0.00
   -4    0   20      2.24      0.00
   -4    0   19     -1.33      0.00
   -4    0   18     -2.90      0.00
   -4    0   17     -3.11      0.00
   -4    0   16     11.22      0.00
   -4    0   15      2.89      0.00
   -4    0   14      0.29      0.00
   -4    0   13      1.51      0.00
   -4    0   12     -4.03      0.00
   -4    0   11     -9.38      0.00
   -4    0   10    -18.64      0.00
   -4    0    9    -29.34      0.00
   -4    0    8    -15.37      0.00
   -4    0    7      8.75      0.00
   -4    0    6     27.72      0.00
   -4    0    5    -20.11      0.00
   -4    0    4     72.43      0.00
   -4    0    3    -70.60      0.00
   -4    0    2     -2.79      0.00
   -4    0    1    -20.15      0.00
    4    0    0      3.80      0.00
    4    0    1     59.51      0.00
    4    0    2     15.74      0.00
    4    0    3    -23.92      0.00
    4    0    4    -12.04      0.00
    4    0    5     -5.30      0.00
    4    0    6     -5.14      0.00
    4    0    7      1.18      0.00
    4    0    8      3.06      0.00
    4    0    9     -5.52      0.00
    4    0   10      7.12      0.00
    4    0   11     -7.18      0.00
    4    0   12     -5.53      0.00
    4    0   13      0.73      0.00
    4    0   14     -0.96      0.00
    4    0   15      2.28      0.00
    4    0   16      0.38      0.00
    4    0   17     -0.32      0.00
    4    0   18      0.32      0.00
   -4   -1   23     -1.03      0.00
   -4   -1   22      0.60      0.00
   -4   -1   21      0.71      0.00
   -4   -1   20      4.14      0.00
   -4   -1   19     -2.27      0.00
   -4   -1   18     -6.12      0.00
   -4   -1   17     -8.52      0.00
   -4   -1   16    -13.61      0.00
   -4   -1   15      3.69      0.00
   -4   -1   14     -7.87      0.00
   -4   -1   13      2.53      0.00
   -4   -1   12      9.95      0.00
   -4   -1   11     13.14      0.00
   -4   -1   10     -1.05      0.00
   -4   -1    9     -0.73      0.00
   -4   -1    8     -8.43      0.00
   -4   -1    7    -20.76      0.00
   -4   -1    6     24.88      0.00
   -4   -1    5    -37.95      0.00
   -4   -1    4     -2.72      0.00
   -4   -1    3     -2.63      0.00
   -4   -1    2    -75.47      0.00
   -4   -1    1    -66.67      0.00
    4    1    0    -46.20      0.00
    4    1    1    -14.78      0.00
    4    1    2     39.77      0.00
    4    1    3      4.95      0.00
    4    1    4     -8.08      0.00
    4    1    5      1.10      0.00
    4    1    6     12.26      0.00
    4    1    7      1.30      0.00
    4    1    8     13.30      0.00
    4    1    9     -0.76      0.00
    4    1   10      5.73      0.00
    4    1   11     -0.68      0.00
    4    1   12     -3.38      0.00
    4    1   13     -6.56      0.00
    4    1   14     -3.28      0.00
    4    1   15     -0.91      0.00
    4    1   16     -1.63      0.00
    4    1   17      3.05      0.00
   -4   -2   23     -0.13      0.00
   -4   -2   22      0.08      0.00
   -4   -2   21     -0.96      0.00
   -4   -2   20      0.83      0.00
   -4   -2   19      2.90      0.00
   -4   -2   18     -0.56      0.00
   -4   -2   17      4.89      0.00
   -4   -2   16      3.87      0.00
   -4   -2   15      1.61      0.00
   -4   -2   14      2.50      0.00
   -4   -2   13    -11.41      0.00
   -4   -2   12     -6.81      0.00
   -4   -2   11      8.37      0.00
   -4   -2   10     11.19      0.00
   -4   -2    9    -12.59      0.00
   -4   -2    8     13.44      0.00
   -4   -2    7    -21.30      0.00
   -4   -2    6     -5.52      0.00
   -4   -2    5     -5.24      0.00
   -4   -2    4    -53.76      0.00
   -4   -2    3     40.80      0.00
   -4   -2    2      8.10      0.00
   -4   -2    1     21.57      0.00
    4    2    0    -16.42      0.00
    4    2    1     -9.83      0.00
    4    2    2      0.83      0.00
    4    2    3     14.15      0.00
    4    2    4      1.68      0.00
    4    2    5    -10.17      0.00
    4    2    6      3.53      0.00
    4    2    7     -2.54      0.00
    4    2    8     -4.08      0.00
    4    2    9     -0.79      0.00
    4    2   10     -2.14      0.00
    4    2   11      2.40      0.00
    4    2   12      1.24      0.00
    4    2   13      0.53      0.00
    4    2   14     -1.50      0.00
    4    2   15      0.16      0.00
    4    2   16     -0.20      0.00
    4    2   17     -1.21      0.00
   -4   -3   23     -1.11      0.00
   -4   -3   22     -1.39      0.00
   -4   -3   21      0.79      0.00
   -4   -3   20     -3.34      0.00
   -4   -3   19      5.78      0.00
   -4   -3   18     -3.19      0.00
   -4   -3   17     -1.56      0.00
   -4   -3   16     -1.46      0.00
   -4   -3   15      1.17      0.00
   -4   -3   14      3.91      0.00
   -4   -3   13     -1.70      0.00
   -4   -3   12     -8.24      0.00
   -4   -3   11     -9.21      0.00
   -4   -3   10     18.79      0.00
   -4   -3    9     -0.10      0.00
   -4   -3    8      5.57      0.00
   -4   -3    7     20.83      0.00
   -4   -3    6     -0.21      0.00
   -4   -3    5     41.62      0.00
   -4   -3    4    -23.01      0.00
   -4   -3    3    -20.54      0.00
   -4   -3    2    -13.77      0.00
   -4   -3    1    -13.16      0.00
    4    3    0    -17.60      0.00
    4    3    1    -15.24      0.00
    4    3    2    -10.79      0.00
    4    3    3      0.16      0.00
    4    3    4      7.23      0.00
    4    3    5      8.41      0.00
    4    3    6      2.43      0.00
    4    3    7     17.15      0.00
    4    3    8      2.31      0.00
    4    3    9      0.27      0.00
    4    3   10     -0.67      0.00
    4    3   11     -1.76      0.00
    4    3   12     -2.79      0.00
    4    3   13      0.27      0.00
    4    3   14     -2.42      0.00
    4    3   15     -0.29      0.00
    4    3   16     -1.15      0.00
   -4   -4   23      2.89      0.00
   -4   -4   22     -2.36      0.00
   -4   -4   21     -0.01      0.00
   -4   -4   20     -4.24      0.00
   -4   -4   19      0.65      0.00
   -4   -4   18      8.09      0.00
   -4   -4   17      0.96      0.00
   -4   -4   16      1.46      0.00
   -4   -4   15      2.13      0.00
   -4   -4   14      2.65      0.00
   -4   -4   13      8.51      0.00
   -4   -4   12    -10.29      0.00
   -4   -4   11    -15.19      0.00
   -4   -4   10    -18.79      0.00
   -4   -4    9     15.93      0.00
   -4   -4    8    -33.36      0.00
   -4   -4    7      5.70      0.00
   -4   -4    6    -39.78      0.00
   -4   -4    5    -14.16      0.00
   -4   -4    4     -3.02      0.00
   -4   -4    3     -4.09      0.00
   -4   -4    2     16.24      0.00
   -4   -4    1     23.26      0.00
    4    4    0     16.84      0.00
    4    4    1     -2.27      0.00
    4    4    2      1.60      0.00
    4    4    3      1.50      0.00
    4    4    4     -7.80      0.00
    4    4    5      1.12      0.00
    4    4    6     -5.73      0.00
    4    4    7      0.36      0.00
    4    4    8      7.38      0.00
    4    4    9      0.91      0.00
    4    4   10     -4.61      0.00
    4    4   11      0.66      0.00
    4    4   12     -0.60      0.00
    4    4   13     -0.02      0.00
    4    4   14      2.43      0.00
    4    4   15     -1.23      0.00
   -4   -5   24     -1.31      0.00
   -4   -5   23      3.13      0.00
   -4   -5   22     -1.03      0.00
   -4   -5   21     -1.42      0.00
   -4   -5   20     -2.15      0.00
   -4   -5   19     -7.73      0.00
   -4   -5   18      2.62      0.00
   -4   -5   17      5.33      0.00
   -4   -5   16      4.39      0.00
   -4   -5   15      1.04      0.00
   -4   -5   14      9.08      0.00
   -4   -5   13      4.13      0.00
   -4   -5   12     12.21      0.00
   -4   -5   11      4.81      0.00
   -4   -5   10     -8.86      0.00
   -4   -5    9     14.42      0.00
   -4   -5    8      7.96      0.00
   -4   -5    7     -0.71      0.00
   -4   -5    6     -2.82      0.00
   -4   -5    5     -6.21      0.00
   -4   -5    4    -19.85      0.00
   -4   -5    3    -11.82      0.00
   -4   -5    2     -6.50      0.00
   -4   -5    1      4.13      0.00
    4    5    0     15.38      0.00
    4    5    1      8.01      0.00
    4    5    2    -11.71      0.00
    4    5    3     12.80      0.00
    4    5    4      2.17      0.00
    4    5    5      4.31      0.00
    4    5    6     -0.62      0.00
    4    5    7     -1.84      0.00
    4    5    8     -1.00      0.00
    4    5    9      7.98      0.00
    4    5   10     -0.93      0.00
    4    5   11     -0.81      0.00
    4    5   12      1.32      0.00
    4    5   13     -0.78      0.00
    4    5   14      0.26      0.00
    4    5   15     -0.22      0.00
   -4   -6   24     -0.46      0.00
   -4   -6   23     -0.08      0.00
   -4   -6   22      3.24      0.00
   -4   -6   21      1.34      0.00
   -4   -6   20      3.83      0.00
   -4   -6   19      1.14      0.00
   -4   -6   18     -2.90      0.00
   -4   -6   17      2.52      0.00
   -4   -6   16      2.01      0.00
   -4   -6   15      0.50      0.00
   -4   -6   14     -1.78      0.00
   -4   -6   13      9.38      0.00
   -4   -6   12      4.54      0.00
   -4   -6   11     -0.34      0.00
   -4   -6   10     -4.69      0.00
   -4   -6    9    -18.51      0.00
   -4   -6    8      2.44      0.00
   -4   -6    7    -13.27      0.00
   -4   -6    6      2.60      0.00
   -4   -6    5     -5.70      0.00
   -4   -6    4     20.95      0.00
   -4   -6    3     -8.49      0.00
   -4   -6    2      1.03      0.00
   -4   -6    1      0.96      0.00
    4    6    0      4.33      0.00
    4    6    1     13.66      0.00
    4    6    2     -2.55      0.00
    4    6    3    -10.53      0.00
    4    6    4      0.89      0.00
    4    6    5     -0.66      0.00
    4    6    6     -2.77      0.00
    4    6    7     -2.07      0.00
    4    6    8     -5.12      0.00
    4    6    9     -1.47      0.00
    4    6   10      4.48      0.00
    4    6   11      0.76      0.00
    4    6   12      1.69      0.00
    4    6   13      3.60      0.00
    4    6   14     -0.91      0.00
   -4   -7   24      1.93      0.00
   -4   -7   23     -4.41      0.00
   -4   -7   22      2.17      0.00
   -4   -7   21     -0.49      0.00
   -4   -7   20      3.33      0.00
   -4   -7   19     -0.36      0.00
   -4   -7   18     -3.10      0.00
   -4   -7   17     -0.52      0.00
   -4   -7   16      0.11      0.00
   -4   -7   15      0.66      0.00
   -4   -7   14     -6.03      0.00
   -4   -7   13     -1.66      0.00
   -4   -7   12      8.47      0.00
   -4   -7   11      9.99      0.00
   -4   -7   10      6.13      0.00
   -4   -7    9      2.60      0.00
   -4   -7    8     -2.35      0.00
   -4   -7    7     -0.22      0.00
   -4   -7    6     -9.21      0.00
   -4   -7    5    -14.43      0.00
   -4   -7    4     -5.44      0.00
   -4   -7    3      2.00      0.00
   -4   -7    2     -8.50      0.00
   -4   -7    1      0.34      0.00
    4    7    0      0.99      0.00
    4    7    1      8.34      0.00
    4    7    2     10.97      0.00
    4    7    3      0.58      0.00
    4    7    4      0.23      0.00
    4    7    5      4.58      0.00
    4    7    6      4.59      0.00
    4    7    7     -0.83      0.00
    4    7    8      0.42      0.00
    4    7    9     -3.87      0.00
    4    7   10      0.43      0.00
    4    7   11      0.53      0.00
    4    7   12     -0.53      0.00
    4    7   13      1.28      0.00
   -4   -8   24      1.59      0.00
   -4   -8   23      0.52      0.00
   -4   -8   22     -1.66      0.00
   -4   -8   21      3.51      0.00
   -4   -8   20      5.40      0.00
   -4   -8   19      7.33      0.00
   -4   -8   18      4.33      0.00
   -4   -8   17     -0.78      0.00
   -4   -8   16      5.18      0.00
   -4   -8   15     -2.99      0.00
   -4   -8   14     -2.32      0.00
   -4   -8   13    -16.84      0.00
   -4   -8   12     -3.43      0.00
   -4   -8   11     -2.07      0.00
   -4   -8   10      0.23      0.00
   -4   -8    9     -8.75      0.00
   -4   -8    8      1.62      0.00
   -4   -8    7     -5.10      0.00
   -4   -8    6     13.98      0.00
   -4   -8    5      8.85      0.00
   -4   -8    4     11.53      0.00
   -4   -8    3     16.68      0.00
   -4   -8    2      3.86      0.00
   -4   -8    1     -5.67      0.00
    4    8    0     -0.69      0.00
    4    8    1     -3.32      0.00
    4    8    2      5.48      0.00
    4    8    3     -1.50      0.00
    4    8    4     -0.70      0.00
    4    8    5     -6.13      0.00
    4    8    6      5.36      0.00
    4    8    7     -2.25      0.00
    4    8    8     -0.67      0.00
    4    8    9      0.51      0.00
    4    8   10     -0.91      0.00
    4    8   11      2.62      0.00
    4    8   12      1.05      0.00
   -4   -9   25     -2.01      0.00
   -4   -9   24      0.67      0.00
   -4   -9   23      1.19      0.00
   -4   -9   22     -1.01      0.00
   -4   -9   21      1.06      0.00
   -4   -9   20     -0.06      0.00
   -4   -9   19      6.20      0.00
   -4   -9   18      0.27      0.00
   -4   -9   17      2.53      0.00
   -4   -9   16      0.34      0.00
   -4   -9   15      6.21      0.00
   -4   -9   14      2.65      0.00
   -4   -9   13     -2.70      0.00
   -4   -9   12     -9.69      0.00
   -4   -9   11      0.10      0.00
   -4   -9   10      3.31      0.00
   -4   -9    9     -1.01      0.00
   -4   -9    8     -2.85      0.00
   -4   -9    7     -2.35      0.00
   -4   -9    6    -12.03      0.00
   -4   -9    5     -2.30      0.00
   -4   -9    4     -4.90      0.00
   -4   -9    3      3.94      0.00
   -4   -9    2     12.70      0.00
   -4   -9    1     -2.03      0.00
    4    9    0     -4.57      0.00
    4    9    1     -4.85      0.00
    4    9    2      3.33      0.00
    4    9    3     -2.99      0.00
    4    9    4      3.66      0.00
    4    9    5     -4.29      0.00
    4    9    6      1.41      0.00
    4    9    7      4.97      0.00
    4    9    8      1.00      0.00
    4    9    9     -1.35      0.00
    4    9   10     -0.15      0.00
    4    9   11     -1.56      0.00
   -4  -10   24     -2.73      0.00
   -4  -10   23      1.46      0.00
   -4  -10   22      0.27      0.00
   -4  -10   21      1.34      0.00
   -4  -10   20      0.57      0.00
   -4  -10   19     -0.33      0.00
   -4  -10   18      4.13      0.00
   -4  -10   17     -4.26      0.00
   -4  -10   16      0.50      0.00
   -4  -10   15      2.39      0.00
   -4  -10   14      1.31      0.00
   -4  -10   13      2.06      0.00
   -4  -10   12    -11.94      0.00
   -4  -10   11    -11.40      0.00
   -4  -10   10     -4.74      0.00
   -4  -10    9      1.07      0.00
   -4  -10    8     -2.40      0.00
   -4  -10    7      6.55      0.00
   -4  -10    6      3.02      0.00
   -4  -10    5     -0.79      0.00
   -4  -10    4     -1.24      0.00
   -4  -10    3     -1.96      0.00
   -4  -10    2      6.48      0.00
   -4  -10    1      6.49      0.00
    4   10    0      4.07      0.00
    4   10    1     -8.62      0.00
    4   10    2     -0.02      0.00
    4   10    3     -3.04      0.00
    4   10    4     -4.43      0.00
    4   10    5      0.97      0.00
    4   10    6     -4.48      0.00
    4   10    7      2.24      0.00
    4   10    8      2.96      0.00
    4   10    9      0.54      0.00
    4   10   10      0.56      0.00
    4   10   11      0.17      0.00
   -4  -11   24     -2.19      0.00
   -4  -11   23     -0.42      0.00
   -4  -11   22     -0.56      0.00
   -4  -11   21      0.97      0.00
   -4  -11   20      1.14      0.00
   -4  -11   19      2.62      0.00
   -4  -11   18     -0.23      0.00
   -4  -11   17      0.38      0.00
   -4  -11   16     -6.11      0.00
   -4  -11   15     -2.43      0.00
   -4  -11   14      6.63      0.00
   -4  -11   13      7.54      0.00
   -4  -11   12      7.42      0.00
   -4  -11   11     -1.93      0.00
   -4  -11   10     -7.07      0.00
   -4  -11    9     -0.53      0.00
   -4  -11    8     -5.33      0.00
   -4  -11    7     -2.93      0.00
   -4  -11    6      2.43      0.00
   -4  -11    5      1.79      0.00
   -4  -11    4      2.67      0.00
   -4  -11    3     -6.65      0.00
   -4  -11    2      0.54      0.00
   -4  -11    1     -3.20      0.00
    4   11    0      6.52      0.00
    4   11    1      2.13      0.00
    4   11    2     -2.91      0.00
    4   11    3      6.61      0.00
    4   11    4     -4.47      0.00
    4   11    5     -0.62      0.00
    4   11    6     -2.37      0.00
    4   11    7     -1.90      0.00
    4   11    8      1.61      0.00
    4   11    9      1.93      0.00
    4   11   10     -0.58      0.00
   -4  -12   24      1.06      0.00
   -4  -12   23      0.23      0.00
   -4  -12   22      2.19      0.00
   -4  -12   21     -0.13      0.00
   -4  -12   20      2.04      0.00
   -4  -12   19     -0.10      0.00
   -4  -12   18      3.08      0.00
   -4  -12   17      3.03      0.00
   -4  -12   16     -4.96      0.00
   -4  -12   15     -4.37      0.00
   -4  -12   14     -9.87      0.00
   -4  -12   13      2.92      0.00
   -4  -12   12      1.07      0.00
   -4  -12   11      5.11      0.00
   -4  -12   10      1.89      0.00
   -4  -12    9      1.22      0.00
   -4  -12    8      3.04      0.00
   -4  -12    7     -1.67      0.00
   -4  -12    6     -3.16      0.00
   -4  -12    5      3.26      0.00
   -4  -12    4      0.09      0.00
   -4  -12    3      2.12      0.00
   -4  -12    2     -3.54      0.00
   -4  -12    1      0.63      0.00
    4   12    0     -6.13      0.00
    4   12    1      4.08      0.00
    4   12    2     -5.25      0.00
    4   12    3      0.95      0.00
    4   12    4      2.89      0.00
    4   12    5     -1.13      0.00
    4   12    6     -0.22      0.00
    4   12    7     -1.54      0.00
    4   12    8     -1.92      0.00
    4   12    9      1.67      0.00
   -4  -13   23      0.16      0.00
   -4  -13   22     -0.13      0.00
   -4  -13   21      1.06      0.00
   -4  -13   20     -1.10      0.00
   -4  -13   19      0.06      0.00
   -4  -13   18     -1.57      0.00
   -4  -13   17      2.24      0.00
   -4  -13   16      2.11      0.00
   -4  -13   15     -0.96      0.00
   -4  -13   14     -5.16      0.00
   -4  -13   13     -3.94      0.00
   -4  -13   12     -0.69      0.00
   -4  -13   11     -0.69      0.00
   -4  -13   10      1.56      0.00
   -4  -13    9     -0.52      0.00
   -4  -13    8      1.89      0.00
   -4  -13    7     -1.64      0.00
   -4  -13    6      0.06      0.00
   -4  -13    5     -5.53      0.00
   -4  -13    4      3.30      0.00
   -4  -13    3      0.64      0.00
   -4  -13    2     -2.27      0.00
   -4  -13    1      4.38      0.00
    4   13    0     -4.42      0.00
    4   13    1      2.25      0.00
    4   13    2     -0.14      0.00
    4   13    3     -2.76      0.00
    4   13    4      2.51      0.00
    4   13    5      1.63      0.00
    4   13    6     -0.06      0.00
    4   13    7     -0.38      0.00
    4   13    8     -1.39      0.00
   -4  -14   23      0.59      0.00
   -4  -14   22      1.27      0.00
   -4  -14   21      1.68      0.00
   -4  -14   20      1.28      0.00
   -4  -14   19      0.26      0.00
   -4  -14   18     -1.95      0.00
   -4  -14   17      0.87      0.00
   -4  -14   16      0.68      0.00
   -4  -14   15      1.59      0.00
   -4  -14   14     -0.34      0.00
   -4  -14   13     -6.11      0.00
   -4  -14   12     -0.44      0.00
   -4  -14   11     -3.33      0.00
   -4  -14   10     -1.72      0.00
   -4  -14    9      0.79      0.00
   -4  -14    8     -0.40      0.00
   -4  -14    7      3.85      0.00
   -4  -14    6     -0.12      0.00
   -4  -14    5      1.74      0.00
   -4  -14    4     -4.83      0.00
   -4  -14    3      3.62      0.00
   -4  -14    2     -2.64      0.00
   -4  -14    1      1.23      0.00
    4   14    0      3.03      0.00
    4   14    1     -1.15      0.00
    4   14    2      1.29      0.00
    4   14    3     -1.48      0.00
    4   14    4     -3.26      0.00
    4   14    5      1.01      0.00
    4   14    6      0.43      0.00
    4   14    7      0.69      0.00
   -4  -15   22      0.82      0.00
   -4  -15   21      0.53      0.00
   -4  -15   20     -0.12      0.00
   -4  -15   19     -0.14      0.00
   -4  -15   18     -1.27      0.00
   -4  -15   17     -0.29      0.00
   -4  -15   16      3.34      0.00
   -4  -15   15      1.17      0.00
   -4  -15   14      3.38      0.00
   -4  -15   13     -1.58      0.00
   -4  -15   12     -2.94      0.00
   -4  -15   11      0.10      0.00
   -4  -15   10     -2.30      0.00
   -4  -15    9     -1.57      0.00
   -4  -15    8      0.25      0.00
   -4  -15    7     -0.90      0.00
   -4  -15    6      1.01      0.00
   -4  -15    5      1.13      0.00
   -4  -15    4     -0.27      0.00
   -4  -15    3     -0.03      0.00
   -4  -15    2      1.56      0.00
   -4  -15    1     -2.24      0.00
    4   15    0      1.92      0.00
    4   15    1      0.44      0.00
    4   15    2      1.55      0.00
    4   15    3     -0.78      0.00
    4   15    4     -1.06      0.00
    4   15    5     -1.94      0.00
   -4  -16   21     -0.22      0.00
   -4  -16   20      0.70      0.00
   -4  -16   18     -0.58      0.00
   -4  -16   17     -3.42      0.00
   -4  -16   16      1.41      0.00
   -4  -16   15      0.74      0.00
   -4  -16   14      3.13      0.00
   -4  -16   13      0.74      0.00
   -4  -16   12     -0.26      0.00
   -4  -16   11     -0.53      0.00
   -4  -16   10      1.49      0.00
   -4  -16    9     -0.91      0.00
   -4  -16    8     -0.76      0.00
   -4  -16    7     -0.03      0.00
   -4  -16    6     -0.24      0.00
   -4  -16    5      0.05      0.00
   -4  -16    4      2.38      0.00
   -4  -16    3     -0.55      0.00
   -4  -16    2      2.41      0.00
   -4  -16    1     -0.85      0.00
    4   16    0     -0.56      0.00
    4   16    1      0.78      0.00
    4   16    2      0.78      0.00
    4   16    3     -0.05      0.00
   -4  -17   20      0.20      0.00
   -4  -17   19      0.09      0.00
   -4  -17   18      0.50      0.00
   -4  -17   17     -0.72      0.00
   -4  -17   16     -1.91      0.00
   -4  -17   15      1.57      0.00
   -4  -17   14     -0.36      0.00
   -4  -17   13      2.82      0.00
   -4  -17   12     -1.52      0.00
   -4  -17   11     -0.02      0.00
   -4  -17   10      1.23      0.00
   -4  -17    9      1.81      0.00
   -4  -17    8      0.13      0.00
   -4  -17    7     -1.01      0.00
   -4  -17    6     -0.57      0.00
   -4  -17    5     -0.42      0.00
   -4  -17    4      0.37      0.00
   -4  -17    3      0.58      0.00
   -4  -17    2      1.62      0.00
   -4  -17    1      0.18      0.00
    4   17    0     -0.12      0.00
    4   17    1     -2.02      0.00
   -4  -18   18      1.79      0.00
   -4  -18   17      0.07      0.00
   -4  -18   16     -0.17      0.00
   -4  -18   15     -1.47      0.00
   -4  -18   14     -0.21      0.00
   -4  -18   13     -0.66      0.00
   -4  -18   12      1.04      0.00
   -4  -18   11     -1.34      0.00
   -4  -18   10      0.15      0.00
   -4  -18    9      1.13      0.00
   -4  -18    8      1.27      0.00
   -4  -18    7     -0.92      0.00
   -4  -18    6     -0.13      0.00
   -4  -18    5     -0.88      0.00
   -4  -18    4     -0.79      0.00
   -4  -18    3     -0.44      0.00
   -4  -18    2      0.46      0.00
   -4  -18    1      0.82      0.00
   -4  -19   16     -0.42      0.00
   -4  -19   15     -0.80      0.00
   -4  -19   14     -1.78      0.00
   -4  -19   13     -0.25      0.00
   -4  -19   12     -0.54      0.00
   -4  -19   11      0.58      0.00
   -4  -19   10      0.57      0.00
   -4  -19    9      0.18      0.00
   -4  -19    8      0.82      0.00
   -4  -19    7      1.01      0.00
   -4  -19    6      0.02      0.00
   -4  -19    5      0.03      0.00
   -4  -19    4      0.62      0.00
   -5   19    5      0.17      0.00
   -5   19    4      1.96      0.00
   -5   19    3      0.41      0.00
   -5   19    2     -0.93      0.00
   -5   19    1     -0.07      0.00
   -5   18    8      0.65      0.00
   -5   18    7     -1.31      0.00
   -5   18    6     -0.35      0.00
   -5   18    5     -0.37      0.00
   -5   18    4     -0.55      0.00
   -5   18    3      0.51      0.00
   -5   18    2      0.09      0.00
   -5   18    1     -0.83      0.00
   -5   18    0      3.49      0.00
   -5   17    9      1.32      0.00
   -5   17    8      1.75      0.00
   -5   17    7      1.90      0.00
   -5   17    6     -1.14      0.00
   -5   17    5      0.51      0.00
   -5   17    4      0.75      0.00
   -5   17    3     -1.57      0.00
   -5   17    2     -1.61      0.00
   -5   17    1     -3.53      0.00
   -5   17    0     -1.59      0.00
    5  -17   14     -1.92      0.00
    5  -17   15     -0.58      0.00
   -5   16   11      0.62      0.00
   -5   16   10      0.56      0.00
   -5   16    9     -1.39      0.00
   -5   16    8     -0.74      0.00
   -5   16    7     -0.42      0.00
   -5   16    6     -0.42      0.00
   -5   16    5     -0.37      0.00
   -5   16    4      2.68      0.00
   -5   16    3      2.83      0.00
   -5   16    2      1.31      0.00
   -5   16    1     -1.50      0.00
   -5   16    0     -2.57      0.00
    5  -16   12     -0.56      0.00
    5  -16   13     -0.07      0.00
    5  -16   14      0.99      0.00
    5  -16   15      0.93      0.00
    5  -16   16      0.74      0.00
    5  -16   17      1.17      0.00
    5  -16   18     -0.11      0.00
   -5   15   12     -0.21      0.00
   -5   15   11      1.70      0.00
   -5   15   10      2.43      0.00
   -5   15    9      2.42      0.00
   -5   15    8      1.58      0.00
   -5   15    7     -1.04      0.00
   -5   15    6      4.11      0.00
   -5   15    5     -2.06      0.00
   -5   15    4     -0.44      0.00
   -5   15    3      3.02      0.00
   -5   15    2     -0.38      0.00
   -5   15    1     -1.17      0.00
   -5   15    0     -6.51      0.00
    5  -15   11      5.14      0.00
    5  -15   12     -1.65      0.00
    5  -15   13     -2.08      0.00
    5  -15   14     -1.60      0.00
    5  -15   15     -4.25      0.00
    5  -15   16     -1.53      0.00
    5  -15   17     -2.65      0.00
    5  -15   18      0.87      0.00
    5  -15   19      0.27      0.00
   -5   14   14      0.56      0.00
   -5   14   13     -1.07      0.00
   -5   14   12     -1.05      0.00
   -5   14   11      1.35      0.00
   -5   14   10      1.58      0.00
   -5   14    9      0.99      0.00
   -5   14    8      0.08      0.00
   -5   14    7      1.77      0.00
   -5   14    6     -2.67      0.00
   -5   14    5      3.44      0.00
   -5   14    4     -4.43      0.00
   -5   14    3      0.47      0.00
   -5   14    2      6.52      0.00
   -5   14    1      3.08      0.00
   -5   14    0     -1.70      0.00
    5  -14   10     -1.46      0.00
    5  -14   11      1.48      0.00
    5  -14   12      2.46      0.00
    5  -14   13      1.99      0.00
    5  -14   14     -0.87      0.00
    5  -14   15      1.47      0.00
    5  -14   16     -2.41      0.00
    5  -14   17     -1.06      0.00
    5  -14   18     -1.55      0.00
    5  -14   19      0.31      0.00
    5  -14   20      0.17      0.00
   -5   13   15      0.47      0.00
   -5   13   14      0.24      0.00
   -5   13   13      1.18      0.00
   -5   13   12      0.73      0.00
   -5   13   11     -0.78      0.00
   -5   13   10      1.41      0.00
   -5   13    9      2.31      0.00
   -5   13    8      0.24      0.00
   -5   13    7      4.93      0.00
   -5   13    6      1.57      0.00
   -5   13    5      0.13      0.00
   -5   13    4     -4.45      0.00
   -5   13    3     -6.76      0.00
   -5   13    2     -4.29      0.00
   -5   13    1      8.55      0.00
   -5   13    0      1.47      0.00
    5  -13    9      1.92      0.00
    5  -13   10     -0.50      0.00
    5  -13   11     -5.16      0.00
    5  -13   12     -1.94      0.00
    5  -13   13     -4.10      0.00
    5  -13   14     -1.03      0.00
    5  -13   15     -0.68      0.00
    5  -13   16      1.44      0.00
    5  -13   17     -1.72      0.00
    5  -13   18     -1.84      0.00
    5  -13   19     -1.91      0.00
    5  -13   20      1.08      0.00
   -5   12   16     -0.92      0.00
   -5   12   15     -1.65      0.00
   -5   12   14      0.94      0.00
   -5   12   13     -0.83      0.00
   -5   12   12      1.17      0.00
   -5   12   11      0.04      0.00
   -5   12   10     -3.54      0.00
   -5   12    9      1.03      0.00
   -5   12    8     -3.70      0.00
   -5   12    7      0.33      0.00
   -5   12    6      6.34      0.00
   -5   12    5      3.02      0.00
   -5   12    4      6.75      0.00
   -5   12    3     -7.27      0.00
   -5   12    2     -6.73      0.00
   -5   12    1     -6.49      0.00
   -5   12    0     10.83      0.00
    5  -12    8      3.78      0.00
    5  -12    9      1.41      0.00
    5  -12   10      4.44      0.00
    5  -12   11     -0.80      0.00
    5  -12   12     -2.82      0.00
    5  -12   13     -0.62      0.00
    5  -12   14     -4.20      0.00
    5  -12   15      1.38      0.00
    5  -12   16      0.49      0.00
    5  -12   17      2.36      0.00
    5  -12   18     -0.35      0.00
    5  -12   19     -1.05      0.00
    5  -12   20     -0.92      0.00
   -5   11   17     -0.92      0.00
   -5   11   16     -0.45      0.00
   -5   11   15     -1.34      0.00
   -5   11   14     -2.51      0.00
   -5   11   13      0.94      0.00
   -5   11   12     -1.28      0.00
   -5   11   11      5.55      0.00
   -5   11   10     -0.63      0.00
   -5   11    9     -1.78      0.00
   -5   11    8      1.87      0.00
   -5   11    7     -8.07      0.00
   -5   11    6     -1.44      0.00
   -5   11    5      2.28      0.00
   -5   11    4      3.90      0.00
   -5   11    3      5.99      0.00
   -5   11    2     -5.14      0.00
   -5   11    1    -12.85      0.00
   -5   11    0     -5.12      0.00
    5  -11    7     -5.39      0.00
    5  -11    8     -0.74      0.00
    5  -11    9      2.27      0.00
    5  -11   10      2.70      0.00
    5  -11   11      2.08      0.00
    5  -11   12      0.51      0.00
    5  -11   13     -2.87      0.00
    5  -11   14     -4.46      0.00
    5  -11   15     -4.68      0.00
    5  -11   16     -0.08      0.00
    5  -11   17      1.37      0.00
    5  -11   18      3.69      0.00
    5  -11   19      0.69      0.00
    5  -11   20     -0.47      0.00
    5  -11   21     -0.46      0.00
   -5   10   17     -0.54      0.00
   -5   10   16      3.93      0.00
   -5   10   15      2.94      0.00
   -5   10   14     -1.15      0.00
   -5   10   13     -1.03      0.00
   -5   10   12     -1.76      0.00
   -5   10   11     -2.82      0.00
   -5   10   10      5.38      0.00
   -5   10    9     -6.63      0.00
   -5   10    8      5.47      0.00
   -5   10    7     -0.80      0.00
   -5   10    6     -4.30      0.00
   -5   10    5     -4.11      0.00
   -5   10    4      3.78      0.00
   -5   10    3      5.38      0.00
   -5   10    2      6.95      0.00
   -5   10    1      7.43      0.00
   -5   10    0     -8.39      0.00
    5  -10    6      5.15      0.00
    5  -10    7     -2.52      0.00
    5  -10    8     -0.33      0.00
    5  -10    9     -8.15      0.00
    5  -10   10      1.37      0.00
    5  -10   11      1.21      0.00
    5  -10   12     -1.76      0.00
    5  -10   13      4.70      0.00
    5  -10   14      0.17      0.00
    5  -10   15     -3.53      0.00
    5  -10   16     -4.58      0.00
    5  -10   17     -2.79      0.00
    5  -10   18     -0.66      0.00
    5  -10   19      2.33      0.00
    5  -10   20      1.26      0.00
    5  -10   21      0.53      0.00
   -5    9   18     -1.55      0.00
   -5    9   17     -0.59      0.00
   -5    9   16     -1.75      0.00
   -5    9   15      6.21      0.00
   -5    9   14      3.21      0.00
   -5    9   13     -0.73      0.00
   -5    9   12      5.48      0.00
   -5    9   11     -6.31      0.00
   -5    9   10      0.01      0.00
   -5    9    9     -4.97      0.00
   -5    9    8     -3.02      0.00
   -5    9    7      0.83      0.00
   -5    9    6      4.33      0.00
   -5    9    5     -9.73      0.00
   -5    9    4     -3.52      0.00
   -5    9    3      1.97      0.00
   -5    9    2      1.22      0.00
   -5    9    1     -5.40      0.00
   -5    9    0      6.96      0.00
    5   -9    5     -3.73      0.00
    5   -9    6      9.36      0.00
    5   -9    7      2.40      0.00
    5   -9    8      2.66      0.00
    5   -9    9      0.37      0.00
    5   -9   10     -1.87      0.00
    5   -9   11     -0.10      0.00
    5   -9   12      0.61      0.00
    5   -9   13     -0.49      0.00
    5   -9   14      5.75      0.00
    5   -9   15      2.09      0.00
    5   -9   16     -1.88      0.00
    5   -9   17     -2.05      0.00
    5   -9   18     -2.84      0.00
    5   -9   19     -0.52      0.00
    5   -9   20     -0.46      0.00
    5   -9   21     -0.58      0.00
   -5    8   19     -0.36      0.00
   -5    8   18      0.32      0.00
   -5    8   17     -0.24      0.00
   -5    8   16     -0.82      0.00
   -5    8   15     -2.35      0.00
   -5    8   14      6.47      0.00
   -5    8   13     -4.09      0.00
   -5    8   12      2.03      0.00
   -5    8   11      0.47      0.00
   -5    8   10     -3.41      0.00
   -5    8    9     -4.43      0.00
   -5    8    8     -6.56      0.00
   -5    8    7      1.92      0.00
   -5    8    6     -1.46      0.00
   -5    8    5      2.12      0.00
   -5    8    4     -9.66      0.00
   -5    8    3      9.22      0.00
   -5    8    2     13.25      0.00
   -5    8    1      8.80      0.00
   -5    8    0     -9.38      0.00
    5   -8    3      0.27      0.00
    5   -8    4      2.24      0.00
    5   -8    5    -20.07      0.00
    5   -8    6     -1.11      0.00
    5   -8    7      2.25      0.00
    5   -8    8      2.00      0.00
    5   -8    9      2.97      0.00
    5   -8   10      0.77      0.00
    5   -8   11      1.96      0.00
    5   -8   12      2.21      0.00
    5   -8   13     -2.22      0.00
    5   -8   14      3.84      0.00
    5   -8   15      1.60      0.00
    5   -8   16      3.73      0.00
    5   -8   17     -3.11      0.00
    5   -8   18      0.68      0.00
    5   -8   19     -2.49      0.00
    5   -8   20      0.20      0.00
    5   -8   21     -0.19      0.00
   -5    7   19      0.91      0.00
   -5    7   18     -0.28      0.00
   -5    7   17     -2.39      0.00
   -5    7   16      1.17      0.00
   -5    7   15     -1.25      0.00
   -5    7   14      7.32      0.00
   -5    7   13      3.06      0.00
   -5    7   12     -2.53      0.00
   -5    7   11     -1.08      0.00
   -5    7   10      0.33      0.00
   -5    7    9     -2.29      0.00
   -5    7    8      3.25      0.00
   -5    7    7      2.42      0.00
   -5    7    6      8.66      0.00
   -5    7    5     -0.98      0.00
   -5    7    4     -5.56      0.00
   -5    7    3    -22.36      0.00
   -5    7    2      6.23      0.00
   -5    7    1     10.00      0.00
   -5    7    0     -0.54      0.00
    5   -7    1     -5.16      0.00
    5   -7    2     -1.60      0.00
    5   -7    3      3.86      0.00
    5   -7    4     11.16      0.00
    5   -7    5     -0.85      0.00
    5   -7    6    -11.43      0.00
    5   -7    7     11.21      0.00
    5   -7    8     -3.41      0.00
    5   -7    9      6.58      0.00
    5   -7   10      0.96      0.00
    5   -7   11     -0.54      0.00
    5   -7   12     -0.75      0.00
    5   -7   13      0.09      0.00
    5   -7   14      0.56      0.00
    5   -7   15      3.02      0.00
    5   -7   16      2.64      0.00
    5   -7   17      0.46      0.00
    5   -7   18     -1.73      0.00
    5   -7   19      0.47      0.00
    5   -7   20     -0.71      0.00
    5   -7   21      0.27      0.00
   -5    6   20     -0.43      0.00
   -5    6   19      1.98      0.00
   -5    6   18      4.87      0.00
   -5    6   17     -0.29      0.00
   -5    6   16     -4.29      0.00
   -5    6   15     -3.18      0.00
   -5    6   14     -2.75      0.00
   -5    6   13      6.61      0.00
   -5    6   12     -3.72      0.00
   -5    6   11     -3.35      0.00
   -5    6   10     -8.00      0.00
   -5    6    9      7.56      0.00
   -5    6    8    -13.43      0.00
   -5    6    7      4.80      0.00
   -5    6    6      1.36      0.00
   -5    6    5      9.05      0.00
   -5    6    4     10.77      0.00
   -5    6    3      3.73      0.00
   -5    6    2    -11.28      0.00
   -5    6    1     11.25      0.00
   -5    6    0      1.39      0.00
    5   -6    1    -22.37      0.00
    5   -6    2    -13.66      0.00
    5   -6    3     -8.88      0.00
    5   -6    4     -8.75      0.00
    5   -6    5     11.74      0.00
    5   -6    6     -9.84      0.00
    5   -6    7     -7.94      0.00
    5   -6    8      8.23      0.00
    5   -6    9     -5.05      0.00
    5   -6   10      5.41      0.00
    5   -6   11     -1.56      0.00
    5   -6   12      6.86      0.00
    5   -6   13     -4.30      0.00
    5   -6   14      4.36      0.00
    5   -6   15     -1.20      0.00
    5   -6   16      3.23      0.00
    5   -6   17      2.36      0.00
    5   -6   18     -0.97      0.00
    5   -6   19     -0.48      0.00
    5   -6   20      1.28      0.00
   -5    5   20     -0.10      0.00
   -5    5   19     -0.29      0.00
   -5    5   18      3.85      0.00
   -5    5   17      8.14      0.00
   -5    5   16     -1.39      0.00
   -5    5   15     -2.39      0.00
   -5    5   14     -6.15      0.00
   -5    5   13     -1.45      0.00
   -5    5   12     -2.68      0.00
   -5    5   11      2.54      0.00
   -5    5   10     -3.30      0.00
   -5    5    9      0.40      0.00
   -5    5    8      6.23      0.00
   -5    5    7     -8.70      0.00
   -5    5    6     -0.77      0.00
   -5    5    5     16.51      0.00
   -5    5    4     -5.39      0.00
   -5    5    3     18.33      0.00
   -5    5    2    -15.48      0.00
   -5    5    1    -12.19      0.00
   -5    5    0      7.43      0.00
    5   -5    1      5.16      0.00
    5   -5    2    -17.76      0.00
    5   -5    3     11.54      0.00
    5   -5    4      2.98      0.00
    5   -5    5     12.50      0.00
    5   -5    6      5.65      0.00
    5   -5    7      2.44      0.00
    5   -5    8      2.84      0.00
    5   -5    9      6.46      0.00
    5   -5   10      2.64      0.00
    5   -5   11     -0.85      0.00
    5   -5   12      0.03      0.00
    5   -5   13      0.75      0.00
    5   -5   14     -5.79      0.00
    5   -5   15      2.39      0.00
    5   -5   16     -3.69      0.00
    5   -5   17      2.46      0.00
    5   -5   18      1.10      0.00
    5   -5   19     -0.88      0.00
    5   -5   20     -0.07      0.00
   -5    4   21      2.35      0.00
   -5    4   20     -0.28      0.00
   -5    4   19      0.65      0.00
   -5    4   18     -1.63      0.00
   -5    4   17      5.60      0.00
   -5    4   16      9.17      0.00
   -5    4   15      3.49      0.00
   -5    4   14     -4.28      0.00
   -5    4   13     -2.45      0.00
   -5    4   12     -9.95      0.00
   -5    4   11     -3.69      0.00
   -5    4   10     -1.87      0.00
   -5    4    9     -4.84      0.00
   -5    4    8      3.98      0.00
   -5    4    7     -4.58      0.00
   -5    4    6     -6.81      0.00
   -5    4    5      4.63      0.00
   -5    4    4     35.24      0.00
   -5    4    3     20.95      0.00
   -5    4    2     27.08      0.00
   -5    4    1     16.82      0.00
   -5    4    0     -1.47      0.00
    5   -4    1     22.53      0.00
    5   -4    2    -12.99      0.00
    5   -4    3    -20.25      0.00
    5   -4    4     -1.85      0.00
    5   -4    5     -4.99      0.00
    5   -4    6      6.44      0.00
    5   -4    7    -12.57      0.00
    5   -4    8     -4.06      0.00
    5   -4    9     -4.80      0.00
    5   -4   10      2.32      0.00
    5   -4   11      4.72      0.00
    5   -4   12     -1.55      0.00
    5   -4   13     10.89      0.00
    5   -4   14     -3.00      0.00
    5   -4   15      2.60      0.00
    5   -4   16     -1.67      0.00
    5   -4   17     -2.14      0.00
    5   -4   18      0.75      0.00
    5   -4   19     -0.21      0.00
   -5    3   21      1.60      0.00
   -5    3   20      1.33      0.00
   -5    3   19     -1.68      0.00
   -5    3   18     -2.19      0.00
   -5    3   17      1.41      0.00
   -5    3   16      3.72      0.00
   -5    3   15      8.93      0.00
   -5    3   14     -2.94      0.00
   -5    3   13     -4.97      0.00
   -5    3   12     -1.28      0.00
   -5    3   11     -7.62      0.00
   -5    3   10      2.86      0.00
   -5    3    9      4.12      0.00
   -5    3    8     -4.34      0.00
   -5    3    7      9.50      0.00
   -5    3    6    -26.60      0.00
   -5    3    5    -18.24      0.00
   -5    3    4    -24.63      0.00
   -5    3    3     15.99      0.00
   -5    3    2     -5.26      0.00
   -5    3    1     -4.85      0.00
   -5    3    0     -1.29      0.00
    5   -3    1     -2.33      0.00
    5   -3    2     15.89      0.00
    5   -3    3    -12.51      0.00
    5   -3    4    -11.25      0.00
    5   -3    5     12.05      0.00
    5   -3    6      9.68      0.00
    5   -3    7     10.30      0.00
    5   -3    8     -2.73      0.00
    5   -3    9     -0.02      0.00
    5   -3   10     -7.51      0.00
    5   -3   11      6.45      0.00
    5   -3   12     -3.34      0.00
    5   -3   13      4.61      0.00
    5   -3   14      3.96      0.00
    5   -3   15     -2.56      0.00
    5   -3   16      0.17      0.00
    5   -3   17     -2.23      0.00
    5   -3   18     -1.87      0.00
    5   -3   19      1.81      0.00
   -5    2   22      0.07      0.00
   -5    2   21      3.41      0.00
   -5    2   20      4.70      0.00
   -5    2   19      0.19      0.00
   -5    2   18     -1.53      0.00
   -5    2   17     -6.11      0.00
   -5    2   16     -0.70      0.00
   -5    2   15      0.76      0.00
   -5    2   14      9.19      0.00
   -5    2   13     -7.83      0.00
   -5    2   12      1.51      0.00
   -5    2   11     -7.15      0.00
   -5    2   10    -10.20      0.00
   -5    2    9    -14.57      0.00
   -5    2    8     -3.00      0.00
   -5    2    7      9.31      0.00
   -5    2    6     27.98      0.00
   -5    2    5     15.00      0.00
   -5    2    4    -10.17      0.00
   -5    2    3     17.02      0.00
   -5    2    2      5.27      0.00
   -5    2    1      6.69      0.00
   -5    2    0     18.53      0.00
    5   -2    1     29.27      0.00
    5   -2    2     34.25      0.00
    5   -2    3     23.42      0.00
    5   -2    4    -14.62      0.00
    5   -2    5    -23.73      0.00
    5   -2    6     -6.22      0.00
    5   -2    7     -1.74      0.00
    5   -2    8     -7.15      0.00
    5   -2    9     10.19      0.00
    5   -2   10     -3.74      0.00
    5   -2   11      4.08      0.00
    5   -2   12      4.79      0.00
    5   -2   13     -2.56      0.00
    5   -2   14     10.31      0.00
    5   -2   15      2.05      0.00
    5   -2   16      3.13      0.00
    5   -2   17     -0.16      0.00
    5   -2   18     -1.04      0.00
   -5    1   22     -0.63      0.00
   -5    1   21     -2.51      0.00
   -5    1   20      2.63      0.00
   -5    1   19      7.38      0.00
   -5    1   18      2.23      0.00
   -5    1   17     -2.11      0.00
   -5    1   16     -3.88      0.00
   -5    1   15     -5.90      0.00
   -5    1   14      6.95      0.00
   -5    1   13      7.05      0.00
   -5    1   12     -1.21      0.00
   -5    1   11     11.55      0.00
   -5    1   10      6.65      0.00
   -5    1    9      5.37      0.00
   -5    1    8    -16.59      0.00
   -5    1    7     -3.97      0.00
   -5    1    6    -16.76      0.00
   -5    1    5     -0.47      0.00
   -5    1    4     23.21      0.00
   -5    1    3    -35.91      0.00
   -5    1    2     56.24      0.00
   -5    1    1    -34.63      0.00
   -5    1    0    -20.03      0.00
    5   -1    1     -8.07      0.00
    5   -1    2     11.49      0.00
    5   -1    3     31.03      0.00
    5   -1    5     -2.11      0.00
    5   -1    6    -11.94      0.00
    5   -1    7      3.65      0.00
    5   -1    8     -7.77      0.00
    5   -1    9     -5.69      0.00
    5   -1   10      7.53      0.00
    5   -1   11     -6.45      0.00
    5   -1   12      6.66      0.00
    5   -1   13     -3.91      0.00
    5   -1   14     -0.97      0.00
    5   -1   15      2.47      0.00
    5   -1   16      0.49      0.00
    5   -1   17      1.65      0.00
    5   -1   18      1.38      0.00
   -5    0   22      1.18      0.00
   -5    0   21     -2.70      0.00
   -5    0   20      1.21      0.00
   -5    0   19      4.81      0.00
   -5    0   18     15.19      0.00
   -5    0   17      4.14      0.00
   -5    0   16      0.17      0.00
   -5    0   15     -6.24      0.00
   -5    0   14    -14.26      0.00
   -5    0   13     -4.82      0.00
   -5    0   12    -13.59      0.00
   -5    0   11    -12.25      0.00
   -5    0   10     -3.70      0.00
   -5    0    9     10.66      0.00
   -5    0    8     -4.70      0.00
   -5    0    7      1.75      0.00
   -5    0    6     29.62      0.00
   -5    0    5     -4.79      0.00
   -5    0    4     40.79      0.00
   -5    0    3     11.69      0.00
   -5    0    2      8.89      0.00
   -5    0    1     32.60      0.00
    5    0    0    -29.21      0.00
    5    0    1    -47.04      0.00
    5    0    2    -10.62      0.00
    5    0    3     -5.68      0.00
    5    0    4     15.08      0.00
    5    0    5      2.77      0.00
    5    0    6    -11.81      0.00
    5    0    7     -8.85      0.00
    5    0    8      5.80      0.00
    5    0    9     -7.91      0.00
    5    0   10      7.22      0.00
    5    0   11      0.72      0.00
    5    0   12      5.05      0.00
    5    0   13      1.65      0.00
    5    0   14      0.34      0.00
    5    0   15     -2.57      0.00
    5    0   16     -0.44      0.00
    5    0   17      0.00      0.00
   -5   -1   23      0.93      0.00
   -5   -1   22     -0.24      0.00
   -5   -1   21     -2.19      0.00
   -5   -1   20     -4.00      0.00
   -5   -1   19     -3.98      0.00
   -5   -1   18     -0.91      0.00
   -5   -1   17      6.22      0.00
   -5   -1   16      1.50      0.00
   -5   -1   15      7.87      0.00
   -5   -1   14      9.83      0.00
   -5   -1   13      4.10      0.00
   -5   -1   12      2.61      0.00
   -5   -1   11     -8.46      0.00
   -5   -1   10     -5.32      0.00
   -5   -1    9     -4.30      0.00
   -5   -1    8     20.27      0.00
   -5   -1    7    -44.72      0.00
   -5   -1    6     18.33      0.00
   -5   -1    5    -23.58      0.00
   -5   -1    4    -10.46      0.00
   -5   -1    3     -4.44      0.00
   -5   -1    2    -26.83      0.00
   -5   -1    1     16.25      0.00
    5    1    0     20.21      0.00
    5    1    1    -10.45      0.00
    5    1    2    -16.19      0.00
    5    1    3     -2.13      0.00
    5    1    4      8.68      0.00
    5    1    5      9.33      0.00
    5    1    6     11.15      0.00
    5    1    7     -7.74      0.00
    5    1    8      6.03      0.00
    5    1    9     -2.42      0.00
    5    1   10     -4.42      0.00
    5    1   11     -0.84      0.00
    5    1   12     -2.47      0.00
    5    1   13      1.39      0.00
    5    1   14     -1.17      0.00
    5    1   15      1.04      0.00
    5    1   16     -0.83      0.00
    5    1   17     -0.89      0.00
   -5   -2   23     -0.91      0.00
   -5   -2   22      0.41      0.00
   -5   -2   21     -0.02      0.00
   -5   -2   20     -3.13      0.00
   -5   -2   19      1.09      0.00
   -5   -2   18     -2.91      0.00
   -5   -2   17      8.11      0.00
   -5   -2   16      0.66      0.00
   -5   -2   15      1.65      0.00
   -5   -2   14      0.02      0.00
   -5   -2   13     10.75      0.00
   -5   -2   12     -0.37      0.00
   -5   -2   11     -5.72      0.00
   -5   -2   10     -6.68      0.00
   -5   -2    9    -16.05      0.00
   -5   -2    8     23.35      0.00
   -5   -2    7      0.48      0.00
   -5   -2    6     -9.80      0.00
   -5   -2    5     37.31      0.00
   -5   -2    4      6.64      0.00
   -5   -2    3     41.89      0.00
   -5   -2    2     15.19      0.00
   -5   -2    1      2.83      0.00
    5    2    0     14.30      0.00
    5    2    1      1.11      0.00
    5    2    2    -23.76      0.00
    5    2    3    -25.57      0.00
    5    2    4    -14.44      0.00
    5    2    5    -12.13      0.00
    5    2    6     -1.62      0.00
    5    2    7      2.33      0.00
    5    2    8     -0.02      0.00
    5    2    9      9.33      0.00
    5    2   10      4.01      0.00
    5    2   11      1.11      0.00
    5    2   12      1.27      0.00
    5    2   13      1.72      0.00
    5    2   14     -0.58      0.00
    5    2   15      1.89      0.00
    5    2   16      1.44      0.00
   -5   -3   23     -2.10      0.00
   -5   -3   22     -1.53      0.00
   -5   -3   21      2.68      0.00
   -5   -3   20     -3.57      0.00
   -5   -3   19     -4.15      0.00
   -5   -3   18     -3.90      0.00
   -5   -3   17     -5.13      0.00
   -5   -3   16      9.85      0.00
   -5   -3   15     -1.92      0.00
   -5   -3   14      4.83      0.00
   -5   -3   13      5.33      0.00
   -5   -3   12     20.52      0.00
   -5   -3   11      2.40      0.00
   -5   -3   10     -3.34      0.00
   -5   -3    9    -16.74      0.00
   -5   -3    8    -24.95      0.00
   -5   -3    7     37.87      0.00
   -5   -3    6    -24.82      0.00
   -5   -3    5     21.50      0.00
   -5   -3    4     -7.15      0.00
   -5   -3    3    -12.20      0.00
   -5   -3    2     -9.79      0.00
   -5   -3    1     -6.99      0.00
    5    3    0      2.96      0.00
    5    3    1     18.85      0.00
    5    3    2     13.96      0.00
    5    3    3     -2.61      0.00
    5    3    4     -3.95      0.00
    5    3    5      1.15      0.00
    5    3    6     -8.61      0.00
    5    3    7     -2.40      0.00
    5    3    8     -0.06      0.00
    5    3    9      2.81      0.00
    5    3   10      4.34      0.00
    5    3   11      2.95      0.00
    5    3   12     -4.40      0.00
    5    3   13     -0.85      0.00
    5    3   14     -0.55      0.00
    5    3   15     -0.75      0.00
   -5   -4   24     -0.28      0.00
   -5   -4   23      1.27      0.00
   -5   -4   22     -3.44      0.00
   -5   -4   21      3.27      0.00
   -5   -4   20      0.15      0.00
   -5   -4   19     -2.89      0.00
   -5   -4   18     -5.38      0.00
   -5   -4   17     -6.68      0.00
   -5   -4   16     -5.05      0.00
   -5   -4   15      4.42      0.00
   -5   -4   14     -4.23      0.00
   -5   -4   13     -8.44      0.00
   -5   -4   12     10.01      0.00
   -5   -4   11     13.06      0.00
   -5   -4   10      3.90      0.00
   -5   -4    9     11.25      0.00
   -5   -4    8    -24.39      0.00
   -5   -4    7     -0.37      0.00
   -5   -4    6      0.10      0.00
   -5   -4    5     -1.86      0.00
   -5   -4    4      8.68      0.00
   -5   -4    3     14.14      0.00
   -5   -4    2     -8.91      0.00
   -5   -4    1    -13.28      0.00
    5    4    0     -7.16      0.00
    5    4    1     -1.44      0.00
    5    4    2      2.17      0.00
    5    4    3      7.16      0.00
    5    4    4    -10.92      0.00
    5    4    5      5.43      0.00
    5    4    6      1.70      0.00
    5    4    7     -0.81      0.00
    5    4    8     -3.17      0.00
    5    4    9      1.42      0.00
    5    4   10     -0.06      0.00
    5    4   11      5.63      0.00
    5    4   12      1.12      0.00
    5    4   13     -2.07      0.00
    5    4   14      1.00      0.00
   -5   -5   24     -2.67      0.00
   -5   -5   23      0.15      0.00
   -5   -5   22     -0.41      0.00
   -5   -5   21     -4.10      0.00
   -5   -5   20      2.85      0.00
   -5   -5   19      0.25      0.00
   -5   -5   18      1.22      0.00
   -5   -5   17      0.98      0.00
   -5   -5   16      0.68      0.00
   -5   -5   15      3.58      0.00
   -5   -5   14      4.22      0.00
   -5   -5   13      3.24      0.00
   -5   -5   12     -8.59      0.00
   -5   -5   11     21.32      0.00
   -5   -5   10      4.89      0.00
   -5   -5    9     15.16      0.00
   -5   -5    8      4.50      0.00
   -5   -5    7     -6.49      0.00
   -5   -5    6     -0.58      0.00
   -5   -5    5    -18.97      0.00
   -5   -5    4     -7.68      0.00
   -5   -5    3     -7.66      0.00
   -5   -5    2     12.75      0.00
   -5   -5    1     -4.80      0.00
    5    5    0     -8.70      0.00
    5    5    1      5.50      0.00
    5    5    2      1.83      0.00
    5    5    3      9.02      0.00
    5    5    4      3.72      0.00
    5    5    5     -3.55      0.00
    5    5    6      3.00      0.00
    5    5    7      5.35      0.00
    5    5    8     -3.62      0.00
    5    5    9     -1.85      0.00
    5    5   10     -2.32      0.00
    5    5   11     -4.06      0.00
    5    5   12      2.42      0.00
    5    5   13     -0.54      0.00
    5    5   14      0.68      0.00
   -5   -6   24      0.34      0.00
   -5   -6   23     -0.37      0.00
   -5   -6   22      1.51      0.00
   -5   -6   21     -2.69      0.00
   -5   -6   20     -0.68      0.00
   -5   -6   19      0.50      0.00
   -5   -6   18     -0.31      0.00
   -5   -6   17     -3.99      0.00
   -5   -6   16     -4.01      0.00
   -5   -6   15     -1.79      0.00
   -5   -6   14      2.49      0.00
   -5   -6   13     -0.76      0.00
   -5   -6   12     -7.69      0.00
   -5   -6   11     -6.08      0.00
   -5   -6   10      7.72      0.00
   -5   -6    9      3.15      0.00
   -5   -6    8     10.73      0.00
   -5   -6    7      9.43      0.00
   -5   -6    6     16.31      0.00
   -5   -6    5      5.06      0.00
   -5   -6    4     -2.14      0.00
   -5   -6    3    -14.39      0.00
   -5   -6    2    -10.03      0.00
   -5   -6    1     -2.72      0.00
    5    6    0    -15.87      0.00
    5    6    1     -9.58      0.00
    5    6    2     -4.87      0.00
    5    6    3     -1.23      0.00
    5    6    4      2.18      0.00
    5    6    5      0.76      0.00
    5    6    6     -1.53      0.00
    5    6    7      5.48      0.00
    5    6    8      5.49      0.00
    5    6    9      0.25      0.00
    5    6   10      0.38      0.00
    5    6   11     -2.01      0.00
    5    6   12     -1.60      0.00
    5    6   13      1.16      0.00
   -5   -7   24      2.07      0.00
   -5   -7   23     -0.81      0.00
   -5   -7   22      0.09      0.00
   -5   -7   21     -2.90      0.00
   -5   -7   20     -7.43      0.00
   -5   -7   19     -0.33      0.00
   -5   -7   18      2.86      0.00
   -5   -7   17      4.48      0.00
   -5   -7   16      1.23      0.00
   -5   -7   15      0.20      0.00
   -5   -7   14      5.60      0.00
   -5   -7   13      1.29      0.00
   -5   -7   12      1.81      0.00
   -5   -7   11    -10.54      0.00
   -5   -7   10      3.78      0.00
   -5   -7    9     -0.93      0.00
   -5   -7    8      0.54      0.00
   -5   -7    7    -16.54      0.00
   -5   -7    6     -2.29      0.00
   -5   -7    5     -9.01      0.00
   -5   -7    4      3.64      0.00
   -5   -7    3      4.67      0.00
   -5   -7    2      4.52      0.00
   -5   -7    1      8.91      0.00
    5    7    0      5.26      0.00
    5    7    1     -7.13      0.00
    5    7    2      1.55      0.00
    5    7    3      1.39      0.00
    5    7    4      4.04      0.00
    5    7    5      2.63      0.00
    5    7    6      1.41      0.00
    5    7    7     -3.15      0.00
    5    7    8      3.42      0.00
    5    7    9     -0.14      0.00
    5    7   10     -1.40      0.00
    5    7   11      1.51      0.00
    5    7   12     -0.01      0.00
   -5   -8   24      1.14      0.00
   -5   -8   23     -0.02      0.00
   -5   -8   22      1.78      0.00
   -5   -8   21     -0.27      0.00
   -5   -8   20     -2.85      0.00
   -5   -8   19     -6.15      0.00
   -5   -8   18     -0.71      0.00
   -5   -8   17      2.16      0.00
   -5   -8   16      0.67      0.00
   -5   -8   15     -0.95      0.00
   -5   -8   14      1.87      0.00
   -5   -8   13      5.52      0.00
   -5   -8   12      0.93      0.00
   -5   -8   11     -3.67      0.00
   -5   -8   10     -6.32      0.00
   -5   -8    9      1.46      0.00
   -5   -8    8     10.64      0.00
   -5   -8    7      6.26      0.00
   -5   -8    6      4.49      0.00
   -5   -8    5      9.91      0.00
   -5   -8    4     -9.10      0.00
   -5   -8    3     -2.56      0.00
   -5   -8    2     -1.77      0.00
   -5   -8    1     -0.43      0.00
    5    8    0      6.62      0.00
    5    8    1     -2.67      0.00
    5    8    2     -6.13      0.00
    5    8    3     -5.05      0.00
    5    8    4      3.64      0.00
    5    8    5     -3.11      0.00
    5    8    6      3.24      0.00
    5    8    7     -0.36      0.00
    5    8    8      0.92      0.00
    5    8    9      2.52      0.00
    5    8   10      0.89      0.00
    5    8   11     -0.05      0.00
   -5   -9   24     -1.21      0.00
   -5   -9   23      1.17      0.00
   -5   -9   22     -2.50      0.00
   -5   -9   21      3.22      0.00
   -5   -9   20     -0.86      0.00
   -5   -9   19     -0.78      0.00
   -5   -9   18     -1.81      0.00
   -5   -9   17     -2.21      0.00
   -5   -9   16      4.97      0.00
   -5   -9   15     -2.96      0.00
   -5   -9   14      2.57      0.00
   -5   -9   13      8.43      0.00
   -5   -9   12      9.80      0.00
   -5   -9   11      2.38      0.00
   -5   -9   10     -4.09      0.00
   -5   -9    9    -12.44      0.00
   -5   -9    8     -7.91      0.00
   -5   -9    7     -2.41      0.00
   -5   -9    6     -4.59      0.00
   -5   -9    5      3.12      0.00
   -5   -9    4      7.50      0.00
   -5   -9    3     -6.43      0.00
   -5   -9    2     -2.20      0.00
   -5   -9    1     -1.84      0.00
    5    9    0      7.01      0.00
    5    9    1      4.13      0.00
    5    9    2      4.96      0.00
    5    9    3     -6.12      0.00
    5    9    4      0.88      0.00
    5    9    5      0.16      0.00
    5    9    6     -2.87      0.00
    5    9    7      0.02      0.00
    5    9    8     -0.99      0.00
    5    9    9     -0.43      0.00
    5    9   10      0.43      0.00
   -5  -10   25      1.24      0.00
   -5  -10   24      0.70      0.00
   -5  -10   23     -0.53      0.00
   -5  -10   22     -2.41      0.00
   -5  -10   21     -2.74      0.00
   -5  -10   20     -0.75      0.00
   -5  -10   19     -1.44      0.00
   -5  -10   18     -1.23      0.00
   -5  -10   17      3.44      0.00
   -5  -10   16     -3.61      0.00
   -5  -10   15      0.36      0.00
   -5  -10   14    -11.29      0.00
   -5  -10   13     -3.16      0.00
   -5  -10   12      6.62      0.00
   -5  -10   11     10.24      0.00
   -5  -10   10      5.92      0.00
   -5  -10    9      4.75      0.00
   -5  -10    8     -6.05      0.00
   -5  -10    7      1.92      0.00
   -5  -10    6     -5.77      0.00
   -5  -10    5     -0.83      0.00
   -5  -10    4      3.77      0.00
   -5  -10    3      4.20      0.00
   -5  -10    2      0.38      0.00
   -5  -10    1     -7.13      0.00
    5   10    0      1.92      0.00
    5   10    1     -2.99      0.00
    5   10    2      4.66      0.00
    5   10    3      2.49      0.00
    5   10    4     -1.71      0.00
    5   10    5      4.56      0.00
    5   10    6     -0.62      0.00
    5   10    7     -2.00      0.00
    5   10    8      0.13      0.00
    5   10    9      2.03      0.00
   -5  -11   24     -0.68      0.00
   -5  -11   23      0.96      0.00
   -5  -11   22     -0.05      0.00
   -5  -11   21     -0.08      0.00
   -5  -11   20      1.21      0.00
   -5  -11   19     -0.82      0.00
   -5  -11   18      2.18      0.00
   -5  -11   17      1.18      0.00
   -5  -11   16      6.98      0.00
   -5  -11   15      4.14      0.00
   -5  -11   14     -0.42      0.00
   -5  -11   13     -7.41      0.00
   -5  -11   12     -6.42      0.00
   -5  -11   11      1.10      0.00
   -5  -11   10     -0.14      0.00
   -5  -11    9      1.04      0.00
   -5  -11    8      2.43      0.00
   -5  -11    7     -2.29      0.00
   -5  -11    6      4.44      0.00
   -5  -11    5     -3.79      0.00
   -5  -11    4      0.70      0.00
   -5  -11    3      3.26      0.00
   -5  -11    2      4.41      0.00
   -5  -11    1      2.01      0.00
    5   11    0     -2.84      0.00
    5   11    1      4.74      0.00
    5   11    2     -5.00      0.00
    5   11    3      4.02      0.00
    5   11    4     -1.68      0.00
    5   11    5      0.36      0.00
    5   11    6      3.48      0.00
    5   11    7     -0.63      0.00
    5   11    8     -2.27      0.00
   -5  -12   24      0.29      0.00
   -5  -12   23     -0.26      0.00
   -5  -12   22      0.72      0.00
   -5  -12   21     -0.54      0.00
   -5  -12   20     -0.32      0.00
   -5  -12   19      2.68      0.00
   -5  -12   18     -3.30      0.00
   -5  -12   17      1.71      0.00
   -5  -12   16     -1.39      0.00
   -5  -12   15      6.50      0.00
   -5  -12   14      1.87      0.00
   -5  -12   13      0.44      0.00
   -5  -12   12     -6.27      0.00
   -5  -12   11     -1.63      0.00
   -5  -12   10     -0.19      0.00
   -5  -12    9      1.35      0.00
   -5  -12    8      0.78      0.00
   -5  -12    7      2.55      0.00
   -5  -12    6      0.31      0.00
   -5  -12    5     -2.34      0.00
   -5  -12    4     -0.06      0.00
   -5  -12    3     -3.87      0.00
   -5  -12    2      2.02      0.00
   -5  -12    1      3.30      0.00
    5   12    0     -4.12      0.00
    5   12    1      4.15      0.00
    5   12    2     -2.55      0.00
    5   12    3      0.34      0.00
    5   12    4     -0.10      0.00
    5   12    5     -1.00      0.00
    5   12    6     -0.15      0.00
    5   12    7      2.88      0.00
   -5  -13   23     -2.21      0.00
   -5  -13   22     -0.01      0.00
   -5  -13   21     -0.72      0.00
   -5  -13   20      1.13      0.00
   -5  -13   19      1.48      0.00
   -5  -13   18      2.76      0.00
   -5  -13   17     -0.17      0.00
   -5  -13   16     -0.66      0.00
   -5  -13   15      2.37      0.00
   -5  -13   14      4.19      0.00
   -5  -13   13      2.95      0.00
   -5  -13   12     -0.14      0.00
   -5  -13   11     -5.09      0.00
   -5  -13   10     -1.79      0.00
   -5  -13    9     -3.29      0.00
   -5  -13    8     -2.60      0.00
   -5  -13    7     -0.58      0.00
   -5  -13    6      1.90      0.00
   -5  -13    5      4.14      0.00
   -5  -13    4     -2.34      0.00
   -5  -13    3      4.45      0.00
   -5  -13    2     -6.63      0.00
   -5  -13    1      5.52      0.00
    5   13    0     -1.21      0.00
    5   13    1     -0.66      0.00
    5   13    2      4.25      0.00
    5   13    3     -0.53      0.00
    5   13    4     -0.19      0.00
    5   13    5     -0.60      0.00
    5   13    6     -2.93      0.00
   -5  -14   23     -0.33      0.00
   -5  -14   22     -0.99      0.00
   -5  -14   21     -0.26      0.00
   -5  -14   20     -1.09      0.00
   -5  -14   19      1.71      0.00
   -5  -14   18      1.33      0.00
   -5  -14   17      1.14      0.00
   -5  -14   16     -0.48      0.00
   -5  -14   15     -2.63      0.00
   -5  -14   14      5.40      0.00
   -5  -14   13      1.29      0.00
   -5  -14   12      5.43      0.00
   -5  -14   11      0.51      0.00
   -5  -14   10     -0.77      0.00
   -5  -14    9     -0.44      0.00
   -5  -14    8     -1.08      0.00
   -5  -14    7     -3.16      0.00
   -5  -14    6     -1.59      0.00
   -5  -14    5      0.42      0.00
   -5  -14    4     -1.77      0.00
   -5  -14    3      1.40      0.00
   -5  -14    2     -0.69      0.00
   -5  -14    1     -1.05      0.00
    5   14    0      1.91      0.00
    5   14    1     -1.82      0.00
    5   14    2      0.29      0.00
    5   14    3      1.93      0.00
    5   14    4      1.57      0.00
    5   14    5      0.70      0.00
   -5  -15   22     -0.45      0.00
   -5  -15   21     -1.42      0.00
   -5  -15   20     -2.05      0.00
   -5  -15   18      0.74      0.00
   -5  -15   17      0.88      0.00
   -5  -15   16     -0.20      0.00
   -5  -15   15     -3.12      0.00
   -5  -15   14     -1.62      0.00
   -5  -15   13      1.47      0.00
   -5  -15   12      0.78      0.00
   -5  -15   11      1.66      0.00
   -5  -15   10      0.94      0.00
   -5  -15    9     -0.39      0.00
   -5  -15    8      0.57      0.00
   -5  -15    7     -0.01      0.00
   -5  -15    6     -3.03      0.00
   -5  -15    5      0.53      0.00
   -5  -15    4     -0.70      0.00
   -5  -15    3     -1.12      0.00
   -5  -15    2      2.75      0.00
   -5  -15    1     -1.68      0.00
    5   15    0      1.66      0.00
    5   15    1     -1.08      0.00
    5   15    2     -1.66      0.00
    5   15    3      0.59      0.00
    5   15    4      0.15      0.00
   -5  -16   21     -0.02      0.00
   -5  -16   20      0.40      0.00
   -5  -16   19     -2.15      0.00
   -5  -16   18      0.65      0.00
   -5  -16   17     -1.83      0.00
   -5  -16   16      2.29      0.00
   -5  -16   15     -1.28      0.00
   -5  -16   14     -1.27      0.00
   -5  -16   13      1.20      0.00
   -5  -16   12      0.44      0.00
   -5  -16   11      0.31      0.00
   -5  -16   10     -0.92      0.00
   -5  -16    9     -0.25      0.00
   -5  -16    8      0.81      0.00
   -5  -16    7      2.05      0.00
   -5  -16    6      0.12      0.00
   -5  -16    5     -0.73      0.00
   -5  -16    4      0.27      0.00
   -5  -16    3     -1.04      0.00
   -5  -16    2      0.20      0.00
   -5  -16    1      0.71      0.00
    5   16    0      0.79      0.00
    5   16    1     -0.29      0.00
    5   16    2      0.35      0.00
   -5  -17   19     -0.36      0.00
   -5  -17   18     -0.32      0.00
   -5  -17   17     -0.20      0.00
   -5  -17   16      0.60      0.00
   -5  -17   15      1.22      0.00
   -5  -17   14     -0.79      0.00
   -5  -17   13     -1.49      0.00
   -5  -17   12      1.39      0.00
   -5  -17   11     -0.75      0.00
   -5  -17   10     -0.39      0.00
   -5  -17    9     -1.72      0.00
   -5  -17    8      0.16      0.00
   -5  -17    7      0.10      0.00
   -5  -17    6      3.02      0.00
   -5  -17    5     -1.64      0.00
   -5  -17    4      1.80      0.00
   -5  -17    3     -0.40      0.00
   -5  -17    2     -0.26      0.00
   -5  -17    1     -0.94      0.00
    5   17    0      0.30      0.00
   -5  -18   18     -0.47      0.00
   -5  -18   17      1.06      0.00
   -5  -18   16     -0.16      0.00
   -5  -18   15      1.64      0.00
   -5  -18   14      0.87      0.00
   -5  -18   13     -0.32      0.00
   -5  -18   12     -1.54      0.00
   -5  -18   11      0.49      0.00
   -5  -18   10     -1.10      0.00
   -5  -18    9     -1.06      0.00
   -5  -18    8     -1.18      0.00
   -5  -18    7      0.19      0.00
   -5  -18    6     -0.10      0.00
   -5  -18    5      0.64      0.00
   -5  -18    4     -0.47      0.00
   -5  -18    3     -1.03      0.00
   -5  -19   14      1.75      0.00
   -5  -19   13     -0.46      0.00
   -5  -19   12      1.12      0.00
   -5  -19   11     -1.45      0.00
   -5  -19   10     -0.54      0.00
   -5  -19    9     -0.88      0.00
   -5  -19    8     -0.62      0.00
   -5  -19    7     -0.52      0.00
   -6   19    5     -1.04      0.00
   -6   19    2     -1.03      0.00
   -6   18    8     -0.09      0.00
   -6   18    7      1.21      0.00
   -6   18    6      0.26      0.00
   -6   18    5      1.29      0.00
   -6   18    4     -1.26      0.00
   -6   18    3      0.61      0.00
   -6   18    2      2.00      0.00
   -6   18    1      0.72      0.00
   -6   17   10      1.61      0.00
   -6   17    9     -0.06      0.00
   -6   17    8     -0.17      0.00
   -6   17    7     -1.86      0.00
   -6   17    6      0.58      0.00
   -6   17    5     -1.10      0.00
   -6   17    4     -0.63      0.00
   -6   17    3     -2.87      0.00
   -6   17    2      2.12      0.00
   -6   17    1      1.82      0.00
   -6   17    0      1.49      0.00
   -6   16   11     -1.81      0.00
   -6   16   10     -1.68      0.00
   -6   16    9      2.15      0.00
   -6   16    8      0.18      0.00
   -6   16    7      0.74      0.00
   -6   16    6      0.73      0.00
   -6   16    5     -1.20      0.00
   -6   16    4      2.75      0.00
   -6   16    3     -1.80      0.00
   -6   16    2     -0.55      0.00
   -6   16    1      3.38      0.00
    6  -16   13      3.93      0.00
    6  -16   14      0.63      0.00
    6  -16   15      1.59      0.00
    6  -16   16      0.09      0.00
   -6   15   13      0.44      0.00
   -6   15   12      1.12      0.00
   -6   15   11     -0.10      0.00
   -6   15   10     -1.09      0.00
   -6   15    9      0.19      0.00
   -6   15    8      4.01      0.00
   -6   15    7      0.52      0.00
   -6   15    6     -1.71      0.00
   -6   15    5      0.60      0.00
   -6   15    4     -6.44      0.00
   -6   15    3     -1.14      0.00
   -6   15    2     -7.06      0.00
   -6   15    1     -0.34      0.00
    6  -15   11     -4.90      0.00
    6  -15   12     -0.38      0.00
    6  -15   13     -2.04      0.00
    6  -15   14      1.80      0.00
    6  -15   15      1.33      0.00
    6  -15   16      1.50      0.00
    6  -15   17      1.80      0.00
    6  -15   18      1.20      0.00
    6  -15   19      0.03      0.00
   -6   14   14     -0.99      0.00
   -6   14   13      1.30      0.00
   -6   14   12      0.34      0.00
   -6   14   11      0.66      0.00
   -6   14   10     -0.19      0.00
   -6   14    9     -1.77      0.00
   -6   14    8     -0.58      0.00
   -6   14    7      1.39      0.00
   -6   14    6      0.37      0.00
   -6   14    5      2.60      0.00
   -6   14    4      5.23      0.00
   -6   14    3     -2.14      0.00
   -6   14    2     -4.65      0.00
   -6   14    1     -7.19      0.00
   -6   14    0     -1.84      0.00
    6  -14   10      1.95      0.00
    6  -14   11      0.94      0.00
    6  -14   12     -0.70      0.00
    6  -14   13      0.07      0.00
    6  -14   14     -1.15      0.00
    6  -14   15     -0.75      0.00
    6  -14   16      0.79      0.00
    6  -14   17      1.01      0.00
    6  -14   18      1.52      0.00
    6  -14   19     -0.27      0.00
   -6   13   15      0.63      0.00
   -6   13   14     -0.18      0.00
   -6   13   13     -0.97      0.00
   -6   13   12      0.70      0.00
   -6   13   11     -0.05      0.00
   -6   13   10      1.00      0.00
   -6   13    9      2.17      0.00
   -6   13    8     -4.13      0.00
   -6   13    7      0.28      0.00
   -6   13    6     -7.62      0.00
   -6   13    5     -2.36      0.00
   -6   13    4      2.63      0.00
   -6   13    3      8.64      0.00
   -6   13    2      2.86      0.00
   -6   13    1     -2.47      0.00
    6  -13    9     -5.36      0.00
    6  -13   10      1.60      0.00
    6  -13   11     -1.42      0.00
    6  -13   12      0.68      0.00
    6  -13   13     -0.25      0.00
    6  -13   14     -1.53      0.00
    6  -13   15     -1.80      0.00
    6  -13   16     -2.29      0.00
    6  -13   17     -0.05      0.00
    6  -13   18      1.53      0.00
    6  -13   19      2.35      0.00
   -6   12   16      2.14      0.00
   -6   12   15      1.72      0.00
   -6   12   14      1.17      0.00
   -6   12   13     -1.12      0.00
   -6   12   12     -3.75      0.00
   -6   12   11      0.85      0.00
   -6   12   10     -2.97      0.00
   -6   12    9      4.02      0.00
   -6   12    8      4.26      0.00
   -6   12    7     -0.19      0.00
   -6   12    6      4.13      0.00
   -6   12    5     -8.93      0.00
   -6   12    4     -5.79      0.00
   -6   12    3      1.83      0.00
   -6   12    2      7.37      0.00
   -6   12    1      2.64      0.00
    6  -12    8      3.65      0.00
    6  -12    9     -0.60      0.00
    6  -12   10     -1.89      0.00
    6  -12   11      3.76      0.00
    6  -12   12      0.38      0.00
    6  -12   13      2.84      0.00
    6  -12   14      0.42      0.00
    6  -12   15     -1.12      0.00
    6  -12   16     -3.38      0.00
    6  -12   17     -3.30      0.00
    6  -12   18     -0.14      0.00
    6  -12   19      0.32      0.00
    6  -12   20      1.62      0.00
   -6   11   17     -1.90      0.00
   -6   11   16     -0.36      0.00
   -6   11   15      0.85      0.00
   -6   11   14      3.91      0.00
   -6   11   13      5.31      0.00
   -6   11   12     -0.72      0.00
   -6   11   11     -1.01      0.00
   -6   11   10     -0.51      0.00
   -6   11    9     -4.44      0.00
   -6   11    8      3.66      0.00
   -6   11    7     -2.62      0.00
   -6   11    6      2.42      0.00
   -6   11    5      0.77      0.00
   -6   11    4     -6.08      0.00
   -6   11    3    -11.06      0.00
   -6   11    2      6.78      0.00
   -6   11    1      4.08      0.00
   -6   11    0      2.81      0.00
    6  -11    7     -2.26      0.00
    6  -11    8      4.12      0.00
    6  -11    9     -1.99      0.00
    6  -11   10      1.70      0.00
    6  -11   11     -2.54      0.00
    6  -11   12     -1.14      0.00
    6  -11   13      1.20      0.00
    6  -11   14      0.97      0.00
    6  -11   15      3.42      0.00
    6  -11   16      2.08      0.00
    6  -11   17     -0.77      0.00
    6  -11   18     -3.06      0.00
    6  -11   19     -0.30      0.00
    6  -11   20     -0.04      0.00
   -6   10   18      1.29      0.00
   -6   10   17     -0.85      0.00
   -6   10   16     -2.82      0.00
   -6   10   15     -0.69      0.00
   -6   10   14     -2.54      0.00
   -6   10   13      4.30      0.00
   -6   10   12      5.76      0.00
   -6   10   11     -1.16      0.00
   -6   10   10      9.63      0.00
   -6   10    9      1.30      0.00
   -6   10    8      1.82      0.00
   -6   10    7      1.66      0.00
   -6   10    6      0.71      0.00
   -6   10    5      0.04      0.00
   -6   10    4     -1.61      0.00
   -6   10    3     -8.59      0.00
   -6   10    2    -15.31      0.00
   -6   10    1      3.72      0.00
   -6   10    0     -4.53      0.00
    6  -10    5     -3.60      0.00
    6  -10    6     -4.52      0.00
    6  -10    7     -4.17      0.00
    6  -10    8      5.50      0.00
    6  -10    9      4.77      0.00
    6  -10   10     -0.29      0.00
    6  -10   11      1.45      0.00
    6  -10   12     -1.06      0.00
    6  -10   13     -4.64      0.00
    6  -10   14     -0.69      0.00
    6  -10   15     -1.84      0.00
    6  -10   16      2.75      0.00
    6  -10   17      1.45      0.00
    6  -10   18     -0.70      0.00
    6  -10   19     -0.22      0.00
    6  -10   20     -0.02      0.00
   -6    9   18     -1.22      0.00
   -6    9   17      0.20      0.00
   -6    9   16     -1.28      0.00
   -6    9   15     -2.60      0.00
   -6    9   14      1.12      0.00
   -6    9   13     -4.44      0.00
   -6    9   12      7.71      0.00
   -6    9   11     -1.19      0.00
   -6    9   10      4.58      0.00
   -6    9    9      3.52      0.00
   -6    9    8      2.42      0.00
   -6    9    7     -4.79      0.00
   -6    9    6     -0.45      0.00
   -6    9    5      0.49      0.00
   -6    9    4     -1.41      0.00
   -6    9    3     -7.62      0.00
   -6    9    2    -17.56      0.00
   -6    9    1     -4.03      0.00
   -6    9    0      4.00      0.00
    6   -9    3      7.52      0.00
    6   -9    4     10.41      0.00
    6   -9    5      4.19      0.00
    6   -9    6      0.33      0.00
    6   -9    8     -0.56      0.00
    6   -9    9      3.37      0.00
    6   -9   10      0.68      0.00
    6   -9   11      2.46      0.00
    6   -9   12      1.44      0.00
    6   -9   13      0.27      0.00
    6   -9   14     -1.92      0.00
    6   -9   15     -0.59      0.00
    6   -9   16     -0.36      0.00
    6   -9   17      2.20      0.00
    6   -9   18      1.89      0.00
    6   -9   19     -1.37      0.00
    6   -9   20      0.10      0.00
   -6    8   19      0.11      0.00
   -6    8   18     -2.48      0.00
   -6    8   17      0.82      0.00
   -6    8   16      1.30      0.00
   -6    8   15     -5.59      0.00
   -6    8   14     -0.19      0.00
   -6    8   13     -2.84      0.00
   -6    8   12      4.96      0.00
   -6    8   11      7.99      0.00
   -6    8   10      3.34      0.00
   -6    8    9      8.74      0.00
   -6    8    8      6.62      0.00
   -6    8    7     -1.11      0.00
   -6    8    6     -1.91      0.00
   -6    8    5      4.69      0.00
   -6    8    4      8.09      0.00
   -6    8    3     -8.83      0.00
   -6    8    2    -11.01      0.00
   -6    8    1    -35.46      0.00
   -6    8    0     -8.14      0.00
    6   -8    1     -9.76      0.00
    6   -8    2     -4.90      0.00
    6   -8    3    -13.47      0.00
    6   -8    4      8.77      0.00
    6   -8    5      6.93      0.00
    6   -8    6     13.19      0.00
    6   -8    7      6.23      0.00
    6   -8    8     -1.32      0.00
    6   -8    9      5.97      0.00
    6   -8   10      4.14      0.00
    6   -8   11     -2.90      0.00
    6   -8   12      1.76      0.00
    6   -8   13     -2.96      0.00
    6   -8   14     -3.63      0.00
    6   -8   15     -3.58      0.00
    6   -8   16     -1.93      0.00
    6   -8   17      0.62      0.00
    6   -8   18      1.50      0.00
    6   -8   19      2.01      0.00
    6   -8   20      0.42      0.00
   -6    7   19     -1.14      0.00
   -6    7   18     -1.57      0.00
   -6    7   17     -0.46      0.00
   -6    7   16      7.25      0.00
   -6    7   15      0.27      0.00
   -6    7   14     -4.20      0.00
   -6    7   13     -1.31      0.00
   -6    7   12     -0.67      0.00
   -6    7   11      5.44      0.00
   -6    7   10      4.74      0.00
   -6    7    9      3.29      0.00
   -6    7    8      2.02      0.00
   -6    7    7     10.73      0.00
   -6    7    6    -11.34      0.00
   -6    7    5     -5.90      0.00
   -6    7    4     -2.27      0.00
   -6    7    3      6.15      0.00
   -6    7    2     -7.92      0.00
   -6    7    1      2.24      0.00
   -6    7    0     -9.15      0.00
    6   -7    1      6.96      0.00
    6   -7    2      8.95      0.00
    6   -7    3    -14.28      0.00
    6   -7    4    -13.57      0.00
    6   -7    5      5.87      0.00
    6   -7    6     -4.63      0.00
    6   -7    7      9.10      0.00
    6   -7    8      1.17      0.00
    6   -7    9     -3.33      0.00
    6   -7   10      2.64      0.00
    6   -7   11     -3.29      0.00
    6   -7   12      0.31      0.00
    6   -7   13     -2.75      0.00
    6   -7   14      2.92      0.00
    6   -7   15     -6.21      0.00
    6   -7   16     -0.14      0.00
    6   -7   17     -2.40      0.00
    6   -7   18      0.62      0.00
    6   -7   19      0.19      0.00
    6   -7   20     -0.27      0.00
   -6    6   20     -0.04      0.00
   -6    6   19     -1.79      0.00
   -6    6   18     -1.54      0.00
   -6    6   17     -4.04      0.00
   -6    6   16      0.93      0.00
   -6    6   15      7.02      0.00
   -6    6   14     -1.79      0.00
   -6    6   13     -0.41      0.00
   -6    6   12      0.22      0.00
   -6    6   11      7.08      0.00
   -6    6   10      0.02      0.00
   -6    6    9      2.46      0.00
   -6    6    8      2.20      0.00
   -6    6    7     -5.09      0.00
   -6    6    6      9.93      0.00
   -6    6    5    -15.50      0.00
   -6    6    4     -9.65      0.00
   -6    6    3      3.43      0.00
   -6    6    2    -10.44      0.00
   -6    6    1    -11.74      0.00
   -6    6    0    -10.07      0.00
    6   -6    1    -12.55      0.00
    6   -6    2     -0.71      0.00
    6   -6    3      7.59      0.00
    6   -6    4    -16.82      0.00
    6   -6    5      1.88      0.00
    6   -6    6      4.23      0.00
    6   -6    7      4.47      0.00
    6   -6    8      4.74      0.00
    6   -6    9      4.09      0.00
    6   -6   10      1.65      0.00
    6   -6   11      1.78      0.00
    6   -6   12     -2.82      0.00
    6   -6   13     -3.03      0.00
    6   -6   14     -2.96      0.00
    6   -6   15      0.88      0.00
    6   -6   16     -4.07      0.00
    6   -6   17      0.43      0.00
    6   -6   18     -0.35      0.00
    6   -6   19     -1.06      0.00
    6   -6   20     -0.64      0.00
   -6    5   20     -0.10      0.00
   -6    5   19      2.35      0.00
   -6    5   18     -4.20      0.00
   -6    5   17     -1.90      0.00
   -6    5   16     -5.70      0.00
   -6    5   15      3.45      0.00
   -6    5   14      4.16      0.00
   -6    5   13      5.79      0.00
   -6    5   12     -2.09      0.00
   -6    5   11      7.69      0.00
   -6    5   10     -2.51      0.00
   -6    5    9      3.39      0.00
   -6    5    8     -4.69      0.00
   -6    5    7      3.53      0.00
   -6    5    6    -14.87      0.00
   -6    5    5     -3.28      0.00
   -6    5    4    -28.44      0.00
   -6    5    3    -13.67      0.00
   -6    5    2     15.76      0.00
   -6    5    1      3.04      0.00
   -6    5    0      5.28      0.00
    6   -5    1     18.40      0.00
    6   -5    2      0.32      0.00
    6   -5    3     20.02      0.00
    6   -5    4     -4.10      0.00
    6   -5    5     -9.36      0.00
    6   -5    6      5.37      0.00
    6   -5    7      0.35      0.00
    6   -5    8      7.56      0.00
    6   -5    9     -4.90      0.00
    6   -5   10      3.35      0.00
    6   -5   11     -6.92      0.00
    6   -5   12     -1.57      0.00
    6   -5   13     -3.01      0.00
    6   -5   14     -4.76      0.00
    6   -5   15      2.12      0.00
    6   -5   16     -0.32      0.00
    6   -5   17      0.47      0.00
    6   -5   18      0.49      0.00
    6   -5   19     -0.32      0.00
   -6    4   21      0.65      0.00
   -6    4   20      0.80      0.00
   -6    4   19      1.61      0.00
   -6    4   18     -0.30      0.00
   -6    4   17     -4.26      0.00
   -6    4   16     -6.12      0.00
   -6    4   15      0.90      0.00
   -6    4   14      2.49      0.00
   -6    4   13      8.66      0.00
   -6    4   12      1.16      0.00
   -6    4   11     -3.21      0.00
   -6    4   10      8.06      0.00
   -6    4    9     -2.55      0.00
   -6    4    8      5.67      0.00
   -6    4    7     11.23      0.00
   -6    4    6      2.90      0.00
   -6    4    5      4.10      0.00
   -6    4    4    -23.25      0.00
   -6    4    3    -22.78      0.00
   -6    4    2    -22.91      0.00
   -6    4    1     12.82      0.00
   -6    4    0    -12.58      0.00
    6   -4    1     -4.72      0.00
    6   -4    2      1.94      0.00
    6   -4    3     -2.53      0.00
    6   -4    4      9.37      0.00
    6   -4    5    -12.65      0.00
    6   -4    6     -8.76      0.00
    6   -4    7      5.05      0.00
    6   -4    8      5.51      0.00
    6   -4    9      7.25      0.00
    6   -4   10     -2.46      0.00
    6   -4   11      5.38      0.00
    6   -4   12     -9.26      0.00
    6   -4   13      2.78      0.00
    6   -4   14     -3.74      0.00
    6   -4   15     -0.42      0.00
    6   -4   16      2.50      0.00
    6   -4   17     -1.46      0.00
    6   -4   18     -0.44      0.00
    6   -4   19     -1.31      0.00
   -6    3   21      1.23      0.00
   -6    3   20      0.17      0.00
   -6    3   19      6.13      0.00
   -6    3   18      6.85      0.00
   -6    3   17      2.49      0.00
   -6    3   16     -5.79      0.00
   -6    3   15     -6.23      0.00
   -6    3   14     -2.39      0.00
   -6    3   13     -1.19      0.00
   -6    3   12      8.05      0.00
   -6    3   11     -3.60      0.00
   -6    3   10     -1.88      0.00
   -6    3    9     -0.03      0.00
   -6    3    8    -16.22      0.00
   -6    3    7    -17.82      0.00
   -6    3    6     -2.24      0.00
   -6    3    5     -2.16      0.00
   -6    3    4      8.72      0.00
   -6    3    3    -11.69      0.00
   -6    3    2    -28.84      0.00
   -6    3    1     -5.59      0.00
   -6    3    0     -4.72      0.00
    6   -3    1    -13.58      0.00
    6   -3    2     -1.63      0.00
    6   -3    3     13.14      0.00
    6   -3    4     16.76      0.00
    6   -3    5     10.73      0.00
    6   -3    6     -2.15      0.00
    6   -3    7     -8.56      0.00
    6   -3    8     -2.27      0.00
    6   -3    9      4.75      0.00
    6   -3   10     -6.91      0.00
    6   -3   11      6.08      0.00
    6   -3   12     -4.58      0.00
    6   -3   13     -3.94      0.00
    6   -3   14     -0.94      0.00
    6   -3   15     -1.87      0.00
    6   -3   16      1.26      0.00
    6   -3   17      2.64      0.00
    6   -3   18     -0.42      0.00
   -6    2   22      1.15      0.00
   -6    2   21     -2.57      0.00
   -6    2   20     -1.87      0.00
   -6    2   19     -3.43      0.00
   -6    2   18      2.91      0.00
   -6    2   17     10.02      0.00
   -6    2   16      5.21      0.00
   -6    2   15     -5.24      0.00
   -6    2   14     -3.61      0.00
   -6    2   13     -8.29      0.00
   -6    2   12     -0.55      0.00
   -6    2   11      3.33      0.00
   -6    2   10     -1.25      0.00
   -6    2    9     12.87      0.00
   -6    2    8     14.98      0.00
   -6    2    7     14.25      0.00
   -6    2    6    -10.77      0.00
   -6    2    5     24.40      0.00
   -6    2    4      0.28      0.00
   -6    2    3      7.91      0.00
   -6    2    2     17.02      0.00
   -6    2    1    -18.27      0.00
   -6    2    0     24.41      0.00
    6   -2    1     -9.48      0.00
    6   -2    2    -20.77      0.00
    6   -2    3    -10.99      0.00
    6   -2    4      5.69      0.00
    6   -2    5     12.75      0.00
    6   -2    6      5.16      0.00
    6   -2    7      8.73      0.00
    6   -2    8     -7.92      0.00
    6   -2    9      6.45      0.00
    6   -2   10     -0.77      0.00
    6   -2   11     -5.06      0.00
    6   -2   12      7.84      0.00
    6   -2   13     -4.74      0.00
    6   -2   14      2.05      0.00
    6   -2   15     -2.12      0.00
    6   -2   16     -1.73      0.00
    6   -2   17      0.13      0.00
    6   -2   18     -0.43      0.00
   -6    1   22      1.59      0.00
   -6    1   21      1.16      0.00
   -6    1   20     -1.35      0.00
   -6    1   19     -5.54      0.00
   -6    1   18     -1.85      0.00
   -6    1   17      1.82      0.00
   -6    1   16     19.64      0.00
   -6    1   15      6.55      0.00
   -6    1   14      2.85      0.00
   -6    1   13     -3.48      0.00
   -6    1   12     -7.60      0.00
   -6    1   11     -6.66      0.00
   -6    1   10     -8.90      0.00
   -6    1    9    -10.45      0.00
   -6    1    8     -6.88      0.00
   -6    1    7      2.17      0.00
   -6    1    6     -4.11      0.00
   -6    1    5    -19.22      0.00
   -6    1    4     30.43      0.00
   -6    1    3     -8.22      0.00
   -6    1    2     13.18      0.00
   -6    1    1     17.64      0.00
   -6    1    0      2.72      0.00
    6   -1    1     21.85      0.00
    6   -1    2    -10.61      0.00
    6   -1    3    -24.93      0.00
    6   -1    4     -6.62      0.00
    6   -1    5      8.82      0.00
    6   -1    6      0.55      0.00
    6   -1    7      3.98      0.00
    6   -1    8     -4.29      0.00
    6   -1    9    -10.01      0.00
    6   -1   10      3.02      0.00
    6   -1   11     -8.42      0.00
    6   -1   12      0.93      0.00
    6   -1   13      1.94      0.00
    6   -1   14      1.27      0.00
    6   -1   15      1.77      0.00
    6   -1   16     -0.75      0.00
    6   -1   17     -1.49      0.00
   -6    0   23     -1.32      0.00
   -6    0   22      0.59      0.00
   -6    0   21      2.53      0.00
   -6    0   20      3.17      0.00
   -6    0   19     -1.55      0.00
   -6    0   18     -4.58      0.00
   -6    0   17     -5.70      0.00
   -6    0   16     -5.04      0.00
   -6    0   15      6.40      0.00
   -6    0   14     -4.34      0.00
   -6    0   13      2.35      0.00
   -6    0   12      0.97      0.00
   -6    0   11      3.22      0.00
   -6    0   10     -8.88      0.00
   -6    0    9     -1.20      0.00
   -6    0    8      6.69      0.00
   -6    0    7      0.50      0.00
   -6    0    6     38.92      0.00
   -6    0    5    -25.77      0.00
   -6    0    4     19.17      0.00
   -6    0    3     -6.53      0.00
   -6    0    2    -18.76      0.00
   -6    0    1    -19.13      0.00
    6    0    0     -2.77      0.00
    6    0    1      0.18      0.00
    6    0    2     16.14      0.00
    6    0    3    -11.17      0.00
    6    0    4    -17.83      0.00
    6    0    5     -1.54      0.00
    6    0    6      9.77      0.00
    6    0    7     -0.90      0.00
    6    0    8     14.71      0.00
    6    0    9     -6.36      0.00
    6    0   10      5.63      0.00
    6    0   11     -2.65      0.00
    6    0   12     -2.08      0.00
    6    0   13     -1.02      0.00
    6    0   14      0.88      0.00
    6    0   15      1.10      0.00
    6    0   16      1.35      0.00
   -6   -1   23     -0.09      0.00
   -6   -1   22     -1.29      0.00
   -6   -1   21     -1.35      0.00
   -6   -1   20      1.11      0.00
   -6   -1   19     -0.63      0.00
   -6   -1   18     -2.11      0.00
   -6   -1   17     -0.03      0.00
   -6   -1   16     -1.22      0.00
   -6   -1   15      5.70      0.00
   -6   -1   14      4.70      0.00
   -6   -1   13      4.47      0.00
   -6   -1   12      4.06      0.00
   -6   -1   11     14.78      0.00
   -6   -1   10      2.17      0.00
   -6   -1    9    -22.88      0.00
   -6   -1    8     -1.66      0.00
   -6   -1    7    -28.02      0.00
   -6   -1    6      7.29      0.00
   -6   -1    5     -3.17      0.00
   -6   -1    4    -28.01      0.00
   -6   -1    3     16.89      0.00
   -6   -1    2     -2.92      0.00
   -6   -1    1     -3.72      0.00
    6    1    0      4.73      0.00
    6    1    1      9.59      0.00
    6    1    2     19.11      0.00
    6    1    3     17.09      0.00
    6    1    4     -3.64      0.00
    6    1    5    -13.71      0.00
    6    1    6      0.01      0.00
    6    1    7     -5.92      0.00
    6    1    8     -3.35      0.00
    6    1    9      2.50      0.00
    6    1   10     -3.55      0.00
    6    1   11      2.23      0.00
    6    1   12     -0.37      0.00
    6    1   13     -0.41      0.00
    6    1   14      0.42      0.00
    6    1   15      1.07      0.00
    6    1   16     -0.08      0.00
   -6   -2   23      1.16      0.00
   -6   -2   22     -2.14      0.00
   -6   -2   21     -0.62      0.00
   -6   -2   20     -1.57      0.00
   -6   -2   19      7.11      0.00
   -6   -2   18     -2.30      0.00
   -6   -2   17     -3.25      0.00
   -6   -2   16     -4.71      0.00
   -6   -2   15     -6.89      0.00
   -6   -2   14      2.43      0.00
   -6   -2   13     -6.22      0.00
   -6   -2   12      7.03      0.00
   -6   -2   11      4.59      0.00
   -6   -2   10     45.39      0.00
   -6   -2    9      1.37      0.00
   -6   -2    8      5.66      0.00
   -6   -2    7     -0.78      0.00
   -6   -2    6    -26.72      0.00
   -6   -2    5     30.16      0.00
   -6   -2    4     -7.35      0.00
   -6   -2    3      8.10      0.00
   -6   -2    2     18.01      0.00
   -6   -2    1    -12.83      0.00
    6    2    0    -20.77      0.00
    6    2    1    -18.34      0.00
    6    2    2     -2.97      0.00
    6    2    3      3.24      0.00
    6    2    4     14.37      0.00
    6    2    5     -1.28      0.00
    6    2    6      0.50      0.00
    6    2    7      2.57      0.00
    6    2    8     -2.60      0.00
    6    2    9     -1.49      0.00
    6    2   10      0.12      0.00
    6    2   11      3.54      0.00
    6    2   12      0.46      0.00
    6    2   13      2.20      0.00
    6    2   14     -2.44      0.00
    6    2   15     -0.64      0.00
   -6   -3   23      1.96      0.00
   -6   -3   22     -0.33      0.00
   -6   -3   21      1.46      0.00
   -6   -3   20     -1.62      0.00
   -6   -3   19      3.74      0.00
   -6   -3   18      6.18      0.00
   -6   -3   17     -0.21      0.00
   -6   -3   16     -4.05      0.00
   -6   -3   15     -0.19      0.00
   -6   -3   14     -5.10      0.00
   -6   -3   13     -2.72      0.00
   -6   -3   12    -11.33      0.00
   -6   -3   11    -20.76      0.00
   -6   -3   10     -3.86      0.00
   -6   -3    9     24.61      0.00
   -6   -3    8     -8.92      0.00
   -6   -3    7     22.36      0.00
   -6   -3    6    -13.77      0.00
   -6   -3    5     -4.47      0.00
   -6   -3    4     -3.30      0.00
   -6   -3    3      3.05      0.00
   -6   -3    2      5.85      0.00
   -6   -3    1     29.62      0.00
    6    3    0      0.84      0.00
    6    3    1     -5.51      0.00
    6    3    2     -5.55      0.00
    6    3    3      0.89      0.00
    6    3    4     -5.26      0.00
    6    3    5      4.21      0.00
    6    3    6     -6.93      0.00
    6    3    7      1.98      0.00
    6    3    8      1.38      0.00
    6    3    9     -1.43      0.00
    6    3   10     -4.24      0.00
    6    3   11      0.35      0.00
    6    3   12     -0.31      0.00
    6    3   13      0.80      0.00
    6    3   14     -0.87      0.00
   -6   -4   24     -2.69      0.00
   -6   -4   23      0.88      0.00
   -6   -4   22     -1.68      0.00
   -6   -4   21     -1.07      0.00
   -6   -4   20      1.15      0.00
   -6   -4   19     -5.25      0.00
   -6   -4   18      2.51      0.00
   -6   -4   17     -0.25      0.00
   -6   -4   16      0.28      0.00
   -6   -4   15     -5.33      0.00
   -6   -4   14      8.81      0.00
   -6   -4   13      2.82      0.00
   -6   -4   12      4.54      0.00
   -6   -4   11      3.99      0.00
   -6   -4   10    -22.19      0.00
   -6   -4    9     14.20      0.00
   -6   -4    8     -7.51      0.00
   -6   -4    7     -0.19      0.00
   -6   -4    6      6.57      0.00
   -6   -4    5     -5.23      0.00
   -6   -4    4      0.18      0.00
   -6   -4    3    -15.90      0.00
   -6   -4    2     -3.41      0.00
   -6   -4    1     -2.32      0.00
    6    4    0     11.26      0.00
    6    4    1      2.13      0.00
    6    4    2     -9.21      0.00
    6    4    3      5.66      0.00
    6    4    4     -0.15      0.00
    6    4    5      2.15      0.00
    6    4    6      0.71      0.00
    6    4    7     -0.36      0.00
    6    4    8     -1.48      0.00
    6    4    9      6.34      0.00
    6    4   10     -1.15      0.00
    6    4   11     -1.38      0.00
    6    4   12      1.07      0.00
    6    4   13     -2.28      0.00
   -6   -5   24     -1.84      0.00
   -6   -5   23     -0.66      0.00
   -6   -5   22     -0.03      0.00
   -6   -5   21      0.56      0.00
   -6   -5   20      2.38      0.00
   -6   -5   19      3.24      0.00
   -6   -5   18      0.98      0.00
   -6   -5   17      5.86      0.00
   -6   -5   16      1.94      0.00
   -6   -5   15     -2.16      0.00
   -6   -5   14     -3.66      0.00
   -6   -5   13      7.93      0.00
   -6   -5   12      0.18      0.00
   -6   -5   11      7.60      0.00
   -6   -5   10    -10.55      0.00
   -6   -5    9     -7.46      0.00
   -6   -5    8     -1.12      0.00
   -6   -5    7     -9.13      0.00
   -6   -5    6     -5.35      0.00
   -6   -5    5      8.12      0.00
   -6   -5    4     14.73      0.00
   -6   -5    3     11.95      0.00
   -6   -5    2      3.83      0.00
   -6   -5    1      3.15      0.00
    6    5    0      0.60      0.00
    6    5    1      7.70      0.00
    6    5    2     -5.01      0.00
    6    5    3     -6.41      0.00
    6    5    4     -1.68      0.00
    6    5    5     -3.84      0.00
    6    5    6     -5.37      0.00
    6    5    7     -3.28      0.00
    6    5    8     -4.54      0.00
    6    5    9     -1.01      0.00
    6    5   10      4.99      0.00
    6    5   11     -0.37      0.00
    6    5   12      1.84      0.00
    6    5   13      0.14      0.00
   -6   -6   24     -0.02      0.00
   -6   -6   23     -3.16      0.00
   -6   -6   22      3.52      0.00
   -6   -6   21      1.28      0.00
   -6   -6   20     -0.10      0.00
   -6   -6   19     -3.00      0.00
   -6   -6   18     -7.00      0.00
   -6   -6   17     -3.33      0.00
   -6   -6   16      2.43      0.00
   -6   -6   15      2.20      0.00
   -6   -6   14     -3.26      0.00
   -6   -6   13      2.87      0.00
   -6   -6   12      6.28      0.00
   -6   -6   11      0.89      0.00
   -6   -6   10      5.24      0.00
   -6   -6    9     -7.74      0.00
   -6   -6    8     13.54      0.00
   -6   -6    7      3.11      0.00
   -6   -6    6      4.00      0.00
   -6   -6    5    -14.72      0.00
   -6   -6    4     -3.66      0.00
   -6   -6    3     -7.66      0.00
   -6   -6    2     -4.87      0.00
   -6   -6    1      1.40      0.00
    6    6    0     -0.29      0.00
    6    6    1      2.95      0.00
    6    6    2      3.73      0.00
    6    6    3     -3.97      0.00
    6    6    4     -2.26      0.00
    6    6    5      4.05      0.00
    6    6    6     -0.60      0.00
    6    6    7     -0.51      0.00
    6    6    8     -0.27      0.00
    6    6    9     -4.57      0.00
    6    6   10     -0.28      0.00
    6    6   11      0.17      0.00
    6    6   12     -1.33      0.00
   -6   -7   24      1.53      0.00
   -6   -7   23     -0.15      0.00
   -6   -7   22     -0.60      0.00
   -6   -7   21      4.67      0.00
   -6   -7   20      6.07      0.00
   -6   -7   19      2.97      0.00
   -6   -7   18     -0.43      0.00
   -6   -7   17     -7.93      0.00
   -6   -7   16     -2.67      0.00
   -6   -7   15     -2.06      0.00
   -6   -7   14     -1.96      0.00
   -6   -7   13     -6.77      0.00
   -6   -7   12      4.52      0.00
   -6   -7   11      1.52      0.00
   -6   -7   10      1.48      0.00
   -6   -7    9    -10.68      0.00
   -6   -7    8     -3.84      0.00
   -6   -7    7     -5.45      0.00
   -6   -7    6     11.28      0.00
   -6   -7    5      7.00      0.00
   -6   -7    4      8.01      0.00
   -6   -7    3     13.75      0.00
   -6   -7    2      1.71      0.00
   -6   -7    1     -2.52      0.00
    6    7    0      5.10      0.00
    6    7    1      0.99      0.00
    6    7    2      3.72      0.00
    6    7    3     -0.25      0.00
    6    7    4     -4.65      0.00
    6    7    5     -5.18      0.00
    6    7    6      1.51      0.00
    6    7    7     -4.10      0.00
    6    7    8     -0.38      0.00
    6    7    9     -0.58      0.00
    6    7   10     -1.56      0.00
    6    7   11      0.57      0.00
   -6   -8   24      1.43      0.00
   -6   -8   23      0.96      0.00
   -6   -8   22     -1.72      0.00
   -6   -8   21     -0.92      0.00
   -6   -8   20      1.24      0.00
   -6   -8   19      5.98      0.00
   -6   -8   18      1.08      0.00
   -6   -8   17     -0.38      0.00
   -6   -8   16     -3.15      0.00
   -6   -8   15     -2.90      0.00
   -6   -8   14     -1.60      0.00
   -6   -8   13     -7.15      0.00
   -6   -8   12     -5.57      0.00
   -6   -8   11      3.76      0.00
   -6   -8   10      9.64      0.00
   -6   -8    9      2.76      0.00
   -6   -8    8      1.58      0.00
   -6   -8    7      0.17      0.00
   -6   -8    6     -7.75      0.00
   -6   -8    5      0.48      0.00
   -6   -8    4     -1.47      0.00
   -6   -8    3      0.91      0.00
   -6   -8    2      7.69      0.00
   -6   -8    1     -5.93      0.00
    6    8    0     -3.76      0.00
    6    8    1     -1.88      0.00
    6    8    2      4.58      0.00
    6    8    3     -0.23      0.00
    6    8    4      3.46      0.00
    6    8    5     -3.99      0.00
    6    8    6      1.04      0.00
    6    8    7      1.58      0.00
    6    8    8     -2.20      0.00
    6    8    9     -0.57      0.00
    6    8   10     -2.29      0.00
   -6   -9   24      0.22      0.00
   -6   -9   23      3.66      0.00
   -6   -9   22      3.30      0.00
   -6   -9   21      0.14      0.00
   -6   -9   20      1.60      0.00
   -6   -9   19     -2.87      0.00
   -6   -9   18      3.45      0.00
   -6   -9   17     -2.92      0.00
   -6   -9   16      0.01      0.00
   -6   -9   15      2.86      0.00
   -6   -9   14     -1.27      0.00
   -6   -9   13     -4.25      0.00
   -6   -9   12    -11.43      0.00
   -6   -9   11    -11.20      0.00
   -6   -9   10      1.30      0.00
   -6   -9    9      4.29      0.00
   -6   -9    8      0.07      0.00
   -6   -9    7      6.32      0.00
   -6   -9    6     -1.10      0.00
   -6   -9    5      1.14      0.00
   -6   -9    4     -2.05      0.00
   -6   -9    3      1.31      0.00
   -6   -9    2      4.75      0.00
   -6   -9    1      5.20      0.00
    6    9    0     -1.09      0.00
    6    9    1     -7.86      0.00
    6    9    2      0.43      0.00
    6    9    3     -3.83      0.00
    6    9    4     -0.85      0.00
    6    9    5     -0.05      0.00
    6    9    6     -1.21      0.00
    6    9    7      1.53      0.00
    6    9    8     -0.05      0.00
    6    9    9     -2.81      0.00
   -6  -10   24     -2.11      0.00
   -6  -10   23      0.69      0.00
   -6  -10   22     -1.34      0.00
   -6  -10   21      1.61      0.00
   -6  -10   20     -2.77      0.00
   -6  -10   19      1.24      0.00
   -6  -10   18     -2.53      0.00
   -6  -10   17     -1.23      0.00
   -6  -10   16     -4.41      0.00
   -6  -10   15      0.69      0.00
   -6  -10   14      6.72      0.00
   -6  -10   13      4.30      0.00
   -6  -10   12      2.06      0.00
   -6  -10   11     -4.37      0.00
   -6  -10   10     -5.42      0.00
   -6  -10    9      2.99      0.00
   -6  -10    8     -2.68      0.00
   -6  -10    7     -3.08      0.00
   -6  -10    6      3.26      0.00
   -6  -10    5     -5.22      0.00
   -6  -10    4      3.45      0.00
   -6  -10    3     -4.35      0.00
   -6  -10    2      3.61      0.00
   -6  -10    1      1.18      0.00
    6   10    0      6.01      0.00
    6   10    1      0.83      0.00
    6   10    2     -3.20      0.00
    6   10    3      3.96      0.00
    6   10    4     -3.35      0.00
    6   10    5     -0.05      0.00
    6   10    6     -0.36      0.00
    6   10    7      0.11      0.00
    6   10    8      1.92      0.00
   -6  -11   24      1.11      0.00
   -6  -11   23     -1.07      0.00
   -6  -11   22      2.24      0.00
   -6  -11   21     -0.75      0.00
   -6  -11   20      2.08      0.00
   -6  -11   19     -0.37      0.00
   -6  -11   18     -0.22      0.00
   -6  -11   17      1.99      0.00
   -6  -11   16     -5.33      0.00
   -6  -11   15     -1.59      0.00
   -6  -11   14     -1.20      0.00
   -6  -11   13      8.06      0.00
   -6  -11   12      1.66      0.00
   -6  -11   11      3.17      0.00
   -6  -11   10     -5.61      0.00
   -6  -11    9      0.95      0.00
   -6  -11    8      0.63      0.00
   -6  -11    7      2.78      0.00
   -6  -11    6     -0.37      0.00
   -6  -11    5      4.51      0.00
   -6  -11    4     -1.35      0.00
   -6  -11    3     -1.71      0.00
   -6  -11    2     -1.47      0.00
   -6  -11    1     -0.73      0.00
    6   11    0     -0.86      0.00
    6   11    1      3.93      0.00
    6   11    2     -3.33      0.00
    6   11    3      1.96      0.00
    6   11    4      0.66      0.00
    6   11    5     -0.41      0.00
    6   11    6     -1.88      0.00
    6   11    7     -0.33      0.00
   -6  -12   24      0.93      0.00
   -6  -12   23     -0.60      0.00
   -6  -12   22     -1.17      0.00
   -6  -12   21     -0.70      0.00
   -6  -12   20     -1.54      0.00
   -6  -12   19     -1.21      0.00
   -6  -12   18     -0.42      0.00
   -6  -12   17      0.20      0.00
   -6  -12   16      1.56      0.00
   -6  -12   15     -5.17      0.00
   -6  -12   14     -1.62      0.00
   -6  -12   13      1.40      0.00
   -6  -12   12      7.23      0.00
   -6  -12   11      4.24      0.00
   -6  -12   10      4.17      0.00
   -6  -12    9     -2.64      0.00
   -6  -12    8      0.75      0.00
   -6  -12    7     -4.94      0.00
   -6  -12    6     -1.45      0.00
   -6  -12    5     -2.72      0.00
   -6  -12    4      1.91      0.00
   -6  -12    3      2.17      0.00
   -6  -12    2     -4.90      0.00
   -6  -12    1      4.34      0.00
    6   12    0     -6.13      0.00
    6   12    1      2.63      0.00
    6   12    2      0.49      0.00
    6   12    3     -1.35      0.00
    6   12    4      3.39      0.00
    6   12    5      1.69      0.00
    6   12    6     -0.52      0.00
   -6  -13   23      0.89      0.00
   -6  -13   22      0.63      0.00
   -6  -13   21      0.45      0.00
   -6  -13   20     -1.40      0.00
   -6  -13   19     -0.51      0.00
   -6  -13   18     -3.47      0.00
   -6  -13   17      2.88      0.00
   -6  -13   16      0.22      0.00
   -6  -13   15      2.56      0.00
   -6  -13   14     -4.17      0.00
   -6  -13   13     -3.77      0.00
   -6  -13   12      1.07      0.00
   -6  -13   11      1.56      0.00
   -6  -13   10      2.61      0.00
   -6  -13    9      2.17      0.00
   -6  -13    8      1.79      0.00
   -6  -13    7      1.81      0.00
   -6  -13    6     -1.09      0.00
   -6  -13    5     -0.36      0.00
   -6  -13    4     -3.82      0.00
   -6  -13    3      4.57      0.00
   -6  -13    2     -3.58      0.00
   -6  -13    1      0.41      0.00
    6   13    0     -0.22      0.00
    6   13    1     -2.08      0.00
    6   13    2     -0.45      0.00
    6   13    3     -0.61      0.00
    6   13    4     -1.72      0.00
    6   13    5      2.63      0.00
   -6  -14   22      1.52      0.00
   -6  -14   21      0.94      0.00
   -6  -14   20      1.64      0.00
   -6  -14   19     -1.98      0.00
   -6  -14   18     -0.75      0.00
   -6  -14   17     -2.39      0.00
   -6  -14   16      4.63      0.00
   -6  -14   15      2.20      0.00
   -6  -14   14      3.36      0.00
   -6  -14   13     -2.07      0.00
   -6  -14   12     -3.09      0.00
   -6  -14   11     -0.99      0.00
   -6  -14   10     -0.62      0.00
   -6  -14    9     -0.34      0.00
   -6  -14    8      1.29      0.00
   -6  -14    7      0.89      0.00
   -6  -14    6     -0.48      0.00
   -6  -14    5      1.48      0.00
   -6  -14    4     -3.34      0.00
   -6  -14    3      1.06      0.00
   -6  -14    2      1.83      0.00
   -6  -14    1     -1.19      0.00
    6   14    0      2.23      0.00
    6   14    1     -0.78      0.00
    6   14    2      0.15      0.00
    6   14    3     -0.12      0.00
    6   14    4     -1.69      0.00
   -6  -15   21     -0.36      0.00
   -6  -15   20      0.37      0.00
   -6  -15   19      1.15      0.00
   -6  -15   18     -0.28      0.00
   -6  -15   17     -3.92      0.00
   -6  -15   16      0.80      0.00
   -6  -15   15     -1.07      0.00
   -6  -15   14      3.01      0.00
   -6  -15   13     -0.30      0.00
   -6  -15   12     -0.55      0.00
   -6  -15   11     -0.35      0.00
   -6  -15   10      0.33      0.00
   -6  -15    9     -0.41      0.00
   -6  -15    8     -1.56      0.00
   -6  -15    7      1.96      0.00
   -6  -15    6     -0.10      0.00
   -6  -15    5      2.56      0.00
   -6  -15    4      1.28      0.00
   -6  -15    3     -1.65      0.00
   -6  -15    2      2.13      0.00
   -6  -15    1     -1.35      0.00
    6   15    0     -0.48      0.00
    6   15    1      0.05      0.00
    6   15    2     -0.25      0.00
   -6  -16   20      0.74      0.00
   -6  -16   19     -0.30      0.00
   -6  -16   18      0.63      0.00
   -6  -16   17     -0.41      0.00
   -6  -16   16     -1.12      0.00
   -6  -16   15      1.60      0.00
   -6  -16   14      0.54      0.00
   -6  -16   13      1.37      0.00
   -6  -16   12     -0.41      0.00
   -6  -16   11     -1.67      0.00
   -6  -16   10      0.87      0.00
   -6  -16    9      0.82      0.00
   -6  -16    7     -1.15      0.00
   -6  -16    6      1.00      0.00
   -6  -16    5     -1.48      0.00
   -6  -16    4      2.96      0.00
   -6  -16    3     -1.01      0.00
   -6  -16    2      1.83      0.00
   -6  -16    1      0.31      0.00
    6   16    0      0.43      0.00
   -6  -17   19     -0.91      0.00
   -6  -17   18      1.38      0.00
   -6  -17   17     -0.77      0.00
   -6  -17   16     -1.39      0.00
   -6  -17   15     -1.01      0.00
   -6  -17   14      0.78      0.00
   -6  -17   13     -0.27      0.00
   -6  -17   12      0.69      0.00
   -6  -17   11     -1.10      0.00
   -6  -17   10     -1.01      0.00
   -6  -17    9      0.01      0.00
   -6  -17    8      0.03      0.00
   -6  -17    7     -2.27      0.00
   -6  -17    6     -0.84      0.00
   -6  -17    5      0.06      0.00
   -6  -17    4      0.09      0.00
   -6  -17    3      0.52      0.00
   -6  -17    2      0.67      0.00
   -6  -18   16     -0.81      0.00
   -6  -18   15     -1.19      0.00
   -6  -18   14     -0.84      0.00
   -6  -18   13      0.49      0.00
   -6  -18   12      1.02      0.00
   -6  -18   11     -0.47      0.00
   -6  -18   10      0.05      0.00
   -6  -18    9     -0.68      0.00
   -6  -18    8      0.68      0.00
   -6  -18    7     -0.53      0.00
   -6  -18    6     -0.51      0.00
   -7   18    8      1.11      0.00
   -7   18    7     -0.48      0.00
   -7   18    6     -1.02      0.00
   -7   18    5     -0.18      0.00
   -7   18    4      1.52      0.00
   -7   18    3      0.81      0.00
   -7   18    2     -0.57      0.00
   -7   17   10     -0.17      0.00
   -7   17    9     -0.78      0.00
   -7   17    8     -0.94      0.00
   -7   17    7      2.03      0.00
   -7   17    6     -1.24      0.00
   -7   17    5     -0.89      0.00
   -7   17    4      1.12      0.00
   -7   17    3      0.19      0.00
   -7   17    2      1.22      0.00
   -7   16   12      0.39      0.00
   -7   16   11      0.52      0.00
   -7   16   10      0.51      0.00
   -7   16    9     -1.10      0.00
   -7   16    8      0.27      0.00
   -7   16    7     -1.15      0.00
   -7   16    6      5.59      0.00
   -7   16    5      0.53      0.00
   -7   16    4      1.26      0.00
   -7   16    3      2.15      0.00
   -7   16    2     -2.23      0.00
    7  -16   13     -2.88      0.00
    7  -16   14     -0.69      0.00
   -7   15   13     -0.58      0.00
   -7   15   12     -2.75      0.00
   -7   15   11      1.29      0.00
   -7   15   10      1.01      0.00
   -7   15    9     -0.08      0.00
   -7   15    8     -2.31      0.00
   -7   15    7     -2.01      0.00
   -7   15    6     -2.42      0.00
   -7   15    5      1.12      0.00
   -7   15    4      0.17      0.00
   -7   15    3      3.42      0.00
   -7   15    2      7.08      0.00
   -7   15    1      2.32      0.00
    7  -15   11      2.23      0.00
    7  -15   12      1.11      0.00
    7  -15   13      0.26      0.00
    7  -15   14     -1.31      0.00
    7  -15   15      0.35      0.00
    7  -15   16     -1.08      0.00
    7  -15   17     -1.19      0.00
   -7   14   14      0.36      0.00
   -7   14   13      0.45      0.00
   -7   14   12     -0.96      0.00
   -7   14   11     -1.54      0.00
   -7   14   10      1.50      0.00
   -7   14    9      0.26      0.00
   -7   14    8      1.47      0.00
   -7   14    7      2.74      0.00
   -7   14    6     -1.43      0.00
   -7   14    5      0.04      0.00
   -7   14    4     -6.54      0.00
   -7   14    3     -2.21      0.00
   -7   14    2     -0.87      0.00
   -7   14    1      7.08      0.00
    7  -14   10      0.61      0.00
    7  -14   11     -1.12      0.00
    7  -14   12      1.16      0.00
    7  -14   13     -0.68      0.00
    7  -14   14      0.19      0.00
    7  -14   15     -1.02      0.00
    7  -14   16      0.37      0.00
    7  -14   17     -2.71      0.00
    7  -14   18     -1.51      0.00
   -7   13   15     -0.49      0.00
   -7   13   14      0.91      0.00
   -7   13   13      0.58      0.00
   -7   13   12     -0.18      0.00
   -7   13   11     -1.11      0.00
   -7   13   10     -5.97      0.00
   -7   13    9      1.63      0.00
   -7   13    8     -5.71      0.00
   -7   13    7      1.07      0.00
   -7   13    6      4.73      0.00
   -7   13    5      2.28      0.00
   -7   13    4      5.32      0.00
   -7   13    3     -4.76      0.00
   -7   13    2     -2.20      0.00
   -7   13    1     -0.15      0.00
    7  -13    9     -2.19      0.00
    7  -13   10      0.13      0.00
    7  -13   11      1.09      0.00
    7  -13   12     -2.34      0.00
    7  -13   14      0.88      0.00
    7  -13   15      2.97      0.00
    7  -13   16      0.41      0.00
    7  -13   17      1.46      0.00
    7  -13   18     -1.25      0.00
    7  -13   19      0.12      0.00
   -7   12   16     -1.44      0.00
   -7   12   15     -2.58      0.00
   -7   12   14     -1.91      0.00
   -7   12   13      0.98      0.00
   -7   12   12      1.62      0.00
   -7   12   11      3.99      0.00
   -7   12   10     -0.38      0.00
   -7   12    9     -1.25      0.00
   -7   12    8      0.89      0.00
   -7   12    7     -5.38      0.00
   -7   12    6     -0.87      0.00
   -7   12    5      1.94      0.00
   -7   12    4     -1.45      0.00
   -7   12    3     -0.97      0.00
   -7   12    2     -5.65      0.00
   -7   12    1    -10.19      0.00
    7  -12    7     -5.68      0.00
    7  -12    8     -0.36      0.00
    7  -12    9     -0.10      0.00
    7  -12   10      2.24      0.00
    7  -12   11     -1.03      0.00
    7  -12   12      0.91      0.00
    7  -12   13     -1.34      0.00
    7  -12   14     -0.56      0.00
    7  -12   15     -0.24      0.00
    7  -12   16      2.19      0.00
    7  -12   17      2.20      0.00
    7  -12   18      1.69      0.00
    7  -12   19      1.04      0.00
   -7   11   17     -0.25      0.00
   -7   11   16      1.64      0.00
   -7   11   15      0.23      0.00
   -7   11   14     -4.52      0.00
   -7   11   13     -1.79      0.00
   -7   11   12     -3.48      0.00
   -7   11   11     -1.71      0.00
   -7   11   10      2.33      0.00
   -7   11    9     -7.11      0.00
   -7   11    8      2.51      0.00
   -7   11    7      0.66      0.00
   -7   11    6      1.79      0.00
   -7   11    5      2.88      0.00
   -7   11    4     11.41      0.00
   -7   11    3      4.92      0.00
   -7   11    2      0.74      0.00
   -7   11    1     -0.55      0.00
    7  -11    5     -5.97      0.00
    7  -11    6     -0.92      0.00
    7  -11    7     -7.39      0.00
    7  -11    8     -5.53      0.00
    7  -11    9     -0.30      0.00
    7  -11   10      0.40      0.00
    7  -11   11      6.47      0.00
    7  -11   12      2.28      0.00
    7  -11   13      4.26      0.00
    7  -11   14      1.29      0.00
    7  -11   15     -0.92      0.00
    7  -11   16     -0.60      0.00
    7  -11   17      0.36      0.00
    7  -11   18      0.81      0.00
    7  -11   19      0.56      0.00
   -7   10   18      1.03      0.00
   -7   10   17      0.74      0.00
   -7   10   16     -0.82      0.00
   -7   10   15      3.05      0.00
   -7   10   14      0.23      0.00
   -7   10   13     -3.46      0.00
   -7   10   12      2.40      0.00
   -7   10   11     -3.56      0.00
   -7   10   10      3.40      0.00
   -7   10    9     -1.78      0.00
   -7   10    8     -1.56      0.00
   -7   10    7     -1.56      0.00
   -7   10    6     -2.47      0.00
   -7   10    5     -7.65      0.00
   -7   10    4      1.05      0.00
   -7   10    3      6.55      0.00
   -7   10    2      4.66      0.00
   -7   10    1     -0.60      0.00
   -7   10    0     -8.06      0.00
    7  -10    3      0.27      0.00
    7  -10    4     -0.48      0.00
    7  -10    5      1.96      0.00
    7  -10    6      5.37      0.00
    7  -10    7     -0.65      0.00
    7  -10    8     -4.64      0.00
    7  -10    9     -6.06      0.00
    7  -10   10     -1.42      0.00
    7  -10   11     -0.61      0.00
    7  -10   12      1.68      0.00
    7  -10   13      1.06      0.00
    7  -10   14      2.72      0.00
    7  -10   15      0.49      0.00
    7  -10   16     -2.78      0.00
    7  -10   17      0.19      0.00
    7  -10   18     -0.35      0.00
    7  -10   19      1.39      0.00
   -7    9   19      0.28      0.00
   -7    9   18      0.69      0.00
   -7    9   17      0.67      0.00
   -7    9   16     -1.06      0.00
   -7    9   15     -0.45      0.00
   -7    9   14      5.25      0.00
   -7    9   13     -6.84      0.00
   -7    9   12     -2.95      0.00
   -7    9   11     -7.04      0.00
   -7    9   10     -4.58      0.00
   -7    9    9      0.31      0.00
   -7    9    8      0.72      0.00
   -7    9    7      5.90      0.00
   -7    9    6      6.93      0.00
   -7    9    5      2.72      0.00
   -7    9    4     -5.92      0.00
   -7    9    3     13.54      0.00
   -7    9    2     15.65      0.00
   -7    9    1      8.51      0.00
   -7    9    0      6.13      0.00
    7   -9    1     -7.03      0.00
    7   -9    2      2.35      0.00
    7   -9    3     -4.26      0.00
    7   -9    4     -7.02      0.00
    7   -9    5    -15.66      0.00
    7   -9    6     -0.59      0.00
    7   -9    7     -0.65      0.00
    7   -9    8      0.38      0.00
    7   -9    9      1.91      0.00
    7   -9   10      1.68      0.00
    7   -9   11      3.14      0.00
    7   -9   12      7.06      0.00
    7   -9   13      2.14      0.00
    7   -9   14      4.22      0.00
    7   -9   15      2.52      0.00
    7   -9   16      0.12      0.00
    7   -9   17     -2.99      0.00
    7   -9   18     -1.82      0.00
    7   -9   19     -1.53      0.00
   -7    8   19      2.67      0.00
   -7    8   18      0.92      0.00
   -7    8   17     -1.94      0.00
   -7    8   16      0.02      0.00
   -7    8   15     -2.60      0.00
   -7    8   14      8.16      0.00
   -7    8   13      3.80      0.00
   -7    8   11     -0.57      0.00
   -7    8   10     -0.82      0.00
   -7    8    9     -5.14      0.00
   -7    8    8      0.68      0.00
   -7    8    7      0.30      0.00
   -7    8    6      5.79      0.00
   -7    8    5      6.13      0.00
   -7    8    4     -0.87      0.00
   -7    8    3    -10.79      0.00
   -7    8    2      3.91      0.00
   -7    8    1      3.31      0.00
   -7    8    0     -6.15      0.00
    7   -8    1     -1.19      0.00
    7   -8    2      5.34      0.00
    7   -8    3      8.41      0.00
    7   -8    4     10.09      0.00
    7   -8    5     -2.80      0.00
    7   -8    6    -10.65      0.00
    7   -8    7      4.28      0.00
    7   -8    8     -0.73      0.00
    7   -8    9     -0.12      0.00
    7   -8   10      2.14      0.00
    7   -8   11     -1.48      0.00
    7   -8   12     -1.10      0.00
    7   -8   13      0.29      0.00
    7   -8   14      0.59      0.00
    7   -8   15      2.06      0.00
    7   -8   16      3.57      0.00
    7   -8   17     -0.67      0.00
    7   -8   18      0.34      0.00
    7   -8   19     -0.03      0.00
   -7    7   20     -2.25      0.00
   -7    7   19     -0.29      0.00
   -7    7   18      2.26      0.00
   -7    7   17     -3.28      0.00
   -7    7   16     -2.89      0.00
   -7    7   15     -4.47      0.00
   -7    7   14     -3.59      0.00
   -7    7   13      3.09      0.00
   -7    7   12     -3.78      0.00
   -7    7   11     -2.37      0.00
   -7    7   10     -1.06      0.00
   -7    7    9      8.75      0.00
   -7    7    8     -3.74      0.00
   -7    7    7      0.79      0.00
   -7    7    6      5.36      0.00
   -7    7    5      0.73      0.00
   -7    7    4     13.99      0.00
   -7    7    3      1.79      0.00
   -7    7    2      4.45      0.00
   -7    7    1     11.58      0.00
   -7    7    0      6.23      0.00
    7   -7    1    -15.58      0.00
    7   -7    2     -6.10      0.00
    7   -7    3     -3.41      0.00
    7   -7    4     -4.21      0.00
    7   -7    5      3.21      0.00
    7   -7    6     -9.92      0.00
    7   -7    7     -5.37      0.00
    7   -7    8      2.79      0.00
    7   -7    9     -0.70      0.00
    7   -7   10      3.66      0.00
    7   -7   11      3.68      0.00
    7   -7   12      4.30      0.00
    7   -7   13      0.53      0.00
    7   -7   14      1.17      0.00
    7   -7   15     -0.22      0.00
    7   -7   16      0.41      0.00
    7   -7   17      1.97      0.00
    7   -7   18      0.09      0.00
    7   -7   19      1.07      0.00
   -7    6   20      1.11      0.00
   -7    6   19     -0.97      0.00
   -7    6   18      1.13      0.00
   -7    6   17      4.45      0.00
   -7    6   16     -3.44      0.00
   -7    6   15     -1.16      0.00
   -7    6   14     -3.61      0.00
   -7    6   13      1.83      0.00
   -7    6   12     -0.19      0.00
   -7    6   11     -0.89      0.00
   -7    6   10     -3.54      0.00
   -7    6    9      1.49      0.00
   -7    6    8      0.72      0.00
   -7    6    7     -0.64      0.00
   -7    6    6     -4.10      0.00
   -7    6    5     12.25      0.00
   -7    6    4    -13.52      0.00
   -7    6    3      1.46      0.00
   -7    6    2    -16.17      0.00
   -7    6    1     -9.95      0.00
   -7    6    0      9.71      0.00
    7   -6    1      5.02      0.00
    7   -6    2     -7.25      0.00
    7   -6    3     15.34      0.00
    7   -6    4      2.67      0.00
    7   -6    5     10.99      0.00
    7   -6    6      1.11      0.00
    7   -6    7     -3.95      0.00
    7   -6    8      1.93      0.00
    7   -6    9      1.59      0.00
    7   -6   10      1.88      0.00
    7   -6   11     -2.62      0.00
    7   -6   12      3.69      0.00
    7   -6   13     -1.49      0.00
    7   -6   14      0.03      0.00
    7   -6   15     -0.15      0.00
    7   -6   16     -0.66      0.00
    7   -6   17      0.99      0.00
    7   -6   18      0.71      0.00
    7   -6   19      0.68      0.00
   -7    5   21      1.39      0.00
   -7    5   20      0.36      0.00
   -7    5   19      0.95      0.00
   -7    5   18     -0.28      0.00
   -7    5   17      4.37      0.00
   -7    5   16     -0.65      0.00
   -7    5   15     -3.00      0.00
   -7    5   14     -7.77      0.00
   -7    5   13      1.68      0.00
   -7    5   12     -1.23      0.00
   -7    5   11      4.78      0.00
   -7    5   10     -0.51      0.00
   -7    5    9     -5.11      0.00
   -7    5    8      4.59      0.00
   -7    5    7     -1.72      0.00
   -7    5    6      2.99      0.00
   -7    5    5     13.85      0.00
   -7    5    4     20.87      0.00
   -7    5    3      6.28      0.00
   -7    5    2     -1.99      0.00
   -7    5    1     -5.68      0.00
   -7    5    0    -11.64      0.00
    7   -5    1     16.55      0.00
    7   -5    2    -11.56      0.00
    7   -5    3     -5.90      0.00
    7   -5    4      6.05      0.00
    7   -5    5     -0.78      0.00
    7   -5    6      6.48      0.00
    7   -5    7     -4.27      0.00
    7   -5    8     -2.15      0.00
    7   -5    9      1.57      0.00
    7   -5   10      2.75      0.00
    7   -5   11      3.47      0.00
    7   -5   12     -2.60      0.00
    7   -5   13      4.71      0.00
    7   -5   14     -4.17      0.00
    7   -5   15      0.56      0.00
    7   -5   16      0.06      0.00
    7   -5   17     -0.44      0.00
    7   -5   18      2.88      0.00
   -7    4   21     -1.21      0.00
   -7    4   20     -4.35      0.00
   -7    4   19     -1.36      0.00
   -7    4   18     -1.63      0.00
   -7    4   17      6.44      0.00
   -7    4   16      7.57      0.00
   -7    4   15      5.69      0.00
   -7    4   14     -7.09      0.00
   -7    4   13     -4.85      0.00
   -7    4   12     -1.92      0.00
   -7    4   11     -0.55      0.00
   -7    4   10      2.04      0.00
   -7    4    9      6.37      0.00
   -7    4    8     -8.33      0.00
   -7    4    7      9.50      0.00
   -7    4    6    -18.35      0.00
   -7    4    5    -11.92      0.00
   -7    4    4      5.23      0.00
   -7    4    3     12.29      0.00
   -7    4    2      6.29      0.00
   -7    4    1      5.89      0.00
   -7    4    0     -9.12      0.00
    7   -4    1      2.68      0.00
    7   -4    2      7.05      0.00
    7   -4    3    -12.38      0.00
    7   -4    4     -4.48      0.00
    7   -4    5      4.47      0.00
    7   -4    6      6.24      0.00
    7   -4    7      1.60      0.00
    7   -4    8     -0.02      0.00
    7   -4    9     -2.37      0.00
    7   -4   11      6.31      0.00
    7   -4   12     -1.68      0.00
    7   -4   13      2.87      0.00
    7   -4   14     -1.00      0.00
    7   -4   15     -4.16      0.00
    7   -4   16     -2.19      0.00
    7   -4   17     -1.26      0.00
    7   -4   18     -0.79      0.00
   -7    3   22     -0.67      0.00
   -7    3   21      1.76      0.00
   -7    3   20      1.51      0.00
   -7    3   19     -3.18      0.00
   -7    3   18     -5.75      0.00
   -7    3   17     -4.82      0.00
   -7    3   16      0.99      0.00
   -7    3   15      6.44      0.00
   -7    3   14      7.02      0.00
   -7    3   13     -8.44      0.00
   -7    3   12     -2.48      0.00
   -7    3   11     -8.62      0.00
   -7    3   10     -6.71      0.00
   -7    3    9     -7.18      0.00
   -7    3    8      0.92      0.00
   -7    3    7     -1.31      0.00
   -7    3    6     12.42      0.00
   -7    3    5     -1.89      0.00
   -7    3    4    -18.18      0.00
   -7    3    3     15.48      0.00
   -7    3    2      1.97      0.00
   -7    3    1      0.96      0.00
   -7    3    0     10.63      0.00
    7   -3    1     -3.28      0.00
    7   -3    2     14.88      0.00
    7   -3    3     -0.80      0.00
    7   -3    4    -11.51      0.00
    7   -3    5     -9.76      0.00
    7   -3    6     -1.39      0.00
    7   -3    7      4.95      0.00
    7   -3    8     -6.00      0.00
    7   -3    9      9.44      0.00
    7   -3   10     -6.71      0.00
    7   -3   11      4.43      0.00
    7   -3   12      2.09      0.00
    7   -3   13     -0.61      0.00
    7   -3   14      4.06      0.00
    7   -3   15     -0.31      0.00
    7   -3   16     -0.39      0.00
    7   -3   17      0.27      0.00
   -7    2   22     -1.81      0.00
   -7    2   21     -2.28      0.00
   -7    2   20      1.40      0.00
   -7    2   19      3.06      0.00
   -7    2   18     -4.24      0.00
   -7    2   17     -8.87      0.00
   -7    2   16     -4.92      0.00
   -7    2   15     -0.39      0.00
   -7    2   14     16.45      0.00
   -7    2   13     11.10      0.00
   -7    2   12      3.04      0.00
   -7    2   11      5.55      0.00
   -7    2   10      1.13      0.00
   -7    2    9      3.65      0.00
   -7    2    8     -1.58      0.00
   -7    2    7     11.19      0.00
   -7    2    6     -1.35      0.00
   -7    2    5      7.36      0.00
   -7    2    4     -3.81      0.00
   -7    2    3    -18.57      0.00
   -7    2    2     19.37      0.00
   -7    2    1     -1.90      0.00
   -7    2    0      4.52      0.00
    7   -2    1     16.78      0.00
    7   -2    2     10.93      0.00
    7   -2    3     14.61      0.00
    7   -2    4     -2.37      0.00
    7   -2    5     -9.71      0.00
    7   -2    6     -9.34      0.00
    7   -2    7      7.54      0.00
    7   -2    8     -2.98      0.00
    7   -2    9      0.44      0.00
    7   -2   10      3.12      0.00
    7   -2   11     -6.33      0.00
    7   -2   12      2.08      0.00
    7   -2   13     -2.81      0.00
    7   -2   14     -1.15      0.00
    7   -2   15      2.90      0.00
    7   -2   16     -0.08      0.00
    7   -2   17      1.78      0.00
   -7    1   22     -0.54      0.00
   -7    1   21     -3.00      0.00
   -7    1   20     -0.80      0.00
   -7    1   19      1.67      0.00
   -7    1   18      7.07      0.00
   -7    1   17     -4.05      0.00
   -7    1   16     -5.02      0.00
   -7    1   15     -7.04      0.00
   -7    1   14     -3.92      0.00
   -7    1   13      4.94      0.00
   -7    1   12     -0.60      0.00
   -7    1   11     -1.57      0.00
   -7    1   10      0.88      0.00
   -7    1    9      1.91      0.00
   -7    1    8     -8.97      0.00
   -7    1    7     -4.21      0.00
   -7    1    6     14.09      0.00
   -7    1    5     -4.68      0.00
   -7    1    4     26.81      0.00
   -7    1    3     -7.66      0.00
   -7    1    2      6.66      0.00
   -7    1    1      4.52      0.00
   -7    1    0    -15.66      0.00
    7   -1    1    -17.69      0.00
    7   -1    2      5.02      0.00
    7   -1    3      6.73      0.00
    7   -1    4      3.36      0.00
    7   -1    5     -1.77      0.00
    7   -1    6    -16.15      0.00
    7   -1    7     -5.90      0.00
    7   -1    8      5.86      0.00
    7   -1    9     -6.63      0.00
    7   -1   10      9.44      0.00
    7   -1   11     -3.00      0.00
    7   -1   12      1.33      0.00
    7   -1   13     -2.07      0.00
    7   -1   14     -2.05      0.00
    7   -1   15     -1.81      0.00
    7   -1   16      0.62      0.00
   -7    0   23     -0.94      0.00
   -7    0   22     -0.18      0.00
   -7    0   21     -1.11      0.00
   -7    0   20     -2.25      0.00
   -7    0   19     -3.54      0.00
   -7    0   18      1.56      0.00
   -7    0   17     -0.26      0.00
   -7    0   16     -4.49      0.00
   -7    0   15     -3.22      0.00
   -7    0   14     -3.65      0.00
   -7    0   13      1.09      0.00
   -7    0   12     -0.13      0.00
   -7    0   11      5.43      0.00
   -7    0   10      5.38      0.00
   -7    0    9     14.25      0.00
   -7    0    8     13.84      0.00
   -7    0    7    -23.49      0.00
   -7    0    6     13.60      0.00
   -7    0    5    -14.39      0.00
   -7    0    4      0.98      0.00
   -7    0    3     -1.58      0.00
   -7    0    2    -13.08      0.00
   -7    0    1      3.67      0.00
    7    0    0      0.12      0.00
    7    0    1    -17.73      0.00
    7    0    2    -12.88      0.00
    7    0    3      7.58      0.00
    7    0    4      8.87      0.00
    7    0    5      8.89      0.00
    7    0    6      7.94      0.00
    7    0    7     -9.79      0.00
    7    0    8      5.77      0.00
    7    0    9     -0.90      0.00
    7    0   10     -1.56      0.00
    7    0   11      2.64      0.00
    7    0   12     -2.49      0.00
    7    0   13     -0.27      0.00
    7    0   14     -1.98      0.00
    7    0   15     -0.93      0.00
   -7   -1   23      0.28      0.00
   -7   -1   22      0.54      0.00
   -7   -1   21     -2.08      0.00
   -7   -1   20     -4.45      0.00
   -7   -1   19     -2.93      0.00
   -7   -1   18     -3.33      0.00
   -7   -1   17     10.04      0.00
   -7   -1   16      1.97      0.00
   -7   -1   15      2.67      0.00
   -7   -1   14     -1.93      0.00
   -7   -1   13      0.12      0.00
   -7   -1   12     -5.66      0.00
   -7   -1   11    -13.60      0.00
   -7   -1   10      2.58      0.00
   -7   -1    9     -9.49      0.00
   -7   -1    8     37.85      0.00
   -7   -1    7     -2.38      0.00
   -7   -1    6     -8.88      0.00
   -7   -1    5     10.38      0.00
   -7   -1    4    -20.80      0.00
   -7   -1    3      6.79      0.00
   -7   -1    2      4.72      0.00
   -7   -1    1      2.23      0.00
    7    1    0     21.11      0.00
    7    1    1     -4.09      0.00
    7    1    2    -19.14      0.00
    7    1    3    -21.45      0.00
    7    1    4      0.87      0.00
    7    1    5     -5.86      0.00
    7    1    6     11.27      0.00
    7    1    7      0.89      0.00
    7    1    8      2.65      0.00
    7    1    9      2.20      0.00
    7    1   10      0.63      0.00
    7    1   11     -1.63      0.00
    7    1   12      1.08      0.00
    7    1   13      0.66      0.00
    7    1   14      1.00      0.00
    7    1   15     -0.40      0.00
   -7   -2   23     -2.52      0.00
   -7   -2   22     -1.71      0.00
   -7   -2   21      1.33      0.00
   -7   -2   20     -4.83      0.00
   -7   -2   19     -4.14      0.00
   -7   -2   18     -4.78      0.00
   -7   -2   17     -1.11      0.00
   -7   -2   16      7.41      0.00
   -7   -2   15      2.47      0.00
   -7   -2   14      2.73      0.00
   -7   -2   13      7.50      0.00
   -7   -2   12     15.60      0.00
   -7   -2   11     -4.74      0.00
   -7   -2   10     -0.97      0.00
   -7   -2    9    -16.50      0.00
   -7   -2    8    -13.50      0.00
   -7   -2    7     22.38      0.00
   -7   -2    6    -13.76      0.00
   -7   -2    5      8.12      0.00
   -7   -2    4      4.49      0.00
   -7   -2    3    -10.23      0.00
   -7   -2    2    -10.19      0.00
   -7   -2    1     -0.06      0.00
    7    2    0     -3.08      0.00
    7    2    1     15.97      0.00
    7    2    2      0.70      0.00
    7    2    3     -9.37      0.00
    7    2    4     -5.62      0.00
    7    2    5      2.07      0.00
    7    2    6     -5.10      0.00
    7    2    7      6.68      0.00
    7    2    8     -0.74      0.00
    7    2    9      5.54      0.00
    7    2   10      1.74      0.00
    7    2   11      1.06      0.00
    7    2   12     -3.15      0.00
    7    2   13      0.26      0.00
    7    2   14      1.10      0.00
   -7   -3   23      0.83      0.00
   -7   -3   22     -2.96      0.00
   -7   -3   21      1.44      0.00
   -7   -3   20     -1.11      0.00
   -7   -3   19     -2.82      0.00
   -7   -3   18     -2.96      0.00
   -7   -3   17     -4.64      0.00
   -7   -3   16     -1.58      0.00
   -7   -3   15     -2.90      0.00
   -7   -3   14     -2.62      0.00
   -7   -3   13    -15.23      0.00
   -7   -3   12      8.64      0.00
   -7   -3   11      5.89      0.00
   -7   -3   10     -1.21      0.00
   -7   -3    9     16.77      0.00
   -7   -3    8    -16.50      0.00
   -7   -3    7     15.56      0.00
   -7   -3    6      2.20      0.00
   -7   -3    5     -4.02      0.00
   -7   -3    4      8.63      0.00
   -7   -3    3      4.53      0.00
   -7   -3    2      0.06      0.00
   -7   -3    1    -10.13      0.00
    7    3    0      1.80      0.00
    7    3    1     -1.62      0.00
    7    3    2      4.69      0.00
    7    3    3     -1.43      0.00
    7    3    4    -11.03      0.00
    7    3    5     -0.11      0.00
    7    3    6     -0.28      0.00
    7    3    7      0.56      0.00
    7    3    8      1.10      0.00
    7    3    9      4.18      0.00
    7    3   10      0.53      0.00
    7    3   11      4.52      0.00
    7    3   12      0.23      0.00
    7    3   13     -0.95      0.00
   -7   -4   24     -0.05      0.00
   -7   -4   23     -0.08      0.00
   -7   -4   22     -0.72      0.00
   -7   -4   21     -3.97      0.00
   -7   -4   20     -0.96      0.00
   -7   -4   19     -2.99      0.00
   -7   -4   18     -0.71      0.00
   -7   -4   17      0.84      0.00
   -7   -4   16      3.86      0.00
   -7   -4   15      5.27      0.00
   -7   -4   14      5.53      0.00
   -7   -4   13      1.02      0.00
   -7   -4   12     -6.23      0.00
   -7   -4   11     20.61      0.00
   -7   -4   10     -3.48      0.00
   -7   -4    9     10.84      0.00
   -7   -4    8     -5.85      0.00
   -7   -4    7     -6.84      0.00
   -7   -4    6     -7.48      0.00
   -7   -4    5    -10.34      0.00
   -7   -4    4    -18.92      0.00
   -7   -4    3      4.70      0.00
   -7   -4    2      1.82      0.00
   -7   -4    1      6.89      0.00
    7    4    0     -3.10      0.00
    7    4    1     10.50      0.00
    7    4    2      2.13      0.00
    7    4    3     10.85      0.00
    7    4    4      1.57      0.00
    7    4    5     -1.68      0.00
    7    4    6      0.53      0.00
    7    4    7      1.41      0.00
    7    4    8     -3.55      0.00
    7    4    9     -1.50      0.00
    7    4   10     -0.59      0.00
    7    4   11     -1.15      0.00
    7    4   12      4.35      0.00
   -7   -5   24      0.61      0.00
   -7   -5   23      0.06      0.00
   -7   -5   22      1.53      0.00
   -7   -5   21     -1.12      0.00
   -7   -5   20      2.86      0.00
   -7   -5   19      2.68      0.00
   -7   -5   18      0.03      0.00
   -7   -5   17     -4.97      0.00
   -7   -5   16     -3.91      0.00
   -7   -5   15     -3.06      0.00
   -7   -5   14     -1.02      0.00
   -7   -5   13      2.78      0.00
   -7   -5   12     -8.56      0.00
   -7   -5   11      5.81      0.00
   -7   -5   10     13.19      0.00
   -7   -5    9     -1.72      0.00
   -7   -5    8      9.63      0.00
   -7   -5    7     -6.39      0.00
   -7   -5    6     13.34      0.00
   -7   -5    5      3.85      0.00
   -7   -5    4      5.81      0.00
   -7   -5    3     -8.68      0.00
   -7   -5    2      1.25      0.00
   -7   -5    1     -2.66      0.00
    7    5    0     -7.63      0.00
    7    5    1     -2.11      0.00
    7    5    2     -1.18      0.00
    7    5    3     -0.64      0.00
    7    5    4     -0.22      0.00
    7    5    5      1.03      0.00
    7    5    6     -4.13      0.00
    7    5    7      3.80      0.00
    7    5    8      1.52      0.00
    7    5    9     -2.65      0.00
    7    5   10      0.98      0.00
    7    5   11     -1.86      0.00
    7    5   12      0.29      0.00
   -7   -6   24      2.64      0.00
   -7   -6   23      0.60      0.00
   -7   -6   22     -1.85      0.00
   -7   -6   21     -1.86      0.00
   -7   -6   20     -5.12      0.00
   -7   -6   19      3.13      0.00
   -7   -6   18      6.11      0.00
   -7   -6   17      4.06      0.00
   -7   -6   16     -0.99      0.00
   -7   -6   15     -0.81      0.00
   -7   -6   14     -3.69      0.00
   -7   -6   13     -0.22      0.00
   -7   -6   12     -5.32      0.00
   -7   -6   11     -9.02      0.00
   -7   -6   10      7.18      0.00
   -7   -6    9      6.13      0.00
   -7   -6    8      2.38      0.00
   -7   -6    7     -7.58      0.00
   -7   -6    6     -5.76      0.00
   -7   -6    5    -10.18      0.00
   -7   -6    4     -1.58      0.00
   -7   -6    3      2.26      0.00
   -7   -6    2     -0.02      0.00
   -7   -6    1      7.34      0.00
    7    6    0      3.08      0.00
    7    6    1     -4.71      0.00
    7    6    2      3.63      0.00
    7    6    3      3.01      0.00
    7    6    4      2.03      0.00
    7    6    5      2.33      0.00
    7    6    6      0.74      0.00
    7    6    7     -3.43      0.00
    7    6    8      3.04      0.00
    7    6    9     -1.80      0.00
    7    6   10     -0.01      0.00
    7    6   11     -1.01      0.00
   -7   -7   24      1.32      0.00
   -7   -7   23      1.15      0.00
   -7   -7   22      2.41      0.00
   -7   -7   21     -0.94      0.00
   -7   -7   20     -2.37      0.00
   -7   -7   19     -4.84      0.00
   -7   -7   18      1.73      0.00
   -7   -7   17      4.56      0.00
   -7   -7   16      1.42      0.00
   -7   -7   15     -2.36      0.00
   -7   -7   14      1.86      0.00
   -7   -7   13     -1.91      0.00
   -7   -7   12      2.38      0.00
   -7   -7   11    -10.62      0.00
   -7   -7   10     -4.74      0.00
   -7   -7    9     -4.58      0.00
   -7   -7    8      8.20      0.00
   -7   -7    7      1.35      0.00
   -7   -7    6      5.10      0.00
   -7   -7    5      7.82      0.00
   -7   -7    4     -0.30      0.00
   -7   -7    3      0.03      0.00
   -7   -7    2      4.19      0.00
   -7   -7    1     -0.17      0.00
    7    7    0      5.03      0.00
    7    7    1     -3.26      0.00
    7    7    2     -5.30      0.00
    7    7    3     -0.72      0.00
    7    7    4      2.94      0.00
    7    7    5     -1.86      0.00
    7    7    6      2.67      0.00
    7    7    7     -1.01      0.00
    7    7    8      0.41      0.00
    7    7    9      4.10      0.00
    7    7   10     -0.34      0.00
   -7   -8   24     -2.42      0.00
   -7   -8   23     -1.79      0.00
   -7   -8   22     -1.43      0.00
   -7   -8   21      2.16      0.00
   -7   -8   20      1.48      0.00
   -7   -8   19     -2.05      0.00
   -7   -8   18      2.09      0.00
   -7   -8   17      0.60      0.00
   -7   -8   16      6.24      0.00
   -7   -8   15     -1.04      0.00
   -7   -8   14      2.70      0.00
   -7   -8   13      4.01      0.00
   -7   -8   12      5.77      0.00
   -7   -8   11     -4.63      0.00
   -7   -8   10     -5.22      0.00
   -7   -8    9    -10.65      0.00
   -7   -8    8     -4.29      0.00
   -7   -8    7     -1.60      0.00
   -7   -8    6     -4.47      0.00
   -7   -8    5      1.88      0.00
   -7   -8    4      2.37      0.00
   -7   -8    3     -1.72      0.00
   -7   -8    2      0.61      0.00
   -7   -8    1      3.30      0.00
    7    8    0      5.53      0.00
    7    8    1      5.35      0.00
    7    8    2      1.22      0.00
    7    8    3     -5.13      0.00
    7    8    4      2.38      0.00
    7    8    5     -0.81      0.00
    7    8    6     -1.76      0.00
    7    8    7     -0.06      0.00
    7    8    8     -0.80      0.00
    7    8    9      0.20      0.00
   -7   -9   24      0.39      0.00
   -7   -9   23     -0.18      0.00
   -7   -9   22     -0.32      0.00
   -7   -9   21     -0.40      0.00
   -7   -9   20     -0.79      0.00
   -7   -9   19     -0.18      0.00
   -7   -9   18     -5.00      0.00
   -7   -9   17      2.35      0.00
   -7   -9   16     -2.94      0.00
   -7   -9   15      2.13      0.00
   -7   -9   14     -5.21      0.00
   -7   -9   13      1.78      0.00
   -7   -9   12      7.38      0.00
   -7   -9   11      5.72      0.00
   -7   -9   10      0.14      0.00
   -7   -9    9      2.51      0.00
   -7   -9    8     -5.02      0.00
   -7   -9    7      5.16      0.00
   -7   -9    6     -1.69      0.00
   -7   -9    5     -3.89      0.00
   -7   -9    4      2.67      0.00
   -7   -9    3     -3.76      0.00
   -7   -9    2     -0.81      0.00
   -7   -9    1     -5.59      0.00
    7    9    0      3.63      0.00
    7    9    1     -1.26      0.00
    7    9    2      4.26      0.00
    7    9    3     -0.59      0.00
    7    9    4     -2.90      0.00
    7    9    5      2.72      0.00
    7    9    6     -1.34      0.00
    7    9    7     -0.52      0.00
    7    9    8      0.61      0.00
   -7  -10   24     -0.34      0.00
   -7  -10   23     -0.73      0.00
   -7  -10   22     -0.28      0.00
   -7  -10   21     -1.39      0.00
   -7  -10   20      3.56      0.00
   -7  -10   19     -0.25      0.00
   -7  -10   18      2.29      0.00
   -7  -10   17     -0.45      0.00
   -7  -10   16      3.20      0.00
   -7  -10   15      0.25      0.00
   -7  -10   14     -1.69      0.00
   -7  -10   13     -4.22      0.00
   -7  -10   12      0.80      0.00
   -7  -10   11      8.04      0.00
   -7  -10   10     -0.06      0.00
   -7  -10    9      0.55      0.00
   -7  -10    8     -4.69      0.00
   -7  -10    7     -3.98      0.00
   -7  -10    6      0.58      0.00
   -7  -10    5      1.68      0.00
   -7  -10    4      0.46      0.00
   -7  -10    3      4.17      0.00
   -7  -10    2      0.26      0.00
   -7  -10    1     -1.16      0.00
    7   10    0     -1.61      0.00
    7   10    1      2.00      0.00
    7   10    2     -0.20      0.00
    7   10    3      3.56      0.00
    7   10    4     -1.06      0.00
    7   10    5     -0.40      0.00
    7   10    6      1.68      0.00
    7   10    7     -0.23      0.00
   -7  -11   24     -0.72      0.00
   -7  -11   23      1.42      0.00
   -7  -11   22     -0.35      0.00
   -7  -11   21      1.04      0.00
   -7  -11   20     -1.93      0.00
   -7  -11   19      4.58      0.00
   -7  -11   18     -1.56      0.00
   -7  -11   17      3.31      0.00
   -7  -11   16      1.25      0.00
   -7  -11   15      3.47      0.00
   -7  -11   14     -0.08      0.00
   -7  -11   13     -6.07      0.00
   -7  -11   12     -7.64      0.00
   -7  -11   11      1.61      0.00
   -7  -11   10      5.11      0.00
   -7  -11    9      4.48      0.00
   -7  -11    8      5.05      0.00
   -7  -11    7     -1.31      0.00
   -7  -11    6     -0.63      0.00
   -7  -11    5     -5.11      0.00
   -7  -11    4     -0.68      0.00
   -7  -11    3     -2.54      0.00
   -7  -11    2      0.94      0.00
   -7  -11    1      0.59      0.00
    7   11    0     -5.48      0.00
    7   11    1      2.74      0.00
    7   11    2     -2.65      0.00
    7   11    3      0.86      0.00
    7   11    4      1.46      0.00
    7   11    5      0.14      0.00
    7   11    6      1.06      0.00
   -7  -12   23     -1.61      0.00
   -7  -12   22      2.08      0.00
   -7  -12   21      0.14      0.00
   -7  -12   20      1.39      0.00
   -7  -12   19      1.13      0.00
   -7  -12   18      1.47      0.00
   -7  -12   17      0.06      0.00
   -7  -12   16     -0.29      0.00
   -7  -12   15      4.71      0.00
   -7  -12   14      1.35      0.00
   -7  -12   13      1.76      0.00
   -7  -12   12     -6.07      0.00
   -7  -12   11     -5.73      0.00
   -7  -12   10     -1.12      0.00
   -7  -12    9     -0.37      0.00
   -7  -12    8      0.96      0.00
   -7  -12    7      1.93      0.00
   -7  -12    6      1.99      0.00
   -7  -12    5      1.42      0.00
   -7  -12    4     -3.09      0.00
   -7  -12    3      2.75      0.00
   -7  -12    2     -4.57      0.00
   -7  -12    1      5.31      0.00
    7   12    0     -2.18      0.00
    7   12    1     -1.51      0.00
    7   12    2      0.56      0.00
    7   12    3     -1.76      0.00
    7   12    4     -1.97      0.00
    7   12    5      0.31      0.00
   -7  -13   23     -1.14      0.00
   -7  -13   22     -0.87      0.00
   -7  -13   21     -0.03      0.00
   -7  -13   20     -0.13      0.00
   -7  -13   19      0.99      0.00
   -7  -13   18      2.37      0.00
   -7  -13   17     -1.60      0.00
   -7  -13   16     -0.36      0.00
   -7  -13   15     -3.06      0.00
   -7  -13   14      5.03      0.00
   -7  -13   13      2.25      0.00
   -7  -13   12      3.41      0.00
   -7  -13   11     -1.83      0.00
   -7  -13   10     -2.24      0.00
   -7  -13    9     -1.01      0.00
   -7  -13    8     -1.10      0.00
   -7  -13    7      0.02      0.00
   -7  -13    6     -0.70      0.00
   -7  -13    5      3.11      0.00
   -7  -13    4     -3.57      0.00
   -7  -13    3      0.35      0.00
   -7  -13    2     -2.99      0.00
   -7  -13    1     -0.51      0.00
    7   13    0      1.97      0.00
    7   13    1     -1.57      0.00
    7   13    2     -0.04      0.00
    7   13    3      0.35      0.00
   -7  -14   22     -0.34      0.00
   -7  -14   21     -1.34      0.00
   -7  -14   20     -2.39      0.00
   -7  -14   19      0.37      0.00
   -7  -14   18      0.48      0.00
   -7  -14   17      2.49      0.00
   -7  -14   16     -0.89      0.00
   -7  -14   15     -3.01      0.00
   -7  -14   14     -0.94      0.00
   -7  -14   13     -0.03      0.00
   -7  -14   12      1.85      0.00
   -7  -14   11     -0.22      0.00
   -7  -14   10     -0.11      0.00
   -7  -14    9     -1.58      0.00
   -7  -14    8     -0.50      0.00
   -7  -14    7     -0.56      0.00
   -7  -14    6     -3.57      0.00
   -7  -14    5      2.81      0.00
   -7  -14    4     -0.17      0.00
   -7  -14    3      1.49      0.00
   -7  -14    2      1.97      0.00
   -7  -14    1     -1.44      0.00
    7   14    0      1.42      0.00
    7   14    1      0.23      0.00
    7   14    2     -2.01      0.00
   -7  -15   21      0.13      0.00
   -7  -15   20      1.09      0.00
   -7  -15   19     -3.69      0.00
   -7  -15   18      0.79      0.00
   -7  -15   17     -2.48      0.00
   -7  -15   16      0.41      0.00
   -7  -15   15     -2.80      0.00
   -7  -15   14     -2.04      0.00
   -7  -15   13      0.41      0.00
   -7  -15   12      1.75      0.00
   -7  -15   11      0.58      0.00
   -7  -15   10      0.52      0.00
   -7  -15    9      0.42      0.00
   -7  -15    8     -0.09      0.00
   -7  -15    7      1.58      0.00
   -7  -15    6     -0.81      0.00
   -7  -15    5     -2.97      0.00
   -7  -15    4      2.07      0.00
   -7  -15    3     -2.92      0.00
   -7  -15    2      1.80      0.00
   -7  -15    1     -0.46      0.00
    7   15    0      0.56      0.00
    7   15    1      0.28      0.00
   -7  -16   19     -0.03      0.00
   -7  -16   18      0.42      0.00
   -7  -16   17     -0.52      0.00
   -7  -16   16      0.22      0.00
   -7  -16   15      0.24      0.00
   -7  -16   14     -1.89      0.00
   -7  -16   13     -1.84      0.00
   -7  -16   12      0.72      0.00
   -7  -16   11      1.31      0.00
   -7  -16   10     -0.03      0.00
   -7  -16    9      1.09      0.00
   -7  -16    8      0.52      0.00
   -7  -16    7      1.36      0.00
   -7  -16    6      1.20      0.00
   -7  -16    5     -1.57      0.00
   -7  -16    4     -0.03      0.00
   -7  -16    3     -0.31      0.00
   -7  -16    2     -0.38      0.00
   -7  -17   17      0.37      0.00
   -7  -17   16      0.59      0.00
   -7  -17   15     -0.27      0.00
   -7  -17   14     -0.24      0.00
   -7  -17   13     -1.62      0.00
   -7  -17   12     -1.06      0.00
   -7  -17   11      0.01      0.00
   -7  -17   10      0.70      0.00
   -7  -17    9     -1.73      0.00
   -7  -17    8      0.61      0.00
   -7  -17    7     -0.60      0.00
   -7  -17    6      2.41      0.00
   -7  -17    5     -0.52      0.00
   -7  -18   13     -0.61      0.00
   -7  -18   12     -0.42      0.00
   -7  -18   11      0.66      0.00
   -7  -18   10     -0.28      0.00
   -8   18    8     -0.58      0.00
   -8   18    7     -1.12      0.00
   -8   18    6     -0.24      0.00
   -8   18    5      0.60      0.00
   -8   18    4     -0.22      0.00
   -8   18    3     -1.17      0.00
   -8   17   10     -0.29      0.00
   -8   17    9      1.26      0.00
   -8   17    8     -0.45      0.00
   -8   17    7     -1.69      0.00
   -8   17    6     -0.09      0.00
   -8   17    5     -1.84      0.00
   -8   17    4      3.22      0.00
   -8   17    3      0.01      0.00
   -8   17    2      1.64      0.00
   -8   16   12     -0.91      0.00
   -8   16   11      0.05      0.00
   -8   16   10     -0.48      0.00
   -8   16    9      1.50      0.00
   -8   16    8      2.94      0.00
   -8   16    7     -0.03      0.00
   -8   16    6     -1.79      0.00
   -8   16    5     -1.57      0.00
   -8   16    4     -3.88      0.00
   -8   16    3     -1.08      0.00
   -8   16    2     -3.18      0.00
    8  -16   13      0.49      0.00
   -8   15   13      1.49      0.00
   -8   15   12      0.68      0.00
   -8   15   11      0.30      0.00
   -8   15   10     -1.13      0.00
   -8   15    9     -1.55      0.00
   -8   15    8      2.90      0.00
   -8   15    7      1.20      0.00
   -8   15    6      2.09      0.00
   -8   15    5      1.63      0.00
   -8   15    4      1.25      0.00
   -8   15    3     -0.09      0.00
   -8   15    2     -3.72      0.00
    8  -15   11     -0.03      0.00
    8  -15   12      0.95      0.00
    8  -15   13      0.04      0.00
    8  -15   14      0.39      0.00
    8  -15   15      0.18      0.00
    8  -15   16      0.79      0.00
   -8   14   14     -1.32      0.00
   -8   14   13      1.14      0.00
   -8   14   12      3.25      0.00
   -8   14   11      1.36      0.00
   -8   14   10      0.86      0.00
   -8   14    9      1.09      0.00
   -8   14    8     -4.01      0.00
   -8   14    7      3.09      0.00
   -8   14    6     -5.00      0.00
   -8   14    5     -0.72      0.00
   -8   14    4      0.76      0.00
   -8   14    3     -0.48      0.00
   -8   14    2      0.57      0.00
    8  -14   10      3.02      0.00
    8  -14   11     -0.90      0.00
    8  -14   12     -1.65      0.00
    8  -14   13     -1.55      0.00
    8  -14   14     -1.50      0.00
    8  -14   15     -0.75      0.00
    8  -14   16      0.24      0.00
    8  -14   17      1.05      0.00
   -8   13   16      0.23      0.00
   -8   13   15      0.14      0.00
   -8   13   14     -1.75      0.00
   -8   13   13     -3.03      0.00
   -8   13   12     -2.78      0.00
   -8   13   11      1.74      0.00
   -8   13   10     -0.03      0.00
   -8   13    9      3.13      0.00
   -8   13    8      2.30      0.00
   -8   13    7      1.18      0.00
   -8   13    6      5.51      0.00
   -8   13    5     -0.18      0.00
   -8   13    4     -0.50      0.00
   -8   13    3      6.11      0.00
   -8   13    2      0.30      0.00
    8  -13    8     -0.02      0.00
    8  -13    9      1.19      0.00
    8  -13   10      0.31      0.00
    8  -13   11      3.28      0.00
    8  -13   12      0.76      0.00
    8  -13   13     -0.49      0.00
    8  -13   14     -1.75      0.00
    8  -13   15     -2.81      0.00
    8  -13   16     -2.11      0.00
    8  -13   17     -1.08      0.00
    8  -13   18     -0.25      0.00
   -8   12   17     -0.97      0.00
   -8   12   16      0.16      0.00
   -8   12   15      1.21      0.00
   -8   12   14      2.23      0.00
   -8   12   13      2.55      0.00
   -8   12   12     -4.08      0.00
   -8   12   11      0.37      0.00
   -8   12   10     -1.02      0.00
   -8   12    9     -0.14      0.00
   -8   12    8      1.96      0.00
   -8   12    7     -3.75      0.00
   -8   12    6     -3.49      0.00
   -8   12    5     -3.40      0.00
   -8   12    4     -0.68      0.00
   -8   12    3     -2.47      0.00
   -8   12    2     10.98      0.00
   -8   12    1      6.95      0.00
    8  -12    6      4.01      0.00
    8  -12    7     -1.58      0.00
    8  -12    8      0.37      0.00
    8  -12    9     -2.82      0.00
    8  -12   10     -3.91      0.00
    8  -12   11     -0.31      0.00
    8  -12   12     -1.27      0.00
    8  -12   13      1.75      0.00
    8  -12   14      0.12      0.00
    8  -12   15      1.78      0.00
    8  -12   16     -1.27      0.00
    8  -12   17     -0.08      0.00
    8  -12   18     -0.25      0.00
   -8   11   18     -0.49      0.00
   -8   11   17     -0.93      0.00
   -8   11   16     -2.20      0.00
   -8   11   15      0.49      0.00
   -8   11   14     -0.98      0.00
   -8   11   13      2.65      0.00
   -8   11   12      1.95      0.00
   -8   11   11     -4.07      0.00
   -8   11   10      4.11      0.00
   -8   11    9      1.51      0.00
   -8   11    8      7.59      0.00
   -8   11    7      7.67      0.00
   -8   11    6      4.82      0.00
   -8   11    5      2.28      0.00
   -8   11    4     -3.59      0.00
   -8   11    3     -8.50      0.00
   -8   11    2     -5.07      0.00
   -8   11    1      7.38      0.00
   -8   11    0      0.80      0.00
    8  -11    4      1.07      0.00
    8  -11    5     -4.90      0.00
    8  -11    6     -0.99      0.00
    8  -11    7      3.65      0.00
    8  -11    8      4.79      0.00
    8  -11    9      3.73      0.00
    8  -11   10      0.44      0.00
    8  -11   11     -1.69      0.00
    8  -11   12     -0.69      0.00
    8  -11   13     -1.61      0.00
    8  -11   14      0.68      0.00
    8  -11   15     -0.07      0.00
    8  -11   16     -0.36      0.00
    8  -11   17     -1.19      0.00
    8  -11   18     -2.67      0.00
   -8   10   18     -1.34      0.00
   -8   10   17     -0.24      0.00
   -8   10   16     -1.91      0.00
   -8   10   15     -0.91      0.00
   -8   10   14      1.24      0.00
   -8   10   13      0.32      0.00
   -8   10   12      9.89      0.00
   -8   10   11     -0.51      0.00
   -8   10   10      0.58      0.00
   -8   10    9     -3.65      0.00
   -8   10    8     -5.56      0.00
   -8   10    7     -5.30      0.00
   -8   10    6      2.18      0.00
   -8   10    5      1.38      0.00
   -8   10    4      2.01      0.00
   -8   10    3     -1.66      0.00
   -8   10    2    -14.79      0.00
   -8   10    1     -1.28      0.00
   -8   10    0      6.79      0.00
    8  -10    1      0.45      0.00
    8  -10    2      6.13      0.00
    8  -10    3      3.71      0.00
    8  -10    4      6.51      0.00
    8  -10    5      0.40      0.00
    8  -10    6     -5.17      0.00
    8  -10    7     -8.19      0.00
    8  -10    8     -1.84      0.00
    8  -10    9     -0.80      0.00
    8  -10   10     -2.44      0.00
    8  -10   11     -2.22      0.00
    8  -10   12     -1.35      0.00
    8  -10   13     -1.67      0.00
    8  -10   14      0.00      0.00
    8  -10   15      1.47      0.00
    8  -10   16      1.74      0.00
    8  -10   17      2.43      0.00
    8  -10   18      1.06      0.00
   -8    9   19     -0.63      0.00
   -8    9   18     -2.52      0.00
   -8    9   17      0.94      0.00
   -8    9   16      0.95      0.00
   -8    9   15     -6.34      0.00
   -8    9   14     -1.65      0.00
   -8    9   13     -4.70      0.00
   -8    9   12      4.20      0.00
   -8    9   11      8.20      0.00
   -8    9   10      3.20      0.00
   -8    9    9      7.21      0.00
   -8    9    8      6.36      0.00
   -8    9    7     -2.54      0.00
   -8    9    6     -3.35      0.00
   -8    9    5      3.20      0.00
   -8    9    4      2.11      0.00
   -8    9    3      0.18      0.00
   -8    9    2     -2.32      0.00
   -8    9    1    -13.93      0.00
   -8    9    0     -0.11      0.00
    8   -9    1     -4.16      0.00
    8   -9    2     -7.19      0.00
    8   -9    3     -6.44      0.00
    8   -9    4      6.88      0.00
    8   -9    6      4.58      0.00
    8   -9    7      1.73      0.00
    8   -9    8     -2.46      0.00
    8   -9    9      2.82      0.00
    8   -9   10      5.07      0.00
    8   -9   11     -0.49      0.00
    8   -9   12      2.09      0.00
    8   -9   13     -0.98      0.00
    8   -9   14     -2.97      0.00
    8   -9   15     -1.76      0.00
    8   -9   16     -0.59      0.00
    8   -9   17      0.30      0.00
    8   -9   18      1.37      0.00
   -8    8   19      0.05      0.00
   -8    8   18     -0.27      0.00
   -8    8   17     -1.05      0.00
   -8    8   16      7.35      0.00
   -8    8   15     -0.73      0.00
   -8    8   14     -2.47      0.00
   -8    8   13     -1.38      0.00
   -8    8   12     -1.78      0.00
   -8    8   11      0.48      0.00
   -8    8   10      0.33      0.00
   -8    8    9     -1.33      0.00
   -8    8    8      1.52      0.00
   -8    8    7      7.67      0.00
   -8    8    6     -3.66      0.00
   -8    8    5     -5.30      0.00
   -8    8    4      2.79      0.00
   -8    8    3     -5.00      0.00
   -8    8    2     -0.98      0.00
   -8    8    1     -2.57      0.00
   -8    8    0      1.44      0.00
    8   -8    1      7.26      0.00
    8   -8    2      7.62      0.00
    8   -8    3     -7.57      0.00
    8   -8    4     -2.49      0.00
    8   -8    5      6.09      0.00
    8   -8    6      1.78      0.00
    8   -8    7      0.29      0.00
    8   -8    8     -2.81      0.00
    8   -8    9     -5.62      0.00
    8   -8   10     -0.93      0.00
    8   -8   11     -1.41      0.00
    8   -8   12     -0.55      0.00
    8   -8   13      1.50      0.00
    8   -8   14      1.81      0.00
    8   -8   15     -1.65      0.00
    8   -8   16      0.59      0.00
    8   -8   17     -0.27      0.00
    8   -8   18      0.49      0.00
   -8    7   20     -1.24      0.00
   -8    7   19     -0.38      0.00
   -8    7   18      0.10      0.00
   -8    7   17     -2.33      0.00
   -8    7   16     -0.48      0.00
   -8    7   15      3.81      0.00
   -8    7   14     -3.95      0.00
   -8    7   13     -1.64      0.00
   -8    7   12     -0.20      0.00
   -8    7   11      4.35      0.00
   -8    7   10      2.02      0.00
   -8    7    9     -0.81      0.00
   -8    7    8      0.00      0.00
   -8    7    7     -2.62      0.00
   -8    7    6      3.12      0.00
   -8    7    5     -3.74      0.00
   -8    7    4      0.27      0.00
   -8    7    3     12.07      0.00
   -8    7    2     -3.72      0.00
   -8    7    1     -7.27      0.00
   -8    7    0     -8.96      0.00
    8   -7    1     -9.94      0.00
    8   -7    2     -2.36      0.00
    8   -7    3      0.75      0.00
    8   -7    4    -11.95      0.00
    8   -7    5      5.34      0.00
    8   -7    6      5.36      0.00
    8   -7    7      4.10      0.00
    8   -7    8      3.61      0.00
    8   -7    9      0.47      0.00
    8   -7   10      1.70      0.00
    8   -7   11      0.98      0.00
    8   -7   12     -0.07      0.00
    8   -7   13     -2.31      0.00
    8   -7   14      0.64      0.00
    8   -7   15     -0.43      0.00
    8   -7   16     -1.63      0.00
    8   -7   17     -0.37      0.00
    8   -7   18     -0.86      0.00
   -8    6   20      0.32      0.00
   -8    6   19      2.00      0.00
   -8    6   18      0.46      0.00
   -8    6   17      2.31      0.00
   -8    6   16      0.17      0.00
   -8    6   15      7.02      0.00
   -8    6   14      0.69      0.00
   -8    6   13     -2.99      0.00
   -8    6   12     -8.14      0.00
   -8    6   11      0.22      0.00
   -8    6   10     -3.81      0.00
   -8    6    9      0.91      0.00
   -8    6    8     -2.59      0.00
   -8    6    7     -4.69      0.00
   -8    6    6     -7.27      0.00
   -8    6    5     -5.85      0.00
   -8    6    4     -7.70      0.00
   -8    6    3      5.25      0.00
   -8    6    2     21.47      0.00
   -8    6    1      5.20      0.00
   -8    6    0      1.89      0.00
    8   -6    1      7.14      0.00
    8   -6    2     -4.45      0.00
    8   -6    3     10.97      0.00
    8   -6    4     -6.15      0.00
    8   -6    5     -8.95      0.00
    8   -6    6      2.07      0.00
    8   -6    7     -0.63      0.00
    8   -6    8      1.22      0.00
    8   -6    9     -1.90      0.00
    8   -6   10      1.06      0.00
    8   -6   11     -0.36      0.00
    8   -6   12      1.52      0.00
    8   -6   13      0.62      0.00
    8   -6   14     -0.77      0.00
    8   -6   15      2.43      0.00
    8   -6   16     -1.18      0.00
    8   -6   17     -1.72      0.00
    8   -6   18     -0.40      0.00
   -8    5   21     -0.06      0.00
   -8    5   20      0.25      0.00
   -8    5   19      1.18      0.00
   -8    5   18     -4.67      0.00
   -8    5   17     -3.73      0.00
   -8    5   16     -2.81      0.00
   -8    5   15      6.06      0.00
   -8    5   14      7.63      0.00
   -8    5   13      7.27      0.00
   -8    5   12     -2.74      0.00
   -8    5   11     -3.96      0.00
   -8    5   10      2.47      0.00
   -8    5    9     -1.18      0.00
   -8    5    8     -0.47      0.00
   -8    5    7     10.08      0.00
   -8    5    6     -6.30      0.00
   -8    5    5      4.23      0.00
   -8    5    4    -14.01      0.00
   -8    5    3    -13.69      0.00
   -8    5    2     -3.34      0.00
   -8    5    1     13.56      0.00
   -8    5    0     -9.12      0.00
    8   -5    1      3.49      0.00
    8   -5    2     -0.71      0.00
    8   -5    3      1.04      0.00
    8   -5    4      7.51      0.00
    8   -5    5     -4.72      0.00
    8   -5    6     -3.42      0.00
    8   -5    7      4.79      0.00
    8   -5    8      2.92      0.00
    8   -5    9      1.16      0.00
    8   -5   10     -1.31      0.00
    8   -5   11      0.21      0.00
    8   -5   12     -3.46      0.00
    8   -5   13      3.46      0.00
    8   -5   14     -0.19      0.00
    8   -5   15      0.92      0.00
    8   -5   16      1.80      0.00
    8   -5   17     -1.33      0.00
   -8    4   21      1.73      0.00
   -8    4   20     -0.70      0.00
   -8    4   19      4.75      0.00
   -8    4   18      3.40      0.00
   -8    4   17      0.54      0.00
   -8    4   16     -7.34      0.00
   -8    4   15     -2.63      0.00
   -8    4   14     -0.37      0.00
   -8    4   13      3.32      0.00
   -8    4   12      3.08      0.00
   -8    4   11     -4.29      0.00
   -8    4   10     -5.76      0.00
   -8    4    9      0.46      0.00
   -8    4    8    -11.55      0.00
   -8    4    7     -8.57      0.00
   -8    4    6      6.54      0.00
   -8    4    5     -1.63      0.00
   -8    4    4     10.91      0.00
   -8    4    3      2.35      0.00
   -8    4    2    -11.95      0.00
   -8    4    1     12.22      0.00
   -8    4    0      5.36      0.00
    8   -4    1     -5.31      0.00
    8   -4    2      4.79      0.00
    8   -4    3      0.16      0.00
    8   -4    4      6.87      0.00
    8   -4    5     -1.41      0.00
    8   -4    6     -3.77      0.00
    8   -4    7     -6.22      0.00
    8   -4    8      0.36      0.00
    8   -4    9      4.28      0.00
    8   -4   10     -4.71      0.00
    8   -4   11      4.56      0.00
    8   -4   12     -3.88      0.00
    8   -4   13     -0.52      0.00
    8   -4   14      1.25      0.00
    8   -4   15     -0.58      0.00
    8   -4   16      0.11      0.00
    8   -4   17      0.18      0.00
   -8    3   22      0.74      0.00
   -8    3   21      0.13      0.00
   -8    3   20     -0.36      0.00
   -8    3   19     -0.68      0.00
   -8    3   18      3.28      0.00
   -8    3   17      6.40      0.00
   -8    3   16     -2.23      0.00
   -8    3   15    -10.26      0.00
   -8    3   14     -4.85      0.00
   -8    3   13     -3.30      0.00
   -8    3   12      5.57      0.00
   -8    3   11      5.91      0.00
   -8    3   10     -2.72      0.00
   -8    3    9      0.73      0.00
   -8    3    8      0.06      0.00
   -8    3    7     -0.80      0.00
   -8    3    6     -5.27      0.00
   -8    3    5     18.73      0.00
   -8    3    4     -2.79      0.00
   -8    3    3      5.74      0.00
   -8    3    2     -7.79      0.00
   -8    3    1    -19.56      0.00
   -8    3    0      5.57      0.00
    8   -3    1     -7.61      0.00
    8   -3    2     -3.84      0.00
    8   -3    3      7.40      0.00
    8   -3    4      8.92      0.00
    8   -3    5      8.83      0.00
    8   -3    6     -1.94      0.00
    8   -3    7      1.63      0.00
    8   -3    8     -7.51      0.00
    8   -3    9      6.14      0.00
    8   -3   10     -1.16      0.00
    8   -3   11     -0.52      0.00
    8   -3   12      3.31      0.00
    8   -3   13     -2.41      0.00
    8   -3   14      0.82      0.00
    8   -3   15      0.86      0.00
    8   -3   16     -0.67      0.00
   -8    2   22      0.33      0.00
   -8    2   21      0.33      0.00
   -8    2   20     -1.63      0.00
   -8    2   19     -2.74      0.00
   -8    2   18      1.19      0.00
   -8    2   17      3.54      0.00
   -8    2   16     12.28      0.00
   -8    2   15     -1.52      0.00
   -8    2   14     -4.21      0.00
   -8    2   13     -3.54      0.00
   -8    2   12     -0.53      0.00
   -8    2   11      3.19      0.00
   -8    2   10      4.29      0.00
   -8    2    9     -1.26      0.00
   -8    2    8      3.07      0.00
   -8    2    7      1.10      0.00
   -8    2    6     -3.11      0.00
   -8    2    5     -0.93      0.00
   -8    2    4     25.02      0.00
   -8    2    3      2.35      0.00
   -8    2    2     20.91      0.00
   -8    2    1      5.18      0.00
   -8    2    0      3.53      0.00
    8   -2    1      4.65      0.00
    8   -2    2     -8.89      0.00
    8   -2    3    -10.56      0.00
    8   -2    4      3.38      0.00
    8   -2    5     12.70      0.00
    8   -2    6     -1.85      0.00
    8   -2    7      3.88      0.00
    8   -2    8     -7.72      0.00
    8   -2    9     -5.13      0.00
    8   -2   10      3.31      0.00
    8   -2   11     -3.47      0.00
    8   -2   12      3.21      0.00
    8   -2   13      1.64      0.00
    8   -2   14     -0.67      0.00
    8   -2   15      0.55      0.00
    8   -2   16     -0.92      0.00
   -8    1   22      1.02      0.00
   -8    1   21     -0.72      0.00
   -8    1   20      0.27      0.00
   -8    1   19     -2.16      0.00
   -8    1   18     -1.06      0.00
   -8    1   17     -2.05      0.00
   -8    1   16      4.01      0.00
   -8    1   15      2.97      0.00
   -8    1   14     -5.36      0.00
   -8    1   13     -6.33      0.00
   -8    1   12     -5.95      0.00
   -8    1   11     -3.25      0.00
   -8    1   10     -8.79      0.00
   -8    1    9      2.22      0.00
   -8    1    8     -0.47      0.00
   -8    1    7      6.22      0.00
   -8    1    6      8.56      0.00
   -8    1    5    -16.76      0.00
   -8    1    4     10.37      0.00
   -8    1    3      1.55      0.00
   -8    1    2     -3.94      0.00
   -8    1    1     -2.12      0.00
   -8    1    0     -0.61      0.00
    8   -1    1      2.80      0.00
    8   -1    2      0.35      0.00
    8   -1    3     -7.45      0.00
    8   -1    4    -14.05      0.00
    8   -1    5      5.04      0.00
    8   -1    6      7.67      0.00
    8   -1    7     -1.33      0.00
    8   -1    8      9.66      0.00
    8   -1    9     -8.51      0.00
    8   -1   10      2.16      0.00
    8   -1   11     -0.54      0.00
    8   -1   12     -1.54      0.00
    8   -1   13      2.36      0.00
    8   -1   14     -0.19      0.00
    8   -1   15      0.93      0.00
   -8    0   23      0.37      0.00
   -8    0   22      0.34      0.00
   -8    0   21      0.91      0.00
   -8    0   20      4.29      0.00
   -8    0   19     -3.20      0.00
   -8    0   18     -5.17      0.00
   -8    0   17     -4.47      0.00
   -8    0   16     -4.11      0.00
   -8    0   15      7.75      0.00
   -8    0   14      3.95      0.00
   -8    0   13      4.04      0.00
   -8    0   12      0.78      0.00
   -8    0   11      4.44      0.00
   -8    0   10     -5.09      0.00
   -8    0    9    -22.29      0.00
   -8    0    8      6.01      0.00
   -8    0    7    -15.18      0.00
   -8    0    6     24.02      0.00
   -8    0    5     -1.44      0.00
   -8    0    4    -11.83      0.00
   -8    0    3      9.46      0.00
   -8    0    2     -7.79      0.00
   -8    0    1     -6.62      0.00
    8    0    0      4.15      0.00
    8    0    1      8.42      0.00
    8    0    2     12.43      0.00
    8    0    3      3.89      0.00
    8    0    4     -7.54      0.00
    8    0    5    -15.79      0.00
    8    0    6      5.09      0.00
    8    0    7     -5.12      0.00
    8    0    8      5.86      0.00
    8    0    9      1.45      0.00
    8    0   10      0.10      0.00
    8    0   11      0.53      0.00
    8    0   12      0.64      0.00
    8    0   13     -1.99      0.00
    8    0   14      2.07      0.00
   -8   -1   23      0.61      0.00
   -8   -1   22     -2.29      0.00
   -8   -1   21     -0.37      0.00
   -8   -1   20      1.13      0.00
   -8   -1   19      7.18      0.00
   -8   -1   18     -2.64      0.00
   -8   -1   17     -4.05      0.00
   -8   -1   16     -6.21      0.00
   -8   -1   15     -2.34      0.00
   -8   -1   14      1.88      0.00
   -8   -1   13      2.28      0.00
   -8   -1   12      4.81      0.00
   -8   -1   11      6.55      0.00
   -8   -1   10     28.48      0.00
   -8   -1    9     -4.48      0.00
   -8   -1    8      0.18      0.00
   -8   -1    7     -4.23      0.00
   -8   -1    6    -14.07      0.00
   -8   -1    5     11.57      0.00
   -8   -1    4     -5.85      0.00
   -8   -1    3     -5.36      0.00
   -8   -1    2     11.13      0.00
   -8   -1    1     -8.08      0.00
    8    1    0    -13.60      0.00
    8    1    1     -0.11      0.00
    8    1    2      3.26      0.00
    8    1    3      4.49      0.00
    8    1    4      6.60      0.00
    8    1    5     -8.53      0.00
    8    1    6     -3.32      0.00
    8    1    7      0.15      0.00
    8    1    8     -4.23      0.00
    8    1    9      2.78      0.00
    8    1   10      0.93      0.00
    8    1   11      2.85      0.00
    8    1   12      1.33      0.00
    8    1   13      0.43      0.00
    8    1   14     -1.13      0.00
   -8   -2   23      1.75      0.00
   -8   -2   22     -0.51      0.00
   -8   -2   21      0.96      0.00
   -8   -2   20     -1.25      0.00
   -8   -2   19      4.80      0.00
   -8   -2   18      3.50      0.00
   -8   -2   17      0.31      0.00
   -8   -2   16     -4.06      0.00
   -8   -2   15     -0.68      0.00
   -8   -2   14      1.25      0.00
   -8   -2   13     -3.49      0.00
   -8   -2   12      2.96      0.00
   -8   -2   11    -14.56      0.00
   -8   -2   10      4.73      0.00
   -8   -2    9     12.62      0.00
   -8   -2    8    -13.19      0.00
   -8   -2    7     13.97      0.00
   -8   -2    6     -8.33      0.00
   -8   -2    5      6.15      0.00
   -8   -2    4      6.62      0.00
   -8   -2    3     -0.77      0.00
   -8   -2    2      4.66      0.00
   -8   -2    1      6.80      0.00
    8    2    0     -0.53      0.00
    8    2    1    -11.62      0.00
    8    2    2      6.06      0.00
    8    2    3     -1.12      0.00
    8    2    4      2.29      0.00
    8    2    5     -0.55      0.00
    8    2    6     -8.08      0.00
    8    2    7     -2.01      0.00
    8    2    8     -2.01      0.00
    8    2    9     -1.35      0.00
    8    2   10     -1.14      0.00
    8    2   11      0.82      0.00
    8    2   12      1.28      0.00
    8    2   13      0.45      0.00
   -8   -3   23      1.90      0.00
   -8   -3   22      1.60      0.00
   -8   -3   21      1.54      0.00
   -8   -3   20      0.76      0.00
   -8   -3   19     -3.82      0.00
   -8   -3   18      0.30      0.00
   -8   -3   17     -4.38      0.00
   -8   -3   16     -2.84      0.00
   -8   -3   15     -9.53      0.00
   -8   -3   14      4.40      0.00
   -8   -3   13     -4.84      0.00
   -8   -3   12      1.62      0.00
   -8   -3   11      2.75      0.00
   -8   -3   10     -8.90      0.00
   -8   -3    9     23.94      0.00
   -8   -3    8      5.16      0.00
   -8   -3    7      7.62      0.00
   -8   -3    6      6.39      0.00
   -8   -3    5      1.02      0.00
   -8   -3    4     -5.33      0.00
   -8   -3    3     -0.19      0.00
   -8   -3    2    -10.00      0.00
   -8   -3    1      7.04      0.00
    8    3    0      0.56      0.00
    8    3    1      0.83      0.00
    8    3    2    -11.71      0.00
    8    3    3      6.72      0.00
    8    3    4     -3.34      0.00
    8    3    5      5.36      0.00
    8    3    6      0.19      0.00
    8    3    7      0.58      0.00
    8    3    8     -0.93      0.00
    8    3    9      2.49      0.00
    8    3   10     -2.56      0.00
    8    3   11     -1.35      0.00
    8    3   12     -0.18      0.00
   -8   -4   24     -2.51      0.00
   -8   -4   23     -0.14      0.00
   -8   -4   22     -0.77      0.00
   -8   -4   21     -0.60      0.00
   -8   -4   20      1.37      0.00
   -8   -4   19      2.60      0.00
   -8   -4   18      2.91      0.00
   -8   -4   17      6.25      0.00
   -8   -4   16      3.85      0.00
   -8   -4   15     -1.02      0.00
   -8   -4   14     -1.19      0.00
   -8   -4   13      7.16      0.00
   -8   -4   12    -10.96      0.00
   -8   -4   11      2.55      0.00
   -8   -4   10    -17.74      0.00
   -8   -4    9     -3.89      0.00
   -8   -4    8      7.99      0.00
   -8   -4    7     -7.54      0.00
   -8   -4    6      1.26      0.00
   -8   -4    5     -1.63      0.00
   -8   -4    4      3.93      0.00
   -8   -4    3      0.93      0.00
   -8   -4    2      5.77      0.00
   -8   -4    1      2.20      0.00
    8    4    0      7.96      0.00
    8    4    1      7.82      0.00
    8    4    2     -1.70      0.00
    8    4    3     -2.36      0.00
    8    4    4     -1.06      0.00
    8    4    5     -1.50      0.00
    8    4    6     -4.81      0.00
    8    4    7      0.54      0.00
    8    4    8     -3.15      0.00
    8    4    9      0.27      0.00
    8    4   10      2.60      0.00
    8    4   11     -2.36      0.00
   -8   -5   24      0.19      0.00
   -8   -5   23     -1.66      0.00
   -8   -5   22      3.37      0.00
   -8   -5   21      0.78      0.00
   -8   -5   20     -1.50      0.00
   -8   -5   19     -3.71      0.00
   -8   -5   18     -3.48      0.00
   -8   -5   17     -2.04      0.00
   -8   -5   16      4.33      0.00
   -8   -5   15      3.30      0.00
   -8   -5   14     -3.68      0.00
   -8   -5   13      9.59      0.00
   -8   -5   12      2.73      0.00
   -8   -5   11      1.59      0.00
   -8   -5   10     -2.70      0.00
   -8   -5    9    -10.24      0.00
   -8   -5    8      2.80      0.00
   -8   -5    7      9.64      0.00
   -8   -5    6      0.35      0.00
   -8   -5    5     -1.72      0.00
   -8   -5    4     -2.90      0.00
   -8   -5    3     -5.80      0.00
   -8   -5    2     -9.99      0.00
   -8   -5    1      1.82      0.00
    8    5    0     -2.53      0.00
    8    5    1      4.89      0.00
    8    5    2      3.95      0.00
    8    5    3     -1.03      0.00
    8    5    4     -0.30      0.00
    8    5    5      2.57      0.00
    8    5    6     -0.57      0.00
    8    5    7     -1.64      0.00
    8    5    8      0.92      0.00
    8    5    9     -3.54      0.00
    8    5   10      2.08      0.00
   -8   -6   24      0.90      0.00
   -8   -6   23      0.39      0.00
   -8   -6   22     -0.67      0.00
   -8   -6   21      2.58      0.00
   -8   -6   20      3.32      0.00
   -8   -6   19     -0.46      0.00
   -8   -6   18     -2.07      0.00
   -8   -6   17     -3.26      0.00
   -8   -6   16     -0.27      0.00
   -8   -6   15      3.67      0.00
   -8   -6   14     -1.86      0.00
   -8   -6   13     -7.14      0.00
   -8   -6   12      6.91      0.00
   -8   -6   11     -2.01      0.00
   -8   -6   10      7.70      0.00
   -8   -6    9     -7.67      0.00
   -8   -6    8     -0.93      0.00
   -8   -6    7     -7.47      0.00
   -8   -6    6      2.86      0.00
   -8   -6    5     -2.80      0.00
   -8   -6    4      1.84      0.00
   -8   -6    3      4.25      0.00
   -8   -6    2      2.71      0.00
   -8   -6    1     -3.28      0.00
    8    6    0      5.41      0.00
    8    6    1      0.80      0.00
    8    6    2      2.42      0.00
    8    6    3      1.92      0.00
    8    6    4     -3.38      0.00
    8    6    5     -0.32      0.00
    8    6    6      3.60      0.00
    8    6    7     -1.95      0.00
    8    6    8      0.85      0.00
    8    6    9     -1.31      0.00
   -8   -7   24      2.75      0.00
   -8   -7   23      1.16      0.00
   -8   -7   22     -1.93      0.00
   -8   -7   21     -1.37      0.00
   -8   -7   20     -0.34      0.00
   -8   -7   19      1.39      0.00
   -8   -7   18     -1.93      0.00
   -8   -7   17     -3.55      0.00
   -8   -7   16     -2.04      0.00
   -8   -7   15      1.51      0.00
   -8   -7   14      4.69      0.00
   -8   -7   13     -1.98      0.00
   -8   -7   12      3.29      0.00
   -8   -7   11      3.88      0.00
   -8   -7   10      9.27      0.00
   -8   -7    9      0.06      0.00
   -8   -7    8      3.00      0.00
   -8   -7    7     -0.40      0.00
   -8   -7    6     -0.73      0.00
   -8   -7    5     -1.58      0.00
   -8   -7    4     -3.36      0.00
   -8   -7    3     -2.36      0.00
   -8   -7    2      1.35      0.00
   -8   -7    1     -4.92      0.00
    8    7    0     -2.18      0.00
    8    7    1      2.69      0.00
    8    7    2      2.86      0.00
    8    7    3      1.82      0.00
    8    7    4      3.27      0.00
    8    7    5     -2.84      0.00
    8    7    6      3.36      0.00
    8    7    7      2.25      0.00
    8    7    8     -0.33      0.00
    8    7    9      0.09      0.00
   -8   -8   24     -0.74      0.00
   -8   -8   23      1.42      0.00
   -8   -8   22      1.81      0.00
   -8   -8   21     -1.73      0.00
   -8   -8   20      2.81      0.00
   -8   -8   19      1.42      0.00
   -8   -8   18      3.20      0.00
   -8   -8   17     -1.84      0.00
   -8   -8   16     -3.30      0.00
   -8   -8   15     -1.90      0.00
   -8   -8   14     -1.78      0.00
   -8   -8   13     -2.99      0.00
   -8   -8   12     -3.12      0.00
   -8   -8   11     -1.20      0.00
   -8   -8   10      5.32      0.00
   -8   -8    9      2.92      0.00
   -8   -8    8     -3.00      0.00
   -8   -8    7      2.82      0.00
   -8   -8    6     -1.33      0.00
   -8   -8    5      1.78      0.00
   -8   -8    4      2.33      0.00
   -8   -8    3     -2.07      0.00
   -8   -8    2      2.84      0.00
   -8   -8    1     -0.06      0.00
    8    8    0     -1.88      0.00
    8    8    1     -5.95      0.00
    8    8    2      3.43      0.00
    8    8    3     -2.26      0.00
    8    8    4      1.79      0.00
    8    8    5      0.57      0.00
    8    8    6     -2.06      0.00
    8    8    7      2.07      0.00
    8    8    8     -0.80      0.00
   -8   -9   24      1.09      0.00
   -8   -9   23      0.34      0.00
   -8   -9   22     -0.30      0.00
   -8   -9   21     -1.81      0.00
   -8   -9   20     -4.11      0.00
   -8   -9   19     -0.90      0.00
   -8   -9   17      1.46      0.00
   -8   -9   16      0.06      0.00
   -8   -9   15     -0.49      0.00
   -8   -9   14      4.66      0.00
   -8   -9   13     -0.59      0.00
   -8   -9   12     -0.28      0.00
   -8   -9   11     -0.69      0.00
   -8   -9   10      1.49      0.00
   -8   -9    9     11.15      0.00
   -8   -9    8      0.73      0.00
   -8   -9    7     -0.85      0.00
   -8   -9    6     -1.84      0.00
   -8   -9    5     -5.22      0.00
   -8   -9    4     -1.50      0.00
   -8   -9    3      0.08      0.00
   -8   -9    2      1.04      0.00
   -8   -9    1      1.78      0.00
    8    9    0      1.12      0.00
    8    9    1     -3.68      0.00
    8    9    2     -3.14      0.00
    8    9    3      1.18      0.00
    8    9    4     -0.51      0.00
    8    9    5      1.97      0.00
    8    9    6      0.24      0.00
    8    9    7     -0.83      0.00
   -8  -10   24     -0.56      0.00
   -8  -10   23     -0.01      0.00
   -8  -10   22      1.24      0.00
   -8  -10   21      2.20      0.00
   -8  -10   20     -0.86      0.00
   -8  -10   19      0.59      0.00
   -8  -10   18     -3.00      0.00
   -8  -10   17      3.44      0.00
   -8  -10   16     -3.63      0.00
   -8  -10   15      1.71      0.00
   -8  -10   14      3.51      0.00
   -8  -10   13      7.37      0.00
   -8  -10   12     -0.07      0.00
   -8  -10   11     -1.70      0.00
   -8  -10   10     -8.49      0.00
   -8  -10    9      0.12      0.00
   -8  -10    8      4.73      0.00
   -8  -10    7      3.48      0.00
   -8  -10    6      4.96      0.00
   -8  -10    5      0.97      0.00
   -8  -10    4     -0.74      0.00
   -8  -10    3     -2.97      0.00
   -8  -10    2      1.45      0.00
   -8  -10    1     -0.67      0.00
    8   10    0      1.31      0.00
    8   10    1      1.27      0.00
    8   10    2     -4.81      0.00
    8   10    3      0.43      0.00
    8   10    4     -0.84      0.00
    8   10    5     -0.37      0.00
   -8  -11   23     -2.97      0.00
   -8  -11   22     -1.85      0.00
   -8  -11   21     -0.81      0.00
   -8  -11   20      0.96      0.00
   -8  -11   19     -0.47      0.00
   -8  -11   18      0.38      0.00
   -8  -11   17     -1.26      0.00
   -8  -11   16      1.37      0.00
   -8  -11   15     -2.62      0.00
   -8  -11   14     -0.37      0.00
   -8  -11   13      8.19      0.00
   -8  -11   12      4.85      0.00
   -8  -11   11      4.57      0.00
   -8  -11   10     -1.09      0.00
   -8  -11    9     -4.71      0.00
   -8  -11    8     -1.23      0.00
   -8  -11    7     -2.63      0.00
   -8  -11    6     -0.63      0.00
   -8  -11    5     -0.17      0.00
   -8  -11    4      0.83      0.00
   -8  -11    3     -0.85      0.00
   -8  -11    2     -4.72      0.00
   -8  -11    1      3.43      0.00
    8   11    0     -2.85      0.00
    8   11    1      3.81      0.00
    8   11    2      1.68      0.00
    8   11    3      0.21      0.00
    8   11    4      1.86      0.00
   -8  -12   23      0.92      0.00
   -8  -12   22     -1.09      0.00
   -8  -12   21      0.06      0.00
   -8  -12   20     -2.01      0.00
   -8  -12   19      0.96      0.00
   -8  -12   18     -1.26      0.00
   -8  -12   17      1.38      0.00
   -8  -12   16      0.38      0.00
   -8  -12   15     -1.02      0.00
   -8  -12   14     -3.52      0.00
   -8  -12   13     -2.52      0.00
   -8  -12   12      3.50      0.00
   -8  -12   11      3.04      0.00
   -8  -12   10      3.25      0.00
   -8  -12    9      0.63      0.00
   -8  -12    8     -0.73      0.00
   -8  -12    7      0.95      0.00
   -8  -12    6     -2.26      0.00
   -8  -12    5      1.69      0.00
   -8  -12    4     -1.59      0.00
   -8  -12    3      4.66      0.00
   -8  -12    2     -3.05      0.00
   -8  -12    1     -1.53      0.00
    8   12    0     -1.11      0.00
    8   12    1     -2.40      0.00
    8   12    2      1.26      0.00
    8   12    3     -0.32      0.00
   -8  -13   22      1.06      0.00
   -8  -13   21      0.42      0.00
   -8  -13   20      0.46      0.00
   -8  -13   19     -2.48      0.00
   -8  -13   18     -1.71      0.00
   -8  -13   17      0.13      0.00
   -8  -13   16      2.42      0.00
   -8  -13   15      2.92      0.00
   -8  -13   14      0.75      0.00
   -8  -13   13     -2.85      0.00
   -8  -13   12     -0.32      0.00
   -8  -13   10      2.04      0.00
   -8  -13    9     -0.26      0.00
   -8  -13    8      0.75      0.00
   -8  -13    6     -2.57      0.00
   -8  -13    5     -0.78      0.00
   -8  -13    4     -5.37      0.00
   -8  -13    3      2.17      0.00
   -8  -13    2      0.56      0.00
   -8  -13    1     -0.27      0.00
    8   13    0      0.59      0.00
    8   13    1     -0.31      0.00
    8   13    2     -0.85      0.00
   -8  -14   21      1.13      0.00
   -8  -14   20      2.23      0.00
   -8  -14   19      0.36      0.00
   -8  -14   18      0.90      0.00
   -8  -14   17     -2.83      0.00
   -8  -14   16      2.14      0.00
   -8  -14   15      0.25      0.00
   -8  -14   14      1.51      0.00
   -8  -14   13     -2.19      0.00
   -8  -14   12     -2.70      0.00
   -8  -14   11     -1.72      0.00
   -8  -14   10      0.19      0.00
   -8  -14    9      0.46      0.00
   -8  -14    8     -1.00      0.00
   -8  -14    7      3.25      0.00
   -8  -14    6     -0.39      0.00
   -8  -14    5      1.15      0.00
   -8  -14    4      0.04      0.00
   -8  -14    3     -3.91      0.00
   -8  -14    2      1.79      0.00
   -8  -14    1     -1.64      0.00
    8   14    0     -0.11      0.00
   -8  -15   20      0.39      0.00
   -8  -15   19      1.25      0.00
   -8  -15   18      0.15      0.00
   -8  -15   17     -1.17      0.00
   -8  -15   16     -0.68      0.00
   -8  -15   15      1.37      0.00
   -8  -15   14      1.28      0.00
   -8  -15   13      1.23      0.00
   -8  -15   12     -1.13      0.00
   -8  -15   11     -1.69      0.00
   -8  -15   10     -1.06      0.00
   -8  -15    9      0.95      0.00
   -8  -15    8     -1.41      0.00
   -8  -15    7      0.07      0.00
   -8  -15    6      0.84      0.00
   -8  -15    5     -0.64      0.00
   -8  -15    4      0.75      0.00
   -8  -15    3     -1.62      0.00
   -8  -15    2     -0.28      0.00
   -8  -15    1      0.84      0.00
   -8  -16   18      1.68      0.00
   -8  -16   17      0.21      0.00
   -8  -16   16      0.04      0.00
   -8  -16   15     -1.06      0.00
   -8  -16   14      2.18      0.00
   -8  -16   13      0.79      0.00
   -8  -16   12      0.77      0.00
   -8  -16   11     -0.53      0.00
   -8  -16   10     -0.60      0.00
   -8  -16    9      0.26      0.00
   -8  -16    8      0.99      0.00
   -8  -16    7     -2.79      0.00
   -8  -16    6      1.50      0.00
   -8  -16    5     -1.20      0.00
   -8  -16    4      1.39      0.00
   -8  -17   15     -0.36      0.00
   -8  -17   14      0.02      0.00
   -8  -17   13      0.08      0.00
   -8  -17   12      0.37      0.00
   -8  -17   11     -0.49      0.00
   -8  -17   10     -1.53      0.00
   -8  -17    9     -0.32      0.00
   -8  -17    8      0.11      0.00
   -9   18    8     -0.82      0.00
   -9   18    5      0.90      0.00
   -9   18    4      1.29      0.00
   -9   17   10      0.00      0.00
   -9   17    9     -0.15      0.00
   -9   17    8      1.34      0.00
   -9   17    7      0.84      0.00
   -9   17    6      2.87      0.00
   -9   17    5     -0.17      0.00
   -9   17    4      0.12      0.00
   -9   17    3      1.22      0.00
   -9   16   12     -1.01      0.00
   -9   16   11      0.45      0.00
   -9   16   10     -0.59      0.00
   -9   16    9     -0.84      0.00
   -9   16    8     -1.73      0.00
   -9   16    7     -1.61      0.00
   -9   16    5      0.48      0.00
   -9   16    4      0.28      0.00
   -9   16    3     -0.14      0.00
   -9   15   13     -0.46      0.00
   -9   15   12     -1.86      0.00
   -9   15   11     -1.47      0.00
   -9   15   10      3.69      0.00
   -9   15    9     -0.25      0.00
   -9   15    8      0.83      0.00
   -9   15    7      0.28      0.00
   -9   15    6     -1.94      0.00
   -9   15    5      2.47      0.00
   -9   15    4     -2.81      0.00
   -9   15    3     -0.32      0.00
   -9   15    2      0.91      0.00
    9  -15   11      1.05      0.00
    9  -15   12      0.67      0.00
    9  -15   13      0.64      0.00
    9  -15   14     -1.41      0.00
   -9   14   15      1.09      0.00
   -9   14   14      0.44      0.00
   -9   14   13      0.30      0.00
   -9   14   12     -2.62      0.00
   -9   14   11     -2.80      0.00
   -9   14   10     -3.80      0.00
   -9   14    9      1.07      0.00
   -9   14    8     -3.63      0.00
   -9   14    7     -1.20      0.00
   -9   14    6     -0.63      0.00
   -9   14    5     -2.08      0.00
   -9   14    4      1.29      0.00
   -9   14    3      0.62      0.00
   -9   14    2     -1.59      0.00
    9  -14    9     -2.68      0.00
    9  -14   10     -2.18      0.00
    9  -14   11     -0.24      0.00
    9  -14   12      0.77      0.00
    9  -14   13      2.58      0.00
    9  -14   14      1.95      0.00
    9  -14   15      1.36      0.00
    9  -14   16      0.33      0.00
   -9   13   16     -1.54      0.00
   -9   13   15     -1.64      0.00
   -9   13   14      0.72      0.00
   -9   13   13      1.73      0.00
   -9   13   12      1.37      0.00
   -9   13   11      2.01      0.00
   -9   13   10     -3.21      0.00
   -9   13    9      1.04      0.00
   -9   13    8      1.05      0.00
   -9   13    7      1.24      0.00
   -9   13    6      1.05      0.00
   -9   13    5      0.87      0.00
   -9   13    4     -4.30      0.00
   -9   13    3     -8.11      0.00
   -9   13    2     -4.09      0.00
    9  -13    7     -2.29      0.00
    9  -13    8      2.15      0.00
    9  -13    9      0.66      0.00
    9  -13   10     -0.84      0.00
    9  -13   11     -1.72      0.00
    9  -13   12     -0.90      0.00
    9  -13   13     -1.87      0.00
    9  -13   14     -0.13      0.00
    9  -13   15      0.08      0.00
    9  -13   16     -0.23      0.00
    9  -13   17      0.78      0.00
   -9   12   17      0.76      0.00
   -9   12   16      0.65      0.00
   -9   12   15      0.09      0.00
   -9   12   14     -2.46      0.00
   -9   12   13      0.96      0.00
   -9   12   12     -0.88      0.00
   -9   12   11      1.06      0.00
   -9   12   10     -0.69      0.00
   -9   12    9     -7.88      0.00
   -9   12    8     -3.18      0.00
   -9   12    7     -3.92      0.00
   -9   12    6      1.78      0.00
   -9   12    5      6.01      0.00
   -9   12    4      8.09      0.00
   -9   12    3      3.46      0.00
   -9   12    2     -2.65      0.00
   -9   12    1     -4.04      0.00
    9  -12    4      0.78      0.00
    9  -12    5     -5.15      0.00
    9  -12    6     -2.68      0.00
    9  -12    7     -4.82      0.00
    9  -12    8     -4.97      0.00
    9  -12    9      2.09      0.00
    9  -12   10      0.40      0.00
    9  -12   11      3.47      0.00
    9  -12   12      0.03      0.00
    9  -12   13      2.27      0.00
    9  -12   14     -0.68      0.00
    9  -12   15      1.39      0.00
    9  -12   16      0.79      0.00
    9  -12   17      1.52      0.00
   -9   11   18      1.16      0.00
   -9   11   17      1.94      0.00
   -9   11   16     -0.33      0.00
   -9   11   15      2.02      0.00
   -9   11   14     -1.88      0.00
   -9   11   13     -1.91      0.00
   -9   11   12      1.42      0.00
   -9   11   11      0.39      0.00
   -9   11   10      7.50      0.00
   -9   11    9      3.34      0.00
   -9   11    8     -0.57      0.00
   -9   11    7     -1.61      0.00
   -9   11    6     -6.35      0.00
   -9   11    5     -8.85      0.00
   -9   11    4      1.12      0.00
   -9   11    3      3.88      0.00
   -9   11    2     -1.06      0.00
   -9   11    1     -0.43      0.00
   -9   11    0     -7.38      0.00
    9  -11    1     -4.54      0.00
    9  -11    2      5.45      0.00
    9  -11    3     -3.24      0.00
    9  -11    4      2.93      0.00
    9  -11    5      4.00      0.00
    9  -11    6      4.69      0.00
    9  -11    7      0.96      0.00
    9  -11    8     -1.51      0.00
    9  -11    9     -3.73      0.00
    9  -11   10      1.00      0.00
    9  -11   11      0.35      0.00
    9  -11   12      0.47      0.00
    9  -11   13     -0.78      0.00
    9  -11   14     -0.76      0.00
    9  -11   15     -1.43      0.00
    9  -11   16     -2.35      0.00
    9  -11   17     -0.60      0.00
   -9   10   19      0.94      0.00
   -9   10   18     -0.24      0.00
   -9   10   17      1.62      0.00
   -9   10   16     -0.11      0.00
   -9   10   15      0.62      0.00
   -9   10   14      4.30      0.00
   -9   10   13     -7.50      0.00
   -9   10   12     -2.41      0.00
   -9   10   11     -8.62      0.00
   -9   10   10     -4.35      0.00
   -9   10    9     -0.21      0.00
   -9   10    8      0.40      0.00
   -9   10    7      2.42      0.00
   -9   10    6      5.50      0.00
   -9   10    5      1.49      0.00
   -9   10    4     -6.39      0.00
   -9   10    3      9.14      0.00
   -9   10    2      3.69      0.00
   -9   10    1      0.28      0.00
   -9   10    0     -0.74      0.00
    9  -10    1     -7.17      0.00
    9  -10    2     -0.26      0.00
    9  -10    3     -3.95      0.00
    9  -10    4     -8.38      0.00
    9  -10    5     -7.02      0.00
    9  -10    6     -0.64      0.00
    9  -10    7      1.84      0.00
    9  -10    8     -2.33      0.00
    9  -10    9     -0.21      0.00
    9  -10   10     -1.08      0.00
    9  -10   11      0.62      0.00
    9  -10   12      4.21      0.00
    9  -10   13      2.14      0.00
    9  -10   14      2.30      0.00
    9  -10   15      1.53      0.00
    9  -10   16     -0.71      0.00
    9  -10   17     -1.63      0.00
   -9    9   19      1.93      0.00
   -9    9   18      1.05      0.00
   -9    9   17     -1.25      0.00
   -9    9   16      1.55      0.00
   -9    9   15     -1.33      0.00
   -9    9   14      6.37      0.00
   -9    9   13      3.36      0.00
   -9    9   12     -3.62      0.00
   -9    9   11      1.50      0.00
   -9    9   10      0.26      0.00
   -9    9    9     -3.47      0.00
   -9    9    8     -1.05      0.00
   -9    9    7     -2.63      0.00
   -9    9    6     -0.30      0.00
   -9    9    5      2.45      0.00
   -9    9    4      0.38      0.00
   -9    9    3     -7.18      0.00
   -9    9    2      8.58      0.00
   -9    9    1     -2.70      0.00
   -9    9    0     -2.25      0.00
    9   -9    1     -4.34      0.00
    9   -9    2      2.14      0.00
    9   -9    3      2.96      0.00
    9   -9    4      3.09      0.00
    9   -9    5     -3.69      0.00
    9   -9    6     -0.04      0.00
    9   -9    7      4.64      0.00
    9   -9    8      6.59      0.00
    9   -9    9      0.18      0.00
    9   -9   10      2.36      0.00
    9   -9   11     -1.70      0.00
    9   -9   12     -1.47      0.00
    9   -9   13      0.34      0.00
    9   -9   14     -0.18      0.00
    9   -9   15      1.13      0.00
    9   -9   16      1.33      0.00
    9   -9   17     -0.85      0.00
   -9    8   20     -2.23      0.00
   -9    8   19     -0.49      0.00
   -9    8   18      2.98      0.00
   -9    8   17     -1.60      0.00
   -9    8   16      0.48      0.00
   -9    8   15     -2.06      0.00
   -9    8   14     -0.64      0.00
   -9    8   13      1.77      0.00
   -9    8   12     -3.95      0.00
   -9    8   11     -3.08      0.00
   -9    8   10      1.01      0.00
   -9    8    9      6.13      0.00
   -9    8    8      2.66      0.00
   -9    8    7      3.47      0.00
   -9    8    6      2.19      0.00
   -9    8    5     -0.37      0.00
   -9    8    4     -0.11      0.00
   -9    8    3     -3.28      0.00
   -9    8    2     -0.33      0.00
   -9    8    1      9.57      0.00
   -9    8    0      2.07      0.00
    9   -8    1     -6.21      0.00
    9   -8    2     -3.48      0.00
    9   -8    3     -1.80      0.00
    9   -8    4     -3.50      0.00
    9   -8    5     -1.37      0.00
    9   -8    6     -7.80      0.00
    9   -8    7     -0.97      0.00
    9   -8    8      4.07      0.00
    9   -8    9      0.87      0.00
    9   -8   10      1.97      0.00
    9   -8   11      1.69      0.00
    9   -8   12      1.58      0.00
    9   -8   13     -0.53      0.00
    9   -8   14      1.30      0.00
    9   -8   15     -0.44      0.00
    9   -8   16      1.71      0.00
    9   -8   17      0.92      0.00
   -9    7   20     -0.70      0.00
   -9    7   19     -3.52      0.00
   -9    7   18      0.27      0.00
   -9    7   17      0.85      0.00
   -9    7   16     -2.45      0.00
   -9    7   15      0.66      0.00
   -9    7   14      0.78      0.00
   -9    7   13      6.47      0.00
   -9    7   12      4.76      0.00
   -9    7   11     -3.04      0.00
   -9    7   10     -4.77      0.00
   -9    7    9     -2.91      0.00
   -9    7    8     -2.43      0.00
   -9    7    7     -5.01      0.00
   -9    7    6      1.84      0.00
   -9    7    5     -3.14      0.00
   -9    7    4     -6.78      0.00
   -9    7    3    -10.58      0.00
   -9    7    2     -9.45      0.00
   -9    7    1     -6.12      0.00
   -9    7    0      9.48      0.00
    9   -7    1      0.04      0.00
    9   -7    2     -3.81      0.00
    9   -7    3      8.24      0.00
    9   -7    4      2.99      0.00
    9   -7    5      6.70      0.00
    9   -7    6      1.49      0.00
    9   -7    7     -3.17      0.00
    9   -7    8      0.92      0.00
    9   -7    9      1.43      0.00
    9   -7   10     -2.03      0.00
    9   -7   11     -1.78      0.00
    9   -7   12     -0.30      0.00
    9   -7   13     -1.93      0.00
    9   -7   14     -1.24      0.00
    9   -7   15     -0.14      0.00
    9   -7   16      0.84      0.00
    9   -7   17      2.29      0.00
   -9    6   21      1.12      0.00
   -9    6   20      0.60      0.00
   -9    6   19      0.96      0.00
   -9    6   18     -0.59      0.00
   -9    6   17      4.77      0.00
   -9    6   16     -2.89      0.00
   -9    6   15     -5.22      0.00
   -9    6   14     -5.62      0.00
   -9    6   13      2.20      0.00
   -9    6   12      3.27      0.00
   -9    6   11      5.94      0.00
   -9    6   10      0.52      0.00
   -9    6    9     -0.22      0.00
   -9    6    8      4.57      0.00
   -9    6    7      2.39      0.00
   -9    6    6     -2.17      0.00
   -9    6    5     10.74      0.00
   -9    6    4      1.70      0.00
   -9    6    3     -0.80      0.00
   -9    6    2     -6.56      0.00
   -9    6    1     -5.04      0.00
   -9    6    0     -6.65      0.00
    9   -6    1     11.34      0.00
    9   -6    2    -11.14      0.00
    9   -6    3     -4.39      0.00
    9   -6    4      1.14      0.00
    9   -6    5     -1.44      0.00
    9   -6    6      3.77      0.00
    9   -6    7     -0.78      0.00
    9   -6    8     -1.19      0.00
    9   -6    9      2.36      0.00
    9   -6   10      2.84      0.00
    9   -6   11     -0.42      0.00
    9   -6   12     -1.20      0.00
    9   -6   13      1.52      0.00
    9   -6   14     -3.27      0.00
    9   -6   15      0.37      0.00
    9   -6   16     -0.38      0.00
    9   -6   17      0.24      0.00
   -9    5   21      0.16      0.00
   -9    5   20     -2.31      0.00
   -9    5   19      0.60      0.00
   -9    5   18     -1.70      0.00
   -9    5   17      6.14      0.00
   -9    5   16      6.01      0.00
   -9    5   15      4.95      0.00
   -9    5   14     -3.76      0.00
   -9    5   13      0.17      0.00
   -9    5   12      1.83      0.00
   -9    5   11      0.38      0.00
   -9    5   10      0.04      0.00
   -9    5    9      1.34      0.00
   -9    5    8     -7.59      0.00
   -9    5    7      6.68      0.00
   -9    5    6    -10.26      0.00
   -9    5    5     -9.98      0.00
   -9    5    4      2.42      0.00
   -9    5    3     -1.33      0.00
   -9    5    2     -3.98      0.00
   -9    5    1      2.43      0.00
   -9    5    0     -6.45      0.00
    9   -5    1      6.09      0.00
    9   -5    2      7.58      0.00
    9   -5    3     -4.69      0.00
    9   -5    4      2.49      0.00
    9   -5    5      4.73      0.00
    9   -5    6      3.63      0.00
    9   -5    7     -0.02      0.00
    9   -5    8     -0.31      0.00
    9   -5    9     -3.22      0.00
    9   -5   10     -1.05      0.00
    9   -5   11      2.73      0.00
    9   -5   12     -3.34      0.00
    9   -5   13     -0.54      0.00
    9   -5   14     -0.64      0.00
    9   -5   15     -1.71      0.00
    9   -5   16      0.58      0.00
   -9    4   21     -0.61      0.00
   -9    4   20     -0.10      0.00
   -9    4   19     -1.61      0.00
   -9    4   18     -1.83      0.00
   -9    4   17     -0.50      0.00
   -9    4   16      2.68      0.00
   -9    4   15      6.66      0.00
   -9    4   14      0.73      0.00
   -9    4   13     -7.18      0.00
   -9    4   12     -2.79      0.00
   -9    4   11     -0.46      0.00
   -9    4   10     -1.65      0.00
   -9    4    9      1.49      0.00
   -9    4    8      0.62      0.00
   -9    4    7     -4.03      0.00
   -9    4    6      4.92      0.00
   -9    4    5     -0.28      0.00
   -9    4    4     -3.88      0.00
   -9    4    3     22.54      0.00
   -9    4    2      1.47      0.00
   -9    4    1      4.94      0.00
   -9    4    0     -0.94      0.00
    9   -4    1    -11.47      0.00
    9   -4    2     -0.36      0.00
    9   -4    3     -7.54      0.00
    9   -4    4     -8.98      0.00
    9   -4    5      0.34      0.00
    9   -4    6      2.89      0.00
    9   -4    7      5.10      0.00
    9   -4    8     -2.90      0.00
    9   -4    9      6.01      0.00
    9   -4   10     -4.19      0.00
    9   -4   11      3.87      0.00
    9   -4   12      0.06      0.00
    9   -4   13     -1.82      0.00
    9   -4   14      0.04      0.00
    9   -4   15     -1.72      0.00
    9   -4   16     -0.58      0.00
   -9    3   22     -0.70      0.00
   -9    3   21      0.90      0.00
   -9    3   20     -0.54      0.00
   -9    3   19      1.83      0.00
   -9    3   18     -3.93      0.00
   -9    3   17     -3.78      0.00
   -9    3   16      2.11      0.00
   -9    3   15      5.69      0.00
   -9    3   14     11.06      0.00
   -9    3   13      3.86      0.00
   -9    3   12     -7.21      0.00
   -9    3   11     -0.19      0.00
   -9    3   10     -4.54      0.00
   -9    3    9     -0.40      0.00
   -9    3    8      0.11      0.00
   -9    3    7     -0.33      0.00
   -9    3    6     -7.42      0.00
   -9    3    5     -5.51      0.00
   -9    3    4    -13.67      0.00
   -9    3    3    -10.86      0.00
   -9    3    2     16.65      0.00
   -9    3    1     -0.85      0.00
   -9    3    0     12.82      0.00
    9   -3    1      8.35      0.00
    9   -3    2      5.88      0.00
    9   -3    3      0.41      0.00
    9   -3    4     -5.13      0.00
    9   -3    5     -9.14      0.00
    9   -3    6     -2.02      0.00
    9   -3    7      6.65      0.00
    9   -3    8     -2.98      0.00
    9   -3    9      1.25      0.00
    9   -3   10     -0.52      0.00
    9   -3   11     -3.66      0.00
    9   -3   12      2.33      0.00
    9   -3   13      0.57      0.00
    9   -3   14      0.33      0.00
    9   -3   15      2.97      0.00
   -9    2   22      1.61      0.00
   -9    2   21     -1.40      0.00
   -9    2   20      0.80      0.00
   -9    2   19     -0.74      0.00
   -9    2   18      0.45      0.00
   -9    2   17     -5.67      0.00
   -9    2   16     -0.77      0.00
   -9    2   15      0.97      0.00
   -9    2   14     10.17      0.00
   -9    2   13      8.44      0.00
   -9    2   12      4.16      0.00
   -9    2   11     -3.39      0.00
   -9    2   10      2.34      0.00
   -9    2    9     -1.52      0.00
   -9    2    8     -5.79      0.00
   -9    2    7      7.06      0.00
   -9    2    6      4.96      0.00
   -9    2    5      4.98      0.00
   -9    2    4      6.77      0.00
   -9    2    3     -7.13      0.00
   -9    2    2      5.18      0.00
   -9    2    1      7.11      0.00
   -9    2    0     -4.90      0.00
    9   -2    1     -1.77      0.00
    9   -2    2      1.69      0.00
    9   -2    3      6.11      0.00
    9   -2    4     -5.24      0.00
    9   -2    5     -0.22      0.00
    9   -2    6    -13.19      0.00
    9   -2    7      1.71      0.00
    9   -2    8      5.69      0.00
    9   -2    9     -1.57      0.00
    9   -2   10      5.93      0.00
    9   -2   11     -2.86      0.00
    9   -2   12     -1.32      0.00
    9   -2   13      0.40      0.00
    9   -2   14     -1.65      0.00
    9   -2   15      0.39      0.00
   -9    1   22     -1.11      0.00
   -9    1   21     -0.11      0.00
   -9    1   20      1.29      0.00
   -9    1   19      0.87      0.00
   -9    1   18      6.58      0.00
   -9    1   17     -1.98      0.00
   -9    1   16     -8.63      0.00
   -9    1   15     -6.38      0.00
   -9    1   14     -5.79      0.00
   -9    1   13      2.97      0.00
   -9    1   12      1.65      0.00
   -9    1   11      3.96      0.00
   -9    1   10      2.02      0.00
   -9    1    9      6.31      0.00
   -9    1    8     -1.77      0.00
   -9    1    7    -22.64      0.00
   -9    1    6      8.77      0.00
   -9    1    5    -10.26      0.00
   -9    1    4     11.49      0.00
   -9    1    3     -1.46      0.00
   -9    1    2     -6.36      0.00
   -9    1    1      2.95      0.00
   -9    1    0     -2.30      0.00
    9   -1    1    -10.20      0.00
    9   -1    2     -3.22      0.00
    9   -1    3      7.69      0.00
    9   -1    4      4.26      0.00
    9   -1    5      0.53      0.00
    9   -1    6     -0.17      0.00
    9   -1    7    -12.42      0.00
    9   -1    8      4.36      0.00
    9   -1    9     -1.66      0.00
    9   -1   10      1.58      0.00
    9   -1   11      2.63      0.00
    9   -1   12     -1.41      0.00
    9   -1   13     -0.56      0.00
    9   -1   14      0.41      0.00
   -9    0   23      1.47      0.00
   -9    0   22      3.13      0.00
   -9    0   21     -2.86      0.00
   -9    0   20     -3.91      0.00
   -9    0   19     -2.53      0.00
   -9    0   18      0.71      0.00
   -9    0   17      9.06      0.00
   -9    0   16      0.09      0.00
   -9    0   15     -3.71      0.00
   -9    0   14     -6.17      0.00
   -9    0   13     -1.40      0.00
   -9    0   12     -3.37      0.00
   -9    0   11     -3.65      0.00
   -9    0   10      3.13      0.00
   -9    0    9      0.83      0.00
   -9    0    8     25.47      0.00
   -9    0    7     -2.06      0.00
   -9    0    6     -4.55      0.00
   -9    0    5      6.61      0.00
   -9    0    4     -6.99      0.00
   -9    0    3      6.14      0.00
   -9    0    2      2.79      0.00
   -9    0    1     -1.28      0.00
    9    0    0      3.81      0.00
    9    0    1     -5.16      0.00
    9    0    2    -16.29      0.00
    9    0    3     -5.89      0.00
    9    0    4      6.73      0.00
    9    0    5     -2.81      0.00
    9    0    6      9.19      0.00
    9    0    7     -4.00      0.00
    9    0    8     -1.31      0.00
    9    0    9      0.81      0.00
    9    0   10     -0.87      0.00
    9    0   11      0.55      0.00
    9    0   12      1.52      0.00
    9    0   13      0.58      0.00
   -9   -1   23     -0.85      0.00
   -9   -1   22      0.73      0.00
   -9   -1   21      2.11      0.00
   -9   -1   20     -3.09      0.00
   -9   -1   19     -2.48      0.00
   -9   -1   18     -2.88      0.00
   -9   -1   17      4.56      0.00
   -9   -1   16      6.39      0.00
   -9   -1   15      3.43      0.00
   -9   -1   14     -2.71      0.00
   -9   -1   13      0.05      0.00
   -9   -1   12      7.87      0.00
   -9   -1   11     -7.25      0.00
   -9   -1   10      6.57      0.00
   -9   -1    9    -10.86      0.00
   -9   -1    8      0.16      0.00
   -9   -1    7     11.40      0.00
   -9   -1    6    -14.13      0.00
   -9   -1    5     -0.46      0.00
   -9   -1    4      0.95      0.00
   -9   -1    3     -2.00      0.00
   -9   -1    2      3.96      0.00
   -9   -1    1      3.84      0.00
    9    1    0      4.03      0.00
    9    1    1      1.89      0.00
    9    1    2     -0.02      0.00
    9    1    3    -14.61      0.00
    9    1    4      4.65      0.00
    9    1    5     -0.81      0.00
    9    1    6      0.66      0.00
    9    1    7      2.42      0.00
    9    1    8     -2.78      0.00
    9    1    9     -0.29      0.00
    9    1   10     -0.01      0.00
    9    1   11     -1.10      0.00
    9    1   12      0.32      0.00
   -9   -2   23     -2.00      0.00
   -9   -2   22     -2.83      0.00
   -9   -2   21      2.58      0.00
   -9   -2   20      0.60      0.00
   -9   -2   19      0.75      0.00
   -9   -2   18     -2.10      0.00
   -9   -2   17     -1.12      0.00
   -9   -2   16      2.12      0.00
   -9   -2   15      0.74      0.00
   -9   -2   14      1.74      0.00
   -9   -2   13    -12.24      0.00
   -9   -2   12      3.20      0.00
   -9   -2   11     -5.63      0.00
   -9   -2   10    -10.21      0.00
   -9   -2    9      2.62      0.00
   -9   -2    8    -13.61      0.00
   -9   -2    7     10.66      0.00
   -9   -2    6      6.13      0.00
   -9   -2    5     -0.14      0.00
   -9   -2    4      5.91      0.00
   -9   -2    3      4.48      0.00
   -9   -2    2     -4.59      0.00
   -9   -2    1      0.29      0.00
    9    2    0      3.01      0.00
    9    2    1      4.07      0.00
    9    2    2      3.41      0.00
    9    2    3     -1.64      0.00
    9    2    4    -12.12      0.00
    9    2    5      2.49      0.00
    9    2    6     -3.24      0.00
    9    2    7      1.83      0.00
    9    2    8      0.78      0.00
    9    2    9      0.51      0.00
    9    2   10      0.88      0.00
    9    2   11      0.81      0.00
    9    2   12     -1.58      0.00
   -9   -3   23      0.16      0.00
   -9   -3   22     -2.41      0.00
   -9   -3   21     -1.70      0.00
   -9   -3   20     -1.60      0.00
   -9   -3   19     -3.50      0.00
   -9   -3   18     -3.53      0.00
   -9   -3   17     -2.88      0.00
   -9   -3   16      0.63      0.00
   -9   -3   15      0.40      0.00
   -9   -3   14      5.21      0.00
   -9   -3   13      1.44      0.00
   -9   -3   12     -2.13      0.00
   -9   -3   11     17.35      0.00
   -9   -3   10     -9.26      0.00
   -9   -3    9      4.49      0.00
   -9   -3    8     -8.87      0.00
   -9   -3    7     -7.23      0.00
   -9   -3    6      1.92      0.00
   -9   -3    5     -4.52      0.00
   -9   -3    4     -4.50      0.00
   -9   -3    3      4.02      0.00
   -9   -3    2      1.82      0.00
   -9   -3    1     -2.99      0.00
    9    3    0      1.86      0.00
    9    3    1      6.71      0.00
    9    3    2      5.33      0.00
    9    3    3      8.54      0.00
    9    3    4      0.10      0.00
    9    3    5     -0.76      0.00
    9    3    6     -2.04      0.00
    9    3    7      1.29      0.00
    9    3    8     -3.70      0.00
    9    3    9      0.81      0.00
    9    3   10     -0.17      0.00
    9    3   11      0.23      0.00
   -9   -4   23     -1.50      0.00
   -9   -4   22      1.39      0.00
   -9   -4   21     -0.95      0.00
   -9   -4   20      3.03      0.00
   -9   -4   19      1.78      0.00
   -9   -4   18      1.52      0.00
   -9   -4   17     -5.08      0.00
   -9   -4   16      1.97      0.00
   -9   -4   15     -2.47      0.00
   -9   -4   14     -0.62      0.00
   -9   -4   13      2.32      0.00
   -9   -4   12     -9.75      0.00
   -9   -4   11      7.51      0.00
   -9   -4   10      6.89      0.00
   -9   -4    9     -3.69      0.00
   -9   -4    8     -3.00      0.00
   -9   -4    7     -7.65      0.00
   -9   -4    6     -6.83      0.00
   -9   -4    5      3.62      0.00
   -9   -4    4     -2.24      0.00
   -9   -4    3      0.38      0.00
   -9   -4    2      1.64      0.00
   -9   -4    1      3.71      0.00
    9    4    0     -8.17      0.00
    9    4    1      3.84      0.00
    9    4    2     -0.92      0.00
    9    4    3      3.57      0.00
    9    4    4      2.03      0.00
    9    4    5      1.11      0.00
    9    4    6     -1.83      0.00
    9    4    7      0.73      0.00
    9    4    8      0.33      0.00
    9    4    9     -2.25      0.00
    9    4   10     -0.18      0.00
   -9   -5   23      1.29      0.00
   -9   -5   22     -0.46      0.00
   -9   -5   21      0.89      0.00
   -9   -5   20     -2.04      0.00
   -9   -5   19      1.57      0.00
   -9   -5   18      1.00      0.00
   -9   -5   17      0.28      0.00
   -9   -5   16     -6.51      0.00
   -9   -5   15      5.19      0.00
   -9   -5   14     -2.21      0.00
   -9   -5   13      7.24      0.00
   -9   -5   12     -1.47      0.00
   -9   -5   11     -9.31      0.00
   -9   -5   10      6.93      0.00
   -9   -5    9      0.26      0.00
   -9   -5    8      2.70      0.00
   -9   -5    7     -2.68      0.00
   -9   -5    6     -2.24      0.00
   -9   -5    5     -6.27      0.00
   -9   -5    4     -5.72      0.00
   -9   -5    3     -4.43      0.00
   -9   -5    2     -3.92      0.00
   -9   -5    1      1.73      0.00
    9    5    0      1.78      0.00
    9    5    1     -2.12      0.00
    9    5    2      3.24      0.00
    9    5    3      3.71      0.00
    9    5    4      0.05      0.00
    9    5    5      2.70      0.00
    9    5    6     -1.05      0.00
    9    5    7     -2.24      0.00
    9    5    8      2.67      0.00
    9    5    9     -1.71      0.00
   -9   -6   23     -0.83      0.00
   -9   -6   22      2.03      0.00
   -9   -6   21      0.20      0.00
   -9   -6   20      0.00      0.00
   -9   -6   19     -1.93      0.00
   -9   -6   18      2.27      0.00
   -9   -6   17      1.77      0.00
   -9   -6   16     -4.14      0.00
   -9   -6   15     -4.77      0.00
   -9   -6   14     -2.14      0.00
   -9   -6   13     -2.78      0.00
   -9   -6   12      2.98      0.00
   -9   -6   11     -5.76      0.00
   -9   -6   10      0.83      0.00
   -9   -6    9      0.31      0.00
   -9   -6    8      6.01      0.00
   -9   -6    7     -1.55      0.00
   -9   -6    6      5.43      0.00
   -9   -6    5      1.78      0.00
   -9   -6    4      2.90      0.00
   -9   -6    3     -1.53      0.00
   -9   -6    2      0.10      0.00
   -9   -6    1     -4.36      0.00
    9    6    0      0.12      0.00
    9    6    1     -3.69      0.00
    9    6    2     -3.95      0.00
    9    6    3      2.35      0.00
    9    6    4      2.54      0.00
    9    6    5     -0.75      0.00
    9    6    6      2.86      0.00
    9    6    7     -2.58      0.00
    9    6    8      1.17      0.00
   -9   -7   23      0.12      0.00
   -9   -7   22     -0.97      0.00
   -9   -7   21      0.23      0.00
   -9   -7   20      0.21      0.00
   -9   -7   19     -2.13      0.00
   -9   -7   18      1.08      0.00
   -9   -7   17      3.85      0.00
   -9   -7   16      6.56      0.00
   -9   -7   15     -0.58      0.00
   -9   -7   14      2.90      0.00
   -9   -7   13     -2.16      0.00
   -9   -7   12      0.47      0.00
   -9   -7   11     -6.00      0.00
   -9   -7   10     -3.56      0.00
   -9   -7    9     -1.04      0.00
   -9   -7    8      3.01      0.00
   -9   -7    7      2.31      0.00
   -9   -7    6     -1.93      0.00
   -9   -7    5      1.97      0.00
   -9   -7    4      2.69      0.00
   -9   -7    3     -1.80      0.00
   -9   -7    2      2.73      0.00
   -9   -7    1      0.37      0.00
    9    7    0      0.50      0.00
    9    7    1      0.43      0.00
    9    7    2     -0.52      0.00
    9    7    3     -5.34      0.00
    9    7    4      3.24      0.00
    9    7    5     -0.93      0.00
    9    7    6     -0.02      0.00
    9    7    7      0.87      0.00
   -9   -8   23     -0.17      0.00
   -9   -8   22      3.10      0.00
   -9   -8   21      2.47      0.00
   -9   -8   20      0.47      0.00
   -9   -8   19     -2.03      0.00
   -9   -8   18     -6.40      0.00
   -9   -8   17     -1.91      0.00
   -9   -8   16     -0.25      0.00
   -9   -8   15     -0.09      0.00
   -9   -8   14      0.62      0.00
   -9   -8   13     -1.40      0.00
   -9   -8   12      4.02      0.00
   -9   -8   11     -3.81      0.00
   -9   -8   10     -4.33      0.00
   -9   -8    9     -2.24      0.00
   -9   -8    8     -0.70      0.00
   -9   -8    7      6.18      0.00
   -9   -8    6      2.67      0.00
   -9   -8    5     -2.04      0.00
   -9   -8    4      1.49      0.00
   -9   -8    3     -2.17      0.00
   -9   -8    2     -1.79      0.00
   -9   -8    1     -0.74      0.00
    9    8    0      2.58      0.00
    9    8    1     -0.95      0.00
    9    8    2      1.79      0.00
    9    8    3     -3.81      0.00
    9    8    4     -2.68      0.00
    9    8    5      1.47      0.00
    9    8    6      0.19      0.00
   -9   -9   23     -1.04      0.00
   -9   -9   22     -1.13      0.00
   -9   -9   21     -0.49      0.00
   -9   -9   20      2.15      0.00
   -9   -9   19      1.02      0.00
   -9   -9   18     -0.41      0.00
   -9   -9   17     -0.58      0.00
   -9   -9   16      0.18      0.00
   -9   -9   15      0.75      0.00
   -9   -9   14     -2.42      0.00
   -9   -9   13     -1.07      0.00
   -9   -9   12      3.02      0.00
   -9   -9   11      8.71      0.00
   -9   -9   10     -1.14      0.00
   -9   -9    9     -1.63      0.00
   -9   -9    8     -5.94      0.00
   -9   -9    7     -4.45      0.00
   -9   -9    6      2.24      0.00
   -9   -9    5      0.93      0.00
   -9   -9    4      2.47      0.00
   -9   -9    3      2.11      0.00
   -9   -9    2      0.43      0.00
   -9   -9    1     -2.68      0.00
    9    9    0      2.70      0.00
    9    9    1      0.91      0.00
    9    9    2      0.38      0.00
    9    9    3      1.66      0.00
    9    9    4     -3.23      0.00
    9    9    5     -0.39      0.00
   -9  -10   23      2.27      0.00
   -9  -10   22      0.01      0.00
   -9  -10   21      0.22      0.00
   -9  -10   20     -2.36      0.00
   -9  -10   19      2.78      0.00
   -9  -10   18     -1.33      0.00
   -9  -10   17      0.12      0.00
   -9  -10   16      0.56      0.00
   -9  -10   15     -0.98      0.00
   -9  -10   14     -2.03      0.00
   -9  -10   13     -3.55      0.00
   -9  -10   12     -6.51      0.00
   -9  -10   11      6.27      0.00
   -9  -10   10      3.79      0.00
   -9  -10    9      4.46      0.00
   -9  -10    8      1.49      0.00
   -9  -10    7     -1.55      0.00
   -9  -10    6     -2.15      0.00
   -9  -10    5     -1.39      0.00
   -9  -10    4      0.15      0.00
   -9  -10    3     -0.63      0.00
   -9  -10    2      1.38      0.00
   -9  -10    1     -0.77      0.00
    9   10    0     -4.20      0.00
    9   10    1      1.86      0.00
    9   10    2     -1.56      0.00
    9   10    3      0.47      0.00
    9   10    4      1.36      0.00
   -9  -11   23      0.83      0.00
   -9  -11   22      1.29      0.00
   -9  -11   21      0.75      0.00
   -9  -11   20     -0.91      0.00
   -9  -11   19      1.09      0.00
   -9  -11   18      0.57      0.00
   -9  -11   17      1.25      0.00
   -9  -11   16     -0.03      0.00
   -9  -11   15      3.29      0.00
   -9  -11   14     -1.10      0.00
   -9  -11   13     -1.47      0.00
   -9  -11   12     -5.09      0.00
   -9  -11   11     -5.18      0.00
   -9  -11   10      2.35      0.00
   -9  -11    9     -0.84      0.00
   -9  -11    8      1.46      0.00
   -9  -11    7     -0.69      0.00
   -9  -11    6     -0.80      0.00
   -9  -11    5     -1.08      0.00
   -9  -11    4     -3.07      0.00
   -9  -11    3      1.59      0.00
   -9  -11    2     -1.12      0.00
   -9  -11    1      4.73      0.00
    9   11    0     -0.75      0.00
    9   11    1     -0.65      0.00
    9   11    2     -0.09      0.00
    9   11    3     -2.44      0.00
   -9  -12   22     -0.08      0.00
   -9  -12   21      1.24      0.00
   -9  -12   20      0.95      0.00
   -9  -12   19      0.28      0.00
   -9  -12   18      1.71      0.00
   -9  -12   17     -1.59      0.00
   -9  -12   16     -1.90      0.00
   -9  -12   15      0.39      0.00
   -9  -12   14      0.90      0.00
   -9  -12   13      1.75      0.00
   -9  -12   12     -0.53      0.00
   -9  -12   11     -3.24      0.00
   -9  -12   10     -0.93      0.00
   -9  -12    9      0.61      0.00
   -9  -12    8      1.48      0.00
   -9  -12    7      0.89      0.00
   -9  -12    6      0.96      0.00
   -9  -12    5      0.97      0.00
   -9  -12    4     -3.41      0.00
   -9  -12    3     -0.37      0.00
   -9  -12    2     -3.27      0.00
   -9  -12    1      0.26      0.00
    9   12    0      1.50      0.00
    9   12    1     -1.60      0.00
   -9  -13   22     -0.40      0.00
   -9  -13   21     -0.75      0.00
   -9  -13   20     -0.75      0.00
   -9  -13   19      1.13      0.00
   -9  -13   18      2.15      0.00
   -9  -13   17      0.50      0.00
   -9  -13   16      0.01      0.00
   -9  -13   15     -2.05      0.00
   -9  -13   14      3.14      0.00
   -9  -13   13      1.19      0.00
   -9  -13   12      2.40      0.00
   -9  -13   11     -1.50      0.00
   -9  -13   10     -2.70      0.00
   -9  -13    9     -1.53      0.00
   -9  -13    8     -2.29      0.00
   -9  -13    7      1.31      0.00
   -9  -13    6     -3.25      0.00
   -9  -13    5      4.16      0.00
   -9  -13    4      0.18      0.00
   -9  -13    3      0.73      0.00
   -9  -13    2      1.44      0.00
   -9  -13    1     -1.98      0.00
    9   13    0      0.54      0.00
   -9  -14   20      0.87      0.00
   -9  -14   19     -0.40      0.00
   -9  -14   18      0.87      0.00
   -9  -14   17      0.49      0.00
   -9  -14   16      0.63      0.00
   -9  -14   15     -2.30      0.00
   -9  -14   14     -0.95      0.00
   -9  -14   13      0.74      0.00
   -9  -14   12      2.34      0.00
   -9  -14   11      1.09      0.00
   -9  -14   10     -0.58      0.00
   -9  -14    9     -0.10      0.00
   -9  -14    8     -1.11      0.00
   -9  -14    7      0.82      0.00
   -9  -14    6     -1.17      0.00
   -9  -14    5     -0.81      0.00
   -9  -14    4      1.94      0.00
   -9  -14    3     -0.75      0.00
   -9  -14    2      0.93      0.00
   -9  -15   19     -0.49      0.00
   -9  -15   18     -0.29      0.00
   -9  -15   17      0.06      0.00
   -9  -15   16      0.03      0.00
   -9  -15   15     -0.11      0.00
   -9  -15   14     -1.25      0.00
   -9  -15   13     -1.65      0.00
   -9  -15   12      1.00      0.00
   -9  -15   11      1.73      0.00
   -9  -15   10      0.35      0.00
   -9  -15    9      0.40      0.00
   -9  -15    8      0.54      0.00
   -9  -15    7      0.25      0.00
   -9  -15    6      1.59      0.00
   -9  -15    5     -2.26      0.00
   -9  -15    4      1.56      0.00
   -9  -16   16     -0.06      0.00
   -9  -16   15      0.75      0.00
   -9  -16   14     -0.25      0.00
   -9  -16   13     -0.78      0.00
   -9  -16   12     -0.32      0.00
   -9  -16   11      1.12      0.00
   -9  -16   10      0.84      0.00
   -9  -16    9     -0.17      0.00
   -9  -16    8      0.53      0.00
   -9  -16    7      0.44      0.00
  -10   17   10      0.49      0.00
  -10   17    9      0.70      0.00
  -10   17    8     -0.93      0.00
  -10   17    7     -1.83      0.00
  -10   17    6     -2.06      0.00
  -10   17    5     -0.88      0.00
  -10   17    4     -1.51      0.00
  -10   16   12     -0.10      0.00
  -10   16   11     -0.68      0.00
  -10   16   10     -0.64      0.00
  -10   16    9     -2.03      0.00
  -10   16    8      2.71      0.00
  -10   16    7      0.04      0.00
  -10   16    6      0.37      0.00
  -10   16    5      0.18      0.00
  -10   16    4     -1.89      0.00
  -10   16    3      0.11      0.00
  -10   15   13      2.74      0.00
  -10   15   12      3.18      0.00
  -10   15   11      1.45      0.00
  -10   15   10     -0.93      0.00
  -10   15    9     -0.14      0.00
  -10   15    8     -0.90      0.00
  -10   15    7      3.44      0.00
  -10   15    6     -1.74      0.00
  -10   15    5     -0.26      0.00
  -10   15    4      0.06      0.00
  -10   15    3     -1.74      0.00
   10  -15   10      1.27      0.00
   10  -15   11     -2.00      0.00
   10  -15   12     -1.73      0.00
  -10   14   15     -0.26      0.00
  -10   14   14     -1.17      0.00
  -10   14   13     -1.83      0.00
  -10   14   12      2.36      0.00
  -10   14   11      1.43      0.00
  -10   14   10      0.50      0.00
  -10   14    9     -0.20      0.00
  -10   14    8     -1.10      0.00
  -10   14    7      0.89      0.00
  -10   14    6      3.06      0.00
  -10   14    5      3.51      0.00
  -10   14    4      2.41      0.00
  -10   14    3      4.69      0.00
  -10   14    2      1.21      0.00
   10  -14    8     -0.58      0.00
   10  -14    9      0.27      0.00
   10  -14   10      1.69      0.00
   10  -14   11      2.04      0.00
   10  -14   12      0.00      0.00
   10  -14   13     -1.14      0.00
   10  -14   14      0.22      0.00
   10  -14   15     -1.91      0.00
  -10   13   16      0.50      0.00
  -10   13   15      0.98      0.00
  -10   13   14     -0.15      0.00
  -10   13   13     -0.10      0.00
  -10   13   12     -2.54      0.00
  -10   13   11      3.20      0.00
  -10   13   10      0.70      0.00
  -10   13    9      2.78      0.00
  -10   13    8      1.03      0.00
  -10   13    7     -3.20      0.00
  -10   13    6     -3.38      0.00
  -10   13    5     -4.85      0.00
  -10   13    4     -0.99      0.00
  -10   13    3      1.12      0.00
  -10   13    2      6.51      0.00
  -10   13    1      2.47      0.00
   10  -13    6      2.51      0.00
   10  -13    7     -2.06      0.00
   10  -13    8     -2.15      0.00
   10  -13    9     -2.78      0.00
   10  -13   10     -2.02      0.00
   10  -13   11      0.14      0.00
   10  -13   12     -0.60      0.00
   10  -13   13      0.04      0.00
   10  -13   14     -2.18      0.00
   10  -13   15      0.23      0.00
   10  -13   16     -1.90      0.00
  -10   12   17     -0.70      0.00
  -10   12   16     -0.70      0.00
  -10   12   15      0.65      0.00
  -10   12   14     -1.48      0.00
  -10   12   13      0.86      0.00
  -10   12   12     -3.00      0.00
  -10   12   11     -3.52      0.00
  -10   12   10      0.32      0.00
  -10   12    9      0.95      0.00
  -10   12    8      4.66      0.00
  -10   12    7      6.78      0.00
  -10   12    6      2.11      0.00
  -10   12    5      2.83      0.00
  -10   12    4     -1.73      0.00
  -10   12    3     -2.64      0.00
  -10   12    2     -0.22      0.00
  -10   12    1      7.27      0.00
  -10   12    0     -3.96      0.00
   10  -12    1     -3.61      0.00
   10  -12    2     -3.96      0.00
   10  -12    3     -4.76      0.00
   10  -12    4      0.46      0.00
   10  -12    5     -2.14      0.00
   10  -12    6     -1.53      0.00
   10  -12    7      4.01      0.00
   10  -12    8      1.18      0.00
   10  -12    9      1.25      0.00
   10  -12   10      0.13      0.00
   10  -12   11     -0.16      0.00
   10  -12   12      1.64      0.00
   10  -12   13      1.50      0.00
   10  -12   14      0.84      0.00
   10  -12   15      0.00      0.00
   10  -12   16     -0.11      0.00
  -10   11   18     -0.35      0.00
  -10   11   17     -0.47      0.00
  -10   11   16     -1.94      0.00
  -10   11   15      0.32      0.00
  -10   11   14      1.79      0.00
  -10   11   13      1.23      0.00
  -10   11   12      6.74      0.00
  -10   11   11     -2.67      0.00
  -10   11   10      0.96      0.00
  -10   11    9     -3.22      0.00
  -10   11    8     -2.99      0.00
  -10   11    7     -4.40      0.00
  -10   11    6      1.16      0.00
  -10   11    5     -3.35      0.00
  -10   11    4     -0.91      0.00
  -10   11    3      0.64      0.00
  -10   11    2     -6.36      0.00
  -10   11    1      8.02      0.00
  -10   11    0      8.28      0.00
   10  -11    1      0.95      0.00
   10  -11    2      3.58      0.00
   10  -11    3      0.29      0.00
   10  -11    4      2.83      0.00
   10  -11    5      0.13      0.00
   10  -11    6     -3.47      0.00
   10  -11    7     -2.60      0.00
   10  -11    8     -1.33      0.00
   10  -11    9      1.52      0.00
   10  -11   10     -3.68      0.00
   10  -11   11     -0.53      0.00
   10  -11   12     -2.17      0.00
   10  -11   13      0.56      0.00
   10  -11   14      0.22      0.00
   10  -11   15      1.63      0.00
   10  -11   16      0.41      0.00
  -10   10   19     -0.20      0.00
  -10   10   18     -2.43      0.00
  -10   10   17      0.54      0.00
  -10   10   16     -1.06      0.00
  -10   10   15     -5.28      0.00
  -10   10   14     -0.29      0.00
  -10   10   13     -1.91      0.00
  -10   10   12      2.03      0.00
  -10   10   11      5.50      0.00
  -10   10   10     -1.74      0.00
  -10   10    9      4.92      0.00
  -10   10    8      5.01      0.00
  -10   10    7      2.13      0.00
  -10   10    6     -1.88      0.00
  -10   10    5      3.06      0.00
  -10   10    4     -2.75      0.00
  -10   10    3     -4.76      0.00
  -10   10    2     -2.91      0.00
  -10   10    1    -11.57      0.00
  -10   10    0      5.45      0.00
   10  -10    1     -2.54      0.00
   10  -10    2     -1.89      0.00
   10  -10    3     -3.35      0.00
   10  -10    4      1.68      0.00
   10  -10    5      0.28      0.00
   10  -10    6     -0.44      0.00
   10  -10    7     -4.42      0.00
   10  -10    8      0.46      0.00
   10  -10    9     -1.27      0.00
   10  -10   10      4.31      0.00
   10  -10   11     -1.08      0.00
   10  -10   12      0.91      0.00
   10  -10   13     -0.45      0.00
   10  -10   14     -1.01      0.00
   10  -10   15      0.24      0.00
   10  -10   16      0.08      0.00
  -10    9   19     -0.06      0.00
  -10    9   18     -0.18      0.00
  -10    9   17     -2.22      0.00
  -10    9   16      5.94      0.00
  -10    9   15     -2.05      0.00
  -10    9   14      0.07      0.00
  -10    9   13     -1.27      0.00
  -10    9   12      1.73      0.00
  -10    9   11     -0.24      0.00
  -10    9   10     -1.24      0.00
  -10    9    9     -5.22      0.00
  -10    9    8     -0.90      0.00
  -10    9    7      1.29      0.00
  -10    9    6     -2.60      0.00
  -10    9    5      2.02      0.00
  -10    9    4      3.37      0.00
  -10    9    3      2.34      0.00
  -10    9    2      0.50      0.00
  -10    9    1      0.21      0.00
  -10    9    0      0.76      0.00
   10   -9    1      8.58      0.00
   10   -9    2      3.53      0.00
   10   -9    3      0.42      0.00
   10   -9    4      1.00      0.00
   10   -9    5      4.67      0.00
   10   -9    6     -0.80      0.00
   10   -9    7     -1.36      0.00
   10   -9    8     -4.12      0.00
   10   -9    9     -2.45      0.00
   10   -9   10      0.43      0.00
   10   -9   11     -0.06      0.00
   10   -9   12      0.09      0.00
   10   -9   13      0.60      0.00
   10   -9   14      1.57      0.00
   10   -9   15     -0.54      0.00
   10   -9   16      1.14      0.00
  -10    8   20      1.55      0.00
  -10    8   19     -0.47      0.00
  -10    8   18      0.56      0.00
  -10    8   17     -3.62      0.00
  -10    8   16     -0.29      0.00
  -10    8   15      2.54      0.00
  -10    8   14     -6.09      0.00
  -10    8   13     -1.03      0.00
  -10    8   12      0.39      0.00
  -10    8   11      6.73      0.00
  -10    8   10      9.21      0.00
  -10    8    9      5.21      0.00
  -10    8    8      3.56      0.00
  -10    8    7      0.69      0.00
  -10    8    6      1.62      0.00
  -10    8    5     -9.13      0.00
  -10    8    4      4.53      0.00
  -10    8    3     -0.73      0.00
  -10    8    2      0.05      0.00
  -10    8    1     -6.93      0.00
  -10    8    0     -1.02      0.00
   10   -8    1     -5.09      0.00
   10   -8    2      3.20      0.00
   10   -8    3     -2.05      0.00
   10   -8    4     -3.48      0.00
   10   -8    5      3.24      0.00
   10   -8    6      5.97      0.00
   10   -8    7      1.12      0.00
   10   -8    8      1.90      0.00
   10   -8    9     -0.69      0.00
   10   -8   10      0.04      0.00
   10   -8   11      1.54      0.00
   10   -8   12     -0.63      0.00
   10   -8   13     -0.40      0.00
   10   -8   14      0.35      0.00
   10   -8   15     -1.07      0.00
   10   -8   16     -1.40      0.00
  -10    7   20      1.57      0.00
  -10    7   19      0.14      0.00
  -10    7   18     -0.10      0.00
  -10    7   17      0.43      0.00
  -10    7   16      0.15      0.00
  -10    7   15      5.98      0.00
  -10    7   14      1.53      0.00
  -10    7   13     -7.01      0.00
  -10    7   12     -7.94      0.00
  -10    7   11     -5.74      0.00
  -10    7   10     -6.26      0.00
  -10    7    9     -2.49      0.00
  -10    7    8     -2.72      0.00
  -10    7    7     -0.71      0.00
  -10    7    6      1.43      0.00
  -10    7    5      4.10      0.00
  -10    7    4     -1.86      0.00
  -10    7    3      9.98      0.00
  -10    7    2      7.92      0.00
  -10    7    1      1.50      0.00
  -10    7    0     -1.78      0.00
   10   -7    1      5.50      0.00
   10   -7    2     -1.44      0.00
   10   -7    3      7.21      0.00
   10   -7    4     -4.10      0.00
   10   -7    5     -6.14      0.00
   10   -7    6      2.21      0.00
   10   -7    7     -0.03      0.00
   10   -7    8      0.62      0.00
   10   -7    9      0.11      0.00
   10   -7   10      0.39      0.00
   10   -7   11     -0.54      0.00
   10   -7   12      2.19      0.00
   10   -7   13     -0.30      0.00
   10   -7   14     -0.24      0.00
   10   -7   15      1.60      0.00
   10   -7   16     -1.34      0.00
  -10    6   21      0.21      0.00
  -10    6   20     -0.01      0.00
  -10    6   19      1.78      0.00
  -10    6   18     -3.41      0.00
  -10    6   17     -2.36      0.00
  -10    6   16     -3.48      0.00
  -10    6   15      2.59      0.00
  -10    6   14      5.61      0.00
  -10    6   13      3.42      0.00
  -10    6   12     -0.55      0.00
  -10    6   11      0.26      0.00
  -10    6   10      6.49      0.00
  -10    6    9     -0.76      0.00
  -10    6    8      0.26      0.00
  -10    6    7      3.67      0.00
  -10    6    6     -3.12      0.00
  -10    6    5      4.67      0.00
  -10    6    4     -0.99      0.00
  -10    6    3     -4.32      0.00
  -10    6    2      3.04      0.00
  -10    6    1      4.80      0.00
  -10    6    0     -9.61      0.00
   10   -6    1      0.39      0.00
   10   -6    2     -2.97      0.00
   10   -6    3      0.97      0.00
   10   -6    4      2.45      0.00
   10   -6    5     -1.91      0.00
   10   -6    6     -2.05      0.00
   10   -6    7      6.33      0.00
   10   -6    8      3.76      0.00
   10   -6    9      2.08      0.00
   10   -6   10      1.28      0.00
   10   -6   11      1.24      0.00
   10   -6   12     -1.28      0.00
   10   -6   13      0.94      0.00
   10   -6   14     -1.68      0.00
   10   -6   15     -2.23      0.00
   10   -6   16     -0.64      0.00
  -10    5   21      2.34      0.00
  -10    5   20     -1.37      0.00
  -10    5   19      1.76      0.00
  -10    5   18      1.78      0.00
  -10    5   17      0.29      0.00
  -10    5   16     -3.15      0.00
  -10    5   15      1.04      0.00
  -10    5   14     -0.20      0.00
  -10    5   13      2.23      0.00
  -10    5   12     -4.60      0.00
  -10    5   11     -6.03      0.00
  -10    5   10     -8.35      0.00
  -10    5    9      2.94      0.00
  -10    5    8     -5.84      0.00
  -10    5    7     -2.17      0.00
  -10    5    6      2.61      0.00
  -10    5    5     -5.57      0.00
  -10    5    4      2.10      0.00
  -10    5    3      1.94      0.00
  -10    5    2     -2.73      0.00
  -10    5    1     16.68      0.00
  -10    5    0      6.77      0.00
   10   -5    1     -0.56      0.00
   10   -5    2      5.70      0.00
   10   -5    3     -2.98      0.00
   10   -5    4      0.79      0.00
   10   -5    5     -3.94      0.00
   10   -5    6     -4.30      0.00
   10   -5    7     -2.73      0.00
   10   -5    8      1.26      0.00
   10   -5    9      2.46      0.00
   10   -5   10     -2.37      0.00
   10   -5   11      3.50      0.00
   10   -5   12     -1.30      0.00
   10   -5   13      1.57      0.00
   10   -5   14      0.03      0.00
   10   -5   15     -1.09      0.00
  -10    4   21      1.09      0.00
  -10    4   20     -0.87      0.00
  -10    4   19     -0.32      0.00
  -10    4   18     -2.05      0.00
  -10    4   17     -0.23      0.00
  -10    4   16     -5.39      0.00
  -10    4   15     -7.93      0.00
  -10    4   14      1.55      0.00
  -10    4   13      4.26      0.00
  -10    4   12      6.33      0.00
  -10    4   11      4.32      0.00
  -10    4   10     -7.03      0.00
  -10    4    9      0.55      0.00
  -10    4    8     -0.79      0.00
  -10    4    7      3.32      0.00
  -10    4    6      3.77      0.00
  -10    4    5     13.48      0.00
  -10    4    4     -6.29      0.00
  -10    4    3      0.56      0.00
  -10    4    2    -12.33      0.00
  -10    4    1    -12.47      0.00
  -10    4    0      4.39      0.00
   10   -4    1     -3.86      0.00
   10   -4    2     -0.43      0.00
   10   -4    3      6.00      0.00
   10   -4    4      3.76      0.00
   10   -4    5      1.48      0.00
   10   -4    6     -1.29      0.00
   10   -4    7      0.10      0.00
   10   -4    8     -1.58      0.00
   10   -4    9      5.24      0.00
   10   -4   10     -0.69      0.00
   10   -4   11     -1.31      0.00
   10   -4   12      0.79      0.00
   10   -4   13     -2.90      0.00
   10   -4   14      0.29      0.00
   10   -4   15     -0.26      0.00
  -10    3   22      1.09      0.00
  -10    3   21      0.83      0.00
  -10    3   20      1.91      0.00
  -10    3   19      0.35      0.00
  -10    3   18      0.87      0.00
  -10    3   17      0.90      0.00
  -10    3   16     -2.79      0.00
  -10    3   15     -9.62      0.00
  -10    3   14    -10.24      0.00
  -10    3   13     -2.18      0.00
  -10    3   12      2.82      0.00
  -10    3   11      5.03      0.00
  -10    3   10      5.91      0.00
  -10    3    9     -4.81      0.00
  -10    3    8      2.71      0.00
  -10    3    7     -1.60      0.00
  -10    3    6     -5.68      0.00
  -10    3    5      6.28      0.00
  -10    3    4     10.33      0.00
  -10    3    3      1.04      0.00
  -10    3    2      7.24      0.00
  -10    3    1     -3.07      0.00
  -10    3    0      2.87      0.00
   10   -3    1      3.44      0.00
   10   -3    2     -3.94      0.00
   10   -3    3     -4.01      0.00
   10   -3    4      0.40      0.00
   10   -3    5      4.85      0.00
   10   -3    6     -6.77      0.00
   10   -3    7      1.29      0.00
   10   -3    8     -7.11      0.00
   10   -3    9      0.01      0.00
   10   -3   10      4.10      0.00
   10   -3   11      0.66      0.00
   10   -3   12      2.15      0.00
   10   -3   13      1.00      0.00
   10   -3   14     -0.65      0.00
  -10    2   22     -0.61      0.00
  -10    2   21     -0.64      0.00
  -10    2   20     -2.54      0.00
  -10    2   19     -3.00      0.00
  -10    2   18      1.64      0.00
  -10    2   17      1.54      0.00
  -10    2   16      8.03      0.00
  -10    2   15      2.01      0.00
  -10    2   14     -7.80      0.00
  -10    2   13     -5.97      0.00
  -10    2   12     -3.78      0.00
  -10    2   11      1.26      0.00
  -10    2   10      1.12      0.00
  -10    2    9      9.30      0.00
  -10    2    8      3.56      0.00
  -10    2    7      9.74      0.00
  -10    2    6      2.28      0.00
  -10    2    5    -12.76      0.00
  -10    2    4     10.48      0.00
  -10    2    3     -1.35      0.00
  -10    2    2      2.95      0.00
  -10    2    1     -0.16      0.00
  -10    2    0     -1.53      0.00
   10   -2    1      1.67      0.00
   10   -2    2      0.57      0.00
   10   -2    3     -3.30      0.00
   10   -2    4     -3.66      0.00
   10   -2    5      7.34      0.00
   10   -2    6      4.64      0.00
   10   -2    7     -1.68      0.00
   10   -2    8      3.95      0.00
   10   -2    9     -7.84      0.00
   10   -2   10      1.12      0.00
   10   -2   11      0.30      0.00
   10   -2   12     -1.60      0.00
   10   -2   13      0.79      0.00
   10   -2   14     -1.67      0.00
  -10    1   22      1.77      0.00
  -10    1   21      0.93      0.00
  -10    1   20      5.39      0.00
  -10    1   19     -3.65      0.00
  -10    1   18     -5.53      0.00
  -10    1   17     -4.15      0.00
  -10    1   16     -0.35      0.00
  -10    1   15      5.09      0.00
  -10    1   14      0.07      0.00
  -10    1   13     -7.04      0.00
  -10    1   12     -5.42      0.00
  -10    1   11     -2.98      0.00
  -10    1   10     -4.57      0.00
  -10    1    9     -9.09      0.00
  -10    1    8      4.46      0.00
  -10    1    7     -3.26      0.00
  -10    1    6     17.22      0.00
  -10    1    5     -2.25      0.00
  -10    1    4     -6.60      0.00
  -10    1    3      6.13      0.00
  -10    1    2     -2.69      0.00
  -10    1    1      0.14      0.00
  -10    1    0      3.46      0.00
   10   -1    1      5.39      0.00
   10   -1    2     -2.29      0.00
   10   -1    3     -1.48      0.00
   10   -1    4    -10.93      0.00
   10   -1    5     -7.39      0.00
   10   -1    6      5.97      0.00
   10   -1    7     -2.52      0.00
   10   -1    8      4.16      0.00
   10   -1    9      0.58      0.00
   10   -1   10     -3.04      0.00
   10   -1   11      0.06      0.00
   10   -1   12     -0.95      0.00
   10   -1   13     -0.70      0.00
  -10    0   22     -1.75      0.00
  -10    0   21     -1.55      0.00
  -10    0   20      0.94      0.00
  -10    0   19      3.88      0.00
  -10    0   18     -3.66      0.00
  -10    0   17     -3.98      0.00
  -10    0   16     -3.17      0.00
  -10    0   15      3.50      0.00
  -10    0   14      5.50      0.00
  -10    0   13      3.80      0.00
  -10    0   12     -2.57      0.00
  -10    0   11     -0.70      0.00
  -10    0   10     10.07      0.00
  -10    0    9     -8.37      0.00
  -10    0    8      3.69      0.00
  -10    0    7     -2.47      0.00
  -10    0    6     -1.44      0.00
  -10    0    5      8.12      0.00
  -10    0    4     -8.16      0.00
  -10    0    3     -5.63      0.00
  -10    0    2      2.14      0.00
  -10    0    1     -2.88      0.00
   10    0    0     -1.58      0.00
   10    0    1      5.79      0.00
   10    0    2      6.91      0.00
   10    0    3     -1.57      0.00
   10    0    4      4.94      0.00
   10    0    5    -11.58      0.00
   10    0    6      2.82      0.00
   10    0    7      0.61      0.00
   10    0    8      0.42      0.00
   10    0    9      2.30      0.00
   10    0   10      0.39      0.00
   10    0   11     -0.44      0.00
   10    0   12      0.74      0.00
  -10   -1   23      0.89      0.00
  -10   -1   22     -2.15      0.00
  -10   -1   21     -1.20      0.00
  -10   -1   20     -2.69      0.00
  -10   -1   19      4.73      0.00
  -10   -1   18      1.45      0.00
  -10   -1   17      1.25      0.00
  -10   -1   16     -4.86      0.00
  -10   -1   15      0.84      0.00
  -10   -1   14      3.66      0.00
  -10   -1   13      1.93      0.00
  -10   -1   12      7.83      0.00
  -10   -1   11     -8.51      0.00
  -10   -1   10      4.07      0.00
  -10   -1    9      1.01      0.00
  -10   -1    8    -12.64      0.00
  -10   -1    7      1.00      0.00
  -10   -1    6     -7.02      0.00
  -10   -1    5      1.14      0.00
  -10   -1    4      5.53      0.00
  -10   -1    3     -1.01      0.00
  -10   -1    2      2.50      0.00
  -10   -1    1      3.15      0.00
   10    1    0     -3.62      0.00
   10    1    1     -5.75      0.00
   10    1    2      9.17      0.00
   10    1    3      0.39      0.00
   10    1    4      2.91      0.00
   10    1    5     -0.54      0.00
   10    1    6     -8.38      0.00
   10    1    7      0.47      0.00
   10    1    8     -0.86      0.00
   10    1    9      0.29      0.00
   10    1   10      1.95      0.00
   10    1   11      0.43      0.00
  -10   -2   23      0.97      0.00
  -10   -2   22     -0.22      0.00
  -10   -2   21      1.12      0.00
  -10   -2   20     -1.25      0.00
  -10   -2   19     -0.07      0.00
  -10   -2   18      2.00      0.00
  -10   -2   17     -1.37      0.00
  -10   -2   16     -2.54      0.00
  -10   -2   15     -7.81      0.00
  -10   -2   14      0.87      0.00
  -10   -2   13     -5.84      0.00
  -10   -2   12      0.71      0.00
  -10   -2   11      2.05      0.00
  -10   -2   10     -6.24      0.00
  -10   -2    9     14.85      0.00
  -10   -2    8     -3.57      0.00
  -10   -2    7     -0.35      0.00
  -10   -2    6      0.46      0.00
  -10   -2    5     -5.17      0.00
  -10   -2    4     -2.49      0.00
  -10   -2    3     -0.41      0.00
  -10   -2    2     -1.17      0.00
  -10   -2    1      2.23      0.00
   10    2    0      3.09      0.00
   10    2    1     -5.77      0.00
   10    2    2     -2.58      0.00
   10    2    3      5.95      0.00
   10    2    4      2.26      0.00
   10    2    5      6.33      0.00
   10    2    6      0.84      0.00
   10    2    7     -0.09      0.00
   10    2    8     -0.81      0.00
   10    2    9      0.68      0.00
   10    2   10     -1.84      0.00
  -10   -3   23      0.18      0.00
  -10   -3   22     -0.65      0.00
  -10   -3   21     -2.97      0.00
  -10   -3   20     -1.26      0.00
  -10   -3   19     -0.88      0.00
  -10   -3   18      1.08      0.00
  -10   -3   17      1.34      0.00
  -10   -3   16      3.42      0.00
  -10   -3   15     -5.02      0.00
  -10   -3   14      1.82      0.00
  -10   -3   13      2.81      0.00
  -10   -3   12     -7.30      0.00
  -10   -3   11      3.17      0.00
  -10   -3   10     -8.87      0.00
  -10   -3    9      4.09      0.00
  -10   -3    8      9.68      0.00
  -10   -3    7     -0.48      0.00
  -10   -3    6     -3.08      0.00
  -10   -3    5      1.89      0.00
  -10   -3    4     -4.88      0.00
  -10   -3    3     -1.31      0.00
  -10   -3    2      1.40      0.00
  -10   -3    1      2.32      0.00
   10    3    0      2.75      0.00
   10    3    1      5.21      0.00
   10    3    2     -6.08      0.00
   10    3    3      2.14      0.00
   10    3    4     -1.04      0.00
   10    3    5      2.58      0.00
   10    3    6      0.74      0.00
   10    3    7      1.76      0.00
   10    3    8     -0.64      0.00
   10    3    9     -0.13      0.00
   10    3   10      1.63      0.00
  -10   -4   23     -1.91      0.00
  -10   -4   22     -0.85      0.00
  -10   -4   21      1.02      0.00
  -10   -4   20      0.55      0.00
  -10   -4   19      0.09      0.00
  -10   -4   18      2.42      0.00
  -10   -4   17      2.13      0.00
  -10   -4   16      1.83      0.00
  -10   -4   15      2.29      0.00
  -10   -4   14    -10.62      0.00
  -10   -4   13      9.11      0.00
  -10   -4   12     -1.88      0.00
  -10   -4   11      1.63      0.00
  -10   -4   10     -0.26      0.00
  -10   -4    9    -10.07      0.00
  -10   -4    8      2.46      0.00
  -10   -4    7      3.38      0.00
  -10   -4    6     -1.37      0.00
  -10   -4    5      0.69      0.00
  -10   -4    4     -0.90      0.00
  -10   -4    3     -0.51      0.00
  -10   -4    2     -7.43      0.00
  -10   -4    1      1.50      0.00
   10    4    0     -3.88      0.00
   10    4    1      3.81      0.00
   10    4    2      0.00      0.00
   10    4    3     -0.14      0.00
   10    4    4     -1.00      0.00
   10    4    5      2.96      0.00
   10    4    6     -0.85      0.00
   10    4    7      0.96      0.00
   10    4    8      0.70      0.00
   10    4    9     -0.97      0.00
  -10   -5   23     -0.36      0.00
  -10   -5   22     -0.53      0.00
  -10   -5   21     -0.46      0.00
  -10   -5   20      1.68      0.00
  -10   -5   19     -0.17      0.00
  -10   -5   18      0.77      0.00
  -10   -5   17      0.64      0.00
  -10   -5   16      1.94      0.00
  -10   -5   15      5.08      0.00
  -10   -5   14     -3.95      0.00
  -10   -5   13     -5.36      0.00
  -10   -5   12      2.35      0.00
  -10   -5   11     -2.27      0.00
  -10   -5   10      1.08      0.00
  -10   -5    9     -1.31      0.00
  -10   -5    8     -1.03      0.00
  -10   -5    7      2.01      0.00
  -10   -5    6      3.57      0.00
  -10   -5    5     -2.19      0.00
  -10   -5    4      2.03      0.00
  -10   -5    3      0.60      0.00
  -10   -5    2     -0.09      0.00
  -10   -5    1     -2.30      0.00
   10    5    0      1.80      0.00
   10    5    1     -2.22      0.00
   10    5    2      0.01      0.00
   10    5    3     -0.48      0.00
   10    5    4     -2.93      0.00
   10    5    5      0.09      0.00
   10    5    6      2.35      0.00
   10    5    7     -1.76      0.00
   10    5    8      1.53      0.00
  -10   -6   23      0.31      0.00
  -10   -6   22     -2.10      0.00
  -10   -6   21     -0.58      0.00
  -10   -6   20     -1.24      0.00
  -10   -6   19      1.05      0.00
  -10   -6   18     -3.63      0.00
  -10   -6   17     -0.55      0.00
  -10   -6   16     -3.44      0.00
  -10   -6   15      0.78      0.00
  -10   -6   14      4.05      0.00
  -10   -6   13     -3.98      0.00
  -10   -6   12      5.55      0.00
  -10   -6   11      1.34      0.00
  -10   -6   10      3.24      0.00
  -10   -6    9     -2.07      0.00
  -10   -6    8     -0.51      0.00
  -10   -6    7      0.77      0.00
  -10   -6    6      3.05      0.00
  -10   -6    5      3.17      0.00
  -10   -6    4     -0.16      0.00
  -10   -6    3     -0.69      0.00
  -10   -6    2      1.90      0.00
  -10   -6    1     -3.49      0.00
   10    6    0     -1.04      0.00
   10    6    1      2.16      0.00
   10    6    2     -0.04      0.00
   10    6    3      0.37      0.00
   10    6    4      2.25      0.00
   10    6    5     -3.37      0.00
   10    6    6      2.76      0.00
   10    6    7      1.11      0.00
  -10   -7   23     -1.97      0.00
  -10   -7   22      0.27      0.00
  -10   -7   21     -1.40      0.00
  -10   -7   20      3.89      0.00
  -10   -7   19      3.69      0.00
  -10   -7   18      2.56      0.00
  -10   -7   17     -1.15      0.00
  -10   -7   16     -3.07      0.00
  -10   -7   15     -4.40      0.00
  -10   -7   14      0.17      0.00
  -10   -7   13     -4.28      0.00
  -10   -7   12      0.05      0.00
  -10   -7   11     -0.73      0.00
  -10   -7   10      6.22      0.00
  -10   -7    9     -2.24      0.00
  -10   -7    8      0.02      0.00
  -10   -7    7     -0.03      0.00
  -10   -7    6      4.04      0.00
  -10   -7    5      1.89      0.00
  -10   -7    4      5.56      0.00
  -10   -7    3     -1.04      0.00
  -10   -7    2      1.52      0.00
  -10   -7    1     -0.37      0.00
   10    7    0     -2.55      0.00
   10    7    1     -2.34      0.00
   10    7    2      2.14      0.00
   10    7    3     -2.29      0.00
   10    7    4      1.39      0.00
   10    7    5     -1.45      0.00
   10    7    6     -1.28      0.00
  -10   -8   23      1.06      0.00
  -10   -8   22     -0.55      0.00
  -10   -8   21     -1.77      0.00
  -10   -8   20     -2.19      0.00
  -10   -8   19     -0.28      0.00
  -10   -8   18      1.52      0.00
  -10   -8   17     -2.20      0.00
  -10   -8   16     -1.31      0.00
  -10   -8   15     -3.14      0.00
  -10   -8   14      0.24      0.00
  -10   -8   13     -1.26      0.00
  -10   -8   12     -3.50      0.00
  -10   -8   11     -1.01      0.00
  -10   -8   10      0.52      0.00
  -10   -8    9      7.37      0.00
  -10   -8    8      0.08      0.00
  -10   -8    7     -2.47      0.00
  -10   -8    6     -0.25      0.00
  -10   -8    5     -4.38      0.00
  -10   -8    4      0.94      0.00
  -10   -8    3      0.26      0.00
  -10   -8    2      1.50      0.00
  -10   -8    1     -0.11      0.00
   10    8    0      1.44      0.00
   10    8    1     -4.53      0.00
   10    8    2      1.09      0.00
   10    8    3      1.66      0.00
   10    8    4     -0.57      0.00
  -10   -9   23     -1.39      0.00
  -10   -9   22      0.54      0.00
  -10   -9   21      2.16      0.00
  -10   -9   20     -0.42      0.00
  -10   -9   19      2.71      0.00
  -10   -9   18      0.78      0.00
  -10   -9   17      3.55      0.00
  -10   -9   16     -0.25      0.00
  -10   -9   15     -1.20      0.00
  -10   -9   14      2.74      0.00
  -10   -9   13      1.46      0.00
  -10   -9   12     -2.10      0.00
  -10   -9   11     -2.20      0.00
  -10   -9   10     -6.44      0.00
  -10   -9    9      1.97      0.00
  -10   -9    8      2.97      0.00
  -10   -9    7      2.99      0.00
  -10   -9    6      1.12      0.00
  -10   -9    5      2.10      0.00
  -10   -9    4     -1.43      0.00
  -10   -9    3     -0.02      0.00
  -10   -9    2      2.95      0.00
  -10   -9    1     -0.35      0.00
   10    9    0      1.78      0.00
   10    9    1     -0.76      0.00
   10    9    2     -2.83      0.00
   10    9    3     -0.02      0.00
  -10  -10   22     -2.34      0.00
  -10  -10   21      1.03      0.00
  -10  -10   20      0.08      0.00
  -10  -10   19     -0.70      0.00
  -10  -10   18     -0.47      0.00
  -10  -10   17      0.05      0.00
  -10  -10   16      1.67      0.00
  -10  -10   15      1.59      0.00
  -10  -10   14     -0.19      0.00
  -10  -10   13      6.27      0.00
  -10  -10   12      0.27      0.00
  -10  -10   11     -0.50      0.00
  -10  -10   10     -1.22      0.00
  -10  -10    9     -4.33      0.00
  -10  -10    8      2.87      0.00
  -10  -10    7     -0.81      0.00
  -10  -10    6      1.26      0.00
  -10  -10    5     -1.06      0.00
  -10  -10    4      0.40      0.00
  -10  -10    3     -2.35      0.00
  -10  -10    2     -2.59      0.00
  -10  -10    1      1.61      0.00
   10   10    0     -1.01      0.00
   10   10    1      4.37      0.00
   10   10    2     -0.04      0.00
  -10  -11   22     -2.01      0.00
  -10  -11   21      1.18      0.00
  -10  -11   20     -0.71      0.00
  -10  -11   19      1.47      0.00
  -10  -11   18      0.09      0.00
  -10  -11   17      0.98      0.00
  -10  -11   16      0.18      0.00
  -10  -11   15      0.53      0.00
  -10  -11   14     -2.62      0.00
  -10  -11   13      1.82      0.00
  -10  -11   12      1.77      0.00
  -10  -11   11      0.72      0.00
  -10  -11   10     -1.89      0.00
  -10  -11    9     -2.67      0.00
  -10  -11    8     -2.73      0.00
  -10  -11    7      0.91      0.00
  -10  -11    6      0.47      0.00
  -10  -11    5      1.25      0.00
  -10  -11    4      0.40      0.00
  -10  -11    3      1.76      0.00
  -10  -11    2     -2.85      0.00
  -10  -11    1      0.13      0.00
   10   11    0      0.40      0.00
   10   11    1     -0.14      0.00
  -10  -12   21     -0.76      0.00
  -10  -12   20      0.24      0.00
  -10  -12   19     -1.19      0.00
  -10  -12   18     -0.13      0.00
  -10  -12   17      1.69      0.00
  -10  -12   16      0.89      0.00
  -10  -12   15      0.37      0.00
  -10  -12   14     -0.81      0.00
  -10  -12   13     -3.46      0.00
  -10  -12   12      3.46      0.00
  -10  -12   11      0.92      0.00
  -10  -12   10      2.66      0.00
  -10  -12    9     -1.05      0.00
  -10  -12    8     -1.67      0.00
  -10  -12    7     -0.65      0.00
  -10  -12    6     -2.90      0.00
  -10  -12    5      2.17      0.00
  -10  -12    4     -3.16      0.00
  -10  -12    3      2.61      0.00
  -10  -12    2     -0.28      0.00
  -10  -12    1     -0.50      0.00
  -10  -13   21      0.31      0.00
  -10  -13   20      1.14      0.00
  -10  -13   19      0.13      0.00
  -10  -13   18      0.06      0.00
  -10  -13   17     -0.07      0.00
  -10  -13   16      1.79      0.00
  -10  -13   15      0.41      0.00
  -10  -13   14      0.39      0.00
  -10  -13   13     -2.79      0.00
  -10  -13   12     -2.55      0.00
  -10  -13   11      0.26      0.00
  -10  -13   10      1.16      0.00
  -10  -13    9      2.01      0.00
  -10  -13    8      0.08      0.00
  -10  -13    7      2.66      0.00
  -10  -13    6      0.32      0.00
  -10  -13    5      1.00      0.00
  -10  -13    4      0.40      0.00
  -10  -13    3     -1.93      0.00
  -10  -14   19      0.33      0.00
  -10  -14   18      0.66      0.00
  -10  -14   17     -1.17      0.00
  -10  -14   16     -0.16      0.00
  -10  -14   15      0.17      0.00
  -10  -14   14      1.17      0.00
  -10  -14   13     -0.49      0.00
  -10  -14   12     -2.09      0.00
  -10  -14   11     -1.82      0.00
  -10  -14   10     -0.80      0.00
  -10  -14    9      1.42      0.00
  -10  -14    8     -0.48      0.00
  -10  -14    7      1.81      0.00
  -10  -14    6      1.73      0.00
  -10  -14    5      0.25      0.00
  -10  -14    4      0.64      0.00
  -10  -15   17     -0.25      0.00
  -10  -15   16     -1.35      0.00
  -10  -15   15     -1.06      0.00
  -10  -15   14     -0.09      0.00
  -10  -15   13      0.99      0.00
  -10  -15   12     -0.13      0.00
  -10  -15   11     -0.54      0.00
  -10  -15   10     -1.19      0.00
  -10  -15    9      1.08      0.00
  -10  -15    8      0.63      0.00
  -10  -15    7     -1.04      0.00
  -11   17   10      0.92      0.00
  -11   17    9     -0.81      0.00
  -11   17    7     -1.22      0.00
  -11   17    6      1.07      0.00
  -11   17    5      0.27      0.00
  -11   16   12     -0.12      0.00
  -11   16   11      0.99      0.00
  -11   16   10      2.27      0.00
  -11   16    9      1.34      0.00
  -11   16    8     -0.46      0.00
  -11   16    7      0.48      0.00
  -11   16    6     -0.74      0.00
  -11   16    5      2.84      0.00
  -11   16    4     -0.14      0.00
  -11   15   13     -0.88      0.00
  -11   15   12     -1.10      0.00
  -11   15   11     -1.34      0.00
  -11   15   10      1.99      0.00
  -11   15    9      1.30      0.00
  -11   15    8     -1.88      0.00
  -11   15    7     -1.85      0.00
  -11   15    6     -1.46      0.00
  -11   15    5     -0.69      0.00
  -11   15    4      1.41      0.00
  -11   15    3      1.99      0.00
   11  -15   10     -1.36      0.00
  -11   14   14      1.34      0.00
  -11   14   13      1.00      0.00
  -11   14   12      0.64      0.00
  -11   14   11     -0.56      0.00
  -11   14   10     -1.68      0.00
  -11   14    9      2.49      0.00
  -11   14    8      0.50      0.00
  -11   14    7      1.18      0.00
  -11   14    6     -0.01      0.00
  -11   14    5      1.20      0.00
  -11   14    4     -1.09      0.00
  -11   14    3     -2.17      0.00
  -11   14    2     -1.39      0.00
   11  -14    7     -0.33      0.00
   11  -14    8      2.62      0.00
   11  -14    9      0.04      0.00
   11  -14   10     -0.10      0.00
   11  -14   11     -0.67      0.00
   11  -14   12      1.56      0.00
   11  -14   13      0.38      0.00
  -11   13   16     -0.69      0.00
  -11   13   15     -1.57      0.00
  -11   13   14     -0.86      0.00
  -11   13   13      1.73      0.00
  -11   13   12     -0.45      0.00
  -11   13   11      0.78      0.00
  -11   13   10     -2.10      0.00
  -11   13    9     -3.90      0.00
  -11   13    8     -1.08      0.00
  -11   13    7     -1.31      0.00
  -11   13    6     -0.27      0.00
  -11   13    5      3.20      0.00
  -11   13    4      1.59      0.00
  -11   13    3      2.64      0.00
  -11   13    2     -0.88      0.00
  -11   13    1      3.44      0.00
  -11   13    0      0.57      0.00
   11  -13    2     -0.18      0.00
   11  -13    3     -2.97      0.00
   11  -13    4     -1.64      0.00
   11  -13    5     -3.32      0.00
   11  -13    6     -2.56      0.00
   11  -13    7     -1.79      0.00
   11  -13    8     -2.49      0.00
   11  -13    9      1.86      0.00
   11  -13   10      0.49      0.00
   11  -13   11     -0.41      0.00
   11  -13   12      0.14      0.00
   11  -13   13      0.66      0.00
   11  -13   14      0.61      0.00
   11  -13   15      1.18      0.00
  -11   12   17      0.02      0.00
  -11   12   16     -0.34      0.00
  -11   12   15     -0.82      0.00
  -11   12   14     -2.33      0.00
  -11   12   13      0.32      0.00
  -11   12   12      2.35      0.00
  -11   12   11      2.67      0.00
  -11   12   10      5.30      0.00
  -11   12    9     -0.16      0.00
  -11   12    8      0.02      0.00
  -11   12    7     -0.18      0.00
  -11   12    6      1.26      0.00
  -11   12    5     -4.50      0.00
  -11   12    4      3.96      0.00
  -11   12    3     -2.07      0.00
  -11   12    2     -4.96      0.00
  -11   12    1     -3.24      0.00
  -11   12    0     -4.62      0.00
   11  -12    1      0.76      0.00
   11  -12    2      5.95      0.00
   11  -12    3     -0.77      0.00
   11  -12    4      1.90      0.00
   11  -12    5      1.20      0.00
   11  -12    6      1.13      0.00
   11  -12    7     -0.66      0.00
   11  -12    8     -0.80      0.00
   11  -12    9     -0.23      0.00
   11  -12   10      0.19      0.00
   11  -12   11      2.56      0.00
   11  -12   12     -1.77      0.00
   11  -12   13      0.70      0.00
   11  -12   14     -1.31      0.00
   11  -12   15      1.27      0.00
  -11   11   18     -0.76      0.00
  -11   11   17      1.18      0.00
  -11   11   16     -0.82      0.00
  -11   11   15      0.27      0.00
  -11   11   14     -0.20      0.00
  -11   11   13     -5.56      0.00
  -11   11   12     -1.16      0.00
  -11   11   11     -1.47      0.00
  -11   11   10     -1.31      0.00
  -11   11    9      1.76      0.00
  -11   11    8     -3.00      0.00
  -11   11    7     -0.08      0.00
  -11   11    6      0.42      0.00
  -11   11    5      6.00      0.00
  -11   11    4     -1.36      0.00
  -11   11    3     12.08      0.00
  -11   11    2      4.42      0.00
  -11   11    1     -1.33      0.00
  -11   11    0     -0.53      0.00
   11  -11    1     -6.78      0.00
   11  -11    2      1.93      0.00
   11  -11    3     -0.36      0.00
   11  -11    4     -2.40      0.00
   11  -11    5     -0.19      0.00
   11  -11    6     -1.23      0.00
   11  -11    7      0.03      0.00
   11  -11    8     -2.54      0.00
   11  -11    9     -2.54      0.00
   11  -11   10      0.12      0.00
   11  -11   11      0.09      0.00
   11  -11   12      2.35      0.00
   11  -11   13      0.58      0.00
   11  -11   14      1.05      0.00
   11  -11   15      0.25      0.00
  -11   10   19      1.63      0.00
  -11   10   18      0.31      0.00
  -11   10   17     -1.26      0.00
  -11   10   16      1.67      0.00
  -11   10   15     -2.10      0.00
  -11   10   14      4.66      0.00
  -11   10   13     -1.32      0.00
  -11   10   12     -1.42      0.00
  -11   10   11     -0.41      0.00
  -11   10   10      3.80      0.00
  -11   10    9      1.43      0.00
  -11   10    8      3.44      0.00
  -11   10    7     -1.86      0.00
  -11   10    6     -1.19      0.00
  -11   10    5     -2.97      0.00
  -11   10    4     -5.97      0.00
  -11   10    3     -4.46      0.00
  -11   10    2      3.71      0.00
  -11   10    1     -1.53      0.00
  -11   10    0     -1.12      0.00
   11  -10    1     -2.07      0.00
   11  -10    2     -1.84      0.00
   11  -10    3      2.20      0.00
   11  -10    4      0.42      0.00
   11  -10    5     -0.09      0.00
   11  -10    6      2.02      0.00
   11  -10    7      3.15      0.00
   11  -10    8      0.40      0.00
   11  -10    9     -0.72      0.00
   11  -10   10     -2.22      0.00
   11  -10   11     -1.01      0.00
   11  -10   12     -0.76      0.00
   11  -10   13      0.19      0.00
   11  -10   14     -0.63      0.00
   11  -10   15      0.32      0.00
  -11    9   19     -0.90      0.00
  -11    9   18      2.83      0.00
  -11    9   17     -1.41      0.00
  -11    9   16      0.48      0.00
  -11    9   15     -1.48      0.00
  -11    9   14     -0.37      0.00
  -11    9   13      2.73      0.00
  -11    9   12     -6.67      0.00
  -11    9   11     -5.64      0.00
  -11    9   10     -4.30      0.00
  -11    9    9      0.67      0.00
  -11    9    8      2.39      0.00
  -11    9    7      9.30      0.00
  -11    9    6      7.77      0.00
  -11    9    5      6.03      0.00
  -11    9    4      7.74      0.00
  -11    9    3     -4.42      0.00
  -11    9    2      5.10      0.00
  -11    9    1      2.24      0.00
  -11    9    0      1.46      0.00
   11   -9    1     -3.97      0.00
   11   -9    2      1.28      0.00
   11   -9    3     -2.77      0.00
   11   -9    4     -0.45      0.00
   11   -9    5     -3.41      0.00
   11   -9    6     -0.39      0.00
   11   -9    7      0.46      0.00
   11   -9    8      6.49      0.00
   11   -9    9      0.50      0.00
   11   -9   10      2.15      0.00
   11   -9   11      0.48      0.00
   11   -9   12      0.25      0.00
   11   -9   13      0.99      0.00
   11   -9   14      0.46      0.00
   11   -9   15      0.36      0.00
  -11    8   20     -0.29      0.00
  -11    8   19     -3.79      0.00
  -11    8   18      2.42      0.00
  -11    8   17     -0.04      0.00
  -11    8   16     -1.62      0.00
  -11    8   15     -0.03      0.00
  -11    8   14      2.18      0.00
  -11    8   13      7.41      0.00
  -11    8   12      9.43      0.00
  -11    8   11      0.60      0.00
  -11    8   10      0.49      0.00
  -11    8    9     -0.93      0.00
  -11    8    8     -5.54      0.00
  -11    8    7     -6.97      0.00
  -11    8    6     -3.62      0.00
  -11    8    5     -4.48      0.00
  -11    8    4     -4.46      0.00
  -11    8    3     -1.68      0.00
  -11    8    2     -3.48      0.00
  -11    8    1      3.05      0.00
  -11    8    0      4.24      0.00
   11   -8    1      1.04      0.00
   11   -8    2     -1.74      0.00
   11   -8    3      7.93      0.00
   11   -8    4      3.13      0.00
   11   -8    5      3.54      0.00
   11   -8    6     -0.36      0.00
   11   -8    7     -3.15      0.00
   11   -8    8      0.30      0.00
   11   -8    9      1.38      0.00
   11   -8   10     -1.46      0.00
   11   -8   11     -1.61      0.00
   11   -8   12     -0.39      0.00
   11   -8   13     -3.26      0.00
   11   -8   14     -0.08      0.00
   11   -8   15     -0.51      0.00
  -11    7   20      0.37      0.00
  -11    7   19     -1.29      0.00
  -11    7   18     -1.62      0.00
  -11    7   17      3.23      0.00
  -11    7   16     -2.70      0.00
  -11    7   15     -3.97      0.00
  -11    7   14     -3.45      0.00
  -11    7   13     -1.63      0.00
  -11    7   12     -0.44      0.00
  -11    7   11     -1.92      0.00
  -11    7   10     -2.29      0.00
  -11    7    9     -1.07      0.00
  -11    7    8      8.81      0.00
  -11    7    7      1.08      0.00
  -11    7    6      1.61      0.00
  -11    7    4      0.01      0.00
  -11    7    3     -2.19      0.00
  -11    7    2     -0.38      0.00
  -11    7    1     -1.62      0.00
  -11    7    0      1.95      0.00
   11   -7    1      3.27      0.00
   11   -7    2     -6.76      0.00
   11   -7    3     -4.36      0.00
   11   -7    4      1.68      0.00
   11   -7    5     -0.35      0.00
   11   -7    6      0.01      0.00
   11   -7    7     -1.16      0.00
   11   -7    8     -2.79      0.00
   11   -7    9      1.77      0.00
   11   -7   10      2.46      0.00
   11   -7   11      0.91      0.00
   11   -7   12      0.36      0.00
   11   -7   13      1.61      0.00
   11   -7   14     -1.05      0.00
   11   -7   15      0.23      0.00
  -11    6   21      0.68      0.00
  -11    6   20     -0.70      0.00
  -11    6   19      1.48      0.00
  -11    6   18     -2.63      0.00
  -11    6   17      1.03      0.00
  -11    6   16      3.87      0.00
  -11    6   15      1.77      0.00
  -11    6   14      0.82      0.00
  -11    6   13      5.30      0.00
  -11    6   12      6.14      0.00
  -11    6   11      3.64      0.00
  -11    6   10     -3.76      0.00
  -11    6    9     -1.60      0.00
  -11    6    8     -7.15      0.00
  -11    6    7      3.77      0.00
  -11    6    5     -4.03      0.00
  -11    6    4      2.03      0.00
  -11    6    3     -3.80      0.00
  -11    6    2     -5.73      0.00
  -11    6    1      1.90      0.00
  -11    6    0     -2.91      0.00
   11   -6    1      7.97      0.00
   11   -6    2      5.79      0.00
   11   -6    3     -3.43      0.00
   11   -6    4      2.75      0.00
   11   -6    5      2.06      0.00
   11   -6    6      1.73      0.00
   11   -6    7     -1.23      0.00
   11   -6    8     -1.08      0.00
   11   -6    9     -2.82      0.00
   11   -6   10     -0.58      0.00
   11   -6   11      0.25      0.00
   11   -6   12     -1.62      0.00
   11   -6   13      1.14      0.00
   11   -6   14     -0.64      0.00
  -11    5   21      0.52      0.00
  -11    5   20      1.24      0.00
  -11    5   19      2.81      0.00
  -11    5   18      0.46      0.00
  -11    5   17      1.47      0.00
  -11    5   16      0.19      0.00
  -11    5   15     -0.83      0.00
  -11    5   14     -4.39      0.00
  -11    5   13     -7.86      0.00
  -11    5   12      0.73      0.00
  -11    5   11      4.82      0.00
  -11    5   10      3.12      0.00
  -11    5    9      2.46      0.00
  -11    5    8     -4.93      0.00
  -11    5    7     -2.13      0.00
  -11    5    6      0.03      0.00
  -11    5    5      2.81      0.00
  -11    5    4      0.98      0.00
  -11    5    3     17.61      0.00
  -11    5    2     -1.64      0.00
  -11    5    1      3.10      0.00
  -11    5    0     -3.63      0.00
   11   -5    1     -5.30      0.00
   11   -5    2     -0.77      0.00
   11   -5    3     -0.83      0.00
   11   -5    4     -6.35      0.00
   11   -5    5      1.48      0.00
   11   -5    6     -0.39      0.00
   11   -5    7      0.47      0.00
   11   -5    8     -1.62      0.00
   11   -5    9      2.52      0.00
   11   -5   10     -0.68      0.00
   11   -5   11      2.83      0.00
   11   -5   12      1.29      0.00
   11   -5   13     -0.41      0.00
   11   -5   14      2.14      0.00
  -11    4   21     -1.45      0.00
  -11    4   20     -1.39      0.00
  -11    4   19     -0.03      0.00
  -11    4   18     -0.64      0.00
  -11    4   17      2.22      0.00
  -11    4   16      3.24      0.00
  -11    4   15      9.03      0.00
  -11    4   14      1.98      0.00
  -11    4   13     -0.73      0.00
  -11    4   12    -11.33      0.00
  -11    4   11      0.00      0.00
  -11    4   10     -1.79      0.00
  -11    4    9     -0.02      0.00
  -11    4    8      3.67      0.00
  -11    4    7     -4.83      0.00
  -11    4    6     -3.27      0.00
  -11    4    5     -2.28      0.00
  -11    4    4     -6.84      0.00
  -11    4    3     -0.02      0.00
  -11    4    2     12.70      0.00
  -11    4    1     -1.46      0.00
  -11    4    0      8.17      0.00
   11   -4    1     -0.17      0.00
   11   -4    2      4.01      0.00
   11   -4    3      0.63      0.00
   11   -4    4      0.20      0.00
   11   -4    5     -3.12      0.00
   11   -4    6      0.22      0.00
   11   -4    7      2.99      0.00
   11   -4    8     -4.93      0.00
   11   -4    9     -0.10      0.00
   11   -4   10     -2.89      0.00
   11   -4   11     -1.06      0.00
   11   -4   12      1.63      0.00
   11   -4   13      0.52      0.00
   11   -4   14      0.59      0.00
  -11    3   22      1.31      0.00
  -11    3   21      0.13      0.00
  -11    3   20     -0.14      0.00
  -11    3   19     -0.02      0.00
  -11    3   18     -2.26      0.00
  -11    3   17     -7.34      0.00
  -11    3   16     -0.38      0.00
  -11    3   15      1.36      0.00
  -11    3   14      8.30      0.00
  -11    3   13      6.54      0.00
  -11    3   12     -0.45      0.00
  -11    3   11     -5.65      0.00
  -11    3   10     -1.30      0.00
  -11    3    9     -1.20      0.00
  -11    3    8     -3.82      0.00
  -11    3    7      9.35      0.00
  -11    3    6     -1.44      0.00
  -11    3    5      4.61      0.00
  -11    3    4      0.32      0.00
  -11    3    3     -6.47      0.00
  -11    3    2      6.62      0.00
  -11    3    1      6.05      0.00
  -11    3    0     -1.40      0.00
   11   -3    1      2.32      0.00
   11   -3    2     -1.86      0.00
   11   -3    3      0.02      0.00
   11   -3    4     -5.59      0.00
   11   -3    5     -0.49      0.00
   11   -3    6     -6.10      0.00
   11   -3    7      3.52      0.00
   11   -3    8      3.88      0.00
   11   -3    9     -2.07      0.00
   11   -3   10      3.27      0.00
   11   -3   11     -2.54      0.00
   11   -3   12     -0.09      0.00
   11   -3   13      1.45      0.00
  -11    2   22     -1.66      0.00
  -11    2   21     -0.53      0.00
  -11    2   20      1.39      0.00
  -11    2   19      2.89      0.00
  -11    2   18      5.83      0.00
  -11    2   17     -0.10      0.00
  -11    2   16     -5.95      0.00
  -11    2   15     -1.59      0.00
  -11    2   14      1.23      0.00
  -11    2   13      5.68      0.00
  -11    2   12      4.26      0.00
  -11    2   11     -2.59      0.00
  -11    2   10     -2.53      0.00
  -11    2    9     -1.79      0.00
  -11    2    8     -4.67      0.00
  -11    2    7    -11.08      0.00
  -11    2    6      7.01      0.00
  -11    2    5     -5.70      0.00
  -11    2    4      9.23      0.00
  -11    2    3     -2.02      0.00
  -11    2    2     -2.45      0.00
  -11    2    1      3.62      0.00
  -11    2    0      4.62      0.00
   11   -2    1      0.97      0.00
   11   -2    2      6.21      0.00
   11   -2    3      8.27      0.00
   11   -2    4     -0.81      0.00
   11   -2    5     -2.35      0.00
   11   -2    6     -3.53      0.00
   11   -2    7     -7.24      0.00
   11   -2    8      2.87      0.00
   11   -2    9     -0.32      0.00
   11   -2   10     -0.61      0.00
   11   -2   11      1.53      0.00
   11   -2   12     -3.21      0.00
  -11    1   22      2.18      0.00
  -11    1   21     -1.89      0.00
  -11    1   20     -0.72      0.00
  -11    1   19     -1.63      0.00
  -11    1   18      0.54      0.00
  -11    1   17      2.27      0.00
  -11    1   16     -5.50      0.00
  -11    1   15     -8.73      0.00
  -11    1   14     -4.42      0.00
  -11    1   13     -0.27      0.00
  -11    1   12      2.63      0.00
  -11    1   11      3.70      0.00
  -11    1   10     -0.71      0.00
  -11    1    9      0.63      0.00
  -11    1    8      9.30      0.00
  -11    1    7     -6.06      0.00
  -11    1    6     -0.15      0.00
  -11    1    5      4.03      0.00
  -11    1    4     -2.22      0.00
  -11    1    3      3.14      0.00
  -11    1    2     -5.37      0.00
  -11    1    1     -5.12      0.00
  -11    1    0     -4.19      0.00
   11   -1    1     -3.10      0.00
   11   -1    2     -7.02      0.00
   11   -1    3      3.21      0.00
   11   -1    4      6.78      0.00
   11   -1    5     -3.42      0.00
   11   -1    6      4.23      0.00
   11   -1    7     -5.88      0.00
   11   -1    8     -1.01      0.00
   11   -1    9      1.28      0.00
   11   -1   10     -0.26      0.00
   11   -1   11      1.10      0.00
   11   -1   12      1.08      0.00
  -11    0   22      0.50      0.00
  -11    0   21      1.05      0.00
  -11    0   20     -1.77      0.00
  -11    0   19     -1.32      0.00
  -11    0   18     -1.43      0.00
  -11    0   17      3.44      0.00
  -11    0   16      1.33      0.00
  -11    0   15     -1.00      0.00
  -11    0   14     -6.95      0.00
  -11    0   13     -2.40      0.00
  -11    0   12      3.06      0.00
  -11    0   11     -3.64      0.00
  -11    0   10      8.98      0.00
  -11    0    9     -4.90      0.00
  -11    0    8      5.54      0.00
  -11    0    7      2.73      0.00
  -11    0    6     -8.91      0.00
  -11    0    5     -1.74      0.00
  -11    0    4      0.13      0.00
  -11    0    3     -1.16      0.00
  -11    0    2      3.36      0.00
  -11    0    1      3.32      0.00
   11    0    0      0.85      0.00
   11    0    1      1.35      0.00
   11    0    2      0.29      0.00
   11    0    3     -7.47      0.00
   11    0    4      9.52      0.00
   11    0    5      2.45      0.00
   11    0    6      1.23      0.00
   11    0    7      1.03      0.00
   11    0    8     -4.94      0.00
   11    0    9     -0.23      0.00
   11    0   10      0.14      0.00
   11    0   11     -0.72      0.00
  -11   -1   22     -1.51      0.00
  -11   -1   21      2.81      0.00
  -11   -1   20     -1.89      0.00
  -11   -1   19      0.38      0.00
  -11   -1   18     -2.45      0.00
  -11   -1   17      1.21      0.00
  -11   -1   16      3.76      0.00
  -11   -1   15      2.06      0.00
  -11   -1   14      1.68      0.00
  -11   -1   13     -6.70      0.00
  -11   -1   12      2.36      0.00
  -11   -1   11     -4.11      0.00
  -11   -1   10     -5.08      0.00
  -11   -1    9      4.01      0.00
  -11   -1    8     -6.19      0.00
  -11   -1    7      9.74      0.00
  -11   -1    6      0.90      0.00
  -11   -1    5     -3.53      0.00
  -11   -1    4      1.59      0.00
  -11   -1    3     -3.16      0.00
  -11   -1    2     -5.04      0.00
  -11   -1    1     -2.33      0.00
   11    1    0      5.04      0.00
   11    1    1     -3.17      0.00
   11    1    2      3.27      0.00
   11    1    3     -6.71      0.00
   11    1    4     -4.57      0.00
   11    1    5      2.78      0.00
   11    1    6      1.46      0.00
   11    1    7      2.96      0.00
   11    1    8      1.42      0.00
   11    1    9     -1.07      0.00
   11    1   10      1.34      0.00
  -11   -2   22     -0.72      0.00
  -11   -2   21      2.11      0.00
  -11   -2   20      1.55      0.00
  -11   -2   19     -2.08      0.00
  -11   -2   18     -4.24      0.00
  -11   -2   17     -2.87      0.00
  -11   -2   16      0.21      0.00
  -11   -2   15     -1.11      0.00
  -11   -2   14      4.05      0.00
  -11   -2   13     -2.29      0.00
  -11   -2   12      0.13      0.00
  -11   -2   11      7.00      0.00
  -11   -2   10     -7.87      0.00
  -11   -2    9     -1.22      0.00
  -11   -2    8     -3.52      0.00
  -11   -2    7     -0.15      0.00
  -11   -2    6      5.58      0.00
  -11   -2    5      2.05      0.00
  -11   -2    4     -4.17      0.00
  -11   -2    3      2.56      0.00
  -11   -2    2     -1.99      0.00
  -11   -2    1     -4.60      0.00
   11    2    0      2.56      0.00
   11    2    1      4.69      0.00
   11    2    2      0.97      0.00
   11    2    3      5.15      0.00
   11    2    4     -5.02      0.00
   11    2    5      0.26      0.00
   11    2    6     -1.21      0.00
   11    2    7      1.52      0.00
   11    2    8      0.43      0.00
   11    2    9     -0.15      0.00
  -11   -3   23     -1.22      0.00
  -11   -3   22     -0.99      0.00
  -11   -3   21     -1.38      0.00
  -11   -3   20     -0.04      0.00
  -11   -3   19     -0.22      0.00
  -11   -3   18      0.18      0.00
  -11   -3   17     -4.71      0.00
  -11   -3   16      2.30      0.00
  -11   -3   15      1.73      0.00
  -11   -3   14     -0.22      0.00
  -11   -3   13      5.96      0.00
  -11   -3   12     -9.16      0.00
  -11   -3   11     10.76      0.00
  -11   -3   10      5.90      0.00
  -11   -3    9     -0.88      0.00
  -11   -3    8      1.63      0.00
  -11   -3    7     -5.06      0.00
  -11   -3    6      0.84      0.00
  -11   -3    5      1.02      0.00
  -11   -3    4      0.28      0.00
  -11   -3    3     -1.41      0.00
  -11   -3    2      1.50      0.00
  -11   -3    1     -0.67      0.00
   11    3    0     -6.27      0.00
   11    3    1      3.48      0.00
   11    3    2     -1.80      0.00
   11    3    3      3.83      0.00
   11    3    4      0.41      0.00
   11    3    5      0.88      0.00
   11    3    6     -1.27      0.00
   11    3    7      0.28      0.00
   11    3    8      0.17      0.00
  -11   -4   23      1.94      0.00
  -11   -4   22      1.96      0.00
  -11   -4   21     -0.14      0.00
  -11   -4   20     -0.12      0.00
  -11   -4   19     -0.19      0.00
  -11   -4   18      1.45      0.00
  -11   -4   17     -1.95      0.00
  -11   -4   16     -3.43      0.00
  -11   -4   15      4.51      0.00
  -11   -4   14      0.09      0.00
  -11   -4   13      6.47      0.00
  -11   -4   12     -0.58      0.00
  -11   -4   11     -5.48      0.00
  -11   -4   10      2.65      0.00
  -11   -4    9      2.88      0.00
  -11   -4    8     -4.59      0.00
  -11   -4    7      2.54      0.00
  -11   -4    6     -5.81      0.00
  -11   -4    5      1.49      0.00
  -11   -4    4     -2.01      0.00
  -11   -4    3      0.64      0.00
  -11   -4    2     -2.18      0.00
  -11   -4    1      3.25      0.00
   11    4    0     -2.65      0.00
   11    4    1     -2.10      0.00
   11    4    2      0.87      0.00
   11    4    3      0.49      0.00
   11    4    4     -0.05      0.00
   11    4    5      1.90      0.00
   11    4    6     -0.04      0.00
   11    4    7      0.61      0.00
  -11   -5   22      1.65      0.00
  -11   -5   21      1.36      0.00
  -11   -5   20     -0.01      0.00
  -11   -5   19     -0.88      0.00
  -11   -5   18     -1.69      0.00
  -11   -5   17      2.01      0.00
  -11   -5   16     -6.75      0.00
  -11   -5   15     -1.39      0.00
  -11   -5   14     -1.83      0.00
  -11   -5   13     -3.25      0.00
  -11   -5   12      3.22      0.00
  -11   -5   11     -5.89      0.00
  -11   -5   10      3.45      0.00
  -11   -5    9      3.14      0.00
  -11   -5    8      5.12      0.00
  -11   -5    7     -1.04      0.00
  -11   -5    6      1.48      0.00
  -11   -5    5     -1.37      0.00
  -11   -5    4     -1.33      0.00
  -11   -5    3      0.30      0.00
  -11   -5    2     -1.33      0.00
  -11   -5    1     -2.18      0.00
   11    5    0     -0.95      0.00
   11    5    1     -2.14      0.00
   11    5    2     -3.99      0.00
   11    5    3      1.22      0.00
   11    5    4      0.67      0.00
   11    5    5     -1.23      0.00
   11    5    6      1.62      0.00
  -11   -6   22     -0.33      0.00
  -11   -6   21     -1.62      0.00
  -11   -6   20     -0.93      0.00
  -11   -6   19     -0.89      0.00
  -11   -6   18      0.17      0.00
  -11   -6   17      3.87      0.00
  -11   -6   16      1.89      0.00
  -11   -6   15     -1.64      0.00
  -11   -6   14      0.87      0.00
  -11   -6   13     -2.76      0.00
  -11   -6   12     -1.26      0.00
  -11   -6   11     -3.50      0.00
  -11   -6   10     -3.24      0.00
  -11   -6    9     -1.47      0.00
  -11   -6    8      3.63      0.00
  -11   -6    7     -0.78      0.00
  -11   -6    6      0.94      0.00
  -11   -6    5      0.68      0.00
  -11   -6    4      4.12      0.00
  -11   -6    3     -1.41      0.00
  -11   -6    2      3.25      0.00
  -11   -6    1     -0.29      0.00
   11    6    0      0.07      0.00
   11    6    1      0.68      0.00
   11    6    2     -0.57      0.00
   11    6    3     -2.61      0.00
   11    6    4      2.39      0.00
   11    6    5     -0.84      0.00
  -11   -7   22      2.68      0.00
  -11   -7   21      2.59      0.00
  -11   -7   20     -0.50      0.00
  -11   -7   19     -0.48      0.00
  -11   -7   18     -0.83      0.00
  -11   -7   17      0.12      0.00
  -11   -7   16      5.01      0.00
  -11   -7   15     -3.15      0.00
  -11   -7   14     -0.09      0.00
  -11   -7   13     -3.67      0.00
  -11   -7   12     -0.51      0.00
  -11   -7   11     -3.81      0.00
  -11   -7   10     -3.65      0.00
  -11   -7    9     -0.96      0.00
  -11   -7    8      1.20      0.00
  -11   -7    7      3.83      0.00
  -11   -7    6      3.25      0.00
  -11   -7    5     -1.58      0.00
  -11   -7    4      3.74      0.00
  -11   -7    3     -1.06      0.00
  -11   -7    2      0.28      0.00
  -11   -7    1      0.25      0.00
   11    7    0      1.33      0.00
   11    7    1     -2.72      0.00
   11    7    2      1.30      0.00
   11    7    3     -3.00      0.00
   11    7    4     -0.68      0.00
  -11   -8   22     -0.84      0.00
  -11   -8   21     -0.95      0.00
  -11   -8   20     -0.19      0.00
  -11   -8   19     -1.32      0.00
  -11   -8   18     -1.68      0.00
  -11   -8   17     -0.29      0.00
  -11   -8   16      2.13      0.00
  -11   -8   15      2.11      0.00
  -11   -8   14      0.79      0.00
  -11   -8   13     -1.58      0.00
  -11   -8   12      2.69      0.00
  -11   -8   11      1.02      0.00
  -11   -8   10     -1.50      0.00
  -11   -8    9     -4.52      0.00
  -11   -8    8     -3.38      0.00
  -11   -8    7     -3.36      0.00
  -11   -8    6      1.12      0.00
  -11   -8    5      0.04      0.00
  -11   -8    4     -0.90      0.00
  -11   -8    3      2.03      0.00
  -11   -8    2      0.18      0.00
  -11   -8    1     -0.46      0.00
   11    8    0      3.84      0.00
   11    8    1      0.17      0.00
   11    8    2      1.39      0.00
   11    8    3      0.03      0.00
  -11   -9   22     -1.88      0.00
  -11   -9   21      0.10      0.00
  -11   -9   20      0.35      0.00
  -11   -9   19      2.64      0.00
  -11   -9   18      1.23      0.00
  -11   -9   17     -1.75      0.00
  -11   -9   16      0.59      0.00
  -11   -9   15     -0.28      0.00
  -11   -9   14     -0.13      0.00
  -11   -9   13      2.07      0.00
  -11   -9   12     -1.67      0.00
  -11   -9   11      5.18      0.00
  -11   -9   10      0.64      0.00
  -11   -9    9     -1.31      0.00
  -11   -9    8     -0.08      0.00
  -11   -9    7     -2.42      0.00
  -11   -9    6      0.87      0.00
  -11   -9    5     -0.49      0.00
  -11   -9    4      1.68      0.00
  -11   -9    3     -1.57      0.00
  -11   -9    2      1.88      0.00
  -11   -9    1     -1.93      0.00
   11    9    0     -1.72      0.00
   11    9    1      2.26      0.00
  -11  -10   21     -1.31      0.00
  -11  -10   20     -1.95      0.00
  -11  -10   19      1.72      0.00
  -11  -10   18      1.34      0.00
  -11  -10   17      1.56      0.00
  -11  -10   16     -0.07      0.00
  -11  -10   15      1.34      0.00
  -11  -10   14     -2.03      0.00
  -11  -10   13     -0.61      0.00
  -11  -10   12     -1.48      0.00
  -11  -10   11      1.58      0.00
  -11  -10   10      4.03      0.00
  -11  -10    9      1.60      0.00
  -11  -10    8     -1.59      0.00
  -11  -10    7     -1.02      0.00
  -11  -10    6     -3.00      0.00
  -11  -10    5     -1.16      0.00
  -11  -10    4     -0.60      0.00
  -11  -10    3     -0.50      0.00
  -11  -10    2     -0.85      0.00
  -11  -10    1      0.69      0.00
   11   10    0     -2.68      0.00
  -11  -11   21      0.84      0.00
  -11  -11   20     -0.11      0.00
  -11  -11   19     -0.41      0.00
  -11  -11   18      0.06      0.00
  -11  -11   17     -0.18      0.00
  -11  -11   16     -1.97      0.00
  -11  -11   15      2.69      0.00
  -11  -11   14     -0.30      0.00
  -11  -11   13     -0.57      0.00
  -11  -11   12     -1.67      0.00
  -11  -11   11     -3.14      0.00
  -11  -11   10      2.22      0.00
  -11  -11    9      2.60      0.00
  -11  -11    8      2.59      0.00
  -11  -11    7      0.12      0.00
  -11  -11    6     -1.26      0.00
  -11  -11    5     -0.86      0.00
  -11  -11    4     -3.76      0.00
  -11  -11    3      1.86      0.00
  -11  -11    2     -2.17      0.00
  -11  -12   20      0.20      0.00
  -11  -12   19      0.75      0.00
  -11  -12   18      0.22      0.00
  -11  -12   17      0.60      0.00
  -11  -12   16     -0.67      0.00
  -11  -12   15     -0.88      0.00
  -11  -12   14      3.36      0.00
  -11  -12   13      0.63      0.00
  -11  -12   12      1.03      0.00
  -11  -12   11     -2.67      0.00
  -11  -12   10     -2.51      0.00
  -11  -12    9     -0.01      0.00
  -11  -12    8      0.16      0.00
  -11  -12    7      1.93      0.00
  -11  -12    6     -0.58      0.00
  -11  -12    5      2.36      0.00
  -11  -12    4     -0.27      0.00
  -11  -12    3     -0.08      0.00
  -11  -13   19      0.25      0.00
  -11  -13   18      0.73      0.00
  -11  -13   17      0.22      0.00
  -11  -13   16      1.17      0.00
  -11  -13   15     -1.47      0.00
  -11  -13   14      0.36      0.00
  -11  -13   13      1.01      0.00
  -11  -13   12      1.92      0.00
  -11  -13   11      1.02      0.00
  -11  -13   10     -1.58      0.00
  -11  -13    9     -0.44      0.00
  -11  -13    8     -1.61      0.00
  -11  -13    7      1.10      0.00
  -11  -13    6     -1.06      0.00
  -11  -13    5      2.06      0.00
  -11  -14   17      0.64      0.00
  -11  -14   16      1.30      0.00
  -11  -14   15      0.97      0.00
  -11  -14   14     -1.32      0.00
  -11  -14   13     -0.66      0.00
  -11  -14   12     -0.14      0.00
  -11  -14   11      0.79      0.00
  -11  -14   10     -1.60      0.00
  -11  -14    9     -0.22      0.00
  -11  -14    8     -1.84      0.00
  -12   16   11     -1.15      0.00
  -12   16   10     -1.05      0.00
  -12   16    9     -1.03      0.00
  -12   16    8      0.85      0.00
  -12   16    7      3.04      0.00
  -12   16    6     -1.29      0.00
  -12   16    5     -1.21      0.00
  -12   16    4     -1.59      0.00
  -12   15   13     -1.37      0.00
  -12   15   12      0.98      0.00
  -12   15   11      0.30      0.00
  -12   15   10     -0.87      0.00
  -12   15    9     -0.36      0.00
  -12   15    8     -0.81      0.00
  -12   15    7      1.59      0.00
  -12   15    6      1.33      0.00
  -12   15    5      0.56      0.00
  -12   15    4     -0.21      0.00
  -12   15    3      2.23      0.00
  -12   14   14     -1.11      0.00
  -12   14   13     -2.43      0.00
  -12   14   12     -1.71      0.00
  -12   14   11      2.25      0.00
  -12   14   10      0.02      0.00
  -12   14    9      0.40      0.00
  -12   14    8     -1.03      0.00
  -12   14    7     -2.16      0.00
  -12   14    6     -0.30      0.00
  -12   14    5     -1.56      0.00
  -12   14    4     -1.13      0.00
  -12   14    3     -0.44      0.00
  -12   14    2      0.50      0.00
  -12   14    1     -1.23      0.00
  -12   14    0     -3.55      0.00
   12  -14    5     -1.31      0.00
   12  -14    6      0.76      0.00
   12  -14    7     -0.83      0.00
   12  -14    8     -1.46      0.00
   12  -14    9     -0.55      0.00
   12  -14   10     -1.77      0.00
   12  -14   12      0.04      0.00
  -12   13   15     -1.68      0.00
  -12   13   14     -2.57      0.00
  -12   13   13     -4.40      0.00
  -12   13   12     -3.96      0.00
  -12   13   11     -2.13      0.00
  -12   13   10      2.12      0.00
  -12   13    9      1.80      0.00
  -12   13    8      2.25      0.00
  -12   13    7      0.90      0.00
  -12   13    6     -2.22      0.00
  -12   13    5      0.37      0.00
  -12   13    4      2.39      0.00
  -12   13    3      0.09      0.00
  -12   13    2      3.85      0.00
  -12   13    1      2.56      0.00
  -12   13    0     -3.82      0.00
   12  -13    1     -4.79      0.00
   12  -13    2     -3.09      0.00
   12  -13    3     -2.63      0.00
   12  -13    4      1.22      0.00
   12  -13    5     -0.30      0.00
   12  -13    6     -0.02      0.00
   12  -13    7      1.02      0.00
   12  -13    8      0.85      0.00
   12  -13    9     -1.08      0.00
   12  -13   10      0.24      0.00
   12  -13   11      0.19      0.00
   12  -13   12      0.55      0.00
   12  -13   13      1.34      0.00
  -12   12   16     -0.31      0.00
  -12   12   15      1.93      0.00
  -12   12   14     -0.19      0.00
  -12   12   13      0.66      0.00
  -12   12   12     -0.44      0.00
  -12   12   11     -3.57      0.00
  -12   12   10     -0.91      0.00
  -12   12    9      1.58      0.00
  -12   12    8      1.23      0.00
  -12   12    7     -0.36      0.00
  -12   12    6     -1.64      0.00
  -12   12    5     -3.97      0.00
  -12   12    4     -7.25      0.00
  -12   12    3      1.05      0.00
  -12   12    2     -3.59      0.00
  -12   12    1      7.71      0.00
  -12   12    0      5.22      0.00
   12  -12    1     -1.37      0.00
   12  -12    2     -0.33      0.00
   12  -12    3     -2.82      0.00
   12  -12    4      0.21      0.00
   12  -12    5      1.15      0.00
   12  -12    6     -0.24      0.00
   12  -12    7      1.81      0.00
   12  -12    8     -0.48      0.00
   12  -12    9     -0.08      0.00
   12  -12   10     -2.08      0.00
   12  -12   11     -1.21      0.00
   12  -12   12     -0.81      0.00
   12  -12   13      0.43      0.00
  -12   11   17      0.47      0.00
  -12   11   16     -0.23      0.00
  -12   11   15     -2.43      0.00
  -12   11   14      1.00      0.00
  -12   11   13     -1.60      0.00
  -12   11   12      1.69      0.00
  -12   11   11     -1.55      0.00
  -12   11   10     -2.77      0.00
  -12   11    9     -1.26      0.00
  -12   11    8      4.05      0.00
  -12   11    7      2.97      0.00
  -12   11    6      6.13      0.00
  -12   11    5      4.05      0.00
  -12   11    4      1.36      0.00
  -12   11    3     -3.37      0.00
  -12   11    2     -3.18      0.00
  -12   11    1     -6.23      0.00
  -12   11    0      4.63      0.00
   12  -11    1     -1.62      0.00
   12  -11    2     -1.67      0.00
   12  -11    3     -1.34      0.00
   12  -11    4     -2.29      0.00
   12  -11    5     -0.03      0.00
   12  -11    6      0.28      0.00
   12  -11    7      0.42      0.00
   12  -11    8      1.71      0.00
   12  -11    9      2.52      0.00
   12  -11   10     -0.82      0.00
   12  -11   11      0.09      0.00
   12  -11   12     -1.97      0.00
   12  -11   13      0.13      0.00
   12  -11   14     -1.28      0.00
  -12   10   18      0.62      0.00
  -12   10   17     -1.01      0.00
  -12   10   16      3.74      0.00
  -12   10   15     -1.86      0.00
  -12   10   14     -0.26      0.00
  -12   10   13      0.22      0.00
  -12   10   12      1.93      0.00
  -12   10   11      3.90      0.00
  -12   10   10     -0.96      0.00
  -12   10    9     -4.33      0.00
  -12   10    8     -5.81      0.00
  -12   10    7     -3.18      0.00
  -12   10    6     -8.66      0.00
  -12   10    5      1.33      0.00
  -12   10    4      2.07      0.00
  -12   10    3     -0.33      0.00
  -12   10    2      3.43      0.00
  -12   10    1     -1.24      0.00
  -12   10    0      2.16      0.00
   12  -10    1      4.79      0.00
   12  -10    2      1.22      0.00
   12  -10    3     -0.01      0.00
   12  -10    4      0.90      0.00
   12  -10    5     -0.65      0.00
   12  -10    6     -2.33      0.00
   12  -10    7     -3.14      0.00
   12  -10    8     -1.62      0.00
   12  -10    9     -2.03      0.00
   12  -10   10      1.80      0.00
   12  -10   11     -1.67      0.00
   12  -10   12     -0.48      0.00
   12  -10   13     -0.97      0.00
   12  -10   14      0.06      0.00
  -12    9   19     -0.95      0.00
  -12    9   18      0.11      0.00
  -12    9   17     -3.66      0.00
  -12    9   16      1.04      0.00
  -12    9   15      0.73      0.00
  -12    9   14     -3.98      0.00
  -12    9   13     -3.03      0.00
  -12    9   12     -1.15      0.00
  -12    9   11      2.56      0.00
  -12    9   10      6.95      0.00
  -12    9    9      5.83      0.00
  -12    9    8      5.33      0.00
  -12    9    7      6.38      0.00
  -12    9    6      3.07      0.00
  -12    9    5     -4.18      0.00
  -12    9    4      1.96      0.00
  -12    9    3     -2.27      0.00
  -12    9    2     -3.41      0.00
  -12    9    1     -4.49      0.00
  -12    9    0     -2.35      0.00
   12   -9    1     -1.92      0.00
   12   -9    2     -0.19      0.00
   12   -9    3     -1.47      0.00
   12   -9    4     -0.35      0.00
   12   -9    5      4.12      0.00
   12   -9    6      5.39      0.00
   12   -9    7      1.20      0.00
   12   -9    8      2.05      0.00
   12   -9    9      0.61      0.00
   12   -9   10      0.92      0.00
   12   -9   11      2.62      0.00
   12   -9   12      0.48      0.00
   12   -9   13     -0.61      0.00
   12   -9   14      0.54      0.00
  -12    8   20      3.18      0.00
  -12    8   19      0.16      0.00
  -12    8   18      1.95      0.00
  -12    8   17      0.45      0.00
  -12    8   16     -0.39      0.00
  -12    8   15      4.49      0.00
  -12    8   14      1.94      0.00
  -12    8   13     -2.08      0.00
  -12    8   12      0.44      0.00
  -12    8   11     -0.15      0.00
  -12    8   10     -4.18      0.00
  -12    8    9     -5.66      0.00
  -12    8    8     -4.43      0.00
  -12    8    7     -6.14      0.00
  -12    8    6      4.19      0.00
  -12    8    5     -0.82      0.00
  -12    8    4      1.83      0.00
  -12    8    3      4.35      0.00
  -12    8    2      3.63      0.00
  -12    8    1     -1.42      0.00
  -12    8    0      0.35      0.00
   12   -8    1      2.03      0.00
   12   -8    2      2.62      0.00
   12   -8    3      0.56      0.00
   12   -8    4     -3.11      0.00
   12   -8    5     -4.98      0.00
   12   -8    6      1.17      0.00
   12   -8    7      0.02      0.00
   12   -8    8     -1.59      0.00
   12   -8    9     -0.97      0.00
   12   -8   10     -0.86      0.00
   12   -8   11     -0.45      0.00
   12   -8   12      1.38      0.00
   12   -8   13      0.69      0.00
   12   -8   14      0.18      0.00
  -12    7   20     -0.45      0.00
  -12    7   19      1.87      0.00
  -12    7   18     -1.85      0.00
  -12    7   17     -0.57      0.00
  -12    7   16     -2.51      0.00
  -12    7   15     -1.69      0.00
  -12    7   14      0.37      0.00
  -12    7   13     -3.36      0.00
  -12    7   12     -2.61      0.00
  -12    7   11      2.03      0.00
  -12    7   10      6.22      0.00
  -12    7    9      4.15      0.00
  -12    7    8     -0.89      0.00
  -12    7    7      3.19      0.00
  -12    7    6     -2.55      0.00
  -12    7    5      3.60      0.00
  -12    7    4     -0.88      0.00
  -12    7    3     -1.93      0.00
  -12    7    2      0.64      0.00
  -12    7    1     -1.70      0.00
  -12    7    0     -9.88      0.00
   12   -7    1     -2.19      0.00
   12   -7    2     -2.58      0.00
   12   -7    3      0.92      0.00
   12   -7    4      1.88      0.00
   12   -7    5     -2.61      0.00
   12   -7    6     -0.34      0.00
   12   -7    7      3.65      0.00
   12   -7    8      3.19      0.00
   12   -7    9      1.09      0.00
   12   -7   10      2.02      0.00
   12   -7   11     -0.05      0.00
   12   -7   12      0.11      0.00
   12   -7   13      0.14      0.00
  -12    6   20     -2.69      0.00
  -12    6   19      0.80      0.00
  -12    6   18      1.65      0.00
  -12    6   17      2.39      0.00
  -12    6   16      1.09      0.00
  -12    6   15      2.68      0.00
  -12    6   14      3.80      0.00
  -12    6   13     -0.78      0.00
  -12    6   12     -6.04      0.00
  -12    6   11     -9.38      0.00
  -12    6   10     -3.44      0.00
  -12    6    9     -0.19      0.00
  -12    6    8     -0.26      0.00
  -12    6    7     -0.60      0.00
  -12    6    6     -0.13      0.00
  -12    6    5     -1.82      0.00
  -12    6    4      0.79      0.00
  -12    6    3      3.20      0.00
  -12    6    2     -0.02      0.00
  -12    6    1     11.66      0.00
  -12    6    0      2.63      0.00
   12   -6    1     -1.93      0.00
   12   -6    2      0.28      0.00
   12   -6    3     -1.97      0.00
   12   -6    4     -0.92      0.00
   12   -6    5     -0.05      0.00
   12   -6    6     -4.00      0.00
   12   -6    7     -1.36      0.00
   12   -6    8     -0.82      0.00
   12   -6    9     -0.70      0.00
   12   -6   10     -1.66      0.00
   12   -6   11      1.14      0.00
   12   -6   12     -0.89      0.00
   12   -6   13     -0.05      0.00
  -12    5   21      2.06      0.00
  -12    5   20     -1.16      0.00
  -12    5   19     -1.26      0.00
  -12    5   18     -0.73      0.00
  -12    5   17     -2.05      0.00
  -12    5   16     -3.88      0.00
  -12    5   15     -1.22      0.00
  -12    5   14      2.36      0.00
  -12    5   13     10.02      0.00
  -12    5   12      3.72      0.00
  -12    5   11      4.23      0.00
  -12    5   10     -8.00      0.00
  -12    5    9      1.49      0.00
  -12    5    8     -0.52      0.00
  -12    5    7     -1.74      0.00
  -12    5    6      1.01      0.00
  -12    5    5      0.88      0.00
  -12    5    4     -6.43      0.00
  -12    5    3     -1.00      0.00
  -12    5    2     -6.64      0.00
  -12    5    1     -2.85      0.00
  -12    5    0      6.24      0.00
   12   -5    1     -0.80      0.00
   12   -5    2      0.70      0.00
   12   -5    3      1.42      0.00
   12   -5    4      0.77      0.00
   12   -5    5     -0.16      0.00
   12   -5    6      1.37      0.00
   12   -5    7     -0.56      0.00
   12   -5    8      0.47      0.00
   12   -5    9      2.08      0.00
   12   -5   10     -2.41      0.00
   12   -5   11     -0.84      0.00
   12   -5   12     -0.42      0.00
   12   -5   13     -0.84      0.00
  -12    4   21      0.15      0.00
  -12    4   20      0.39      0.00
  -12    4   19      1.09      0.00
  -12    4   18     -0.52      0.00
  -12    4   17      1.51      0.00
  -12    4   16     -2.20      0.00
  -12    4   15     -7.67      0.00
  -12    4   14     -6.62      0.00
  -12    4   13     -0.50      0.00
  -12    4   12      2.14      0.00
  -12    4   11      2.81      0.00
  -12    4   10      2.25      0.00
  -12    4    9     -5.87      0.00
  -12    4    8      0.27      0.00
  -12    4    7      1.86      0.00
  -12    4    6     -3.83      0.00
  -12    4    5      8.95      0.00
  -12    4    4      1.40      0.00
  -12    4    3     -0.10      0.00
  -12    4    2      1.67      0.00
  -12    4    1     -3.58      0.00
  -12    4    0      2.32      0.00
   12   -4    1      5.82      0.00
   12   -4    2     -1.13      0.00
   12   -4    3      1.44      0.00
   12   -4    4     -0.76      0.00
   12   -4    5      0.37      0.00
   12   -4    6     -6.71      0.00
   12   -4    7      0.46      0.00
   12   -4    8     -3.74      0.00
   12   -4    9      0.22      0.00
   12   -4   10      2.51      0.00
   12   -4   11     -1.77      0.00
   12   -4   12      0.71      0.00
  -12    3   21      0.18      0.00
  -12    3   20     -2.29      0.00
  -12    3   19     -1.72      0.00
  -12    3   18     -0.70      0.00
  -12    3   17      2.07      0.00
  -12    3   16      2.43      0.00
  -12    3   15      1.05      0.00
  -12    3   14     -5.84      0.00
  -12    3   13     -1.37      0.00
  -12    3   12      2.51      0.00
  -12    3   11      5.53      0.00
  -12    3   10      5.86      0.00
  -12    3    9      4.89      0.00
  -12    3    8     -1.59      0.00
  -12    3    7      1.96      0.00
  -12    3    6     -1.90      0.00
  -12    3    5     -9.03      0.00
  -12    3    4      7.17      0.00
  -12    3    3     -4.64      0.00
  -12    3    2      0.67      0.00
  -12    3    1     -3.29      0.00
  -12    3    0     -3.32      0.00
   12   -3    1     -2.07      0.00
   12   -3    2      1.29      0.00
   12   -3    3      0.33      0.00
   12   -3    4      2.32      0.00
   12   -3    5      5.86      0.00
   12   -3    6      0.43      0.00
   12   -3    7     -2.53      0.00
   12   -3    8      0.42      0.00
   12   -3    9     -3.13      0.00
   12   -3   10      1.09      0.00
   12   -3   11      1.14      0.00
   12   -3   12     -0.37      0.00
  -12    2   21      0.05      0.00
  -12    2   20      3.48      0.00
  -12    2   19     -1.46      0.00
  -12    2   18     -0.04      0.00
  -12    2   17      1.03      0.00
  -12    2   16      2.03      0.00
  -12    2   15      1.83      0.00
  -12    2   14     -3.54      0.00
  -12    2   13    -10.57      0.00
  -12    2   12     -3.20      0.00
  -12    2   11     -1.74      0.00
  -12    2   10     -0.28      0.00
  -12    2    9      1.95      0.00
  -12    2    8      1.70      0.00
  -12    2    7     -1.22      0.00
  -12    2    6      7.02      0.00
  -12    2    5     -2.63      0.00
  -12    2    4      0.18      0.00
  -12    2    3      7.99      0.00
  -12    2    2      1.50      0.00
  -12    2    1      3.02      0.00
  -12    2    0      0.20      0.00
   12   -2    1      0.26      0.00
   12   -2    2     -4.62      0.00
   12   -2    3     -0.72      0.00
   12   -2    4     -5.57      0.00
   12   -2    5      0.06      0.00
   12   -2    6      5.20      0.00
   12   -2    7     -2.40      0.00
   12   -2    8      0.85      0.00
   12   -2    9     -0.87      0.00
   12   -2   10     -2.36      0.00
   12   -2   11      0.91      0.00
  -12    1   22     -0.38      0.00
  -12    1   21     -1.70      0.00
  -12    1   20     -0.30      0.00
  -12    1   19      0.29      0.00
  -12    1   18     -2.51      0.00
  -12    1   17     -1.61      0.00
  -12    1   16      2.21      0.00
  -12    1   15      4.61      0.00
  -12    1   14      4.77      0.00
  -12    1   13      1.60      0.00
  -12    1   12     -3.93      0.00
  -12    1   11     -0.81      0.00
  -12    1   10      3.54      0.00
  -12    1    9     -5.99      0.00
  -12    1    8      7.10      0.00
  -12    1    7     -2.90      0.00
  -12    1    6      3.00      0.00
  -12    1    5     -1.22      0.00
  -12    1    4     -7.28      0.00
  -12    1    3     -5.28      0.00
  -12    1    2      0.30      0.00
  -12    1    1     -3.55      0.00
  -12    1    0     -2.60      0.00
   12   -1    1      2.26      0.00
   12   -1    2      0.12      0.00
   12   -1    3     -3.77      0.00
   12   -1    4      2.84      0.00
   12   -1    5     -6.45      0.00
   12   -1    6      5.55      0.00
   12   -1    7      3.90      0.00
   12   -1    8      0.48      0.00
   12   -1    9      2.12      0.00
   12   -1   10     -1.04      0.00
  -12    0   22     -0.90      0.00
  -12    0   21     -1.16      0.00
  -12    0   20     -1.04      0.00
  -12    0   19      3.78      0.00
  -12    0   18     -1.10      0.00
  -12    0   17     -1.58      0.00
  -12    0   16     -2.95      0.00
  -12    0   15      1.31      0.00
  -12    0   14      4.67      0.00
  -12    0   13      3.04      0.00
  -12    0   12      5.29      0.00
  -12    0   11     -3.78      0.00
  -12    0   10      4.42      0.00
  -12    0    9     -1.48      0.00
  -12    0    8     -7.94      0.00
  -12    0    7      3.80      0.00
  -12    0    6     -4.10      0.00
  -12    0    5      5.83      0.00
  -12    0    4      3.53      0.00
  -12    0    3      0.88      0.00
  -12    0    2      1.74      0.00
  -12    0    1      1.34      0.00
   12    0    0     -2.19      0.00
   12    0    1     -3.91      0.00
   12    0    2      7.41      0.00
   12    0    3     -2.85      0.00
   12    0    4      1.26      0.00
   12    0    5     -2.87      0.00
   12    0    6     -4.95      0.00
   12    0    7      2.63      0.00
   12    0    8      1.55      0.00
   12    0    9      0.92      0.00
  -12   -1   22     -2.65      0.00
  -12   -1   21     -0.21      0.00
  -12   -1   20     -0.71      0.00
  -12   -1   19      2.57      0.00
  -12   -1   18      3.83      0.00
  -12   -1   17      0.79      0.00
  -12   -1   16     -2.16      0.00
  -12   -1   15     -2.66      0.00
  -12   -1   14      3.28      0.00
  -12   -1   13      0.19      0.00
  -12   -1   12      3.66      0.00
  -12   -1   11      1.94      0.00
  -12   -1   10     -0.04      0.00
  -12   -1    9      7.12      0.00
  -12   -1    8     -4.68      0.00
  -12   -1    7     -6.92      0.00
  -12   -1    6     -1.32      0.00
  -12   -1    5     -3.09      0.00
  -12   -1    4     -0.81      0.00
  -12   -1    3      2.23      0.00
  -12   -1    2     -1.68      0.00
  -12   -1    1     -0.29      0.00
   12    1    0     -0.10      0.00
   12    1    1     -5.34      0.00
   12    1    2      0.45      0.00
   12    1    3      4.47      0.00
   12    1    4     -0.23      0.00
   12    1    5      3.98      0.00
   12    1    6     -2.10      0.00
   12    1    7     -1.64      0.00
   12    1    8      0.47      0.00
  -12   -2   22      1.23      0.00
  -12   -2   21     -0.49      0.00
  -12   -2   20     -3.11      0.00
  -12   -2   19     -1.14      0.00
  -12   -2   18      0.15      0.00
  -12   -2   17     -0.32      0.00
  -12   -2   16     -0.24      0.00
  -12   -2   15     -6.56      0.00
  -12   -2   14     -0.28      0.00
  -12   -2   13      1.95      0.00
  -12   -2   12     -4.01      0.00
  -12   -2   11      4.48      0.00
  -12   -2   10     -6.09      0.00
  -12   -2    9      6.73      0.00
  -12   -2    8      7.84      0.00
  -12   -2    7     -1.05      0.00
  -12   -2    6      0.24      0.00
  -12   -2    5     -1.02      0.00
  -12   -2    4      1.89      0.00
  -12   -2    3     -2.68      0.00
  -12   -2    2      5.10      0.00
  -12   -2    1     -2.89      0.00
   12    2    0      3.16      0.00
   12    2    1     -1.61      0.00
   12    2    2     -5.04      0.00
   12    2    3      1.29      0.00
   12    2    4     -0.78      0.00
   12    2    5      1.72      0.00
   12    2    6      1.38      0.00
   12    2    7     -0.41      0.00
  -12   -3   22      1.19      0.00
  -12   -3   21      0.28      0.00
  -12   -3   20      1.17      0.00
  -12   -3   19     -1.57      0.00
  -12   -3   18      1.49      0.00
  -12   -3   17      0.01      0.00
  -12   -3   16      1.73      0.00
  -12   -3   15     -1.07      0.00
  -12   -3   14     -8.05      0.00
  -12   -3   13      5.42      0.00
  -12   -3   12      0.79      0.00
  -12   -3   11      2.74      0.00
  -12   -3   10      1.92      0.00
  -12   -3    9     -4.44      0.00
  -12   -3    8      1.32      0.00
  -12   -3    7      5.96      0.00
  -12   -3    6     -4.37      0.00
  -12   -3    5      3.58      0.00
  -12   -3    4     -3.95      0.00
  -12   -3    3      0.60      0.00
  -12   -3    2     -4.62      0.00
  -12   -3    1      5.24      0.00
   12    3    0     -3.18      0.00
   12    3    1      5.90      0.00
   12    3    2     -2.07      0.00
   12    3    3     -0.78      0.00
   12    3    4     -0.69      0.00
   12    3    5     -0.15      0.00
   12    3    6     -0.89      0.00
   12    3    7      0.63      0.00
  -12   -4   22      0.12      0.00
  -12   -4   21     -0.05      0.00
  -12   -4   20      2.14      0.00
  -12   -4   19      0.37      0.00
  -12   -4   18      1.15      0.00
  -12   -4   17      2.83      0.00
  -12   -4   16     -0.95      0.00
  -12   -4   15      4.97      0.00
  -12   -4   14     -5.72      0.00
  -12   -4   13     -3.56      0.00
  -12   -4   12      0.16      0.00
  -12   -4   11     -4.29      0.00
  -12   -4   10     -0.33      0.00
  -12   -4    9     -4.28      0.00
  -12   -4    8     -1.49      0.00
  -12   -4    7      1.97      0.00
  -12   -4    6      5.87      0.00
  -12   -4    5      0.12      0.00
  -12   -4    4      3.00      0.00
  -12   -4    3      0.01      0.00
  -12   -4    2     -2.86      0.00
  -12   -4    1     -0.93      0.00
   12    4    0     -0.66      0.00
   12    4    1     -0.21      0.00
   12    4    2     -1.35      0.00
   12    4    3     -0.05      0.00
   12    4    4     -2.67      0.00
   12    4    5      0.43      0.00
  -12   -5   22     -0.68      0.00
  -12   -5   21      0.32      0.00
  -12   -5   20     -0.22      0.00
  -12   -5   19     -0.46      0.00
  -12   -5   18     -2.46      0.00
  -12   -5   17      0.56      0.00
  -12   -5   16     -1.64      0.00
  -12   -5   15      1.29      0.00
  -12   -5   14      1.42      0.00
  -12   -5   13     -3.53      0.00
  -12   -5   12      1.06      0.00
  -12   -5   11      1.68      0.00
  -12   -5   10     -2.49      0.00
  -12   -5    9      0.34      0.00
  -12   -5    8     -2.49      0.00
  -12   -5    7      0.05      0.00
  -12   -5    6     -0.12      0.00
  -12   -5    5      1.83      0.00
  -12   -5    4     -1.25      0.00
  -12   -5    3      0.70      0.00
  -12   -5    2      0.98      0.00
  -12   -5    1     -2.22      0.00
   12    5    0      0.03      0.00
   12    5    1      0.01      0.00
   12    5    2     -0.29      0.00
   12    5    3     -0.23      0.00
   12    5    4     -0.11      0.00
  -12   -6   22     -1.23      0.00
  -12   -6   21     -0.30      0.00
  -12   -6   20      1.24      0.00
  -12   -6   19      3.12      0.00
  -12   -6   18     -1.52      0.00
  -12   -6   17     -1.56      0.00
  -12   -6   16      0.93      0.00
  -12   -6   15     -2.22      0.00
  -12   -6   14      5.66      0.00
  -12   -6   13     -2.17      0.00
  -12   -6   12      0.75      0.00
  -12   -6   11     -1.63      0.00
  -12   -6   10      0.72      0.00
  -12   -6    9     -4.14      0.00
  -12   -6    8     -1.86      0.00
  -12   -6    7      0.10      0.00
  -12   -6    6      2.24      0.00
  -12   -6    5      0.92      0.00
  -12   -6    4      2.97      0.00
  -12   -6    3     -0.91      0.00
  -12   -6    2      2.09      0.00
  -12   -6    1      1.33      0.00
   12    6    0      0.18      0.00
   12    6    1     -0.19      0.00
   12    6    2      2.05      0.00
   12    6    3     -1.74      0.00
  -12   -7   21     -0.98      0.00
  -12   -7   20     -0.86      0.00
  -12   -7   19      1.34      0.00
  -12   -7   18      1.77      0.00
  -12   -7   17     -2.96      0.00
  -12   -7   16     -1.82      0.00
  -12   -7   15     -2.26      0.00
  -12   -7   14      0.08      0.00
  -12   -7   13      0.49      0.00
  -12   -7   12     -0.07      0.00
  -12   -7   11     -1.34      0.00
  -12   -7   10      3.20      0.00
  -12   -7    9      0.38      0.00
  -12   -7    8      0.91      0.00
  -12   -7    7     -4.41      0.00
  -12   -7    6      1.92      0.00
  -12   -7    5     -3.20      0.00
  -12   -7    4      1.44      0.00
  -12   -7    3     -0.54      0.00
  -12   -7    2     -1.07      0.00
  -12   -7    1     -0.31      0.00
   12    7    0      0.78      0.00
   12    7    1     -1.58      0.00
   12    7    2      1.14      0.00
  -12   -8   21     -0.84      0.00
  -12   -8   20     -2.27      0.00
  -12   -8   19     -1.57      0.00
  -12   -8   18      1.91      0.00
  -12   -8   17      0.61      0.00
  -12   -8   16      0.95      0.00
  -12   -8   15     -2.54      0.00
  -12   -8   14      1.12      0.00
  -12   -8   13      0.27      0.00
  -12   -8   12     -0.07      0.00
  -12   -8   11      1.13      0.00
  -12   -8   10     -1.06      0.00
  -12   -8    9      1.65      0.00
  -12   -8    8     -0.01      0.00
  -12   -8    7     -2.38      0.00
  -12   -8    6     -2.32      0.00
  -12   -8    5     -0.79      0.00
  -12   -8    4     -1.44      0.00
  -12   -8    3     -0.86      0.00
  -12   -8    2      1.10      0.00
  -12   -8    1     -2.58      0.00
   12    8    0      0.30      0.00
   12    8    1     -1.38      0.00
  -12   -9   20     -0.90      0.00
  -12   -9   19     -2.78      0.00
  -12   -9   18     -1.31      0.00
  -12   -9   17      1.06      0.00
  -12   -9   16      1.58      0.00
  -12   -9   15      2.43      0.00
  -12   -9   14      0.63      0.00
  -12   -9   13      2.52      0.00
  -12   -9   12     -0.92      0.00
  -12   -9   11     -1.91      0.00
  -12   -9   10      0.48      0.00
  -12   -9    9     -0.34      0.00
  -12   -9    8      3.37      0.00
  -12   -9    7      0.50      0.00
  -12   -9    6     -0.59      0.00
  -12   -9    5     -1.00      0.00
  -12   -9    4     -0.60      0.00
  -12   -9    3     -2.08      0.00
  -12   -9    2      0.73      0.00
  -12   -9    1      0.84      0.00
  -12  -10   20     -1.16      0.00
  -12  -10   19     -0.01      0.00
  -12  -10   18     -0.51      0.00
  -12  -10   17     -0.14      0.00
  -12  -10   16     -0.97      0.00
  -12  -10   15      0.50      0.00
  -12  -10   14     -2.27      0.00
  -12  -10   13      2.88      0.00
  -12  -10   12      1.11      0.00
  -12  -10   11     -0.16      0.00
  -12  -10   10     -2.52      0.00
  -12  -10    9     -1.61      0.00
  -12  -10    8     -0.54      0.00
  -12  -10    7      2.06      0.00
  -12  -10    6      2.25      0.00
  -12  -10    5     -0.10      0.00
  -12  -10    4     -0.45      0.00
  -12  -10    3     -0.55      0.00
  -12  -11   19     -1.14      0.00
  -12  -11   18     -1.14      0.00
  -12  -11   17      1.24      0.00
  -12  -11   16     -0.70      0.00
  -12  -11   15      0.14      0.00
  -12  -11   14     -0.74      0.00
  -12  -11   13     -1.75      0.00
  -12  -11   12      3.44      0.00
  -12  -11   11      1.49      0.00
  -12  -11   10      0.39      0.00
  -12  -11    9     -2.43      0.00
  -12  -11    8     -2.93      0.00
  -12  -11    7     -0.84      0.00
  -12  -11    6     -0.90      0.00
  -12  -11    5      2.06      0.00
  -12  -11    4     -0.63      0.00
  -12  -12   18     -0.37      0.00
  -12  -12   17      0.42      0.00
  -12  -12   16      0.43      0.00
  -12  -12   15     -0.33      0.00
  -12  -12   14      0.30      0.00
  -12  -12   13     -2.50      0.00
  -12  -12   12     -1.77      0.00
  -12  -12   11      1.34      0.00
  -12  -12   10      0.57      0.00
  -12  -12    9      1.52      0.00
  -12  -12    8     -1.45      0.00
  -12  -12    7      0.36      0.00
  -12  -13   15     -0.43      0.00
  -12  -13   14      0.59      0.00
  -12  -13   13     -0.10      0.00
  -12  -13   12     -0.83      0.00
  -12  -13   11     -1.12      0.00
  -12  -13   10      0.59      0.00
  -13   16   11     -1.04      0.00
  -13   16   10      0.20      0.00
  -13   16    9     -0.03      0.00
  -13   16    8     -2.15      0.00
  -13   16    7     -1.34      0.00
  -13   16    6      0.35      0.00
  -13   16    4      1.96      0.00
  -13   15   13      0.07      0.00
  -13   15   12     -0.09      0.00
  -13   15   11     -0.22      0.00
  -13   15   10     -1.55      0.00
  -13   15    9      2.14      0.00
  -13   15    8     -0.25      0.00
  -13   15    7     -0.08      0.00
  -13   15    6     -0.33      0.00
  -13   15    5      0.39      0.00
  -13   15    3      0.87      0.00
  -13   15    2      0.84      0.00
  -13   14   14      1.14      0.00
  -13   14   13      0.83      0.00
  -13   14   12     -0.99      0.00
  -13   14   11     -2.38      0.00
  -13   14   10     -2.59      0.00
  -13   14    9     -2.05      0.00
  -13   14    8      2.15      0.00
  -13   14    7      1.19      0.00
  -13   14    6      0.33      0.00
  -13   14    5      1.42      0.00
  -13   14    4     -0.33      0.00
  -13   14    3      0.71      0.00
  -13   14    2      2.75      0.00
  -13   14    1      3.21      0.00
  -13   14    0      3.77      0.00
   13  -14    1      3.14      0.00
   13  -14    2     -0.14      0.00
   13  -14    3     -2.95      0.00
   13  -14    4     -1.15      0.00
   13  -14    5     -1.19      0.00
   13  -14    6     -0.16      0.00
   13  -14    7      0.17      0.00
   13  -14    8     -0.40      0.00
  -13   13   15     -0.66      0.00
  -13   13   14     -0.19      0.00
  -13   13   13      2.14      0.00
  -13   13   12      1.61      0.00
  -13   13   11      0.87      0.00
  -13   13   10      0.11      0.00
  -13   13    9     -1.58      0.00
  -13   13    8     -1.11      0.00
  -13   13    7      2.12      0.00
  -13   13    6      2.83      0.00
  -13   13    5     -0.12      0.00
  -13   13    4      1.22      0.00
  -13   13    3     -0.26      0.00
  -13   13    2     -4.01      0.00
  -13   13    1      0.79      0.00
  -13   13    0      1.54      0.00
   13  -13    1      4.33      0.00
   13  -13    2      5.05      0.00
   13  -13    3     -0.60      0.00
   13  -13    4     -0.48      0.00
   13  -13    5     -1.23      0.00
   13  -13    6     -0.52      0.00
   13  -13    7      0.58      0.00
   13  -13    8      0.30      0.00
   13  -13    9      1.49      0.00
   13  -13   10      0.28      0.00
   13  -13   11      0.74      0.00
  -13   12   16      0.28      0.00
  -13   12   15     -0.07      0.00
  -13   12   14     -0.35      0.00
  -13   12   13     -2.31      0.00
  -13   12   12      1.35      0.00
  -13   12   11     -0.08      0.00
  -13   12   10      1.45      0.00
  -13   12    9     -0.97      0.00
  -13   12    8     -2.69      0.00
  -13   12    7     -2.11      0.00
  -13   12    6     -0.27      0.00
  -13   12    5      1.29      0.00
  -13   12    4      1.87      0.00
  -13   12    3      6.15      0.00
  -13   12    2      2.48      0.00
  -13   12    1     -1.66      0.00
  -13   12    0      0.42      0.00
   13  -12    1     -2.56      0.00
   13  -12    2      3.36      0.00
   13  -12    3      1.04      0.00
   13  -12    4     -1.86      0.00
   13  -12    5     -0.52      0.00
   13  -12    6     -2.40      0.00
   13  -12    7     -2.08      0.00
   13  -12    8     -1.42      0.00
   13  -12    9     -0.68      0.00
   13  -12   10     -0.43      0.00
   13  -12   11      1.37      0.00
   13  -12   12     -0.34      0.00
  -13   11   17     -0.05      0.00
  -13   11   16      1.15      0.00
  -13   11   15     -0.27      0.00
  -13   11   14      2.00      0.00
  -13   11   13     -1.99      0.00
  -13   11   12     -2.86      0.00
  -13   11   11     -0.34      0.00
  -13   11   10      2.42      0.00
  -13   11    9      3.24      0.00
  -13   11    8      3.70      0.00
  -13   11    7      0.54      0.00
  -13   11    6     -2.03      0.00
  -13   11    5     -0.73      0.00
  -13   11    4     -6.86      0.00
  -13   11    3     -2.67      0.00
  -13   11    2      2.02      0.00
  -13   11    1     -3.50      0.00
  -13   11    0     -0.93      0.00
   13  -11    1     -0.64      0.00
   13  -11    2     -0.17      0.00
   13  -11    3      3.25      0.00
   13  -11    4      2.44      0.00
   13  -11    5      1.31      0.00
   13  -11    6      2.47      0.00
   13  -11    7      1.67      0.00
   13  -11    8     -0.93      0.00
   13  -11    9     -0.94      0.00
   13  -11   10     -1.35      0.00
   13  -11   11     -0.61      0.00
   13  -11   12      0.18      0.00
  -13   10   18      1.50      0.00
  -13   10   17     -1.30      0.00
  -13   10   16     -0.10      0.00
  -13   10   15     -1.93      0.00
  -13   10   14      1.10      0.00
  -13   10   13      1.33      0.00
  -13   10   12     -2.69      0.00
  -13   10   11     -4.73      0.00
  -13   10   10     -2.48      0.00
  -13   10    9     -1.45      0.00
  -13   10    8     -0.45      0.00
  -13   10    7      2.78      0.00
  -13   10    6      3.04      0.00
  -13   10    5      2.63      0.00
  -13   10    4      5.19      0.00
  -13   10    3     -2.21      0.00
  -13   10    2      4.23      0.00
  -13   10    1      2.77      0.00
  -13   10    0     -0.09      0.00
   13  -10    1     -1.30      0.00
   13  -10    2     -1.85      0.00
   13  -10    3     -2.41      0.00
   13  -10    4     -3.56      0.00
   13  -10    5     -2.44      0.00
   13  -10    6     -0.97      0.00
   13  -10    7      0.59      0.00
   13  -10    8      2.71      0.00
   13  -10    9     -0.52      0.00
   13  -10   10      0.14      0.00
   13  -10   11      0.31      0.00
   13  -10   12      0.49      0.00
  -13    9   19     -3.25      0.00
  -13    9   18      2.09      0.00
  -13    9   17      0.11      0.00
  -13    9   16      0.99      0.00
  -13    9   15      0.39      0.00
  -13    9   14     -0.03      0.00
  -13    9   13      2.42      0.00
  -13    9   12      3.48      0.00
  -13    9   11      0.91      0.00
  -13    9   10      1.43      0.00
  -13    9    9      5.63      0.00
  -13    9    8     -0.07      0.00
  -13    9    7     -2.28      0.00
  -13    9    6     -0.06      0.00
  -13    9    5     -5.74      0.00
  -13    9    4     -0.77      0.00
  -13    9    3     -4.16      0.00
  -13    9    2     -2.05      0.00
  -13    9    1      1.97      0.00
  -13    9    0      2.37      0.00
   13   -9    1      1.20      0.00
   13   -9    2      2.06      0.00
   13   -9    3      3.93      0.00
   13   -9    4      3.95      0.00
   13   -9    5      1.20      0.00
   13   -9    6      1.04      0.00
   13   -9    7     -0.05      0.00
   13   -9    8      1.92      0.00
   13   -9    9      1.30      0.00
   13   -9   10     -0.58      0.00
   13   -9   11     -1.38      0.00
   13   -9   12      0.06      0.00
  -13    8   20      1.10      0.00
  -13    8   19     -1.12      0.00
  -13    8   18     -1.51      0.00
  -13    8   17      3.06      0.00
  -13    8   16     -0.93      0.00
  -13    8   15     -0.45      0.00
  -13    8   14      0.45      0.00
  -13    8   13      0.71      0.00
  -13    8   12     -0.72      0.00
  -13    8   11     -3.69      0.00
  -13    8   10     -5.03      0.00
  -13    8    9     -2.98      0.00
  -13    8    8      2.15      0.00
  -13    8    7      0.51      0.00
  -13    8    6      0.23      0.00
  -13    8    5      3.82      0.00
  -13    8    4      0.51      0.00
  -13    8    3      2.77      0.00
  -13    8    2      1.91      0.00
  -13    8    1      1.65      0.00
  -13    8    0      3.73      0.00
   13   -8    1      1.64      0.00
   13   -8    2     -3.54      0.00
   13   -8    3     -3.43      0.00
   13   -8    4      0.62      0.00
   13   -8    5     -2.65      0.00
   13   -8    6     -1.05      0.00
   13   -8    7     -2.71      0.00
   13   -8    8     -1.37      0.00
   13   -8    9      0.40      0.00
   13   -8   10      1.05      0.00
   13   -8   11     -0.62      0.00
   13   -8   12      0.22      0.00
  -13    7   20     -0.76      0.00
  -13    7   19     -0.67      0.00
  -13    7   18     -2.64      0.00
  -13    7   17     -0.25      0.00
  -13    7   16      1.29      0.00
  -13    7   15     -1.59      0.00
  -13    7   14      0.01      0.00
  -13    7   13      2.05      0.00
  -13    7   12      5.46      0.00
  -13    7   11      2.66      0.00
  -13    7   10     -1.20      0.00
  -13    7    9     -5.22      0.00
  -13    7    8     -2.43      0.00
  -13    7    7     -2.96      0.00
  -13    7    6     -3.72      0.00
  -13    7    5     -4.74      0.00
  -13    7    4     -1.32      0.00
  -13    7    3     -3.83      0.00
  -13    7    2     -2.19      0.00
  -13    7    1      2.47      0.00
  -13    7    0      1.85      0.00
   13   -7    1      7.24      0.00
   13   -7    2      5.34      0.00
   13   -7    3      0.21      0.00
   13   -7    4      1.13      0.00
   13   -7    5      2.95      0.00
   13   -7    6     -0.07      0.00
   13   -7    7      0.71      0.00
   13   -7    8     -1.70      0.00
   13   -7    9     -1.24      0.00
   13   -7   10     -0.40      0.00
   13   -7   11     -0.79      0.00
   13   -7   12     -0.31      0.00
  -13    6   20      0.32      0.00
  -13    6   19      2.92      0.00
  -13    6   18      0.30      0.00
  -13    6   17     -0.36      0.00
  -13    6   16      1.20      0.00
  -13    6   15     -2.13      0.00
  -13    6   14     -6.62      0.00
  -13    6   13     -5.08      0.00
  -13    6   12     -1.20      0.00
  -13    6   11      4.03      0.00
  -13    6   10      0.53      0.00
  -13    6    9      3.76      0.00
  -13    6    8     -2.67      0.00
  -13    6    7      3.71      0.00
  -13    6    6      2.35      0.00
  -13    6    5      1.96      0.00
  -13    6    4     -0.15      0.00
  -13    6    3      5.73      0.00
  -13    6    2     -3.94      0.00
  -13    6    1     -0.18      0.00
  -13    6    0     -0.96      0.00
   13   -6    1     -1.42      0.00
   13   -6    2      3.36      0.00
   13   -6    3      0.45      0.00
   13   -6    4     -1.49      0.00
   13   -6    5      0.56      0.00
   13   -6    6      1.13      0.00
   13   -6    7     -2.16      0.00
   13   -6    8      0.88      0.00
   13   -6    9     -0.84      0.00
   13   -6   10     -0.10      0.00
   13   -6   11      0.83      0.00
   13   -6   12     -1.32      0.00
  -13    5   20      0.67      0.00
  -13    5   19      1.45      0.00
  -13    5   18      0.15      0.00
  -13    5   17      2.02      0.00
  -13    5   16      1.95      0.00
  -13    5   15      4.49      0.00
  -13    5   14      1.94      0.00
  -13    5   13     -0.86      0.00
  -13    5   12     -4.28      0.00
  -13    5   11      0.59      0.00
  -13    5   10     -0.24      0.00
  -13    5    9     -5.05      0.00
  -13    5    8     -1.46      0.00
  -13    5    7     -7.97      0.00
  -13    5    6     -3.87      0.00
  -13    5    5      0.63      0.00
  -13    5    4     -4.71      0.00
  -13    5    3      3.97      0.00
  -13    5    2      3.50      0.00
  -13    5    1     -1.23      0.00
  -13    5    0      2.27      0.00
   13   -5    1      2.06      0.00
   13   -5    2      1.80      0.00
   13   -5    3      4.25      0.00
   13   -5    4      1.00      0.00
   13   -5    5      0.88      0.00
   13   -5    6      0.29      0.00
   13   -5    7      2.03      0.00
   13   -5    8     -4.12      0.00
   13   -5    9      0.01      0.00
   13   -5   10     -1.13      0.00
   13   -5   11     -0.45      0.00
  -13    4   21     -0.17      0.00
  -13    4   20     -0.27      0.00
  -13    4   19      0.62      0.00
  -13    4   18     -2.03      0.00
  -13    4   17     -2.82      0.00
  -13    4   16     -3.69      0.00
  -13    4   15      0.52      0.00
  -13    4   13     -1.10      0.00
  -13    4   12     -5.59      0.00
  -13    4   11     -2.85      0.00
  -13    4   10      1.70      0.00
  -13    4    9      4.86      0.00
  -13    4    8      1.48      0.00
  -13    4    7      8.32      0.00
  -13    4    6     -1.85      0.00
  -13    4    5      2.55      0.00
  -13    4    4      1.24      0.00
  -13    4    3     -4.66      0.00
  -13    4    2      4.77      0.00
  -13    4    1      0.53      0.00
  -13    4    0     -3.02      0.00
   13   -4    1     -0.72      0.00
   13   -4    2     -2.88      0.00
   13   -4    3     -1.31      0.00
   13   -4    4     -1.90      0.00
   13   -4    5      1.13      0.00
   13   -4    6      0.36      0.00
   13   -4    7      3.14      0.00
   13   -4    8      1.73      0.00
   13   -4    9     -1.95      0.00
   13   -4   10      0.42      0.00
   13   -4   11     -1.42      0.00
  -13    3   21     -0.25      0.00
  -13    3   20      0.08      0.00
  -13    3   19      0.78      0.00
  -13    3   18      2.16      0.00
  -13    3   17     -0.15      0.00
  -13    3   16     -0.41      0.00
  -13    3   15      4.56      0.00
  -13    3   14      5.13      0.00
  -13    3   13      2.68      0.00
  -13    3   12     -0.05      0.00
  -13    3   11     -8.78      0.00
  -13    3   10     -4.16      0.00
  -13    3    9     -1.85      0.00
  -13    3    8     -2.91      0.00
  -13    3    7     -2.37      0.00
  -13    3    6      3.14      0.00
  -13    3    5     -4.77      0.00
  -13    3    4      2.68      0.00
  -13    3    3     -2.41      0.00
  -13    3    2     -0.48      0.00
  -13    3    1      5.37      0.00
  -13    3    0      3.43      0.00
   13   -3    1      0.84      0.00
   13   -3    2      2.07      0.00
   13   -3    3      1.70      0.00
   13   -3    4     -2.98      0.00
   13   -3    5     -0.35      0.00
   13   -3    6     -1.38      0.00
   13   -3    7     -0.73      0.00
   13   -3    8      3.48      0.00
   13   -3    9      0.20      0.00
   13   -3   10     -0.62      0.00
  -13    2   21     -0.22      0.00
  -13    2   20     -0.37      0.00
  -13    2   19     -0.22      0.00
  -13    2   18     -0.47      0.00
  -13    2   17     -2.22      0.00
  -13    2   16     -5.84      0.00
  -13    2   15     -7.18      0.00
  -13    2   14      1.61      0.00
  -13    2   13      2.29      0.00
  -13    2   12      4.50      0.00
  -13    2   11      3.12      0.00
  -13    2   10     -2.70      0.00
  -13    2    9     -0.06      0.00
  -13    2    8      3.36      0.00
  -13    2    7     -3.96      0.00
  -13    2    6      6.82      0.00
  -13    2    5      3.17      0.00
  -13    2    4      2.72      0.00
  -13    2    3      0.14      0.00
  -13    2    2     -2.75      0.00
  -13    2    1     -2.56      0.00
  -13    2    0      0.77      0.00
   13   -2    1      0.82      0.00
   13   -2    2     -3.64      0.00
   13   -2    3      2.09      0.00
   13   -2    4      1.49      0.00
   13   -2    5     -3.95      0.00
   13   -2    6      1.77      0.00
   13   -2    7     -2.74      0.00
   13   -2    8      0.82      0.00
   13   -2    9      2.23      0.00
   13   -2   10     -0.48      0.00
  -13    1   21      0.05      0.00
  -13    1   20     -0.75      0.00
  -13    1   19     -0.83      0.00
  -13    1   18      1.17      0.00
  -13    1   17      3.32      0.00
  -13    1   16      0.99      0.00
  -13    1   15     -4.29      0.00
  -13    1   14     -5.44      0.00
  -13    1   13     -0.61      0.00
  -13    1   12      1.81      0.00
  -13    1   11      0.50      0.00
  -13    1   10      5.91      0.00
  -13    1    9     -3.95      0.00
  -13    1    8      4.69      0.00
  -13    1    7     -1.74      0.00
  -13    1    6     -7.63      0.00
  -13    1    5      1.61      0.00
  -13    1    4     -1.74      0.00
  -13    1    3      1.16      0.00
  -13    1    2      0.36      0.00
  -13    1    1      1.17      0.00
  -13    1    0     -1.01      0.00
   13   -1    1     -0.20      0.00
   13   -1    2      1.81      0.00
   13   -1    3     -3.69      0.00
   13   -1    4      7.09      0.00
   13   -1    5      0.52      0.00
   13   -1    6     -0.18      0.00
   13   -1    7      0.23      0.00
   13   -1    8     -3.55      0.00
   13   -1    9      1.50      0.00
  -13    0   21      2.54      0.00
  -13    0   20     -1.80      0.00
  -13    0   19     -2.17      0.00
  -13    0   18     -1.87      0.00
  -13    0   17      1.37      0.00
  -13    0   16      3.24      0.00
  -13    0   15      0.41      0.00
  -13    0   14     -1.94      0.00
  -13    0   13     -4.94      0.00
  -13    0   12      2.25      0.00
  -13    0   11     -1.10      0.00
  -13    0   10      0.57      0.00
  -13    0    9      3.95      0.00
  -13    0    8      1.24      0.00
  -13    0    7      6.71      0.00
  -13    0    6      1.47      0.00
  -13    0    5     -4.66      0.00
  -13    0    4      1.93      0.00
  -13    0    3     -0.35      0.00
  -13    0    2     -0.64      0.00
  -13    0    1      0.66      0.00
   13    0    0      1.25      0.00
   13    0    1     -4.31      0.00
   13    0    2     -0.35      0.00
   13    0    3     -4.20      0.00
   13    0    4     -1.65      0.00
   13    0    5      4.16      0.00
   13    0    6      0.23      0.00
   13    0    7      1.69      0.00
   13    0    8     -0.62      0.00
  -13   -1   21      3.35      0.00
  -13   -1   20      2.17      0.00
  -13   -1   19      0.29      0.00
  -13   -1   18     -1.98      0.00
  -13   -1   17     -0.58      0.00
  -13   -1   16      1.87      0.00
  -13   -1   15      1.48      0.00
  -13   -1   14      0.95      0.00
  -13   -1   13     -5.13      0.00
  -13   -1   12     -2.21      0.00
  -13   -1   11      0.68      0.00
  -13   -1   10     -7.21      0.00
  -13   -1    9     -1.10      0.00
  -13   -1    8     -3.75      0.00
  -13   -1    7      2.70      0.00
  -13   -1    6      3.38      0.00
  -13   -1    5      0.31      0.00
  -13   -1    4     -2.25      0.00
  -13   -1    3      1.12      0.00
  -13   -1    2      2.73      0.00
  -13   -1    1     -2.62      0.00
   13    1    0      6.15      0.00
   13    1    1     -1.47      0.00
   13    1    2     -0.21      0.00
   13    1    3     -0.96      0.00
   13    1    4     -4.76      0.00
   13    1    5     -1.04      0.00
   13    1    6     -0.18      0.00
   13    1    7      0.24      0.00
  -13   -2   21     -1.35      0.00
  -13   -2   20      0.90      0.00
  -13   -2   19      0.54      0.00
  -13   -2   18      0.17      0.00
  -13   -2   17     -2.83      0.00
  -13   -2   16      1.77      0.00
  -13   -2   15      0.86      0.00
  -13   -2   14      0.81      0.00
  -13   -2   13      1.75      0.00
  -13   -2   12     -8.36      0.00
  -13   -2   11      3.44      0.00
  -13   -2   10      1.74      0.00
  -13   -2    9     -1.70      0.00
  -13   -2    8      1.70      0.00
  -13   -2    7     -1.96      0.00
  -13   -2    6      1.49      0.00
  -13   -2    5      3.92      0.00
  -13   -2    4     -0.09      0.00
  -13   -2    3     -0.33      0.00
  -13   -2    2      0.32      0.00
  -13   -2    1     -0.62      0.00
   13    2    0     -4.64      0.00
   13    2    1      4.92      0.00
   13    2    2     -3.10      0.00
   13    2    3      2.64      0.00
   13    2    4     -0.78      0.00
   13    2    5     -1.30      0.00
   13    2    6     -0.42      0.00
  -13   -3   21     -1.30      0.00
  -13   -3   20      0.35      0.00
  -13   -3   19     -0.34      0.00
  -13   -3   18      1.91      0.00
  -13   -3   17     -0.55      0.00
  -13   -3   16     -1.58      0.00
  -13   -3   15      4.85      0.00
  -13   -3   14     -0.41      0.00
  -13   -3   13      5.63      0.00
  -13   -3   12     -1.01      0.00
  -13   -3   11     -3.28      0.00
  -13   -3   10      2.13      0.00
  -13   -3    9     -1.26      0.00
  -13   -3    8     -3.21      0.00
  -13   -3    7     -1.74      0.00
  -13   -3    6     -3.44      0.00
  -13   -3    5     -0.77      0.00
  -13   -3    4      4.14      0.00
  -13   -3    3      2.16      0.00
  -13   -3    2      2.35      0.00
  -13   -3    1      2.92      0.00
   13    3    0     -1.62      0.00
   13    3    1      0.25      0.00
   13    3    2      1.30      0.00
   13    3    3      1.41      0.00
   13    3    4      0.20      0.00
   13    3    5      0.91      0.00
  -13   -4   21     -1.06      0.00
  -13   -4   20      0.24      0.00
  -13   -4   19      0.62      0.00
  -13   -4   18      0.53      0.00
  -13   -4   17      1.93      0.00
  -13   -4   16     -2.63      0.00
  -13   -4   15      1.35      0.00
  -13   -4   14      0.01      0.00
  -13   -4   13     -1.69      0.00
  -13   -4   12      1.02      0.00
  -13   -4   11     -3.00      0.00
  -13   -4   10     -1.14      0.00
  -13   -4    9      3.37      0.00
  -13   -4    8     -2.35      0.00
  -13   -4    7      0.08      0.00
  -13   -4    6     -2.05      0.00
  -13   -4    5      0.24      0.00
  -13   -4    4     -3.43      0.00
  -13   -4    3      3.16      0.00
  -13   -4    2     -2.30      0.00
  -13   -4    1      1.40      0.00
   13    4    0     -1.05      0.00
   13    4    1     -1.44      0.00
   13    4    2     -1.01      0.00
   13    4    3      0.81      0.00
   13    4    4      1.04      0.00
  -13   -5   21     -1.76      0.00
  -13   -5   20     -1.72      0.00
  -13   -5   19      0.19      0.00
  -13   -5   18     -0.44      0.00
  -13   -5   17      3.21      0.00
  -13   -5   16     -0.63      0.00
  -13   -5   15     -2.34      0.00
  -13   -5   14      2.63      0.00
  -13   -5   13     -1.79      0.00
  -13   -5   12      1.89      0.00
  -13   -5   11     -0.70      0.00
  -13   -5   10      0.68      0.00
  -13   -5    9      0.06      0.00
  -13   -5    8      1.23      0.00
  -13   -5    7     -2.75      0.00
  -13   -5    6     -1.67      0.00
  -13   -5    5      0.03      0.00
  -13   -5    4      1.00      0.00
  -13   -5    3     -0.90      0.00
  -13   -5    2      1.32      0.00
  -13   -5    1     -0.19      0.00
   13    5    0     -0.02      0.00
   13    5    1      0.66      0.00
   13    5    2     -0.53      0.00
  -13   -6   21      1.81      0.00
  -13   -6   20     -1.94      0.00
  -13   -6   19     -0.23      0.00
  -13   -6   18      0.04      0.00
  -13   -6   17      1.41      0.00
  -13   -6   16      4.90      0.00
  -13   -6   15     -1.80      0.00
  -13   -6   14     -0.69      0.00
  -13   -6   13      0.42      0.00
  -13   -6   12     -0.71      0.00
  -13   -6   11     -0.40      0.00
  -13   -6   10     -1.41      0.00
  -13   -6    9     -0.44      0.00
  -13   -6    8      2.25      0.00
  -13   -6    7      1.25      0.00
  -13   -6    6      1.35      0.00
  -13   -6    5     -2.38      0.00
  -13   -6    4      2.98      0.00
  -13   -6    3     -0.54      0.00
  -13   -6    2      0.85      0.00
  -13   -6    1      0.37      0.00
   13    6    0      0.14      0.00
   13    6    1      0.37      0.00
  -13   -7   20      1.17      0.00
  -13   -7   19     -1.98      0.00
  -13   -7   18     -0.68      0.00
  -13   -7   17     -1.72      0.00
  -13   -7   16      2.62      0.00
  -13   -7   15      0.68      0.00
  -13   -7   14     -0.02      0.00
  -13   -7   13     -2.02      0.00
  -13   -7   12      1.90      0.00
  -13   -7   11     -0.08      0.00
  -13   -7   10      0.48      0.00
  -13   -7    9     -0.69      0.00
  -13   -7    8      1.32      0.00
  -13   -7    7      0.05      0.00
  -13   -7    6      1.96      0.00
  -13   -7    5     -0.62      0.00
  -13   -7    4     -0.56      0.00
  -13   -7    3      1.04      0.00
  -13   -7    2      1.58      0.00
  -13   -7    1     -0.12      0.00
   13    7    0      2.66      0.00
  -13   -8   20      0.15      0.00
  -13   -8   19     -0.01      0.00
  -13   -8   18     -0.35      0.00
  -13   -8   17     -3.05      0.00
  -13   -8   16     -0.73      0.00
  -13   -8   15      1.10      0.00
  -13   -8   14      2.02      0.00
  -13   -8   13      2.58      0.00
  -13   -8   12      2.14      0.00
  -13   -8   11      2.79      0.00
  -13   -8   10      0.60      0.00
  -13   -8    9     -1.62      0.00
  -13   -8    8      0.53      0.00
  -13   -8    7     -0.41      0.00
  -13   -8    6      0.90      0.00
  -13   -8    5      0.56      0.00
  -13   -8    4     -0.69      0.00
  -13   -8    3     -1.08      0.00
  -13   -8    2     -0.39      0.00
  -13   -9   19      0.37      0.00
  -13   -9   18      0.20      0.00
  -13   -9   17      0.33      0.00
  -13   -9   16      0.12      0.00
  -13   -9   15      0.86      0.00
  -13   -9   14      0.42      0.00
  -13   -9   13      0.71      0.00
  -13   -9   12      1.45      0.00
  -13   -9   11      2.65      0.00
  -13   -9   10      3.90      0.00
  -13   -9    9      0.81      0.00
  -13   -9    8     -0.77      0.00
  -13   -9    7     -0.43      0.00
  -13   -9    6     -0.32      0.00
  -13   -9    5      0.05      0.00
  -13   -9    4      2.68      0.00
  -13  -10   18     -0.82      0.00
  -13  -10   17      0.27      0.00
  -13  -10   16     -2.54      0.00
  -13  -10   15      1.50      0.00
  -13  -10   14     -0.96      0.00
  -13  -10   13      0.15      0.00
  -13  -10   12     -1.04      0.00
  -13  -10   11     -0.34      0.00
  -13  -10   10      2.76      0.00
  -13  -10    9      3.01      0.00
  -13  -10    8      1.45      0.00
  -13  -10    7     -0.82      0.00
  -13  -10    6     -1.26      0.00
  -13  -11   16     -0.43      0.00
  -13  -11   15      0.68      0.00
  -13  -11   14      2.08      0.00
  -13  -11   13      1.68      0.00
  -13  -11   12      0.51      0.00
  -13  -11   11     -0.55      0.00
  -13  -11   10     -2.43      0.00
  -13  -11    9      1.48      0.00
  -14   16    9     -0.07      0.00
  -14   15   12      0.90      0.00
  -14   15   11      2.63      0.00
  -14   15   10      0.50      0.00
  -14   15    9     -0.58      0.00
  -14   15    8     -0.83      0.00
  -14   15    7     -2.64      0.00
  -14   15    6      1.13      0.00
  -14   15    5      0.24      0.00
  -14   15    4     -0.10      0.00
  -14   15    3     -0.12      0.00
  -14   15    2      0.02      0.00
  -14   14   13     -1.92      0.00
  -14   14   12     -1.34      0.00
  -14   14   11      1.25      0.00
  -14   14   10      2.49      0.00
  -14   14    9      0.40      0.00
  -14   14    8     -0.48      0.00
  -14   14    7     -0.48      0.00
  -14   14    6     -0.96      0.00
  -14   14    5      1.17      0.00
  -14   14    4      2.30      0.00
  -14   14    3      0.99      0.00
  -14   14    2      0.14      0.00
  -14   14    1     -0.05      0.00
  -14   14    0     -4.46      0.00
   14  -14    1     -2.09      0.00
   14  -14    2     -0.63      0.00
   14  -14    3      1.15      0.00
   14  -14    4      0.91      0.00
   14  -14    5     -0.01      0.00
   14  -14    6     -0.85      0.00
  -14   13   15      0.62      0.00
  -14   13   14      0.09      0.00
  -14   13   13     -0.21      0.00
  -14   13   12     -0.66      0.00
  -14   13   11     -1.88      0.00
  -14   13   10      0.48      0.00
  -14   13    9      0.47      0.00
  -14   13    8     -0.23      0.00
  -14   13    7     -1.45      0.00
  -14   13    6     -2.15      0.00
  -14   13    5     -1.95      0.00
  -14   13    4     -1.95      0.00
  -14   13    3      0.32      0.00
  -14   13    2      0.72      0.00
  -14   13    1      4.17      0.00
  -14   13    0      3.12      0.00
   14  -13    1     -2.01      0.00
   14  -13    2      0.05      0.00
   14  -13    3     -0.74      0.00
   14  -13    4      1.02      0.00
   14  -13    5      1.19      0.00
   14  -13    6     -0.82      0.00
   14  -13    7     -0.11      0.00
   14  -13    8     -0.82      0.00
   14  -13    9     -1.46      0.00
   14  -13   10     -0.44      0.00
  -14   12   16     -0.47      0.00
  -14   12   15     -0.18      0.00
  -14   12   14      2.06      0.00
  -14   12   13     -0.22      0.00
  -14   12   12      1.55      0.00
  -14   12   11     -1.62      0.00
  -14   12   10     -2.97      0.00
  -14   12    9      0.25      0.00
  -14   12    8      2.23      0.00
  -14   12    7      2.07      0.00
  -14   12    6      2.70      0.00
  -14   12    5      2.85      0.00
  -14   12    4     -1.00      0.00
  -14   12    3     -0.20      0.00
  -14   12    2     -1.35      0.00
  -14   12    1     -2.10      0.00
  -14   12    0      2.96      0.00
   14  -12    1     -2.00      0.00
   14  -12    2     -3.74      0.00
   14  -12    3     -2.06      0.00
   14  -12    4     -2.46      0.00
   14  -12    5     -0.76      0.00
   14  -12    6     -0.25      0.00
   14  -12    7     -0.33      0.00
   14  -12    8      0.20      0.00
   14  -12    9      1.44      0.00
   14  -12   10     -0.85      0.00
   14  -12   11     -0.23      0.00
  -14   11   17     -0.10      0.00
  -14   11   16      2.61      0.00
  -14   11   15      0.51      0.00
  -14   11   14      0.57      0.00
  -14   11   13      0.41      0.00
  -14   11   12      1.82      0.00
  -14   11   11      1.06      0.00
  -14   11   10     -1.77      0.00
  -14   11    9     -4.28      0.00
  -14   11    8     -1.82      0.00
  -14   11    7     -0.08      0.00
  -14   11    6     -3.07      0.00
  -14   11    5      0.35      0.00
  -14   11    4      1.31      0.00
  -14   11    3     -2.29      0.00
  -14   11    2      1.78      0.00
  -14   11    1     -0.88      0.00
  -14   11    0      2.59      0.00
   14  -11    1      4.50      0.00
   14  -11    2      1.70      0.00
   14  -11    3      0.83      0.00
   14  -11    4     -0.54      0.00
   14  -11    5     -0.36      0.00
   14  -11    6     -2.12      0.00
   14  -11    7     -1.10      0.00
   14  -11    8     -0.94      0.00
   14  -11    9     -0.21      0.00
   14  -11   10      0.26      0.00
   14  -11   11     -1.08      0.00
  -14   10   18     -1.47      0.00
  -14   10   17     -3.07      0.00
  -14   10   16      0.42      0.00
  -14   10   15      0.58      0.00
  -14   10   14      0.47      0.00
  -14   10   13     -0.01      0.00
  -14   10   12      0.90      0.00
  -14   10   11      0.48      0.00
  -14   10   10      1.10      0.00
  -14   10    9     -0.20      0.00
  -14   10    8     -1.08      0.00
  -14   10    7      3.67      0.00
  -14   10    6      3.49      0.00
  -14   10    5     -0.50      0.00
  -14   10    4      4.59      0.00
  -14   10    3     -0.56      0.00
  -14   10    2     -0.65      0.00
  -14   10    1     -2.36      0.00
  -14   10    0     -3.44      0.00
   14  -10    1     -1.31      0.00
   14  -10    2     -0.60      0.00
   14  -10    3     -2.42      0.00
   14  -10    4      0.43      0.00
   14  -10    5     -0.58      0.00
   14  -10    6      1.18      0.00
   14  -10    7     -0.60      0.00
   14  -10    8      0.58      0.00
   14  -10    9      1.04      0.00
   14  -10   10      0.88      0.00
   14  -10   11      1.44      0.00
  -14    9   18      1.70      0.00
  -14    9   17      0.27      0.00
  -14    9   16     -0.73      0.00
  -14    9   15      1.76      0.00
  -14    9   14      0.48      0.00
  -14    9   13     -0.80      0.00
  -14    9   12      0.17      0.00
  -14    9   11      2.39      0.00
  -14    9   10     -0.17      0.00
  -14    9    9     -1.36      0.00
  -14    9    8     -2.37      0.00
  -14    9    7     -4.78      0.00
  -14    9    6      0.62      0.00
  -14    9    5     -2.05      0.00
  -14    9    4     -0.61      0.00
  -14    9    3      3.61      0.00
  -14    9    2      0.42      0.00
  -14    9    1      2.34      0.00
  -14    9    0      0.09      0.00
   14   -9    1      2.74      0.00
   14   -9    2      1.83      0.00
   14   -9    3      2.99      0.00
   14   -9    4     -0.13      0.00
   14   -9    5     -1.24      0.00
   14   -9    6      1.46      0.00
   14   -9    7     -1.36      0.00
   14   -9    8     -0.45      0.00
   14   -9    9     -1.31      0.00
   14   -9   10      0.86      0.00
   14   -9   11     -0.24      0.00
  -14    8   19      1.71      0.00
  -14    8   18     -0.60      0.00
  -14    8   17     -0.91      0.00
  -14    8   16     -1.09      0.00
  -14    8   15      0.53      0.00
  -14    8   14      0.96      0.00
  -14    8   13     -2.59      0.00
  -14    8   12     -4.18      0.00
  -14    8   11     -0.76      0.00
  -14    8   10      0.61      0.00
  -14    8    9      1.73      0.00
  -14    8    8      2.89      0.00
  -14    8    7      1.40      0.00
  -14    8    6      2.10      0.00
  -14    8    5      2.44      0.00
  -14    8    4      0.51      0.00
  -14    8    3     -1.81      0.00
  -14    8    2      0.30      0.00
  -14    8    1     -3.94      0.00
  -14    8    0     -3.63      0.00
   14   -8    1     -3.58      0.00
   14   -8    2     -0.40      0.00
   14   -8    3     -0.63      0.00
   14   -8    4      1.05      0.00
   14   -8    5     -0.62      0.00
   14   -8    6      0.20      0.00
   14   -8    7      2.88      0.00
   14   -8    8      1.24      0.00
   14   -8    9      0.68      0.00
   14   -8   10      0.17      0.00
   14   -8   11     -0.73      0.00
  -14    7   20     -1.40      0.00
  -14    7   19      2.67      0.00
  -14    7   18      0.72      0.00
  -14    7   17      0.85      0.00
  -14    7   16      0.20      0.00
  -14    7   15      0.22      0.00
  -14    7   14      1.78      0.00
  -14    7   13     -0.23      0.00
  -14    7   12     -4.58      0.00
  -14    7   11     -6.17      0.00
  -14    7   10     -2.14      0.00
  -14    7    9     -2.89      0.00
  -14    7    8     -3.80      0.00
  -14    7    7     -0.85      0.00
  -14    7    6     -1.49      0.00
  -14    7    5      1.12      0.00
  -14    7    4      1.90      0.00
  -14    7    3      3.66      0.00
  -14    7    2      0.90      0.00
  -14    7    1      4.95      0.00
  -14    7    0     -0.31      0.00
   14   -7    1     -1.83      0.00
   14   -7    2      0.55      0.00
   14   -7    3     -1.10      0.00
   14   -7    4      0.12      0.00
   14   -7    5      0.18      0.00
   14   -7    6     -1.26      0.00
   14   -7    7      0.11      0.00
   14   -7    8      2.03      0.00
   14   -7    9     -1.19      0.00
   14   -7   10      0.75      0.00
  -14    6   20     -1.52      0.00
  -14    6   19     -1.15      0.00
  -14    6   18      0.77      0.00
  -14    6   17      0.00      0.00
  -14    6   16     -1.56      0.00
  -14    6   15     -0.99      0.00
  -14    6   14      1.48      0.00
  -14    6   13      2.86      0.00
  -14    6   12      1.57      0.00
  -14    6   11      3.08      0.00
  -14    6   10      1.03      0.00
  -14    6    9      6.30      0.00
  -14    6    8      3.57      0.00
  -14    6    7     -0.60      0.00
  -14    6    6     -0.45      0.00
  -14    6    5     -1.88      0.00
  -14    6    4     -5.04      0.00
  -14    6    3     -0.23      0.00
  -14    6    2     -3.53      0.00
  -14    6    1     -0.71      0.00
  -14    6    0      0.48      0.00
   14   -6    1     -2.26      0.00
   14   -6    2     -2.04      0.00
   14   -6    3      2.41      0.00
   14   -6    4      0.62      0.00
   14   -6    5      1.03      0.00
   14   -6    6      0.95      0.00
   14   -6    7      0.40      0.00
   14   -6    8      0.38      0.00
   14   -6    9      1.15      0.00
   14   -6   10     -1.63      0.00
  -14    5   20     -0.29      0.00
  -14    5   19     -0.06      0.00
  -14    5   18     -0.08      0.00
  -14    5   17      2.55      0.00
  -14    5   16      0.47      0.00
  -14    5   15      1.40      0.00
  -14    5   14     -0.91      0.00
  -14    5   13      2.78      0.00
  -14    5   12     -1.30      0.00
  -14    5   11     -4.38      0.00
  -14    5   10     -4.83      0.00
  -14    5    9     -5.17      0.00
  -14    5    8      0.00      0.00
  -14    5    7      3.11      0.00
  -14    5    6     -1.72      0.00
  -14    5    5      6.22      0.00
  -14    5    4     -0.14      0.00
  -14    5    3     -0.06      0.00
  -14    5    2      2.99      0.00
  -14    5    1     -0.35      0.00
  -14    5    0      3.82      0.00
   14   -5    1      2.24      0.00
   14   -5    2     -2.28      0.00
   14   -5    3     -1.84      0.00
   14   -5    4     -1.24      0.00
   14   -5    5     -1.63      0.00
   14   -5    6     -1.62      0.00
   14   -5    7      0.18      0.00
   14   -5    8      0.74      0.00
   14   -5    9      1.33      0.00
   14   -5   10      0.80      0.00
  -14    4   20     -2.06      0.00
  -14    4   19     -1.65      0.00
  -14    4   18     -2.09      0.00
  -14    4   17     -1.45      0.00
  -14    4   16     -3.06      0.00
  -14    4   15     -3.07      0.00
  -14    4   14     -3.04      0.00
  -14    4   13      4.77      0.00
  -14    4   12      8.80      0.00
  -14    4   11      6.81      0.00
  -14    4   10      4.91      0.00
  -14    4    9      0.69      0.00
  -14    4    8     -1.21      0.00
  -14    4    7      2.81      0.00
  -14    4    6     -0.01      0.00
  -14    4    5     -2.21      0.00
  -14    4    4      2.99      0.00
  -14    4    3     -4.00      0.00
  -14    4    2     -4.32      0.00
  -14    4    1     -2.18      0.00
  -14    4    0     -3.66      0.00
   14   -4    1      2.78      0.00
   14   -4    2      2.13      0.00
   14   -4    3      0.88      0.00
   14   -4    4      0.76      0.00
   14   -4    5      2.62      0.00
   14   -4    6     -1.01      0.00
   14   -4    7     -0.13      0.00
   14   -4    8      0.35      0.00
   14   -4    9      0.25      0.00
   14   -4   10      1.69      0.00
  -14    3   20      1.70      0.00
  -14    3   19      1.71      0.00
  -14    3   18      1.58      0.00
  -14    3   17      4.38      0.00
  -14    3   16      2.50      0.00
  -14    3   15     -1.03      0.00
  -14    3   14     -5.77      0.00
  -14    3   13    -10.14      0.00
  -14    3   12     -1.62      0.00
  -14    3   11      0.97      0.00
  -14    3   10      0.96      0.00
  -14    3    9      3.40      0.00
  -14    3    8     -1.02      0.00
  -14    3    7     -0.90      0.00
  -14    3    6      3.67      0.00
  -14    3    5     -1.67      0.00
  -14    3    4      5.05      0.00
  -14    3    3      5.70      0.00
  -14    3    2      1.68      0.00
  -14    3    1     -1.14      0.00
  -14    3    0     -1.92      0.00
   14   -3    1     -1.79      0.00
   14   -3    2     -1.91      0.00
   14   -3    3      2.03      0.00
   14   -3    4     -3.08      0.00
   14   -3    5      0.22      0.00
   14   -3    6      1.60      0.00
   14   -3    7     -1.86      0.00
   14   -3    8      0.82      0.00
   14   -3    9     -0.84      0.00
  -14    2   21     -0.36      0.00
  -14    2   20      1.91      0.00
  -14    2   19     -0.49      0.00
  -14    2   18     -1.90      0.00
  -14    2   17     -1.92      0.00
  -14    2   16      3.85      0.00
  -14    2   15      3.07      0.00
  -14    2   14      4.81      0.00
  -14    2   13     -1.32      0.00
  -14    2   12     -4.75      0.00
  -14    2   11      0.90      0.00
  -14    2   10      1.18      0.00
  -14    2    9     -1.10      0.00
  -14    2    8      6.72      0.00
  -14    2    7     -2.88      0.00
  -14    2    6      3.39      0.00
  -14    2    5     -1.12      0.00
  -14    2    4     -4.28      0.00
  -14    2    3     -0.42      0.00
  -14    2    2      1.42      0.00
  -14    2    1     -0.57      0.00
  -14    2    0     -1.39      0.00
   14   -2    1     -0.73      0.00
   14   -2    2     -1.47      0.00
   14   -2    3     -3.55      0.00
   14   -2    4      2.32      0.00
   14   -2    5     -2.98      0.00
   14   -2    6      3.38      0.00
   14   -2    7      1.68      0.00
   14   -2    8     -0.85      0.00
  -14    1   21     -0.10      0.00
  -14    1   20      1.74      0.00
  -14    1   19      3.37      0.00
  -14    1   18      0.90      0.00
  -14    1   17     -2.72      0.00
  -14    1   16     -1.68      0.00
  -14    1   15      0.93      0.00
  -14    1   14      3.18      0.00
  -14    1   13      0.16      0.00
  -14    1   12     -0.21      0.00
  -14    1   11     -6.34      0.00
  -14    1   10      2.10      0.00
  -14    1    9     -3.17      0.00
  -14    1    8     -2.24      0.00
  -14    1    7      3.29      0.00
  -14    1    6     -0.14      0.00
  -14    1    5      4.05      0.00
  -14    1    4      0.59      0.00
  -14    1    3     -2.37      0.00
  -14    1    2     -1.09      0.00
  -14    1    1      0.15      0.00
  -14    1    0     -0.80      0.00
   14   -1    1     -1.09      0.00
   14   -1    2      1.45      0.00
   14   -1    3     -4.24      0.00
   14   -1    4     -2.06      0.00
   14   -1    5     -1.17      0.00
   14   -1    6     -2.04      0.00
   14   -1    7      3.56      0.00
  -14    0   21     -0.84      0.00
  -14    0   20     -0.08      0.00
  -14    0   19      1.78      0.00
  -14    0   18      3.12      0.00
  -14    0   17      0.18      0.00
  -14    0   16     -1.20      0.00
  -14    0   15      0.52      0.00
  -14    0   14      2.53      0.00
  -14    0   13      3.23      0.00
  -14    0   12      2.74      0.00
  -14    0   11     -0.77      0.00
  -14    0   10     -0.27      0.00
  -14    0    9      1.06      0.00
  -14    0    8     -4.94      0.00
  -14    0    7     -3.82      0.00
  -14    0    6     -0.26      0.00
  -14    0    5      0.51      0.00
  -14    0    4      0.91      0.00
  -14    0    3     -0.60      0.00
  -14    0    2     -2.91      0.00
  -14    0    1     -2.61      0.00
   14    0    0      1.86      0.00
   14    0    1     -3.66      0.00
   14    0    2      3.77      0.00
   14    0    3      0.62      0.00
   14    0    4     -0.94      0.00
   14    0    5      0.09      0.00
   14    0    6     -1.36      0.00
  -14   -1   21     -0.48      0.00
  -14   -1   20     -1.81      0.00
  -14   -1   19     -0.63      0.00
  -14   -1   18      0.42      0.00
  -14   -1   17      0.44      0.00
  -14   -1   16     -1.06      0.00
  -14   -1   15     -4.96      0.00
  -14   -1   14      0.13      0.00
  -14   -1   13      0.59      0.00
  -14   -1   12     -1.06      0.00
  -14   -1   11      2.66      0.00
  -14   -1   10     -4.79      0.00
  -14   -1    9      2.29      0.00
  -14   -1    8      1.01      0.00
  -14   -1    7     -2.69      0.00
  -14   -1    6     -0.76      0.00
  -14   -1    5      1.11      0.00
  -14   -1    4      1.60      0.00
  -14   -1    3      0.83      0.00
  -14   -1    2      2.38      0.00
  -14   -1    1     -3.00      0.00
   14    1    0     -0.20      0.00
   14    1    1      0.42      0.00
   14    1    2     -4.52      0.00
   14    1    3      3.48      0.00
   14    1    4     -1.39      0.00
   14    1    5      1.07      0.00
  -14   -2   20     -0.59      0.00
  -14   -2   19     -0.89      0.00
  -14   -2   18      1.36      0.00
  -14   -2   17      1.42      0.00
  -14   -2   16      1.85      0.00
  -14   -2   15     -0.21      0.00
  -14   -2   14     -4.63      0.00
  -14   -2   13      3.54      0.00
  -14   -2   12     -0.94      0.00
  -14   -2   11      1.72      0.00
  -14   -2   10      0.95      0.00
  -14   -2    9     -2.52      0.00
  -14   -2    8      1.84      0.00
  -14   -2    7      1.20      0.00
  -14   -2    6     -2.66      0.00
  -14   -2    5     -1.44      0.00
  -14   -2    4     -0.90      0.00
  -14   -2    3     -2.46      0.00
  -14   -2    2      1.21      0.00
  -14   -2    1      2.31      0.00
   14    2    0     -0.74      0.00
   14    2    1      1.80      0.00
   14    2    2     -1.25      0.00
   14    2    3     -0.93      0.00
   14    2    4      1.73      0.00
  -14   -3   20      0.53      0.00
  -14   -3   19     -0.98      0.00
  -14   -3   18      0.62      0.00
  -14   -3   17      2.29      0.00
  -14   -3   16      0.21      0.00
  -14   -3   15      3.48      0.00
  -14   -3   14     -2.45      0.00
  -14   -3   13      0.23      0.00
  -14   -3   12      1.65      0.00
  -14   -3   11     -2.84      0.00
  -14   -3   10     -1.17      0.00
  -14   -3    9     -1.30      0.00
  -14   -3    8     -2.47      0.00
  -14   -3    7      2.85      0.00
  -14   -3    6      0.62      0.00
  -14   -3    5      0.60      0.00
  -14   -3    4     -0.19      0.00
  -14   -3    3      1.19      0.00
  -14   -3    2     -3.67      0.00
  -14   -3    1      3.04      0.00
   14    3    0     -0.80      0.00
   14    3    1      1.13      0.00
   14    3    2     -0.34      0.00
   14    3    3     -0.58      0.00
  -14   -4   20      1.18      0.00
  -14   -4   19      0.46      0.00
  -14   -4   18     -0.12      0.00
  -14   -4   17      2.31      0.00
  -14   -4   16      0.48      0.00
  -14   -4   15      1.66      0.00
  -14   -4   14      0.27      0.00
  -14   -4   13     -3.78      0.00
  -14   -4   12      0.93      0.00
  -14   -4   11     -1.14      0.00
  -14   -4   10     -2.46      0.00
  -14   -4    9     -1.80      0.00
  -14   -4    8     -1.01      0.00
  -14   -4    7     -0.78      0.00
  -14   -4    6     -0.21      0.00
  -14   -4    5     -0.53      0.00
  -14   -4    4     -1.73      0.00
  -14   -4    3      0.62      0.00
  -14   -4    2     -0.61      0.00
  -14   -4    1     -1.50      0.00
   14    4    0     -0.33      0.00
   14    4    1     -0.37      0.00
   14    4    2     -0.89      0.00
  -14   -5   20      0.04      0.00
  -14   -5   19      2.28      0.00
  -14   -5   18     -2.40      0.00
  -14   -5   17      0.32      0.00
  -14   -5   16      2.05      0.00
  -14   -5   15      1.19      0.00
  -14   -5   14      4.10      0.00
  -14   -5   13     -0.52      0.00
  -14   -5   12     -1.49      0.00
  -14   -5   11      2.24      0.00
  -14   -5   10     -0.20      0.00
  -14   -5    9     -0.35      0.00
  -14   -5    8     -2.47      0.00
  -14   -5    7      0.37      0.00
  -14   -5    6     -0.89      0.00
  -14   -5    5      0.95      0.00
  -14   -5    4     -0.51      0.00
  -14   -5    3     -0.12      0.00
  -14   -5    2      1.24      0.00
  -14   -5    1      0.69      0.00
   14    5    0     -1.04      0.00
  -14   -6   19      0.10      0.00
  -14   -6   18      2.18      0.00
  -14   -6   17     -3.00      0.00
  -14   -6   16      0.44      0.00
  -14   -6   15     -0.09      0.00
  -14   -6   14      2.00      0.00
  -14   -6   13      0.90      0.00
  -14   -6   12     -0.88      0.00
  -14   -6   11     -2.42      0.00
  -14   -6   10      1.71      0.00
  -14   -6    9     -0.51      0.00
  -14   -6    8      0.49      0.00
  -14   -6    7     -2.98      0.00
  -14   -6    6      1.66      0.00
  -14   -6    5     -2.56      0.00
  -14   -6    4      0.78      0.00
  -14   -6    3     -1.56      0.00
  -14   -6    2      0.45      0.00
  -14   -6    1      0.94      0.00
  -14   -7   18      1.18      0.00
  -14   -7   17      0.10      0.00
  -14   -7   16     -1.37      0.00
  -14   -7   15     -1.87      0.00
  -14   -7   14     -0.92      0.00
  -14   -7   13      0.02      0.00
  -14   -7   12      0.08      0.00
  -14   -7   11      0.67      0.00
  -14   -7   10     -0.20      0.00
  -14   -7    9      1.07      0.00
  -14   -7    8     -0.32      0.00
  -14   -7    7     -1.06      0.00
  -14   -7    6     -0.59      0.00
  -14   -7    5      0.14      0.00
  -14   -7    4     -1.13      0.00
  -14   -7    3      0.43      0.00
  -14   -8   17      1.18      0.00
  -14   -8   16      1.40      0.00
  -14   -8   15      0.85      0.00
  -14   -8   14      0.79      0.00
  -14   -8   13     -0.39      0.00
  -14   -8   12      0.38      0.00
  -14   -8   11     -1.95      0.00
  -14   -8   10      1.03      0.00
  -14   -8    9     -1.11      0.00
  -14   -8    8      1.97      0.00
  -14   -8    7     -1.04      0.00
  -14   -8    6     -0.45      0.00
  -14   -8    5     -1.86      0.00
  -14   -9   16      0.43      0.00
  -14   -9   15      1.21      0.00
  -14   -9   14     -1.06      0.00
  -14   -9   13      1.27      0.00
  -14   -9   12     -0.93      0.00
  -14   -9   11     -0.34      0.00
  -14   -9   10     -2.32      0.00
  -14   -9    9     -0.54      0.00
  -14   -9    8     -0.60      0.00
  -15   15   11     -0.80      0.00
  -15   15   10     -0.74      0.00
  -15   15    9      0.18      0.00
  -15   15    8      2.05      0.00
  -15   15    7      0.61      0.00
  -15   15    6     -0.68      0.00
  -15   15    5      0.23      0.00
  -15   15    4     -0.18      0.00
  -15   15    3      0.65      0.00
  -15   15    2      1.48      0.00
  -15   15    1      2.61      0.00
  -15   14   13      0.53      0.00
  -15   14   12     -0.21      0.00
  -15   14   11     -0.38      0.00
  -15   14   10      0.22      0.00
  -15   14    9     -0.20      0.00
  -15   14    8      0.71      0.00
  -15   14    7      0.81      0.00
  -15   14    6     -0.66      0.00
  -15   14    5     -1.34      0.00
  -15   14    4     -0.79      0.00
  -15   14    3     -0.18      0.00
  -15   14    2     -2.18      0.00
  -15   14    1     -0.21      0.00
  -15   14    0     -0.20      0.00
   15  -14    2      0.79      0.00
   15  -14    3     -0.92      0.00
  -15   13   14     -0.12      0.00
  -15   13   13     -0.95      0.00
  -15   13   12      1.31      0.00
  -15   13   11     -0.94      0.00
  -15   13   10     -0.57      0.00
  -15   13    9     -0.95      0.00
  -15   13    8     -2.56      0.00
  -15   13    7     -0.01      0.00
  -15   13    6      0.61      0.00
  -15   13    5      0.51      0.00
  -15   13    4     -0.07      0.00
  -15   13    3      2.94      0.00
  -15   13    2      0.36      0.00
  -15   13    1      0.41      0.00
  -15   13    0      1.34      0.00
   15  -13    1      1.45      0.00
   15  -13    2      2.83      0.00
   15  -13    3      1.68      0.00
   15  -13    4     -1.51      0.00
   15  -13    5     -0.16      0.00
   15  -13    6      0.08      0.00
   15  -13    7     -0.74      0.00
  -15   12   15     -0.46      0.00
  -15   12   14      1.35      0.00
  -15   12   13     -0.05      0.00
  -15   12   12      0.37      0.00
  -15   12   11      2.39      0.00
  -15   12   10      2.78      0.00
  -15   12    9      1.63      0.00
  -15   12    8     -0.46      0.00
  -15   12    7     -2.05      0.00
  -15   12    6     -2.08      0.00
  -15   12    5      0.12      0.00
  -15   12    4     -2.59      0.00
  -15   12    3     -1.94      0.00
  -15   12    2      0.34      0.00
  -15   12    1     -4.36      0.00
  -15   12    0     -1.49      0.00
   15  -12    1     -1.30      0.00
   15  -12    2      1.14      0.00
   15  -12    3      2.25      0.00
   15  -12    4      1.87      0.00
   15  -12    5      0.59      0.00
   15  -12    6      0.68      0.00
   15  -12    7      1.02      0.00
   15  -12    8     -0.63      0.00
   15  -12    9     -0.43      0.00
  -15   11   16     -0.06      0.00
  -15   11   15     -2.17      0.00
  -15   11   14     -0.26      0.00
  -15   11   13     -0.56      0.00
  -15   11   12     -1.31      0.00
  -15   11   11     -1.49      0.00
  -15   11   10      1.19      0.00
  -15   11    9      1.39      0.00
  -15   11    8     -0.68      0.00
  -15   11    7      0.21      0.00
  -15   11    6     -1.61      0.00
  -15   11    5     -0.32      0.00
  -15   11    4      1.97      0.00
  -15   11    3     -1.85      0.00
  -15   11    2      2.13      0.00
  -15   11    1      1.42      0.00
  -15   11    0     -1.16      0.00
   15  -11    1      1.00      0.00
   15  -11    2     -1.35      0.00
   15  -11    3      0.16      0.00
   15  -11    4      0.26      0.00
   15  -11    5     -0.36      0.00
   15  -11    6      0.26      0.00
   15  -11    7      0.69      0.00
   15  -11    8      0.30      0.00
   15  -11    9     -0.28      0.00
  -15   10   17      0.00      0.00
  -15   10   16      0.50      0.00
  -15   10   15      0.51      0.00
  -15   10   14     -0.04      0.00
  -15   10   13      0.88      0.00
  -15   10   12      0.69      0.00
  -15   10   11     -0.71      0.00
  -15   10   10     -0.90      0.00
  -15   10    9      2.20      0.00
  -15   10    8      1.38      0.00
  -15   10    7     -0.64      0.00
  -15   10    6      1.24      0.00
  -15   10    5     -3.87      0.00
  -15   10    4     -0.96      0.00
  -15   10    3     -3.04      0.00
  -15   10    2     -2.72      0.00
  -15   10    1      1.09      0.00
  -15   10    0     -0.02      0.00
   15  -10    1     -0.51      0.00
   15  -10    2     -0.40      0.00
   15  -10    3      0.73      0.00
   15  -10    4      1.07      0.00
   15  -10    5      1.32      0.00
   15  -10    6      1.75      0.00
   15  -10    7      0.16      0.00
   15  -10    8      1.85      0.00
   15  -10    9      0.30      0.00
  -15    9   18      0.56      0.00
  -15    9   17      1.55      0.00
  -15    9   16     -0.29      0.00
  -15    9   15     -1.35      0.00
  -15    9   14     -0.85      0.00
  -15    9   13      1.03      0.00
  -15    9   12      1.46      0.00
  -15    9   11     -0.01      0.00
  -15    9   10     -3.06      0.00
  -15    9    9     -2.85      0.00
  -15    9    8     -0.01      0.00
  -15    9    7     -2.13      0.00
  -15    9    6      1.91      0.00
  -15    9    5      2.11      0.00
  -15    9    4      0.83      0.00
  -15    9    3      3.08      0.00
  -15    9    2      0.23      0.00
  -15    9    1      0.60      0.00
  -15    9    0      2.17      0.00
   15   -9    1     -0.04      0.00
   15   -9    2     -0.12      0.00
   15   -9    3     -2.66      0.00
   15   -9    4      0.29      0.00
   15   -9    5     -1.14      0.00
   15   -9    6     -0.47      0.00
   15   -9    7     -0.29      0.00
   15   -9    8      0.03      0.00
   15   -9    9      1.37      0.00
  -15    8   19     -0.95      0.00
  -15    8   18     -1.63      0.00
  -15    8   17      1.92      0.00
  -15    8   16      2.07      0.00
  -15    8   15     -0.48      0.00
  -15    8   14     -1.00      0.00
  -15    8   13      1.22      0.00
  -15    8   12      0.48      0.00
  -15    8   11      1.44      0.00
  -15    8   10      0.17      0.00
  -15    8    9     -2.31      0.00
  -15    8    8     -0.35      0.00
  -15    8    7     -1.52      0.00
  -15    8    6     -3.84      0.00
  -15    8    5     -2.02      0.00
  -15    8    4     -2.58      0.00
  -15    8    3     -1.83      0.00
  -15    8    2     -1.50      0.00
  -15    8    1      1.45      0.00
  -15    8    0      0.24      0.00
   15   -8    1      3.23      0.00
   15   -8    2      1.33      0.00
   15   -8    3     -0.19      0.00
   15   -8    4      0.63      0.00
   15   -8    5      0.71      0.00
   15   -8    6     -0.02      0.00
   15   -8    7     -0.21      0.00
   15   -8    8      0.01      0.00
   15   -8    9     -1.37      0.00
  -15    7   19      0.16      0.00
  -15    7   18     -1.31      0.00
  -15    7   17     -1.17      0.00
  -15    7   16      0.12      0.00
  -15    7   15     -0.20      0.00
  -15    7   14     -2.64      0.00
  -15    7   13     -2.29      0.00
  -15    7   12      0.17      0.00
  -15    7   11     -0.59      0.00
  -15    7   10     -2.72      0.00
  -15    7    9      0.37      0.00
  -15    7    8     -1.23      0.00
  -15    7    7      4.07      0.00
  -15    7    6      2.00      0.00
  -15    7    5      1.18      0.00
  -15    7    4      0.89      0.00
  -15    7    3      0.66      0.00
  -15    7    2     -0.98      0.00
  -15    7    1     -1.26      0.00
  -15    7    0      0.90      0.00
   15   -7    1     -1.45      0.00
   15   -7    2      0.35      0.00
   15   -7    3     -1.21      0.00
   15   -7    4     -1.43      0.00
   15   -7    5      1.01      0.00
   15   -7    6      1.22      0.00
   15   -7    7     -0.73      0.00
   15   -7    8      0.82      0.00
   15   -7    9      0.13      0.00
  -15    6   19      0.44      0.00
  -15    6   18     -0.69      0.00
  -15    6   17     -1.14      0.00
  -15    6   16     -0.19      0.00
  -15    6   15      1.49      0.00
  -15    6   14      0.49      0.00
  -15    6   13      1.68      0.00
  -15    6   12      3.28      0.00
  -15    6   11      4.34      0.00
  -15    6   10      2.38      0.00
  -15    6    9     -3.38      0.00
  -15    6    8     -2.58      0.00
  -15    6    7     -4.16      0.00
  -15    6    6     -2.41      0.00
  -15    6    5      0.13      0.00
  -15    6    4     -4.11      0.00
  -15    6    3      0.45      0.00
  -15    6    2     -1.13      0.00
  -15    6    1     -2.17      0.00
  -15    6    0      1.60      0.00
   15   -6    1      3.21      0.00
   15   -6    2      3.04      0.00
   15   -6    3      3.20      0.00
   15   -6    4     -0.35      0.00
   15   -6    5     -0.93      0.00
   15   -6    6     -0.21      0.00
   15   -6    7     -1.13      0.00
   15   -6    8     -1.19      0.00
   15   -6    9     -0.49      0.00
  -15    5   20      0.14      0.00
  -15    5   19      1.92      0.00
  -15    5   18      0.39      0.00
  -15    5   17      0.37      0.00
  -15    5   16     -1.38      0.00
  -15    5   15     -0.51      0.00
  -15    5   14     -5.05      0.00
  -15    5   13     -6.26      0.00
  -15    5   12     -7.56      0.00
  -15    5   11     -0.70      0.00
  -15    5   10      3.50      0.00
  -15    5    9      4.01      0.00
  -15    5    8      1.17      0.00
  -15    5    7      4.04      0.00
  -15    5    6     -0.46      0.00
  -15    5    5      3.49      0.00
  -15    5    4      2.31      0.00
  -15    5    3      0.31      0.00
  -15    5    2      2.48      0.00
  -15    5    1     -0.08      0.00
  -15    5    0     -5.49      0.00
   15   -5    1     -1.70      0.00
   15   -5    2     -2.88      0.00
   15   -5    3     -0.64      0.00
   15   -5    4      0.16      0.00
   15   -5    5     -0.21      0.00
   15   -5    6      0.49      0.00
   15   -5    7      1.53      0.00
   15   -5    8      0.22      0.00
  -15    4   20     -0.32      0.00
  -15    4   19      0.17      0.00
  -15    4   18     -0.51      0.00
  -15    4   17      0.03      0.00
  -15    4   16      0.22      0.00
  -15    4   15      4.73      0.00
  -15    4   14      5.38      0.00
  -15    4   13      1.80      0.00
  -15    4   12     -1.03      0.00
  -15    4   11     -6.28      0.00
  -15    4   10     -2.44      0.00
  -15    4    9      0.77      0.00
  -15    4    8     -1.76      0.00
  -15    4    7      0.00      0.00
  -15    4    6     -0.12      0.00
  -15    4    5     -3.58      0.00
  -15    4    4      0.60      0.00
  -15    4    3     -1.29      0.00
  -15    4    2      1.21      0.00
  -15    4    1      4.24      0.00
  -15    4    0      2.27      0.00
   15   -4    1     -0.99      0.00
   15   -4    2     -0.02      0.00
   15   -4    3      0.44      0.00
   15   -4    4     -1.18      0.00
   15   -4    5      1.79      0.00
   15   -4    6     -0.75      0.00
   15   -4    7      0.66      0.00
   15   -4    8      1.33      0.00
  -15    3   20      0.69      0.00
  -15    3   19      1.07      0.00
  -15    3   18      1.43      0.00
  -15    3   17     -0.39      0.00
  -15    3   16     -3.55      0.00
  -15    3   15     -5.44      0.00
  -15    3   14      0.96      0.00
  -15    3   13      0.64      0.00
  -15    3   12      2.15      0.00
  -15    3   11      1.47      0.00
  -15    3   10     -4.34      0.00
  -15    3    9      1.13      0.00
  -15    3    8      1.95      0.00
  -15    3    7     -1.88      0.00
  -15    3    6      5.24      0.00
  -15    3    5      0.54      0.00
  -15    3    4      0.96      0.00
  -15    3    3      0.56      0.00
  -15    3    2     -1.73      0.00
  -15    3    1     -0.35      0.00
  -15    3    0      0.35      0.00
   15   -3    1      0.26      0.00
   15   -3    2     -2.84      0.00
   15   -3    3     -0.79      0.00
   15   -3    4     -0.97      0.00
   15   -3    5     -2.89      0.00
   15   -3    6      1.37      0.00
   15   -3    7     -0.82      0.00
  -15    2   20     -0.73      0.00
  -15    2   19     -0.45      0.00
  -15    2   18      2.59      0.00
  -15    2   17      1.94      0.00
  -15    2   16      1.86      0.00
  -15    2   15     -2.18      0.00
  -15    2   14     -1.22      0.00
  -15    2   13      2.53      0.00
  -15    2   12      2.86      0.00
  -15    2   11      0.81      0.00
  -15    2   10      1.27      0.00
  -15    2    9     -7.17      0.00
  -15    2    8      0.60      0.00
  -15    2    7     -4.06      0.00
  -15    2    6     -3.85      0.00
  -15    2    5      1.24      0.00
  -15    2    4     -0.03      0.00
  -15    2    3      2.08      0.00
  -15    2    2      1.18      0.00
  -15    2    1      0.36      0.00
  -15    2    0     -0.23      0.00
   15   -2    1      0.56      0.00
   15   -2    2      1.02      0.00
   15   -2    3     -0.79      0.00
   15   -2    4      2.22      0.00
   15   -2    5     -1.35      0.00
   15   -2    6     -1.53      0.00
  -15    1   20     -0.73      0.00
  -15    1   19     -1.87      0.00
  -15    1   18      0.34      0.00
  -15    1   17     -0.63      0.00
  -15    1   16      1.51      0.00
  -15    1   15     -2.50      0.00
  -15    1   14     -2.72      0.00
  -15    1   13     -0.73      0.00
  -15    1   12      3.17      0.00
  -15    1   11      1.78      0.00
  -15    1   10      3.96      0.00
  -15    1    9      1.52      0.00
  -15    1    8      0.15      0.00
  -15    1    7      1.05      0.00
  -15    1    6     -3.06      0.00
  -15    1    5     -4.40      0.00
  -15    1    4      0.38      0.00
  -15    1    3     -0.96      0.00
  -15    1    2      0.45      0.00
  -15    1    1     -0.93      0.00
  -15    1    0     -0.10      0.00
   15   -1    1     -3.12      0.00
   15   -1    2      1.58      0.00
   15   -1    3     -1.24      0.00
   15   -1    4      1.85      0.00
   15   -1    5      2.51      0.00
  -15    0   20      1.19      0.00
  -15    0   19      0.45      0.00
  -15    0   18      0.08      0.00
  -15    0   17      2.32      0.00
  -15    0   16      2.30      0.00
  -15    0   15      1.87      0.00
  -15    0   14     -0.68      0.00
  -15    0   13     -4.65      0.00
  -15    0   12     -0.47      0.00
  -15    0   11     -0.76      0.00
  -15    0   10     -2.96      0.00
  -15    0    9      0.89      0.00
  -15    0    8     -2.15      0.00
  -15    0    7      1.18      0.00
  -15    0    6     -0.48      0.00
  -15    0    5     -0.87      0.00
  -15    0    4     -2.33      0.00
  -15    0    3      3.27      0.00
  -15    0    2      3.15      0.00
  -15    0    1      0.32      0.00
   15    0    0      3.23      0.00
   15    0    1     -0.43      0.00
   15    0    2     -0.82      0.00
   15    0    3      1.14      0.00
   15    0    4     -2.99      0.00
  -15   -1   20      0.51      0.00
  -15   -1   19      0.14      0.00
  -15   -1   18     -2.22      0.00
  -15   -1   17     -1.43      0.00
  -15   -1   16      0.92      0.00
  -15   -1   15      2.67      0.00
  -15   -1   14      1.53      0.00
  -15   -1   13      0.74      0.00
  -15   -1   12     -3.93      0.00
  -15   -1   11      2.21      0.00
  -15   -1   10      0.02      0.00
  -15   -1    9     -1.38      0.00
  -15   -1    8      2.12      0.00
  -15   -1    7     -0.45      0.00
  -15   -1    6      1.84      0.00
  -15   -1    5      0.51      0.00
  -15   -1    4      0.10      0.00
  -15   -1    3     -2.78      0.00
  -15   -1    2      2.43      0.00
  -15   -1    1      0.21      0.00
   15    1    0      0.72      0.00
   15    1    1      3.00      0.00
   15    1    2     -0.43      0.00
   15    1    3      0.05      0.00
  -15   -2   19      1.01      0.00
  -15   -2   18      1.95      0.00
  -15   -2   17     -0.46      0.00
  -15   -2   16      0.11      0.00
  -15   -2   15      3.49      0.00
  -15   -2   14      0.02      0.00
  -15   -2   13      3.25      0.00
  -15   -2   12     -1.60      0.00
  -15   -2   11     -0.45      0.00
  -15   -2   10      1.23      0.00
  -15   -2    9     -1.70      0.00
  -15   -2    8     -3.48      0.00
  -15   -2    7     -0.04      0.00
  -15   -2    6     -1.67      0.00
  -15   -2    5      0.92      0.00
  -15   -2    4      2.30      0.00
  -15   -2    3      1.07      0.00
  -15   -2    2     -0.42      0.00
  -15   -2    1      3.39      0.00
   15    2    0     -2.10      0.00
   15    2    1      3.00      0.00
   15    2    2      0.91      0.00
  -15   -3   19      0.65      0.00
  -15   -3   18     -0.18      0.00
  -15   -3   17      0.94      0.00
  -15   -3   16     -1.10      0.00
  -15   -3   15      2.41      0.00
  -15   -3   14      1.72      0.00
  -15   -3   13      1.04      0.00
  -15   -3   12      1.95      0.00
  -15   -3   11     -1.18      0.00
  -15   -3   10      0.79      0.00
  -15   -3    9      1.82      0.00
  -15   -3    8     -2.28      0.00
  -15   -3    7     -1.72      0.00
  -15   -3    6     -1.14      0.00
  -15   -3    5     -1.21      0.00
  -15   -3    4     -1.59      0.00
  -15   -3    3      1.28      0.00
  -15   -3    2     -1.30      0.00
  -15   -3    1      0.67      0.00
   15    3    0      0.51      0.00
  -15   -4   19     -0.37      0.00
  -15   -4   18     -1.40      0.00
  -15   -4   17      1.28      0.00
  -15   -4   16     -3.07      0.00
  -15   -4   15     -2.15      0.00
  -15   -4   14      1.33      0.00
  -15   -4   13     -0.06      0.00
  -15   -4   12      1.66      0.00
  -15   -4   11     -0.07      0.00
  -15   -4   10     -1.28      0.00
  -15   -4    9      1.65      0.00
  -15   -4    8      0.73      0.00
  -15   -4    7     -0.77      0.00
  -15   -4    6     -2.16      0.00
  -15   -4    5      0.40      0.00
  -15   -4    4     -2.04      0.00
  -15   -4    3     -0.04      0.00
  -15   -4    2     -0.54      0.00
  -15   -4    1      0.28      0.00
  -15   -5   18      0.29      0.00
  -15   -5   17     -0.51      0.00
  -15   -5   16      1.98      0.00
  -15   -5   15     -3.33      0.00
  -15   -5   14     -0.81      0.00
  -15   -5   13      1.37      0.00
  -15   -5   12      0.98      0.00
  -15   -5   11      1.80      0.00
  -15   -5   10     -0.51      0.00
  -15   -5    9      0.29      0.00
  -15   -5    8      1.01      0.00
  -15   -5    7      1.74      0.00
  -15   -5    6      0.12      0.00
  -15   -5    5     -1.02      0.00
  -15   -5    4      0.82      0.00
  -15   -5    3     -1.43      0.00
  -15   -6   17     -1.83      0.00
  -15   -6   16     -1.17      0.00
  -15   -6   15     -1.24      0.00
  -15   -6   14     -2.89      0.00
  -15   -6   13     -2.34      0.00
  -15   -6   12      0.09      0.00
  -15   -6   11     -0.51      0.00
  -15   -6   10      0.30      0.00
  -15   -6    9     -0.04      0.00
  -15   -6    8      0.98      0.00
  -15   -6    7     -0.10      0.00
  -15   -6    6      1.02      0.00
  -15   -6    5     -0.53      0.00
  -15   -7   16     -3.70      0.00
  -15   -7   15     -1.16      0.00
  -15   -7   14     -1.53      0.00
  -15   -7   13      0.32      0.00
  -15   -7   12      0.14      0.00
  -15   -7   11      0.44      0.00
  -15   -7   10      0.54      0.00
  -15   -7    9     -0.63      0.00
  -15   -7    8      1.46      0.00
  -15   -7    7     -0.47      0.00
  -16   14   11      0.42      0.00
  -16   14   10      1.61      0.00
  -16   14    9     -0.05      0.00
  -16   14    8     -1.35      0.00
  -16   14    7     -0.51      0.00
  -16   14    6     -0.81      0.00
  -16   14    5     -0.11      0.00
  -16   14    4     -0.95      0.00
  -16   14    3     -0.94      0.00
  -16   14    2     -2.20      0.00
  -16   14    1      1.09      0.00
  -16   14    0      0.42      0.00
  -16   13   13     -0.98      0.00
  -16   13   12     -0.12      0.00
  -16   13   11     -1.03      0.00
  -16   13   10     -0.35      0.00
  -16   13    9      2.26      0.00
  -16   13    8      2.89      0.00
  -16   13    7      1.61      0.00
  -16   13    6      0.51      0.00
  -16   13    5      0.70      0.00
  -16   13    4     -1.39      0.00
  -16   13    3      2.18      0.00
  -16   13    2     -0.03      0.00
  -16   13    1      1.71      0.00
  -16   13    0      1.25      0.00
   16  -13    1      0.46      0.00
   16  -13    2     -2.03      0.00
   16  -13    3     -0.79      0.00
  -16   12   14      1.37      0.00
  -16   12   13      0.78      0.00
  -16   12   12      0.02      0.00
  -16   12   11      0.59      0.00
  -16   12   10     -2.60      0.00
  -16   12    9     -0.93      0.00
  -16   12    8      0.04      0.00
  -16   12    7      2.12      0.00
  -16   12    6     -1.62      0.00
  -16   12    5      0.01      0.00
  -16   12    4     -0.75      0.00
  -16   12    3     -2.60      0.00
  -16   12    2      1.76      0.00
  -16   12    1     -0.89      0.00
  -16   12    0      1.07      0.00
   16  -12    1      1.77      0.00
   16  -12    2     -0.46      0.00
   16  -12    3      0.16      0.00
   16  -12    4     -0.95      0.00
   16  -12    5     -0.64      0.00
   16  -12    6     -0.58      0.00
   16  -12    7     -0.06      0.00
  -16   11   15     -0.55      0.00
  -16   11   14     -0.43      0.00
  -16   11   13     -0.30      0.00
  -16   11   12      0.96      0.00
  -16   11   11      0.52      0.00
  -16   11   10      0.30      0.00
  -16   11    9     -0.57      0.00
  -16   11    8     -0.15      0.00
  -16   11    7      1.92      0.00
  -16   11    6      3.06      0.00
  -16   11    5     -0.24      0.00
  -16   11    4      2.77      0.00
  -16   11    3     -1.58      0.00
  -16   11    2     -0.93      0.00
  -16   11    1     -0.75      0.00
  -16   11    0     -0.18      0.00
   16  -11    1      0.08      0.00
   16  -11    2      0.96      0.00
   16  -11    3     -1.59      0.00
   16  -11    4     -0.86      0.00
   16  -11    5     -0.25      0.00
   16  -11    6      0.09      0.00
   16  -11    7     -0.05      0.00
  -16   10   16      0.83      0.00
  -16   10   15      1.51      0.00
  -16   10   14      0.54      0.00
  -16   10   13     -0.52      0.00
  -16   10   11      1.44      0.00
  -16   10   10      0.89      0.00
  -16   10    9      0.39      0.00
  -16   10    8     -1.22      0.00
  -16   10    7     -3.11      0.00
  -16   10    6      0.10      0.00
  -16   10    5     -1.92      0.00
  -16   10    4     -0.36      0.00
  -16   10    3      3.08      0.00
  -16   10    2     -1.00      0.00
  -16   10    1      1.88      0.00
  -16   10    0     -1.07      0.00
   16  -10    1      1.25      0.00
   16  -10    2      1.61      0.00
   16  -10    3      1.20      0.00
   16  -10    4     -0.19      0.00
   16  -10    5     -1.32      0.00
   16  -10    6     -0.67      0.00
   16  -10    7     -0.43      0.00
  -16    9   17     -0.28      0.00
  -16    9   16     -1.58      0.00
  -16    9   15      1.01      0.00
  -16    9   14      2.02      0.00
  -16    9   13      0.47      0.00
  -16    9   12     -1.32      0.00
  -16    9   11      0.84      0.00
  -16    9   10      1.85      0.00
  -16    9    9      0.62      0.00
  -16    9    8      3.67      0.00
  -16    9    7      0.57      0.00
  -16    9    6      2.07      0.00
  -16    9    5      1.78      0.00
  -16    9    4     -0.52      0.00
  -16    9    3     -0.60      0.00
  -16    9    2     -0.24      0.00
  -16    9    1     -2.15      0.00
  -16    9    0     -0.96      0.00
   16   -9    1     -1.57      0.00
   16   -9    2      1.04      0.00
   16   -9    3      0.28      0.00
   16   -9    4      1.53      0.00
   16   -9    5     -0.86      0.00
   16   -9    6      0.86      0.00
   16   -9    7      0.38      0.00
  -16    8   18      1.43      0.00
  -16    8   17      0.22      0.00
  -16    8   16     -0.35      0.00
  -16    8   15      0.14      0.00
  -16    8   14     -0.74      0.00
  -16    8   13     -0.30      0.00
  -16    8   12     -1.61      0.00
  -16    8   11     -2.07      0.00
  -16    8   10      0.82      0.00
  -16    8    9     -0.68      0.00
  -16    8    8     -2.90      0.00
  -16    8    7     -0.06      0.00
  -16    8    6     -2.78      0.00
  -16    8    5      1.47      0.00
  -16    8    4     -0.34      0.00
  -16    8    3      1.03      0.00
  -16    8    2      0.71      0.00
  -16    8    1      1.71      0.00
  -16    8    0      0.43      0.00
   16   -8    1     -0.08      0.00
   16   -8    2     -0.01      0.00
   16   -8    3     -0.10      0.00
   16   -8    4     -1.19      0.00
   16   -8    5     -0.13      0.00
   16   -8    6     -0.97      0.00
   16   -8    7      0.45      0.00
  -16    7   18      0.64      0.00
  -16    7   17      0.63      0.00
  -16    7   16     -0.83      0.00
  -16    7   15     -0.69      0.00
  -16    7   14     -0.63      0.00
  -16    7   13      0.36      0.00
  -16    7   12     -1.27      0.00
  -16    7   11      0.24      0.00
  -16    7   10      2.02      0.00
  -16    7    9      4.74      0.00
  -16    7    8      2.56      0.00
  -16    7    7      0.24      0.00
  -16    7    6      0.79      0.00
  -16    7    5     -0.54      0.00
  -16    7    4     -0.29      0.00
  -16    7    3     -0.36      0.00
  -16    7    2     -1.73      0.00
  -16    7    1     -2.10      0.00
  -16    7    0     -1.07      0.00
   16   -7    1     -2.66      0.00
   16   -7    2     -0.26      0.00
   16   -7    3      2.20      0.00
   16   -7    4      1.86      0.00
   16   -7    5      0.86      0.00
   16   -7    6      1.32      0.00
   16   -7    7     -0.49      0.00
  -16    6   19     -0.65      0.00
  -16    6   18      0.07      0.00
  -16    6   17      2.07      0.00
  -16    6   16      1.41      0.00
  -16    6   15      1.39      0.00
  -16    6   14      2.22      0.00
  -16    6   13      2.12      0.00
  -16    6   12     -1.60      0.00
  -16    6   11     -3.41      0.00
  -16    6   10     -5.69      0.00
  -16    6    9     -1.50      0.00
  -16    6    8     -0.27      0.00
  -16    6    7      0.89      0.00
  -16    6    6     -1.91      0.00
  -16    6    5      1.29      0.00
  -16    6    4     -0.02      0.00
  -16    6    3      0.08      0.00
  -16    6    2      3.20      0.00
  -16    6    1      1.90      0.00
  -16    6    0      2.96      0.00
   16   -6    1      2.43      0.00
   16   -6    2     -1.51      0.00
   16   -6    3     -0.71      0.00
   16   -6    4     -0.26      0.00
   16   -6    5     -1.22      0.00
   16   -6    6     -0.74      0.00
   16   -6    7     -0.80      0.00
  -16    5   19     -0.85      0.00
  -16    5   18     -1.54      0.00
  -16    5   17     -0.50      0.00
  -16    5   16     -1.59      0.00
  -16    5   15     -2.36      0.00
  -16    5   14     -1.75      0.00
  -16    5   13      1.75      0.00
  -16    5   12      4.96      0.00
  -16    5   11      2.25      0.00
  -16    5   10      1.63      0.00
  -16    5    9      0.02      0.00
  -16    5    8     -0.30      0.00
  -16    5    7      3.59      0.00
  -16    5    6     -0.07      0.00
  -16    5    5      1.09      0.00
  -16    5    4      0.73      0.00
  -16    5    3     -1.44      0.00
  -16    5    2     -2.96      0.00
  -16    5    1     -0.50      0.00
  -16    5    0     -1.37      0.00
   16   -5    1      1.20      0.00
   16   -5    2      0.87      0.00
   16   -5    3     -0.59      0.00
   16   -5    4      0.32      0.00
   16   -5    5      1.68      0.00
   16   -5    6      0.29      0.00
  -16    4   19      0.22      0.00
  -16    4   18     -0.20      0.00
  -16    4   17      2.22      0.00
  -16    4   16      1.18      0.00
  -16    4   15      1.49      0.00
  -16    4   14     -1.49      0.00
  -16    4   13     -3.76      0.00
  -16    4   12     -0.35      0.00
  -16    4   11      0.13      0.00
  -16    4   10     -0.92      0.00
  -16    4    9      0.19      0.00
  -16    4    8     -2.52      0.00
  -16    4    7     -1.59      0.00
  -16    4    6      2.39      0.00
  -16    4    5     -1.27      0.00
  -16    4    4      2.00      0.00
  -16    4    3      2.01      0.00
  -16    4    2     -0.68      0.00
  -16    4    1      0.03      0.00
  -16    4    0      0.16      0.00
   16   -4    1      0.80      0.00
   16   -4    2      0.76      0.00
   16   -4    3      1.49      0.00
   16   -4    4     -0.63      0.00
   16   -4    5      0.08      0.00
   16   -4    6      0.78      0.00
  -16    3   19     -1.16      0.00
  -16    3   18     -1.09      0.00
  -16    3   17     -1.76      0.00
  -16    3   16      1.45      0.00
  -16    3   15     -0.42      0.00
  -16    3   14     -0.16      0.00
  -16    3   13     -1.03      0.00
  -16    3   12     -1.99      0.00
  -16    3   11      4.31      0.00
  -16    3   10      3.28      0.00
  -16    3    9      1.51      0.00
  -16    3    8      2.85      0.00
  -16    3    7     -4.50      0.00
  -16    3    6      0.23      0.00
  -16    3    5     -1.13      0.00
  -16    3    4     -2.11      0.00
  -16    3    3      0.43      0.00
  -16    3    2     -0.20      0.00
  -16    3    1     -0.84      0.00
  -16    3    0     -0.97      0.00
   16   -3    1      0.25      0.00
   16   -3    2     -0.81      0.00
   16   -3    3     -0.19      0.00
   16   -3    4      0.46      0.00
   16   -3    5     -0.30      0.00
  -16    2   19      0.24      0.00
  -16    2   18      1.21      0.00
  -16    2   17     -0.71      0.00
  -16    2   16      3.03      0.00
  -16    2   15      1.05      0.00
  -16    2   14      0.22      0.00
  -16    2   13     -2.87      0.00
  -16    2   12     -4.77      0.00
  -16    2   11     -4.09      0.00
  -16    2   10      1.36      0.00
  -16    2    9     -0.78      0.00
  -16    2    8      1.98      0.00
  -16    2    7      2.13      0.00
  -16    2    6     -0.53      0.00
  -16    2    5      2.21      0.00
  -16    2    4      0.47      0.00
  -16    2    3     -0.83      0.00
  -16    2    2      1.72      0.00
  -16    2    1      0.77      0.00
  -16    2    0     -0.51      0.00
   16   -2    1     -0.79      0.00
   16   -2    2     -0.18      0.00
   16   -2    3     -2.24      0.00
   16   -2    4     -0.50      0.00
  -16    1   19     -0.74      0.00
  -16    1   18     -0.12      0.00
  -16    1   17     -0.75      0.00
  -16    1   16     -0.71      0.00
  -16    1   15      3.30      0.00
  -16    1   14      3.65      0.00
  -16    1   13      2.48      0.00
  -16    1   12      2.53      0.00
  -16    1   11     -2.17      0.00
  -16    1   10      1.11      0.00
  -16    1    9     -0.19      0.00
  -16    1    8     -2.75      0.00
  -16    1    7     -0.94      0.00
  -16    1    6     -1.11      0.00
  -16    1    5     -1.71      0.00
  -16    1    4     -1.88      0.00
  -16    1    3     -2.24      0.00
  -16    1    2     -1.52      0.00
  -16    1    1      0.54      0.00
  -16    1    0      3.69      0.00
   16   -1    1     -1.06      0.00
   16   -1    2      2.66      0.00
   16   -1    3      0.90      0.00
  -16    0   19     -0.10      0.00
  -16    0   18      1.50      0.00
  -16    0   17      0.57      0.00
  -16    0   16     -2.94      0.00
  -16    0   15     -3.48      0.00
  -16    0   14      0.33      0.00
  -16    0   13      0.25      0.00
  -16    0   12      0.05      0.00
  -16    0   11      0.29      0.00
  -16    0   10     -2.82      0.00
  -16    0    9      0.38      0.00
  -16    0    8     -1.00      0.00
  -16    0    7     -1.31      0.00
  -16    0    6      0.48      0.00
  -16    0    5      2.49      0.00
  -16    0    4      2.03      0.00
  -16    0    3     -0.27      0.00
  -16    0    2     -0.30      0.00
  -16    0    1     -2.04      0.00
   16    0    0      0.26      0.00
   16    0    1      1.30      0.00
   16    0    2     -1.58      0.00
  -16   -1   18     -0.61      0.00
  -16   -1   17      1.08      0.00
  -16   -1   16      1.01      0.00
  -16   -1   15     -0.60      0.00
  -16   -1   14     -1.34      0.00
  -16   -1   13      3.35      0.00
  -16   -1   12      0.69      0.00
  -16   -1   11      2.43      0.00
  -16   -1   10      1.35      0.00
  -16   -1    9     -0.10      0.00
  -16   -1    8      0.35      0.00
  -16   -1    7     -1.71      0.00
  -16   -1    6     -3.77      0.00
  -16   -1    5     -1.60      0.00
  -16   -1    4      0.63      0.00
  -16   -1    3     -0.64      0.00
  -16   -1    2      1.60      0.00
  -16   -1    1      0.16      0.00
   16    1    0     -1.63      0.00
   16    1    1      1.51      0.00
  -16   -2   18     -1.74      0.00
  -16   -2   17      0.95      0.00
  -16   -2   16     -0.66      0.00
  -16   -2   15      1.34      0.00
  -16   -2   14     -2.40      0.00
  -16   -2   13      0.73      0.00
  -16   -2   12      0.79      0.00
  -16   -2   11     -1.23      0.00
  -16   -2   10      0.13      0.00
  -16   -2    9     -0.04      0.00
  -16   -2    8      0.00      0.00
  -16   -2    7      1.74      0.00
  -16   -2    6      0.05      0.00
  -16   -2    5     -1.54      0.00
  -16   -2    4     -0.99      0.00
  -16   -2    3      1.47      0.00
  -16   -2    2     -2.08      0.00
  -16   -2    1      2.01      0.00
  -16   -3   17      0.36      0.00
  -16   -3   16     -0.52      0.00
  -16   -3   15      1.41      0.00
  -16   -3   14     -0.91      0.00
  -16   -3   13     -2.48      0.00
  -16   -3   12      0.61      0.00
  -16   -3   11      0.16      0.00
  -16   -3   10     -1.26      0.00
  -16   -3    9     -0.13      0.00
  -16   -3    8     -1.57      0.00
  -16   -3    7     -0.53      0.00
  -16   -3    6      0.65      0.00
  -16   -3    5     -1.00      0.00
  -16   -3    4     -1.77      0.00
  -16   -3    2     -1.63      0.00
  -16   -4   16      0.17      0.00
  -16   -4   15     -0.21      0.00
  -16   -4   14      1.47      0.00
  -16   -4   13     -1.59      0.00
  -16   -4   12     -1.61      0.00
  -16   -4   11      2.03      0.00
  -16   -4   10      0.15      0.00
  -16   -4    9      0.65      0.00
  -16   -4    8     -1.11      0.00
  -16   -4    7      0.73      0.00
  -16   -4    6     -0.68      0.00
  -16   -4    5      2.10      0.00
  -16   -4    4      0.09      0.00
  -16   -5   15     -0.03      0.00
  -16   -5   14      0.16      0.00
  -16   -5   12     -0.52      0.00
  -16   -5   11     -1.17      0.00
  -16   -5   10      1.15      0.00
  -16   -5    9     -0.08      0.00
  -16   -5    8     -0.03      0.00
  -16   -5    7     -1.06      0.00
  -17   14   10     -0.85      0.00
  -17   14    9     -0.68      0.00
  -17   14    8     -1.23      0.00
  -17   14    7      0.21      0.00
  -17   14    6      0.73      0.00
  -17   14    5     -0.10      0.00
  -17   13   11      2.47      0.00
  -17   13   10      0.81      0.00
  -17   13    9      0.95      0.00
  -17   13    8     -1.23      0.00
  -17   13    7     -0.67      0.00
  -17   13    6     -0.61      0.00
  -17   13    5      2.39      0.00
  -17   13    4     -0.98      0.00
  -17   13    3     -0.24      0.00
  -17   13    2      0.03      0.00
  -17   13    1     -2.12      0.00
  -17   13    0      0.33      0.00
   17  -13    1     -0.74      0.00
  -17   12   13      0.57      0.00
  -17   12   12     -0.22      0.00
  -17   12   11      0.86      0.00
  -17   12   10      1.72      0.00
  -17   12    9      0.73      0.00
  -17   12    8     -1.21      0.00
  -17   12    7     -0.72      0.00
  -17   12    6     -1.71      0.00
  -17   12    5      0.06      0.00
  -17   12    4      0.81      0.00
  -17   12    3     -0.45      0.00
  -17   12    2     -1.39      0.00
  -17   12    1     -0.62      0.00
  -17   12    0     -2.60      0.00
   17  -12    1     -0.18      0.00
   17  -12    2     -0.43      0.00
   17  -12    3     -0.53      0.00
   17  -12    4     -0.77      0.00
  -17   11   14      0.15      0.00
  -17   11   13      1.47      0.00
  -17   11   12      0.22      0.00
  -17   11   11      0.55      0.00
  -17   11   10      0.06      0.00
  -17   11    9      2.46      0.00
  -17   11    8      1.14      0.00
  -17   11    7     -0.22      0.00
  -17   11    6      0.39      0.00
  -17   11    5     -3.60      0.00
  -17   11    4     -0.64      0.00
  -17   11    3     -2.48      0.00
  -17   11    2     -1.32      0.00
  -17   11    1      0.08      0.00
  -17   11    0     -1.17      0.00
   17  -11    1     -1.88      0.00
   17  -11    2     -1.28      0.00
   17  -11    3     -0.36      0.00
   17  -11    4      0.64      0.00
   17  -11    5     -0.20      0.00
  -17   10   15     -0.27      0.00
  -17   10   14     -1.12      0.00
  -17   10   13     -0.33      0.00
  -17   10   12      0.74      0.00
  -17   10   11     -0.88      0.00
  -17   10   10     -2.09      0.00
  -17   10    9     -2.09      0.00
  -17   10    8      0.88      0.00
  -17   10    7     -1.34      0.00
  -17   10    6      1.83      0.00
  -17   10    5      0.53      0.00
  -17   10    4      0.57      0.00
  -17   10    3      1.10      0.00
  -17   10    2     -0.39      0.00
  -17   10    1     -0.72      0.00
  -17   10    0     -0.07      0.00
   17  -10    1     -1.31      0.00
   17  -10    2     -1.81      0.00
   17  -10    3     -1.88      0.00
   17  -10    4     -1.07      0.00
   17  -10    5     -0.53      0.00
  -17    9   16      1.30      0.00
  -17    9   15      0.48      0.00
  -17    9   14     -1.07      0.00
  -17    9   13      0.49      0.00
  -17    9   12     -0.38      0.00
  -17    9   11     -0.75      0.00
  -17    9   10     -0.18      0.00
  -17    9    9     -2.20      0.00
  -17    9    8      0.66      0.00
  -17    9    7      0.59      0.00
  -17    9    6     -1.91      0.00
  -17    9    5      1.58      0.00
  -17    9    4     -2.37      0.00
  -17    9    3      0.25      0.00
  -17    9    2     -1.19      0.00
  -17    9    1     -0.61      0.00
  -17    9    0      0.74      0.00
   17   -9    1      1.33      0.00
   17   -9    2      0.87      0.00
   17   -9    3      0.31      0.00
   17   -9    4      0.33      0.00
   17   -9    5      0.16      0.00
  -17    8   17     -0.81      0.00
  -17    8   16     -1.21      0.00
  -17    8   15     -0.44      0.00
  -17    8   14     -1.88      0.00
  -17    8   13     -1.26      0.00
  -17    8   12     -0.50      0.00
  -17    8   11     -1.83      0.00
  -17    8   10     -1.62      0.00
  -17    8    9     -2.08      0.00
  -17    8    8     -1.11      0.00
  -17    8    7      1.03      0.00
  -17    8    6      1.17      0.00
  -17    8    5     -0.09      0.00
  -17    8    4      2.15      0.00
  -17    8    3      0.37      0.00
  -17    8    2      1.15      0.00
  -17    8    1     -0.59      0.00
  -17    8    0      0.08      0.00
   17   -8    1     -1.68      0.00
   17   -8    2     -0.31      0.00
   17   -8    3     -1.78      0.00
   17   -8    4     -0.85      0.00
   17   -8    5      0.17      0.00
  -17    7   17     -1.30      0.00
  -17    7   16      0.08      0.00
  -17    7   15      0.70      0.00
  -17    7   14      0.56      0.00
  -17    7   13      0.14      0.00
  -17    7   12      1.71      0.00
  -17    7   11      3.61      0.00
  -17    7   10     -1.54      0.00
  -17    7    9      0.48      0.00
  -17    7    8     -3.43      0.00
  -17    7    7      0.10      0.00
  -17    7    6     -1.80      0.00
  -17    7    5      0.14      0.00
  -17    7    4     -2.12      0.00
  -17    7    3     -0.69      0.00
  -17    7    2     -0.97      0.00
  -17    7    1     -1.44      0.00
  -17    7    0      0.18      0.00
   17   -7    1      2.49      0.00
   17   -7    2      1.57      0.00
   17   -7    3      2.07      0.00
   17   -7    4     -0.05      0.00
   17   -7    5     -0.20      0.00
  -17    6   18     -0.49      0.00
  -17    6   17     -0.15      0.00
  -17    6   16     -1.09      0.00
  -17    6   15     -0.02      0.00
  -17    6   14     -1.67      0.00
  -17    6   13     -2.25      0.00
  -17    6   12     -2.68      0.00
  -17    6   11      0.18      0.00
  -17    6   10      1.85      0.00
  -17    6    9     -0.18      0.00
  -17    6    8      0.01      0.00
  -17    6    7     -0.50      0.00
  -17    6    6     -0.44      0.00
  -17    6    5      0.12      0.00
  -17    6    4      0.72      0.00
  -17    6    3      0.17      0.00
  -17    6    2      0.93      0.00
  -17    6    1      0.31      0.00
  -17    6    0     -1.85      0.00
   17   -6    1     -0.30      0.00
   17   -6    2      0.08      0.00
   17   -6    3     -0.57      0.00
   17   -6    4     -0.19      0.00
  -17    5   18      1.03      0.00
  -17    5   17      0.26      0.00
  -17    5   16     -0.10      0.00
  -17    5   15      1.14      0.00
  -17    5   14      0.84      0.00
  -17    5   13      0.81      0.00
  -17    5   12     -0.09      0.00
  -17    5   11     -0.62      0.00
  -17    5   10      0.51      0.00
  -17    5    9      1.61      0.00
  -17    5    8     -1.00      0.00
  -17    5    7     -0.51      0.00
  -17    5    6     -0.59      0.00
  -17    5    5     -2.49      0.00
  -17    5    4      0.07      0.00
  -17    5    3     -0.87      0.00
  -17    5    2     -0.29      0.00
  -17    5    1      0.34      0.00
  -17    5    0     -1.07      0.00
   17   -5    1     -1.29      0.00
   17   -5    2     -0.40      0.00
   17   -5    3      0.87      0.00
   17   -5    4      0.42      0.00
  -17    4   18      0.31      0.00
  -17    4   17      0.92      0.00
  -17    4   16      0.82      0.00
  -17    4   15     -0.16      0.00
  -17    4   14      1.37      0.00
  -17    4   13     -0.54      0.00
  -17    4   12     -1.45      0.00
  -17    4   11     -0.86      0.00
  -17    4   10     -2.86      0.00
  -17    4    9      2.41      0.00
  -17    4    8      1.76      0.00
  -17    4    7      0.70      0.00
  -17    4    6      0.34      0.00
  -17    4    5     -1.14      0.00
  -17    4    4     -2.42      0.00
  -17    4    3      0.26      0.00
  -17    4    2     -1.74      0.00
  -17    4    1      0.00      0.00
  -17    4    0     -0.43      0.00
   17   -4    1     -0.74      0.00
   17   -4    2     -1.60      0.00
   17   -4    3      0.42      0.00
   17   -4    4     -0.40      0.00
  -17    3   18      0.37      0.00
  -17    3   17     -0.78      0.00
  -17    3   16     -0.09      0.00
  -17    3   15     -0.19      0.00
  -17    3   14      2.77      0.00
  -17    3   13      3.71      0.00
  -17    3   12      1.43      0.00
  -17    3   11     -0.81      0.00
  -17    3   10     -2.02      0.00
  -17    3    9     -5.74      0.00
  -17    3    8      0.67      0.00
  -17    3    7     -1.79      0.00
  -17    3    6     -0.52      0.00
  -17    3    5      0.91      0.00
  -17    3    4     -0.95      0.00
  -17    3    3     -0.17      0.00
  -17    3    2      0.49      0.00
  -17    3    1     -0.58      0.00
  -17    3    0      0.41      0.00
   17   -3    1      0.58      0.00
   17   -3    2     -0.28      0.00
   17   -3    3     -0.94      0.00
  -17    2   18     -0.18      0.00
  -17    2   17     -0.08      0.00
  -17    2   16     -1.15      0.00
  -17    2   15     -1.78      0.00
  -17    2   14     -3.77      0.00
  -17    2   13      1.11      0.00
  -17    2   12      1.58      0.00
  -17    2   11      0.25      0.00
  -17    2   10      3.11      0.00
  -17    2    9     -1.01      0.00
  -17    2    8      0.63      0.00
  -17    2    7      1.41      0.00
  -17    2    6     -0.12      0.00
  -17    2    5     -0.20      0.00
  -17    2    4      1.04      0.00
  -17    2    3     -0.53      0.00
  -17    2    2     -2.27      0.00
  -17    2    1     -2.02      0.00
  -17    2    0     -1.85      0.00
   17   -2    1     -1.21      0.00
   17   -2    2      1.05      0.00
  -17    1   17      0.64      0.00
  -17    1   16      2.75      0.00
  -17    1   15      1.77      0.00
  -17    1   14     -0.05      0.00
  -17    1   13     -2.44      0.00
  -17    1   12      1.22      0.00
  -17    1   11      0.18      0.00
  -17    1   10     -1.46      0.00
  -17    1    9      0.82      0.00
  -17    1    8     -2.95      0.00
  -17    1    7     -1.12      0.00
  -17    1    6     -2.64      0.00
  -17    1    5     -2.10      0.00
  -17    1    4     -0.76      0.00
  -17    1    3      1.10      0.00
  -17    1    2      1.99      0.00
  -17    1    1     -0.50      0.00
  -17    1    0     -0.55      0.00
   17   -1    1      0.49      0.00
  -17    0   17     -1.88      0.00
  -17    0   16      0.05      0.00
  -17    0   15      0.70      0.00
  -17    0   14      0.72      0.00
  -17    0   13     -1.66      0.00
  -17    0   12     -1.57      0.00
  -17    0   11      0.56      0.00
  -17    0   10      0.39      0.00
  -17    0    9      1.26      0.00
  -17    0    8      2.67      0.00
  -17    0    7      1.20      0.00
  -17    0    6      0.94      0.00
  -17    0    5     -0.75      0.00
  -17    0    4     -2.02      0.00
  -17    0    3     -2.26      0.00
  -17    0    2      1.25      0.00
  -17    0    1     -1.49      0.00
  -17   -1   16     -0.25      0.00
  -17   -1   15      2.10      0.00
  -17   -1   14      0.50      0.00
  -17   -1   13      2.53      0.00
  -17   -1   12     -0.10      0.00
  -17   -1   11      1.08      0.00
  -17   -1   10      0.85      0.00
  -17   -1    9     -0.89      0.00
  -17   -1    8     -1.61      0.00
  -17   -1    7      0.08      0.00
  -17   -1    6      0.35      0.00
  -17   -1    5     -0.04      0.00
  -17   -1    4      0.83      0.00
  -17   -1    3     -0.49      0.00
  -17   -1    2     -2.15      0.00
  -17   -2   15      1.42      0.00
  -17   -2   14      0.04      0.00
  -17   -2   13      0.39      0.00
  -17   -2   12      0.77      0.00
  -17   -2   11     -1.28      0.00
  -17   -2   10      0.93      0.00
  -17   -2    9      1.62      0.00
  -17   -2    8     -1.11      0.00
  -17   -2    7     -0.29      0.00
  -17   -2    6     -1.06      0.00
  -17   -2    5     -0.10      0.00
  -17   -2    4      0.03      0.00
  -17   -3   14      0.20      0.00
  -17   -3   13     -0.77      0.00
  -17   -3   12     -0.11      0.00
  -17   -3   11      0.04      0.00
  -17   -3   10     -1.36      0.00
  -17   -3    9      0.55      0.00
  -17   -3    8      1.03      0.00
  -17   -3    7     -2.02      0.00
  -18   13    9      0.14      0.00
  -18   13    8      1.48      0.00
  -18   13    7      1.57      0.00
  -18   13    6     -0.37      0.00
  -18   13    5      0.43      0.00
  -18   13    4     -0.36      0.00
  -18   13    2     -0.09      0.00
  -18   12   11     -0.64      0.00
  -18   12   10     -1.09      0.00
  -18   12    9     -0.36      0.00
  -18   12    8     -0.38      0.00
  -18   12    7      1.81      0.00
  -18   12    6      1.66      0.00
  -18   12    5      0.33      0.00
  -18   12    4      1.26      0.00
  -18   12    3     -1.31      0.00
  -18   12    2     -0.40      0.00
  -18   12    1     -0.81      0.00
  -18   12    0     -0.18      0.00
  -18   11   12     -1.14      0.00
  -18   11   11      0.38      0.00
  -18   11   10     -0.26      0.00
  -18   11    9     -0.33      0.00
  -18   11    8     -1.67      0.00
  -18   11    7     -1.44      0.00
  -18   11    6      0.14      0.00
  -18   11    5     -0.49      0.00
  -18   11    4      0.15      0.00
  -18   11    3      0.66      0.00
  -18   11    2      0.11      0.00
  -18   11    1      0.00      0.00
  -18   11    0      0.14      0.00
   18  -11    1      0.56      0.00
   18  -11    2      1.19      0.00
  -18   10   13     -0.34      0.00
  -18   10   12     -1.06      0.00
  -18   10   11     -0.23      0.00
  -18   10   10      1.17      0.00
  -18   10    9     -0.52      0.00
  -18   10    8      1.82      0.00
  -18   10    7     -1.78      0.00
  -18   10    6      1.11      0.00
  -18   10    5      0.95      0.00
  -18   10    4     -0.62      0.00
  -18   10    3      0.77      0.00
  -18   10    2     -0.69      0.00
  -18   10    1     -0.91      0.00
  -18   10    0     -0.37      0.00
   18  -10    1     -0.89      0.00
   18  -10    2      0.76      0.00
  -18    9   14     -0.31      0.00
  -18    9   13      0.05      0.00
  -18    9   12     -0.56      0.00
  -18    9   11     -1.07      0.00
  -18    9   10      1.01      0.00
  -18    9    9     -0.84      0.00
  -18    9    8     -0.99      0.00
  -18    9    7     -0.64      0.00
  -18    9    6     -2.31      0.00
  -18    9    5     -0.49      0.00
  -18    9    4     -0.22      0.00
  -18    9    3     -0.76      0.00
  -18    9    2      1.06      0.00
  -18    9    1      1.20      0.00
  -18    9    0      0.54      0.00
   18   -9    1      0.79      0.00
   18   -9    2      0.41      0.00
  -18    8   15     -0.85      0.00
  -18    8   14     -0.24      0.00
  -18    8   13     -0.67      0.00
  -18    8   12      0.48      0.00
  -18    8   11     -0.37      0.00
  -18    8   10      0.35      0.00
  -18    8    9      2.79      0.00
  -18    8    8     -0.74      0.00
  -18    8    7      1.30      0.00
  -18    8    6     -1.26      0.00
  -18    8    5     -0.06      0.00
  -18    8    4     -1.07      0.00
  -18    8    3     -0.75      0.00
  -18    8    2     -0.59      0.00
  -18    8    1     -1.29      0.00
  -18    8    0     -0.67      0.00
   18   -8    1     -2.05      0.00
   18   -8    2     -1.04      0.00
  -18    7   16      0.20      0.00
  -18    7   15      0.09      0.00
  -18    7   14      0.12      0.00
  -18    7   13      0.51      0.00
  -18    7   12     -1.68      0.00
  -18    7   11     -1.33      0.00
  -18    7   10     -1.94      0.00
  -18    7    9     -0.40      0.00
  -18    7    8      0.32      0.00
  -18    7    7     -1.19      0.00
  -18    7    6      0.15      0.00
  -18    7    5     -0.69      0.00
  -18    7    4      0.31      0.00
  -18    7    3     -0.71      0.00
  -18    7    2      0.60      0.00
  -18    7    1      1.14      0.00
  -18    7    0      0.75      0.00
   18   -7    1      0.91      0.00
   18   -7    2     -0.82      0.00
  -18    6   16      0.41      0.00
  -18    6   15      0.02      0.00
  -18    6   14     -0.67      0.00
  -18    6   13      1.66      0.00
  -18    6   12     -1.23      0.00
  -18    6   11      0.81      0.00
  -18    6   10     -1.25      0.00
  -18    6    9      1.44      0.00
  -18    6    8      0.13      0.00
  -18    6    7      1.48      0.00
  -18    6    6     -0.21      0.00
  -18    6    5     -0.26      0.00
  -18    6    4      0.21      0.00
  -18    6    3     -0.42      0.00
  -18    6    2     -0.23      0.00
  -18    6    1      0.48      0.00
  -18    6    0      0.61      0.00
   18   -6    1      0.50      0.00
   18   -6    2     -0.36      0.00
  -18    5   17     -0.18      0.00
  -18    5   16     -0.98      0.00
  -18    5   15     -0.65      0.00
  -18    5   14     -0.05      0.00
  -18    5   13     -0.44      0.00
  -18    5   12      0.90      0.00
  -18    5   11     -1.17      0.00
  -18    5   10     -1.23      0.00
  -18    5    9     -0.90      0.00
  -18    5    8     -0.63      0.00
  -18    5    7      0.92      0.00
  -18    5    6      1.98      0.00
  -18    5    5      1.00      0.00
  -18    5    4      0.64      0.00
  -18    5    3      0.96      0.00
  -18    5    2     -1.00      0.00
  -18    5    1      0.29      0.00
  -18    5    0     -0.32      0.00
   18   -5    1     -0.41      0.00
   18   -5    2     -0.14      0.00
  -18    4   16     -0.97      0.00
  -18    4   15     -1.52      0.00
  -18    4   14     -1.70      0.00
  -18    4   13     -0.84      0.00
  -18    4   12      0.97      0.00
  -18    4   11      3.08      0.00
  -18    4   10      1.99      0.00
  -18    4    9      0.54      0.00
  -18    4    8      0.44      0.00
  -18    4    7     -2.31      0.00
  -18    4    6     -0.21      0.00
  -18    4    5      0.35      0.00
  -18    4    4     -1.60      0.00
  -18    4    3     -0.12      0.00
  -18    4    2     -0.38      0.00
  -18    4    1     -0.60      0.00
  -18    4    0     -0.49      0.00
   18   -4    1      0.12      0.00
  -18    3   16      0.03      0.00
  -18    3   15     -0.05      0.00
  -18    3   14     -1.66      0.00
  -18    3   13     -1.78      0.00
  -18    3   12     -4.02      0.00
  -18    3   11     -0.94      0.00
  -18    3   10      1.09      0.00
  -18    3    9     -0.95      0.00
  -18    3    8      1.32      0.00
  -18    3    7      0.49      0.00
  -18    3    6     -0.07      0.00
  -18    3    5      1.95      0.00
  -18    3    4      1.68      0.00
  -18    3    3      0.56      0.00
  -18    3    2      0.98      0.00
  -18    3    1      0.89      0.00
  -18    3    0     -1.23      0.00
  -18    2   16     -1.21      0.00
  -18    2   15      1.47      0.00
  -18    2   14      1.60      0.00
  -18    2   13      0.59      0.00
  -18    2   12      2.09      0.00
  -18    2   11     -1.30      0.00
  -18    2   10      2.31      0.00
  -18    2    9      2.01      0.00
  -18    2    8      0.01      0.00
  -18    2    7      1.40      0.00
  -18    2    6     -0.95      0.00
  -18    2    5     -0.21      0.00
  -18    2    4     -1.37      0.00
  -18    2    3     -1.56      0.00
  -18    2    2     -0.43      0.00
  -18    2    1     -0.66      0.00
  -18    1   15      0.08      0.00
  -18    1   14      1.62      0.00
  -18    1   13      0.90      0.00
  -18    1   12      0.30      0.00
  -18    1   11     -1.10      0.00
  -18    1   10     -2.41      0.00
  -18    1    9     -0.91      0.00
  -18    1    8     -0.94      0.00
  -18    1    7     -0.99      0.00
  -18    1    6      0.93      0.00
  -18    1    5     -0.23      0.00
  -18    1    4      0.12      0.00
  -18    1    3      0.43      0.00
  -18    0   14      1.04      0.00
  -18    0   13      1.28      0.00
  -18    0   12      0.31      0.00
  -18    0   11      2.03      0.00
  -18    0   10      0.71      0.00
  -18    0    9      0.97      0.00
  -18    0    8      0.28      0.00
  -18    0    7      0.48      0.00
  -18    0    5     -0.80      0.00
  -18   -1   12      0.73      0.00
  -18   -1   11     -0.52      0.00
  -18   -1   10      0.59      0.00
  -18   -1    9     -0.40      0.00
  -18   -1    8      0.65      0.00
  -18   -1    7      1.84      0.00
  -19   12    6     -0.84      0.00
  -19   12    5     -1.61      0.00
  -19   12    4     -0.06      0.00
  -19   11    9     -0.28      0.00
  -19   11    8     -0.36      0.00
  -19   11    7     -0.85      0.00
  -19   11    6     -0.04      0.00
  -19   11    5     -0.86      0.00
  -19   11    4     -0.72      0.00
  -19   11    3      0.79      0.00
  -19   11    2     -1.40      0.00
  -19   10   11     -0.07      0.00
  -19   10   10     -0.13      0.00
  -19   10    9     -1.35      0.00
  -19   10    8      1.16      0.00
  -19   10    7      0.03      0.00
  -19   10    6     -0.01      0.00
  -19   10    5      0.26      0.00
  -19   10    4      0.04      0.00
  -19   10    3     -1.01      0.00
  -19   10    2     -0.04      0.00
  -19    9   12     -0.15      0.00
  -19    9   11     -2.03      0.00
  -19    9   10     -0.12      0.00
  -19    9    9     -0.95      0.00
  -19    9    8     -0.62      0.00
  -19    9    7      0.96      0.00
  -19    9    6      0.32      0.00
  -19    9    5      0.99      0.00
  -19    9    4      0.85      0.00
  -19    9    3      0.46      0.00
  -19    9    2      0.16      0.00
  -19    9    1     -0.15      0.00
  -19    8   13     -0.47      0.00
  -19    8   12     -0.08      0.00
  -19    8   11      1.00      0.00
  -19    8   10     -0.64      0.00
  -19    8    9      0.80      0.00
  -19    8    8     -0.78      0.00
  -19    8    7      0.41      0.00
  -19    8    6     -0.40      0.00
  -19    8    5     -0.41      0.00
  -19    8    4     -0.21      0.00
  -19    8    3     -0.27      0.00
  -19    8    2     -0.47      0.00
  -19    8    1     -0.93      0.00
  -19    7   14     -0.41      0.00
  -19    7   13     -0.58      0.00
  -19    7   12     -1.02      0.00
  -19    7   11      1.02      0.00
  -19    7   10     -1.13      0.00
  -19    7    9      0.07      0.00
  -19    7    8     -0.50      0.00
  -19    7    7      0.55      0.00
  -19    7    6      0.41      0.00
  -19    7    5     -0.40      0.00
  -19    7    4      0.24      0.00
  -19    7    3     -0.66      0.00
  -19    7    2     -0.13      0.00
  -19    7    1     -0.82      0.00
  -19    6   14     -1.49      0.00
  -19    6   13     -0.18      0.00
  -19    6   12     -0.31      0.00
  -19    6   11      0.99      0.00
  -19    6   10      1.47      0.00
  -19    6    9      0.00      0.00
  -19    6    8     -0.46      0.00
  -19    6    7     -0.90      0.00
  -19    6    6     -1.32      0.00
  -19    6    5     -0.77      0.00
  -19    6    4     -0.95      0.00
  -19    6    3      0.25      0.00
  -19    6    2     -1.09      0.00
  -19    6    1      0.80      0.00
  -19    5   15      1.17      0.00
  -19    5   14     -1.19      0.00
  -19    5   13     -0.40      0.00
  -19    5   12     -2.02      0.00
  -19    5   11     -0.34      0.00
  -19    5   10      0.35      0.00
  -19    5    9      1.74      0.00
  -19    5    8      2.34      0.00
  -19    5    7      0.60      0.00
  -19    5    6      1.08      0.00
  -19    5    5     -0.61      0.00
  -19    5    3     -0.24      0.00
  -19    5    2     -1.07      0.00
  -19    4   14      3.10      0.00
  -19    4   13      0.70      0.00
  -19    4   12      0.37      0.00
  -19    4   11     -0.62      0.00
  -19    4   10     -1.19      0.00
  -19    4    9     -0.75      0.00
  -19    4    8      1.09      0.00
  -19    4    7     -0.07      0.00
  -19    4    6     -0.82      0.00
  -19    4    5     -0.41      0.00
  -19    4    4     -0.88      0.00
  -19    4    3     -0.73      0.00
  -19    4    2      0.34      0.00
  -19    3   14     -2.09      0.00
  -19    3   13      0.91      0.00
  -19    3   12      0.08      0.00
  -19    3   11     -1.58      0.00
  -19    3   10     -0.16      0.00
  -19    3    9     -0.72      0.00
  -19    3    8      0.14      0.00
  -19    3    7      2.82      0.00
  -19    3    6      0.71      0.00
  -19    3    5      1.85      0.00
  -19    3    4     -0.29      0.00
  -19    3    3      0.39      0.00
  -19    2   12      2.20      0.00
  -19    2   11      0.19      0.00
  -19    2   10      0.41      0.00
  -19    2    9     -0.50      0.00
  -19    2    8     -1.84      0.00
  -19    2    7     -0.29      0.00
  -19    2    6      0.67      0.00
  -19    2    5     -0.82      0.00
  -20    6    8      0.05      0.00
   17    0    0      0.20      0.00
   18    0    0     -1.86      0.00
  -18    1    0      0.67      0.00
   17    1    0     -1.60      0.00
  -18    2    0      0.42      0.00
   16    2    0     -0.87      0.00
   17    2    0      0.09      0.00
  -19    3    0     -0.36      0.00
   16    3    0     -0.70      0.00
   17    3    0      1.40      0.00
  -19    4    0     -0.56      0.00
   15    4    0      1.13      0.00
   16    4    0     -0.57      0.00
  -19    5    0     -0.89      0.00
   15    5    0     -0.04      0.00
   16    5    0      0.53      0.00
  -19    6    0     -0.74      0.00
   -3    6    0    -20.00      0.00
   14    6    0      2.50      0.00
   15    6    0      0.37      0.00
  -19    7    0     -0.11      0.00
   14    7    0     -1.10      0.00
   15    7    0      0.42      0.00
  -19    8    0     -0.78      0.00
   13    8    0      0.49      0.00
   14    8    0     -0.36      0.00
  -19    9    0     -0.10      0.00
   12    9    0     -0.56      0.00
   13    9    0     -2.08      0.00
  -19   10    0     -0.71      0.00
   12   10    0      0.08      0.00
   13   10    0     -0.78      0.00
  -19   11    0     -1.37      0.00
   -7   11    0     -9.93      0.00
   11   11    0     -0.33      0.00
   12   11    0      1.23      0.00
  -19   12    0      0.74      0.00
   -9   12    0     -6.59      0.00
   -8   12    0     -2.09      0.00
   -7   12    0      2.68      0.00
   -6   12    0     -1.15      0.00
   10   12    0      0.42      0.00
   11   12    0      0.61      0.00
  -19   13    0     -0.10      0.00
  -18   13    0     -1.11      0.00
  -10   13    0     -2.10      0.00
   -9   13    0      0.65      0.00
   -8   13    0     -4.23      0.00
   -7   13    0      8.20      0.00
   -6   13    0     -4.39      0.00
   10   13    0     -0.13      0.00
  -18   14    0     -0.47      0.00
  -17   14    0     -1.07      0.00
  -11   14    0      1.46      0.00
  -10   14    0     -2.73      0.00
   -9   14    0      1.01      0.00
   -8   14    0     -0.55      0.00
   -7   14    0      0.78      0.00
    9   14    0     -0.71      0.00
  -18   15    0     -0.49      0.00
  -17   15    0     -1.33      0.00
  -16   15    0     -0.39      0.00
  -15   15    0      1.10      0.00
  -14   15    0     -0.27      0.00
  -13   15    0      1.65      0.00
  -12   15    0     -0.96      0.00
  -11   15    0      1.43      0.00
  -10   15    0     -1.58      0.00
   -9   15    0     -1.63      0.00
   -8   15    0     -0.64      0.00
   -7   15    0      0.22      0.00
   -6   15    0      2.11      0.00
    8   15    0      0.29      0.00
  -18   16    0      0.23      0.00
  -17   16    0      0.29      0.00
  -16   16    0      0.36      0.00
  -15   16    0      0.42      0.00
  -14   16    0      0.49      0.00
  -13   16    0      0.87      0.00
  -12   16    0     -0.17      0.00
  -11   16    0     -4.04      0.00
  -10   16    0      1.80      0.00
   -9   16    0     -2.84      0.00
   -8   16    0      2.09      0.00
   -7   16    0     -4.10      0.00
   -6   16    0      0.90      0.00
    7   16    0      0.18      0.00
  -17   17    0     -0.78      0.00
  -16   17    0      0.25      0.00
  -15   17    0      0.44      0.00
  -14   17    0     -0.54      0.00
  -13   17    0     -1.81      0.00
  -12   17    0      1.06      0.00
  -11   17    0     -2.03      0.00
  -10   17    0     -0.16      0.00
   -9   17    0     -1.22      0.00
   -8   17    0      1.49      0.00
   -7   17    0     -1.66      0.00
    6   17    0      1.01      0.00
  -16   18    0     -0.18      0.00
  -15   18    0      0.99      0.00
  -14   18    0     -0.18      0.00
  -13   18    0     -0.18      0.00
  -12   18    0     -0.66      0.00
  -11   18    0     -1.30      0.00
  -10   18    0      0.38      0.00
   -9   18    0      1.15      0.00
   -8   18    0      2.02      0.00
   -7   18    0      0.26      0.00
   -6   18    0     -0.70      0.00
    4   18    0      1.72      0.00
  -16   19    0      0.00      0.00
  -15   19    0      0.18      0.00
  -14   19    0     -0.07      0.00
  -13   19    0     -0.90      0.00
  -12   19    0      1.04      0.00
  -11   19    0     -0.15      0.00
  -10   19    0      0.10      0.00
   -9   19    0      0.30      0.00
   -8   19    0     -1.25      0.00
   -7   19    0      1.22      0.00
   -6   19    0      0.51      0.00
   -5   19    0      0.00      0.00
    2   19    0      0.27      0.00
    3   19    0     -0.30      0.00
  -14   20    0      0.48      0.00
  -13   20    0     -0.09      0.00
  -12   20    0      0.14      0.00
  -11   20    0     -0.33      0.00
  -10   20    0      0.18      0.00
   -9   20    0     -0.61      0.00
   -8   20    0      0.32      0.00
   -7   20    0     -0.93      0.00
   -6   20    0      0.13      0.00
   -5   20    0      0.61      0.00
   -4   20    0      0.30      0.00
   -3   20    0     -2.19      0.00
   -2   20    0      1.68      0.00
    0   20    0     -0.62      0.00
    1   20    0     -0.38      0.00
  -13   21    0     -0.14      0.00
  -12   21    0     -0.27      0.00
  -11   21    0     -0.51      0.00
  -10   21    0      0.42      0.00
   -9   21    0      0.40      0.00
   -8   21    0      0.22      0.00
   -7   21    0      0.31      0.00
   -6   21    0     -0.06      0.00
   -5   21    0     -0.52      0.00
   -4   21    0      0.35      0.00
   -3   21    0      0.00      0.00
   -2   21    0     -1.07      0.00
   -1   21    0     -0.28      0.00
    0  -21    1      0.31      0.00
    1  -21    1     -0.89      0.00
    2  -21    1      0.52      0.00
    3  -21    1     -1.85      0.00
    4  -21    1      0.38      0.00
    5  -21    1     -1.13      0.00
    6  -21    1     -0.01      0.00
    7  -21    1     -1.19      0.00
    8  -21    1      0.84      0.00
    9  -21    1      0.59      0.00
   10  -21    1      0.11      0.00
   11  -21    1     -0.24      0.00
   12  -21    1     -0.29      0.00
   13  -21    1      0.19      0.00
   -2  -20    1      0.28      0.00
   -1  -20    1     -0.24      0.00
    2  -20    1     -0.55      0.00
    3  -20    1     -0.52      0.00
    4  -20    1     -0.28      0.00
    5  -20    1     -0.24      0.00
    6  -20    1      0.75      0.00
    7  -20    1      0.66      0.00
    8  -20    1     -0.94      0.00
    9  -20    1      0.41      0.00
   10  -20    1     -0.86      0.00
   11  -20    1      0.79      0.00
   12  -20    1     -0.42      0.00
   13  -20    1      0.52      0.00
   14  -20    1     -0.35      0.00
   -4  -19    1      0.95      0.00
   -3  -19    1     -0.28      0.00
    4  -19    1      0.09      0.00
    5  -19    1      0.74      0.00
    6  -19    1     -1.64      0.00
    7  -19    1     -0.20      0.00
    8  -19    1     -1.74      0.00
    9  -19    1      1.42      0.00
   10  -19    1     -0.01      0.00
   11  -19    1     -0.27      0.00
   12  -19    1      0.96      0.00
   13  -19    1      0.05      0.00
   14  -19    1      0.08      0.00
   15  -19    1      0.25      0.00
   -5  -18    1     -1.04      0.00
    5  -18    1      0.54      0.00
    6  -18    1     -0.55      0.00
    7  -18    1      1.11      0.00
    8  -18    1      0.36      0.00
    9  -18    1      1.75      0.00
   10  -18    1      0.57      0.00
   11  -18    1     -0.47      0.00
   12  -18    1      1.14      0.00
   13  -18    1     -0.22      0.00
   14  -18    1      0.27      0.00
   15  -18    1      0.90      0.00
   16  -18    1      0.18      0.00
   -6  -17    1      0.47      0.00
    5  -17    1      2.35      0.00
    6  -17    1     -0.06      0.00
    7  -17    1      3.04      0.00
    8  -17    1     -0.63      0.00
    9  -17    1     -0.89      0.00
   10  -17    1      0.53      0.00
   11  -17    1     -1.05      0.00
   12  -17    1      1.02      0.00
   13  -17    1     -0.61      0.00
   14  -17    1     -0.37      0.00
   15  -17    1      0.86      0.00
   16  -17    1      0.17      0.00
   17  -17    1     -0.36      0.00
   -8  -16    1     -0.93      0.00
   -7  -16    1     -0.44      0.00
    5  -16    1      1.84      0.00
    6  -16    1     -1.58      0.00
    7  -16    1     -1.22      0.00
    8  -16    1      0.75      0.00
    9  -16    1     -0.40      0.00
   10  -16    1     -0.34      0.00
   11  -16    1     -0.87      0.00
   12  -16    1      1.41      0.00
   13  -16    1      1.35      0.00
   14  -16    1      0.27      0.00
   15  -16    1     -0.47      0.00
   16  -16    1      1.17      0.00
   17  -16    1      0.49      0.00
   -9  -15    1     -0.10      0.00
    5  -15    1     -4.07      0.00
    6  -15    1      4.29      0.00
    7  -15    1     -1.52      0.00
    8  -15    1      1.78      0.00
    9  -15    1     -3.12      0.00
   10  -15    1      1.58      0.00
   11  -15    1     -1.65      0.00
   12  -15    1     -1.63      0.00
   13  -15    1      0.43      0.00
   14  -15    1      1.17      0.00
   15  -15    1      0.97      0.00
   16  -15    1     -0.12      0.00
   17  -15    1      0.44      0.00
   18  -15    1     -0.52      0.00
  -10  -14    1      1.19      0.00
   -9  -14    1      0.16      0.00
    5  -14    1     -3.63      0.00
    6  -14    1      2.68      0.00
    7  -14    1     -0.84      0.00
    8  -14    1     -0.58      0.00
    9  -14    1     -3.60      0.00
   10  -14    1     -2.44      0.00
   11  -14    1     -0.48      0.00
   12  -14    1     -1.03      0.00
   15  -14    1      1.71      0.00
   16  -14    1     -0.40      0.00
   17  -14    1      1.09      0.00
   18  -14    1     -0.46      0.00
  -11  -13    1      0.29      0.00
  -10  -13    1     -1.45      0.00
    5  -13    1     -2.64      0.00
    6  -13    1     -4.74      0.00
    7  -13    1     -1.59      0.00
    8  -13    1     -5.00      0.00
    9  -13    1      4.72      0.00
   10  -13    1      0.51      0.00
   11  -13    1      7.35      0.00
   18  -13    1     -0.09      0.00
  -11  -12    1     -1.87      0.00
    5  -12    1      0.87      0.00
    6  -12    1     -4.98      0.00
    7  -12    1      8.60      0.00
    8  -12    1      1.42      0.00
    9  -12    1      4.65      0.00
   18  -12    1     -0.22      0.00
   19  -12    1     -1.23      0.00
  -12  -11    1      0.03      0.00
  -11  -11    1      1.14      0.00
    5  -11    1      4.35      0.00
    6  -11    1      6.08      0.00
    7  -11    1      6.44      0.00
    8  -11    1      0.39      0.00
   19  -11    1     -0.29      0.00
  -13  -10    1      0.53      0.00
  -12  -10    1      1.86      0.00
    5  -10    1     12.54      0.00
    6  -10    1    -10.60      0.00
    7  -10    1     -4.61      0.00
   19  -10    1     -0.79      0.00
  -14   -9    1      1.36      0.00
  -13   -9    1     -0.09      0.00
    4   -9    1     -7.44      0.00
    5   -9    1     -1.09      0.00
    6   -9    1      9.17      0.00
   19   -9    1      0.12      0.00
  -14   -8    1     -0.63      0.00
  -13   -8    1     -1.19      0.00
    4   -8    1      7.59      0.00
    5   -8    1     -3.01      0.00
   19   -8    1      0.91      0.00
  -15   -7    1     -1.18      0.00
  -14   -7    1     -1.10      0.00
    4   -7    1     12.10      0.00
   19   -7    1     -0.29      0.00
  -16   -6    1      0.29      0.00
  -15   -6    1      1.13      0.00
    3   -6    1    -19.58      0.00
   19   -6    1      0.18      0.00
  -16   -5    1      0.70      0.00
  -15   -5    1     -0.91      0.00
   19   -5    1     -0.36      0.00
  -17   -4    1      0.51      0.00
  -16   -4    1     -0.61      0.00
    2   -4    1     35.72      0.00
  -17   -3    1      0.30      0.00
  -16   -3    1     -0.43      0.00
   18   -3    1     -0.96      0.00
  -17   -2    1      0.36      0.00
   18   -2    1     -1.22      0.00
  -18   -1    1      0.92      0.00
  -17   -1    1      2.71      0.00
   18   -1    1     -0.18      0.00
  -18    0    1     -0.15      0.00
   17    0    1     -1.14      0.00
  -18    1    1     -0.24      0.00
   17    1    1      1.03      0.00
  -19    2    1      0.22      0.00
   16    2    1     -0.30      0.00
   17    2    1     -0.10      0.00
  -19    3    1     -0.65      0.00
   15    3    1     -0.22      0.00
   16    3    1     -0.27      0.00
  -19    4    1     -0.22      0.00
   15    4    1      0.20      0.00
   16    4    1     -0.58      0.00
  -19    5    1     -1.69      0.00
   14    5    1     -0.56      0.00
   15    5    1      0.96      0.00
   14    6    1     -0.26      0.00
   15    6    1      0.26      0.00
   13    7    1     -1.86      0.00
   14    7    1     -0.34      0.00
   13    8    1      2.41      0.00
   14    8    1     -0.28      0.00
   -1    9    1      3.00      0.00
   12    9    1      0.77      0.00
   13    9    1      0.57      0.00
  -19   10    1     -1.95      0.00
   11   10    1     -1.33      0.00
   12   10    1      1.17      0.00
  -19   11    1     -0.45      0.00
   11   11    1     -1.27      0.00
  -19   12    1     -0.75      0.00
   10   12    1     -0.07      0.00
   11   12    1     -0.85      0.00
  -19   13    1      0.39      0.00
  -18   13    1      0.08      0.00
   -9   13    1     -5.94      0.00
   -8   13    1     -3.90      0.00
    9   13    1     -0.75      0.00
   10   13    1      0.06      0.00
  -19   14    1      0.49      0.00
  -18   14    1     -0.37      0.00
  -17   14    1      0.45      0.00
  -11   14    1     -1.56      0.00
  -10   14    1     -4.11      0.00
   -9   14    1      3.50      0.00
   -8   14    1     -4.35      0.00
    8   14    1     -0.25      0.00
    9   14    1      0.51      0.00
  -18   15    1     -0.41      0.00
  -17   15    1     -0.32      0.00
  -16   15    1      1.81      0.00
  -14   15    1     -1.14      0.00
  -13   15    1      0.66      0.00
  -12   15    1     -0.64      0.00
  -11   15    1      2.31      0.00
  -10   15    1      0.30      0.00
   -9   15    1     -1.95      0.00
   -8   15    1     -1.36      0.00
    8   15    1      0.35      0.00
  -18   16    1      1.32      0.00
  -17   16    1     -0.36      0.00
  -16   16    1     -0.64      0.00
  -15   16    1      0.02      0.00
  -14   16    1      1.01      0.00
  -13   16    1      1.93      0.00
  -12   16    1     -0.47      0.00
  -11   16    1     -1.26      0.00
  -10   16    1     -1.81      0.00
   -9   16    1     -0.64      0.00
   -8   16    1     -0.24      0.00
   -7   16    1     -2.08      0.00
    6   16    1     -0.78      0.00
    7   16    1     -0.57      0.00
  -17   17    1      0.16      0.00
  -16   17    1     -0.07      0.00
  -15   17    1      0.33      0.00
  -14   17    1     -0.52      0.00
  -13   17    1      0.12      0.00
  -12   17    1      0.27      0.00
  -11   17    1     -0.41      0.00
  -10   17    1     -0.72      0.00
   -9   17    1     -1.20      0.00
   -8   17    1      3.21      0.00
   -7   17    1     -0.62      0.00
    5   17    1      0.43      0.00
  -16   18    1      0.35      0.00
  -15   18    1     -0.01      0.00
  -14   18    1      0.15      0.00
  -13   18    1     -1.05      0.00
  -12   18    1      0.14      0.00
  -11   18    1     -0.31      0.00
  -10   18    1      2.37      0.00
   -9   18    1      1.10      0.00
   -8   18    1      2.13      0.00
   -7   18    1     -2.48      0.00
    3   18    1      0.90      0.00
    4   18    1     -0.19      0.00
  -16   19    1     -0.29      0.00
  -15   19    1      0.26      0.00
  -14   19    1      0.04      0.00
  -13   19    1      0.05      0.00
  -12   19    1      0.64      0.00
  -11   19    1     -0.07      0.00
  -10   19    1      1.07      0.00
   -9   19    1     -0.35      0.00
   -8   19    1      1.34      0.00
   -7   19    1     -1.60      0.00
   -6   19    1     -0.12      0.00
    2   19    1     -0.03      0.00
  -14   20    1     -0.01      0.00
  -13   20    1      0.52      0.00
  -12   20    1      0.10      0.00
  -11   20    1      0.33      0.00
  -10   20    1     -0.02      0.00
   -9   20    1     -0.83      0.00
   -8   20    1     -0.55      0.00
   -7   20    1      1.37      0.00
   -6   20    1      0.37      0.00
   -5   20    1      0.30      0.00
   -4   20    1     -1.94      0.00
   -3   20    1     -0.33      0.00
   -2   20    1     -0.54      0.00
   -1   20    1      0.24      0.00
    0   20    1     -0.70      0.00
  -13   21    1      0.17      0.00
  -12   21    1      0.12      0.00
  -11   21    1     -0.42      0.00
  -10   21    1      1.15      0.00
   -9   21    1     -0.18      0.00
   -8   21    1     -0.13      0.00
   -7   21    1     -0.78      0.00
   -6   21    1     -0.27      0.00
   -5   21    1     -0.01      0.00
   -4   21    1     -0.88      0.00
   -3   21    1     -1.21      0.00
   -2   21    1     -0.56      0.00
    0  -21    2      0.01      0.00
    1  -21    2     -1.06      0.00
    2  -21    2      1.40      0.00
    3  -21    2      0.06      0.00
    4  -21    2     -0.76      0.00
    5  -21    2     -1.38      0.00
    6  -21    2      0.45      0.00
    7  -21    2      0.09      0.00
    8  -21    2      0.17      0.00
    9  -21    2     -0.07      0.00
   10  -21    2     -0.41      0.00
   11  -21    2     -0.03      0.00
   12  -21    2      0.10      0.00
   13  -21    2      0.28      0.00
   -2  -20    2      0.61      0.00
    2  -20    2      0.92      0.00
    3  -20    2     -2.78      0.00
    4  -20    2      1.84      0.00
    5  -20    2     -1.13      0.00
    6  -20    2      0.59      0.00
    7  -20    2     -0.51      0.00
    8  -20    2      0.08      0.00
    9  -20    2      0.45      0.00
   10  -20    2     -0.07      0.00
   11  -20    2      0.06      0.00
   12  -20    2     -0.47      0.00
   13  -20    2      0.53      0.00
   14  -20    2     -0.64      0.00
   -4  -19    2      0.60      0.00
    5  -19    2      0.38      0.00
    6  -19    2      1.10      0.00
    7  -19    2     -0.28      0.00
    8  -19    2     -1.64      0.00
    9  -19    2      0.76      0.00
   10  -19    2     -0.40      0.00
   11  -19    2      0.11      0.00
   12  -19    2      0.02      0.00
   13  -19    2     -0.13      0.00
   14  -19    2     -0.62      0.00
   15  -19    2      0.43      0.00
   -6  -18    2      0.72      0.00
   -5  -18    2      0.55      0.00
    5  -18    2      0.97      0.00
    6  -18    2     -1.79      0.00
    7  -18    2      1.36      0.00
    8  -18    2     -0.60      0.00
    9  -18    2      1.16      0.00
   10  -18    2      0.64      0.00
   11  -18    2     -1.38      0.00
   12  -18    2      0.12      0.00
   13  -18    2      0.53      0.00
   14  -18    2      0.61      0.00
   15  -18    2      0.50      0.00
   16  -18    2      0.59      0.00
   -7  -17    2     -0.04      0.00
    5  -17    2      0.74      0.00
    6  -17    2     -0.26      0.00
    7  -17    2      1.40      0.00
    8  -17    2     -0.18      0.00
    9  -17    2      0.46      0.00
   10  -17    2     -1.20      0.00
   11  -17    2     -0.97      0.00
   12  -17    2     -0.72      0.00
   13  -17    2     -0.41      0.00
   14  -17    2      0.07      0.00
   15  -17    2      0.90      0.00
   16  -17    2     -0.05      0.00
   17  -17    2      0.19      0.00
   -8  -16    2     -0.49      0.00
    5  -16    2      1.60      0.00
    6  -16    2     -2.75      0.00
    7  -16    2      0.93      0.00
    8  -16    2      0.17      0.00
    9  -16    2      0.27      0.00
   10  -16    2     -0.16      0.00
   11  -16    2     -1.07      0.00
   12  -16    2     -0.01      0.00
   13  -16    2      1.04      0.00
   14  -16    2      1.01      0.00
   15  -16    2      0.07      0.00
   16  -16    2      0.49      0.00
   17  -16    2      0.11      0.00
   -9  -15    2      0.45      0.00
    5  -15    2     -2.06      0.00
    6  -15    2     -1.06      0.00
    7  -15    2      2.09      0.00
    8  -15    2      0.12      0.00
    9  -15    2     -0.53      0.00
   10  -15    2      0.41      0.00
   11  -15    2     -0.05      0.00
   12  -15    2     -0.23      0.00
   13  -15    2     -1.26      0.00
   14  -15    2      1.50      0.00
   15  -15    2     -1.71      0.00
   16  -15    2     -0.08      0.00
   17  -15    2     -0.63      0.00
   18  -15    2     -1.02      0.00
  -10  -14    2     -0.10      0.00
    5  -14    2     -1.08      0.00
    6  -14    2      4.45      0.00
    7  -14    2     -1.06      0.00
    8  -14    2      3.76      0.00
    9  -14    2     -2.59      0.00
   10  -14    2     -2.78      0.00
   11  -14    2     -2.66      0.00
   12  -14    2     -0.51      0.00
   16  -14    2     -0.32      0.00
   17  -14    2      0.43      0.00
   18  -14    2     -1.09      0.00
  -11  -13    2      0.17      0.00
  -10  -13    2      1.46      0.00
    5  -13    2     -4.60      0.00
    6  -13    2      5.54      0.00
    7  -13    2     -1.82      0.00
    8  -13    2     -3.59      0.00
    9  -13    2     -3.81      0.00
   10  -13    2     -2.25      0.00
   17  -13    2      0.92      0.00
   18  -13    2     -0.15      0.00
  -12  -12    2      0.70      0.00
  -11  -12    2      0.71      0.00
    4  -12    2      6.24      0.00
    5  -12    2      2.64      0.00
    6  -12    2     -7.31      0.00
    7  -12    2     -3.62      0.00
    8  -12    2     -6.09      0.00
    9  -12    2     -0.98      0.00
   18  -12    2     -0.07      0.00
  -13  -11    2      0.28      0.00
  -12  -11    2      0.24      0.00
    4  -11    2    -11.19      0.00
    5  -11    2     -2.54      0.00
    6  -11    2     -4.57      0.00
    7  -11    2      2.85      0.00
    8  -11    2     -1.99      0.00
   19  -11    2     -0.83      0.00
  -13  -10    2     -0.80      0.00
  -12  -10    2     -2.97      0.00
    4  -10    2      6.71      0.00
    5  -10    2     -8.09      0.00
    6  -10    2      0.83      0.00
    7  -10    2      4.10      0.00
   19  -10    2     -0.03      0.00
  -14   -9    2     -1.38      0.00
  -13   -9    2     -0.44      0.00
    4   -9    2      1.90      0.00
    5   -9    2     20.55      0.00
    6   -9    2     -3.57      0.00
   19   -9    2     -0.37      0.00
  -15   -8    2     -0.81      0.00
  -14   -8    2      1.23      0.00
    3   -8    2     21.77      0.00
    4   -8    2    -12.31      0.00
    5   -8    2     -0.51      0.00
   19   -8    2      0.66      0.00
  -15   -7    2      0.43      0.00
  -14   -7    2     -1.23      0.00
    3   -7    2     -6.72      0.00
    4   -7    2      9.12      0.00
   19   -7    2      0.88      0.00
  -16   -6    2     -0.21      0.00
  -15   -6    2      0.44      0.00
    3   -6    2    -18.98      0.00
  -16   -5    2      0.69      0.00
  -15   -5    2     -0.94      0.00
    2   -5    2     27.14      0.00
  -17   -4    2      0.03      0.00
  -16   -4    2      1.55      0.00
   -1   -4    2    -40.34      0.00
   18   -4    2     -0.77      0.00
  -17   -3    2      0.11      0.00
   18   -3    2     -1.18      0.00
  -18   -2    2     -0.48      0.00
  -17   -2    2     -0.58      0.00
   18   -2    2     -0.82      0.00
  -18   -1    2      0.34      0.00
   17   -1    2      0.15      0.00
  -18    0    2      0.39      0.00
   17    0    2     -1.27      0.00
  -19    1    2      1.72      0.00
  -18    1    2     -1.24      0.00
   16    1    2     -1.14      0.00
   17    1    2     -0.36      0.00
  -19    2    2     -0.08      0.00
   16    2    2      0.64      0.00
  -19    3    2     -1.12      0.00
   15    3    2      0.89      0.00
   16    3    2      0.17      0.00
   15    4    2     -0.52      0.00
  -20    5    2     -0.99      0.00
   14    5    2     -0.78      0.00
   15    5    2      1.07      0.00
  -20    6    2      0.61      0.00
   13    6    2      1.22      0.00
   14    6    2      1.12      0.00
  -20    7    2     -0.42      0.00
   13    7    2      0.60      0.00
   14    7    2     -0.70      0.00
  -20    8    2      0.13      0.00
   12    8    2     -1.77      0.00
   13    8    2      0.37      0.00
  -20    9    2      0.52      0.00
   11    9    2     -1.71      0.00
   12    9    2     -1.57      0.00
  -20   10    2     -0.02      0.00
   11   10    2      1.11      0.00
   12   10    2      0.50      0.00
   10   11    2      2.98      0.00
   11   11    2     -0.90      0.00
  -19   12    2     -0.15      0.00
    9   12    2     -0.87      0.00
   10   12    2      0.12      0.00
  -19   13    2      0.18      0.00
    9   13    2     -1.05      0.00
  -19   14    2      0.39      0.00
  -18   14    2     -1.56      0.00
  -17   14    2     -1.51      0.00
    8   14    2     -0.32      0.00
  -18   15    2     -0.60      0.00
  -17   15    2      0.33      0.00
  -16   15    2      0.73      0.00
  -12   15    2      0.38      0.00
  -11   15    2      1.53      0.00
  -10   15    2     -2.50      0.00
    7   15    2      0.34      0.00
  -18   16    2      0.23      0.00
  -17   16    2      0.18      0.00
  -16   16    2      0.03      0.00
  -15   16    2      0.70      0.00
  -14   16    2      0.09      0.00
  -13   16    2      0.05      0.00
  -12   16    2     -2.26      0.00
  -11   16    2      0.65      0.00
  -10   16    2     -2.38      0.00
   -9   16    2      0.41      0.00
    6   16    2      0.22      0.00
  -17   17    2     -0.09      0.00
  -16   17    2     -0.67      0.00
  -15   17    2     -0.55      0.00
  -14   17    2      0.65      0.00
  -13   17    2     -0.24      0.00
  -12   17    2     -0.06      0.00
  -11   17    2     -1.51      0.00
  -10   17    2     -1.39      0.00
   -9   17    2     -2.25      0.00
    4   17    2      0.88      0.00
    5   17    2     -0.16      0.00
  -16   18    2     -0.01      0.00
  -15   18    2     -0.36      0.00
  -14   18    2      0.03      0.00
  -13   18    2     -0.35      0.00
  -12   18    2     -1.96      0.00
  -11   18    2     -0.91      0.00
  -10   18    2      0.27      0.00
   -9   18    2      1.77      0.00
   -8   18    2      2.16      0.00
    3   18    2      0.84      0.00
  -15   19    2      0.32      0.00
  -14   19    2     -0.65      0.00
  -13   19    2      0.62      0.00
  -12   19    2     -1.45      0.00
  -11   19    2      0.41      0.00
  -10   19    2      0.25      0.00
   -9   19    2      0.92      0.00
   -8   19    2     -0.23      0.00
   -7   19    2     -0.10      0.00
    1   19    2     -0.61      0.00
    2   19    2     -0.84      0.00
  -14   20    2      0.03      0.00
  -13   20    2     -0.08      0.00
  -12   20    2     -0.29      0.00
  -11   20    2     -1.11      0.00
  -10   20    2     -0.02      0.00
   -9   20    2      0.08      0.00
   -8   20    2      1.04      0.00
   -7   20    2     -0.11      0.00
   -6   20    2      0.88      0.00
   -5   20    2     -0.47      0.00
   -4   20    2      0.89      0.00
   -3   20    2      0.44      0.00
   -2   20    2      0.95      0.00
   -1   20    2     -0.79      0.00
    0   20    2     -0.26      0.00
  -12   21    2     -0.47      0.00
  -11   21    2      0.18      0.00
  -10   21    2      0.68      0.00
   -9   21    2     -0.21      0.00
   -8   21    2      0.09      0.00
   -7   21    2     -0.12      0.00
   -6   21    2      0.78      0.00
   -5   21    2     -0.22      0.00
   -4   21    2     -0.23      0.00
   -3   21    2     -1.22      0.00
   -1  -21    3      0.44      0.00
    0  -21    3     -0.21      0.00
    1  -21    3     -0.71      0.00
    2  -21    3      0.84      0.00
    3  -21    3     -1.96      0.00
    4  -21    3      0.28      0.00
    5  -21    3     -0.57      0.00
    6  -21    3     -0.30      0.00
    7  -21    3     -0.15      0.00
    8  -21    3      0.62      0.00
    9  -21    3      0.68      0.00
   10  -21    3     -0.39      0.00
   11  -21    3     -0.96      0.00
   12  -21    3      0.37      0.00
   13  -21    3     -0.57      0.00
   -3  -20    3      0.29      0.00
   -2  -20    3     -0.43      0.00
    1  -20    3     -1.26      0.00
    2  -20    3      1.31      0.00
    3  -20    3     -0.16      0.00
    4  -20    3     -0.45      0.00
    5  -20    3     -0.76      0.00
    6  -20    3      1.39      0.00
    7  -20    3      0.97      0.00
    8  -20    3     -0.53      0.00
    9  -20    3     -1.46      0.00
   10  -20    3      0.04      0.00
   11  -20    3     -0.35      0.00
   12  -20    3     -0.06      0.00
   13  -20    3      1.10      0.00
   14  -20    3     -0.44      0.00
   -5  -19    3      0.03      0.00
   -4  -19    3     -0.42      0.00
    4  -19    3      0.85      0.00
    5  -19    3     -1.71      0.00
    6  -19    3     -0.79      0.00
    7  -19    3     -1.11      0.00
    8  -19    3     -0.41      0.00
    9  -19    3      0.56      0.00
   10  -19    3     -0.76      0.00
   11  -19    3      0.60      0.00
   12  -19    3      0.08      0.00
   13  -19    3      1.11      0.00
   14  -19    3     -0.97      0.00
   15  -19    3     -0.21      0.00
   -6  -18    3     -0.34      0.00
    4  -18    3      0.44      0.00
    5  -18    3      0.71      0.00
    6  -18    3      0.50      0.00
    7  -18    3     -0.02      0.00
    8  -18    3     -0.12      0.00
    9  -18    3     -0.01      0.00
   10  -18    3      1.51      0.00
   11  -18    3     -0.77      0.00
   12  -18    3      0.92      0.00
   13  -18    3     -0.29      0.00
   14  -18    3      0.24      0.00
   15  -18    3      0.09      0.00
   16  -18    3      0.75      0.00
   -7  -17    3     -1.14      0.00
    5  -17    3      1.17      0.00
    6  -17    3      1.41      0.00
    7  -17    3     -0.76      0.00
    8  -17    3     -0.08      0.00
    9  -17    3     -0.81      0.00
   10  -17    3      1.42      0.00
   11  -17    3      0.11      0.00
   12  -17    3     -0.01      0.00
   13  -17    3     -0.46      0.00
   14  -17    3      0.96      0.00
   15  -17    3      0.47      0.00
   16  -17    3      0.13      0.00
   -8  -16    3     -1.26      0.00
    4  -16    3      2.57      0.00
    5  -16    3      1.00      0.00
    6  -16    3     -1.27      0.00
    7  -16    3      0.46      0.00
    8  -16    3      1.54      0.00
    9  -16    3      1.05      0.00
   10  -16    3     -0.36      0.00
   11  -16    3      1.46      0.00
   12  -16    3      0.16      0.00
   13  -16    3      0.62      0.00
   14  -16    3      0.49      0.00
   15  -16    3      0.76      0.00
   16  -16    3      0.95      0.00
   17  -16    3     -0.02      0.00
   -9  -15    3      0.50      0.00
    4  -15    3      0.14      0.00
    5  -15    3      0.78      0.00
    6  -15    3      1.39      0.00
    7  -15    3     -0.05      0.00
    8  -15    3     -0.55      0.00
    9  -15    3      0.72      0.00
   10  -15    3     -1.07      0.00
   11  -15    3     -0.60      0.00
   12  -15    3     -1.15      0.00
   13  -15    3     -0.47      0.00
   14  -15    3      1.41      0.00
   15  -15    3     -1.09      0.00
   16  -15    3      0.27      0.00
   17  -15    3     -0.07      0.00
  -10  -14    3     -0.83      0.00
    4  -14    3      5.18      0.00
    5  -14    3     -3.02      0.00
    6  -14    3     -1.67      0.00
    7  -14    3      0.55      0.00
    8  -14    3     -0.35      0.00
    9  -14    3     -0.67      0.00
   10  -14    3      0.47      0.00
   11  -14    3     -0.68      0.00
   12  -14    3      1.00      0.00
   16  -14    3      0.34      0.00
   17  -14    3      0.63      0.00
   18  -14    3     -0.70      0.00
  -11  -13    3      0.54      0.00
    4  -13    3     -5.34      0.00
    5  -13    3     -4.80      0.00
    6  -13    3      1.74      0.00
    7  -13    3     -1.22      0.00
    8  -13    3      6.77      0.00
    9  -13    3      2.69      0.00
   10  -13    3      1.84      0.00
   17  -13    3      0.64      0.00
   18  -13    3     -0.30      0.00
  -12  -12    3      0.20      0.00
    4  -12    3     -0.99      0.00
    5  -12    3      1.86      0.00
    6  -12    3      5.46      0.00
    7  -12    3      4.23      0.00
    8  -12    3     -0.59      0.00
    9  -12    3     -3.54      0.00
   18  -12    3     -0.82      0.00
  -13  -11    3      0.45      0.00
  -12  -11    3      1.85      0.00
    4  -11    3      0.51      0.00
    5  -11    3      5.57      0.00
    6  -11    3      5.09      0.00
    7  -11    3     -7.08      0.00
    8  -11    3     -5.48      0.00
   18  -11    3      1.14      0.00
  -14  -10    3      0.80      0.00
  -13  -10    3      1.71      0.00
    4  -10    3      8.50      0.00
    5  -10    3    -13.40      0.00
    6  -10    3     -5.00      0.00
   18  -10    3      0.66      0.00
  -14   -9    3      0.39      0.00
  -13   -9    3      0.05      0.00
    3   -9    3    -17.53      0.00
    4   -9    3      6.57      0.00
    5   -9    3      6.04      0.00
   18   -9    3      0.71      0.00
  -15   -8    3     -0.03      0.00
  -14   -8    3     -2.94      0.00
    3   -8    3      5.78      0.00
    4   -8    3      8.03      0.00
   18   -8    3      0.30      0.00
  -16   -7    3     -1.06      0.00
  -15   -7    3     -1.06      0.00
    3   -7    3     13.50      0.00
   18   -7    3     -0.10      0.00
  -16   -6    3      0.48      0.00
  -15   -6    3      1.39      0.00
   18   -6    3     -1.49      0.00
  -17   -5    3     -0.66      0.00
  -16   -5    3     -0.67      0.00
    0   -5    3    -30.15      0.00
   18   -5    3     -0.20      0.00
  -17   -4    3     -0.64      0.00
  -16   -4    3      0.39      0.00
   18   -4    3      0.20      0.00
  -18   -3    3      0.00      0.00
  -17   -3    3      0.93      0.00
  -16   -3    3      0.16      0.00
   18   -3    3     -1.28      0.00
  -18   -2    3      0.76      0.00
  -17   -2    3      0.43      0.00
   17   -2    3     -1.25      0.00
  -18   -1    3      2.14      0.00
   17   -1    3      1.73      0.00
  -19    0    3      0.83      0.00
  -18    0    3     -1.31      0.00
   16    0    3      1.67      0.00
   17    0    3     -0.68      0.00
  -19    1    3      0.28      0.00
   16    1    3      0.18      0.00
  -19    2    3      0.08      0.00
   15    2    3      1.05      0.00
   16    2    3     -0.13      0.00
   -1    3    3     10.29      0.00
   15    3    3      0.37      0.00
  -20    4    3      0.97      0.00
   14    4    3     -0.84      0.00
   15    4    3     -0.63      0.00
  -20    5    3      0.35      0.00
   13    5    3     -1.34      0.00
   14    5    3     -0.24      0.00
  -20    6    3      0.17      0.00
   13    6    3     -0.22      0.00
   14    6    3     -0.79      0.00
  -20    7    3     -0.19      0.00
   12    7    3     -0.89      0.00
   13    7    3     -0.57      0.00
  -20    8    3     -0.40      0.00
   12    8    3      1.43      0.00
   13    8    3      0.93      0.00
  -20    9    3     -0.06      0.00
   11    9    3      2.49      0.00
   12    9    3     -1.35      0.00
  -20   10    3      0.18      0.00
   10   10    3      0.79      0.00
   11   10    3     -0.82      0.00
  -20   11    3     -0.92      0.00
   10   11    3     -0.89      0.00
  -19   12    3     -0.75      0.00
    9   12    3     -0.23      0.00
  -19   13    3      0.22      0.00
  -18   13    3      0.07      0.00
    8   13    3      1.16      0.00
    9   13    3     -0.71      0.00
  -19   14    3     -0.05      0.00
  -18   14    3      0.80      0.00
  -17   14    3      0.22      0.00
    7   14    3     -0.33      0.00
    8   14    3     -0.49      0.00
  -18   15    3     -1.15      0.00
  -17   15    3      2.55      0.00
  -16   15    3     -0.05      0.00
    6   15    3     -0.81      0.00
  -18   16    3     -0.26      0.00
  -17   16    3      0.36      0.00
  -16   16    3     -0.09      0.00
  -15   16    3      0.62      0.00
  -14   16    3      1.27      0.00
  -13   16    3      0.45      0.00
  -12   16    3     -2.23      0.00
  -11   16    3     -0.53      0.00
    5   16    3     -1.89      0.00
  -17   17    3      0.74      0.00
  -16   17    3     -0.14      0.00
  -15   17    3      0.13      0.00
  -14   17    3     -0.91      0.00
  -13   17    3      1.33      0.00
  -12   17    3     -0.19      0.00
  -11   17    3      0.62      0.00
  -10   17    3     -1.18      0.00
    4   17    3      0.28      0.00
  -16   18    3     -0.66      0.00
  -15   18    3     -1.23      0.00
  -14   18    3      0.30      0.00
  -13   18    3      0.57      0.00
  -12   18    3     -0.41      0.00
  -11   18    3      1.10      0.00
  -10   18    3     -0.01      0.00
   -9   18    3      0.46      0.00
    2   18    3      1.66      0.00
    3   18    3      0.33      0.00
  -15   19    3     -0.24      0.00
  -14   19    3      0.08      0.00
  -13   19    3      0.62      0.00
  -12   19    3      0.28      0.00
  -11   19    3     -1.07      0.00
  -10   19    3      1.18      0.00
   -9   19    3      0.59      0.00
   -8   19    3     -0.89      0.00
   -7   19    3      0.13      0.00
   -6   19    3      0.31      0.00
    0   19    3      1.98      0.00
    1   19    3     -0.01      0.00
  -14   20    3      0.44      0.00
  -13   20    3      0.13      0.00
  -12   20    3     -0.31      0.00
  -11   20    3     -0.21      0.00
  -10   20    3     -1.21      0.00
   -9   20    3      1.47      0.00
   -8   20    3     -0.34      0.00
   -7   20    3      0.35      0.00
   -6   20    3     -0.24      0.00
   -5   20    3     -1.09      0.00
   -4   20    3      0.01      0.00
   -3   20    3      0.21      0.00
   -2   20    3     -0.56      0.00
   -1   20    3     -0.23      0.00
  -12   21    3     -0.44      0.00
  -11   21    3      0.21      0.00
  -10   21    3     -0.20      0.00
   -9   21    3      0.12      0.00
   -8   21    3     -0.95      0.00
   -7   21    3      0.68      0.00
   -6   21    3     -0.43      0.00
   -5   21    3     -0.45      0.00
   -4   21    3     -0.90      0.00
   -2  -21    4     -0.08      0.00
   -1  -21    4      0.52      0.00
    0  -21    4     -0.08      0.00
    1  -21    4      0.18      0.00
    2  -21    4     -0.26      0.00
    3  -21    4     -0.18      0.00
    4  -21    4     -0.93      0.00
    5  -21    4     -0.35      0.00
    6  -21    4     -0.91      0.00
    7  -21    4      0.38      0.00
    8  -21    4     -0.12      0.00
    9  -21    4     -0.08      0.00
   10  -21    4      0.40      0.00
   11  -21    4      0.23      0.00
   12  -21    4      0.15      0.00
   13  -21    4     -0.39      0.00
   -3  -20    4      0.28      0.00
    1  -20    4     -0.94      0.00
    2  -20    4      0.44      0.00
    3  -20    4     -0.87      0.00
    4  -20    4      0.83      0.00
    5  -20    4      0.92      0.00
    6  -20    4      0.48      0.00
    7  -20    4     -0.28      0.00
    8  -20    4      0.85      0.00
    9  -20    4      0.52      0.00
   10  -20    4     -0.04      0.00
   11  -20    4     -1.31      0.00
   12  -20    4     -0.69      0.00
   13  -20    4      0.03      0.00
   14  -20    4      0.40      0.00
   -5  -19    4      0.43      0.00
    4  -19    4     -0.24      0.00
    5  -19    4     -0.04      0.00
    6  -19    4      0.48      0.00
    7  -19    4      0.12      0.00
    8  -19    4     -0.63      0.00
    9  -19    4     -0.65      0.00
   10  -19    4     -0.94      0.00
   11  -19    4     -0.11      0.00
   12  -19    4      0.52      0.00
   13  -19    4      0.43      0.00
   14  -19    4      0.05      0.00
   15  -19    4      0.57      0.00
   -6  -18    4      0.13      0.00
    4  -18    4      1.20      0.00
    5  -18    4     -0.26      0.00
    6  -18    4     -1.11      0.00
    7  -18    4      0.45      0.00
    8  -18    4      0.06      0.00
    9  -18    4     -0.40      0.00
   10  -18    4      0.10      0.00
   11  -18    4     -0.04      0.00
   12  -18    4     -0.13      0.00
   13  -18    4      1.11      0.00
   14  -18    4      0.46      0.00
   15  -18    4      0.38      0.00
   16  -18    4      0.09      0.00
   -8  -17    4     -0.23      0.00
   -7  -17    4     -0.32      0.00
    4  -17    4     -0.76      0.00
    5  -17    4      1.68      0.00
    6  -17    4      1.77      0.00
    7  -17    4     -1.83      0.00
    8  -17    4      1.60      0.00
    9  -17    4     -1.29      0.00
   10  -17    4     -0.45      0.00
   11  -17    4     -0.72      0.00
   12  -17    4      0.46      0.00
   13  -17    4     -0.80      0.00
   14  -17    4      0.83      0.00
   15  -17    4      0.56      0.00
   16  -17    4      0.60      0.00
   -9  -16    4     -0.55      0.00
    4  -16    4      3.79      0.00
    5  -16    4     -2.76      0.00
    6  -16    4      0.42      0.00
    7  -16    4     -0.31      0.00
    8  -16    4      1.48      0.00
    9  -16    4      0.17      0.00
   10  -16    4      0.77      0.00
   11  -16    4     -0.28      0.00
   12  -16    4      0.93      0.00
   13  -16    4      0.49      0.00
   14  -16    4      0.67      0.00
   15  -16    4      0.47      0.00
   16  -16    4     -0.33      0.00
   17  -16    4      0.35      0.00
  -10  -15    4      1.18      0.00
    4  -15    4     -0.38      0.00
    5  -15    4      0.34      0.00
    6  -15    4      2.75      0.00
    7  -15    4      0.75      0.00
    8  -15    4      0.42      0.00
    9  -15    4      1.39      0.00
   10  -15    4      0.28      0.00
   11  -15    4      1.14      0.00
   12  -15    4     -1.16      0.00
   13  -15    4     -0.13      0.00
   14  -15    4      0.29      0.00
   15  -15    4     -0.38      0.00
   16  -15    4     -1.04      0.00
   17  -15    4     -1.07      0.00
  -11  -14    4      1.11      0.00
    4  -14    4      7.30      0.00
    5  -14    4      2.77      0.00
    6  -14    4      2.05      0.00
    7  -14    4     -1.04      0.00
    8  -14    4     -1.90      0.00
    9  -14    4     -2.02      0.00
   10  -14    4     -2.49      0.00
   11  -14    4      0.07      0.00
   12  -14    4      1.61      0.00
   15  -14    4     -0.79      0.00
   16  -14    4      0.77      0.00
   17  -14    4     -0.73      0.00
  -12  -13    4      0.05      0.00
  -11  -13    4      1.94      0.00
    4  -13    4     -1.62      0.00
    5  -13    4     -4.53      0.00
    6  -13    4     -2.17      0.00
    7  -13    4     -4.43      0.00
    8  -13    4     -3.34      0.00
    9  -13    4     -1.68      0.00
   10  -13    4      2.04      0.00
   16  -13    4     -0.43      0.00
   17  -13    4      0.78      0.00
   18  -13    4      0.45      0.00
  -13  -12    4      0.53      0.00
  -12  -12    4     -1.40      0.00
    4  -12    4     -4.74      0.00
    5  -12    4     -6.53      0.00
    6  -12    4     -7.38      0.00
    7  -12    4     -3.79      0.00
    8  -12    4      2.62      0.00
   18  -12    4     -0.73      0.00
  -13  -11    4     -0.99      0.00
    3  -11    4     -4.34      0.00
    4  -11    4    -14.28      0.00
    5  -11    4      4.56      0.00
    6  -11    4     -0.51      0.00
    7  -11    4      1.45      0.00
   18  -11    4      0.48      0.00
  -14  -10    4      0.23      0.00
  -13  -10    4     -1.26      0.00
    3  -10    4     -0.05      0.00
    4  -10    4     -6.22      0.00
    5  -10    4    -10.55      0.00
    6  -10    4      7.65      0.00
   18  -10    4      1.03      0.00
  -15   -9    4      0.11      0.00
  -14   -9    4     -0.89      0.00
    0   -9    4      6.62      0.00
    3   -9    4    -20.97      0.00
    4   -9    4     21.20      0.00
    5   -9    4     -9.30      0.00
   18   -9    4     -0.40      0.00
  -15   -8    4     -0.11      0.00
  -14   -8    4     -0.08      0.00
   18   -8    4      0.75      0.00
  -16   -7    4     -0.52      0.00
  -15   -7    4     -0.10      0.00
   18   -7    4      0.49      0.00
  -16   -6    4     -0.57      0.00
  -15   -6    4      0.69      0.00
   18   -6    4     -0.66      0.00
  -17   -5    4      0.70      0.00
  -16   -5    4      0.36      0.00
   18   -5    4     -0.35      0.00
  -17   -4    4     -0.36      0.00
  -18   -3    4     -0.77      0.00
  -17   -3    4     -1.73      0.00
    4   -3    4     15.85      0.00
   17   -3    4      0.00      0.00
  -18   -2    4     -0.55      0.00
   17   -2    4      0.44      0.00
  -19   -1    4      0.66      0.00
  -18   -1    4     -0.05      0.00
    5   -1    4     21.25      0.00
   16   -1    4      0.35      0.00
   17   -1    4     -0.58      0.00
  -19    0    4      0.01      0.00
  -18    0    4      1.90      0.00
   16    0    4     -0.31      0.00
  -19    1    4      0.03      0.00
   15    1    4     -0.68      0.00
   16    1    4      0.74      0.00
  -19    2    4      1.41      0.00
   15    2    4     -0.09      0.00
  -20    3    4      0.60      0.00
   14    3    4     -0.01      0.00
   15    3    4      0.43      0.00
  -20    4    4      1.55      0.00
   14    4    4     -0.72      0.00
  -20    5    4     -0.43      0.00
  -19    5    4     -0.73      0.00
   13    5    4      0.59      0.00
   14    5    4      0.41      0.00
  -20    6    4      0.71      0.00
   12    6    4      1.69      0.00
   13    6    4     -0.24      0.00
  -20    7    4     -0.63      0.00
   12    7    4      0.37      0.00
   13    7    4     -0.68      0.00
  -20    8    4      0.28      0.00
   11    8    4     -0.21      0.00
   12    8    4     -0.94      0.00
  -20    9    4      0.05      0.00
   10    9    4     -0.55      0.00
   11    9    4     -0.66      0.00
  -20   10    4     -0.45      0.00
   10   10    4      0.95      0.00
   11   10    4      1.50      0.00
  -20   11    4      0.07      0.00
    9   11    4     -0.67      0.00
   10   11    4      0.07      0.00
  -20   12    4     -0.49      0.00
    8   12    4      0.13      0.00
    9   12    4     -1.61      0.00
  -19   13    4      0.07      0.00
    7   13    4     -0.36      0.00
    8   13    4     -0.65      0.00
  -19   14    4     -0.35      0.00
  -18   14    4     -2.14      0.00
  -17   14    4     -1.15      0.00
    7   14    4     -0.31      0.00
  -18   15    4      0.19      0.00
  -17   15    4      1.39      0.00
  -16   15    4     -0.56      0.00
  -13   15    4      1.53      0.00
    6   15    4      0.06      0.00
  -18   16    4     -1.12      0.00
  -17   16    4      1.54      0.00
  -16   16    4     -0.24      0.00
  -15   16    4     -0.19      0.00
  -14   16    4     -1.18      0.00
    4   16    4     -0.78      0.00
    5   16    4      1.16      0.00
  -17   17    4      0.13      0.00
  -16   17    4      0.05      0.00
  -15   17    4      0.64      0.00
  -14   17    4      0.03      0.00
  -13   17    4      0.69      0.00
  -12   17    4     -1.89      0.00
  -11   17    4     -0.85      0.00
    3   17    4      0.54      0.00
  -16   18    4     -0.09      0.00
  -15   18    4      0.29      0.00
  -14   18    4     -0.63      0.00
  -13   18    4      0.17      0.00
  -12   18    4     -0.68      0.00
  -11   18    4     -2.33      0.00
  -10   18    4      1.31      0.00
    1   18    4      0.29      0.00
    2   18    4      0.36      0.00
  -15   19    4     -0.29      0.00
  -14   19    4      0.02      0.00
  -13   19    4      0.20      0.00
  -12   19    4      0.09      0.00
  -11   19    4      0.65      0.00
  -10   19    4     -0.59      0.00
   -9   19    4      1.16      0.00
   -8   19    4     -2.49      0.00
   -7   19    4      1.26      0.00
   -6   19    4     -0.56      0.00
   -1   19    4      0.64      0.00
    0   19    4      0.66      0.00
  -14   20    4     -0.01      0.00
  -13   20    4     -0.08      0.00
  -12   20    4     -0.70      0.00
  -11   20    4     -1.45      0.00
  -10   20    4      0.42      0.00
   -9   20    4      1.69      0.00
   -8   20    4     -0.80      0.00
   -7   20    4      0.88      0.00
   -6   20    4     -0.39      0.00
   -5   20    4      0.74      0.00
   -4   20    4      1.48      0.00
   -3   20    4     -0.08      0.00
   -2   20    4     -0.32      0.00
  -11   21    4      0.11      0.00
  -10   21    4     -0.48      0.00
   -9   21    4      0.34      0.00
   -8   21    4     -0.03      0.00
   -7   21    4     -0.18      0.00
   -6   21    4      0.16      0.00
   -2  -21    5      0.23      0.00
   -1  -21    5     -0.25      0.00
    0  -21    5      0.03      0.00
    1  -21    5     -0.74      0.00
    2  -21    5      0.17      0.00
    3  -21    5     -0.39      0.00
    4  -21    5      0.41      0.00
    5  -21    5     -0.18      0.00
    6  -21    5      0.24      0.00
    7  -21    5     -1.32      0.00
    8  -21    5      0.50      0.00
    9  -21    5     -0.10      0.00
   10  -21    5     -1.00      0.00
   11  -21    5      0.54      0.00
   12  -21    5     -0.29      0.00
   13  -21    5      0.44      0.00
   -4  -20    5      0.11      0.00
   -3  -20    5     -1.11      0.00
    0  -20    5      1.18      0.00
    1  -20    5     -0.71      0.00
    2  -20    5      0.52      0.00
    3  -20    5     -0.75      0.00
    4  -20    5      0.18      0.00
    5  -20    5      0.48      0.00
    6  -20    5     -0.54      0.00
    7  -20    5      0.99      0.00
    8  -20    5     -1.14      0.00
    9  -20    5     -0.20      0.00
   10  -20    5      0.53      0.00
   11  -20    5     -0.14      0.00
   12  -20    5      0.57      0.00
   13  -20    5     -0.66      0.00
   14  -20    5      0.33      0.00
   -5  -19    5     -0.46      0.00
    3  -19    5     -2.04      0.00
    4  -19    5     -0.86      0.00
    5  -19    5      0.79      0.00
    6  -19    5     -0.70      0.00
    7  -19    5     -0.42      0.00
    8  -19    5      1.00      0.00
    9  -19    5     -0.63      0.00
   10  -19    5     -0.73      0.00
   11  -19    5      0.69      0.00
   12  -19    5     -0.68      0.00
   13  -19    5     -0.34      0.00
   14  -19    5     -0.67      0.00
   15  -19    5      0.10      0.00
   -7  -18    5     -0.24      0.00
   -6  -18    5     -1.49      0.00
    4  -18    5     -0.24      0.00
    5  -18    5      0.51      0.00
    6  -18    5      0.25      0.00
    7  -18    5     -0.97      0.00
    8  -18    5     -0.85      0.00
    9  -18    5      0.85      0.00
   10  -18    5     -0.65      0.00
   11  -18    5     -0.10      0.00
   12  -18    5      0.06      0.00
   13  -18    5      0.24      0.00
   14  -18    5     -0.35      0.00
   15  -18    5      0.41      0.00
   -8  -17    5     -0.56      0.00
    4  -17    5      0.85      0.00
    5  -17    5      0.74      0.00
    6  -17    5     -0.57      0.00
    7  -17    5     -0.13      0.00
    8  -17    5     -0.41      0.00
    9  -17    5      0.92      0.00
   10  -17    5      1.18      0.00
   11  -17    5      0.31      0.00
   12  -17    5      0.42      0.00
   13  -17    5     -0.52      0.00
   14  -17    5      1.21      0.00
   15  -17    5      0.45      0.00
   16  -17    5      0.10      0.00
   -9  -16    5      0.65      0.00
    4  -16    5      1.21      0.00
    5  -16    5      0.84      0.00
    6  -16    5      0.14      0.00
    7  -16    5      0.35      0.00
    8  -16    5      1.26      0.00
    9  -16    5      0.25      0.00
   10  -16    5     -0.07      0.00
   11  -16    5      0.24      0.00
   12  -16    5      0.10      0.00
   13  -16    5     -0.42      0.00
   14  -16    5      0.66      0.00
   15  -16    5      1.71      0.00
   16  -16    5      0.77      0.00
  -10  -15    5      0.72      0.00
    4  -15    5      0.36      0.00
    5  -15    5     -1.05      0.00
    6  -15    5      0.89      0.00
    7  -15    5     -1.46      0.00
    8  -15    5      1.75      0.00
    9  -15    5      1.02      0.00
   10  -15    5     -0.83      0.00
   11  -15    5      0.16      0.00
   12  -15    5     -0.64      0.00
   13  -15    5      0.44      0.00
   14  -15    5     -1.10      0.00
   15  -15    5     -0.24      0.00
   16  -15    5     -0.71      0.00
   17  -15    5      0.67      0.00
  -11  -14    5     -1.89      0.00
    3  -14    5      1.37      0.00
    4  -14    5     -0.34      0.00
    5  -14    5     -2.56      0.00
    6  -14    5      1.89      0.00
    7  -14    5      2.55      0.00
    8  -14    5      0.65      0.00
    9  -14    5      0.82      0.00
   10  -14    5      1.27      0.00
   11  -14    5     -0.88      0.00
   15  -14    5      0.87      0.00
   16  -14    5     -0.76      0.00
   17  -14    5     -0.33      0.00
  -12  -13    5     -0.72      0.00
    3  -13    5     -8.27      0.00
    4  -13    5     -0.60      0.00
    5  -13    5      4.56      0.00
    6  -13    5      5.09      0.00
    7  -13    5      2.76      0.00
    8  -13    5      2.51      0.00
    9  -13    5     -1.22      0.00
   10  -13    5     -2.77      0.00
   16  -13    5     -0.21      0.00
   17  -13    5     -0.36      0.00
  -13  -12    5      1.44      0.00
  -12  -12    5      0.66      0.00
    4  -12    5      2.19      0.00
    5  -12    5      0.46      0.00
    6  -12    5     -0.19      0.00
    7  -12    5     -2.11      0.00
    8  -12    5     -5.26      0.00
   17  -12    5     -1.04      0.00
  -14  -11    5      0.61      0.00
  -13  -11    5      0.61      0.00
    4  -11    5     -5.59      0.00
    5  -11    5      4.66      0.00
    6  -11    5    -10.99      0.00
   18  -11    5      0.21      0.00
  -14  -10    5      0.45      0.00
  -13  -10    5     -0.69      0.00
    4  -10    5    -17.92      0.00
    5  -10    5     -2.86      0.00
   18  -10    5     -0.15      0.00
  -15   -9    5     -0.87      0.00
  -14   -9    5      0.81      0.00
    8   -9    5      6.71      0.00
   18   -9    5      0.58      0.00
  -16   -8    5     -0.03      0.00
  -15   -8    5     -0.18      0.00
   18   -8    5     -0.13      0.00
  -16   -7    5     -0.65      0.00
  -15   -7    5     -0.26      0.00
  -17   -6    5      0.16      0.00
  -16   -6    5      0.43      0.00
   17   -6    5     -2.40      0.00
  -17   -5    5     -1.49      0.00
  -16   -5    5     -1.48      0.00
   17   -5    5      1.35      0.00
  -18   -4    5     -0.78      0.00
  -17   -4    5     -0.35      0.00
   17   -4    5      0.09      0.00
  -18   -3    5      1.79      0.00
  -17   -3    5     -0.35      0.00
   17   -3    5     -0.67      0.00
  -18   -2    5     -0.82      0.00
   16   -2    5     -0.54      0.00
  -19   -1    5      0.01      0.00
  -18   -1    5      1.11      0.00
   16   -1    5      0.84      0.00
  -19    0    5     -0.21      0.00
   -3    0    5     21.70      0.00
   15    0    5      1.44      0.00
   16    0    5     -0.07      0.00
  -19    1    5      0.99      0.00
   15    1    5     -2.07      0.00
  -20    2    5      0.10      0.00
   14    2    5      0.32      0.00
   15    2    5     -0.57      0.00
  -20    3    5     -0.03      0.00
   14    3    5      1.00      0.00
  -20    4    5      0.26      0.00
   13    4    5     -0.33      0.00
   14    4    5     -0.60      0.00
  -20    5    5      1.76      0.00
   12    5    5     -2.15      0.00
   13    5    5     -0.76      0.00
  -20    6    5      0.77      0.00
   12    6    5     -0.18      0.00
   13    6    5      0.00      0.00
  -20    7    5      0.41      0.00
  -11    7    5      4.02      0.00
   11    7    5      1.46      0.00
   12    7    5      0.01      0.00
  -20    8    5     -0.29      0.00
   10    8    5      1.73      0.00
   11    8    5      0.05      0.00
   12    8    5      0.70      0.00
  -20    9    5     -0.77      0.00
   10    9    5     -1.07      0.00
   11    9    5      0.75      0.00
  -20   10    5      0.65      0.00
    9   10    5      0.44      0.00
   10   10    5     -0.01      0.00
  -20   11    5     -0.34      0.00
    8   11    5      0.05      0.00
    9   11    5     -0.67      0.00
  -20   12    5     -0.05      0.00
    8   12    5      1.06      0.00
  -19   13    5      0.60      0.00
    7   13    5      0.64      0.00
  -19   14    5      0.55      0.00
  -18   14    5     -0.39      0.00
    6   14    5     -0.25      0.00
  -18   15    5     -0.32      0.00
  -17   15    5      0.49      0.00
  -16   15    5      1.11      0.00
    5   15    5      0.78      0.00
  -18   16    5     -0.03      0.00
  -17   16    5      1.26      0.00
  -16   16    5      0.20      0.00
  -15   16    5     -0.78      0.00
  -14   16    5      0.03      0.00
  -13   16    5      0.31      0.00
    4   16    5     -1.18      0.00
  -17   17    5      0.37      0.00
  -16   17    5     -0.14      0.00
  -15   17    5      0.13      0.00
  -14   17    5     -2.07      0.00
  -13   17    5      3.90      0.00
  -12   17    5      0.51      0.00
    2   17    5     -0.96      0.00
  -16   18    5     -0.70      0.00
  -15   18    5      0.82      0.00
  -14   18    5     -0.08      0.00
  -13   18    5      0.98      0.00
  -12   18    5     -0.33      0.00
  -11   18    5     -1.01      0.00
  -10   18    5     -1.10      0.00
    0   18    5      1.76      0.00
    1   18    5      1.41      0.00
  -15   19    5     -0.27      0.00
  -14   19    5      0.32      0.00
  -13   19    5      0.68      0.00
  -12   19    5      0.63      0.00
  -11   19    5     -0.80      0.00
  -10   19    5     -0.30      0.00
   -9   19    5     -0.33      0.00
   -8   19    5     -0.64      0.00
   -7   19    5      1.71      0.00
   -2   19    5      1.43      0.00
   -1   19    5      0.29      0.00
  -13   20    5      0.16      0.00
  -12   20    5     -0.04      0.00
  -11   20    5     -0.53      0.00
  -10   20    5     -0.25      0.00
   -9   20    5      1.24      0.00
   -8   20    5     -1.61      0.00
   -7   20    5      0.05      0.00
   -6   20    5     -0.46      0.00
   -5   20    5      0.88      0.00
   -4   20    5     -0.66      0.00
   -2  -21    6     -0.23      0.00
   -1  -21    6      0.13      0.00
    0  -21    6      0.02      0.00
    1  -21    6     -0.89      0.00
    2  -21    6      0.35      0.00
    3  -21    6      0.23      0.00
    4  -21    6      0.13      0.00
    5  -21    6     -0.95      0.00
    6  -21    6     -0.49      0.00
    7  -21    6      0.40      0.00
    8  -21    6      0.07      0.00
    9  -21    6      0.16      0.00
   10  -21    6     -0.26      0.00
   11  -21    6      0.41      0.00
   12  -21    6     -0.93      0.00
   -4  -20    6      0.73      0.00
    0  -20    6     -0.84      0.00
    1  -20    6      0.13      0.00
    2  -20    6      0.52      0.00
    3  -20    6     -0.24      0.00
    4  -20    6      1.52      0.00
    5  -20    6      1.08      0.00
    6  -20    6     -0.27      0.00
    7  -20    6      0.35      0.00
    8  -20    6      0.77      0.00
    9  -20    6     -0.03      0.00
   10  -20    6     -1.34      0.00
   11  -20    6     -0.78      0.00
   12  -20    6     -0.33      0.00
   13  -20    6      0.78      0.00
   -6  -19    6      0.36      0.00
   -5  -19    6      0.39      0.00
    3  -19    6      0.17      0.00
    4  -19    6     -0.76      0.00
    5  -19    6      1.61      0.00
    6  -19    6      0.35      0.00
    7  -19    6     -0.59      0.00
    8  -19    6     -0.29      0.00
    9  -19    6     -1.08      0.00
   10  -19    6     -0.10      0.00
   11  -19    6      0.47      0.00
   12  -19    6      1.11      0.00
   13  -19    6     -0.54      0.00
   14  -19    6      0.73      0.00
   -7  -18    6      0.73      0.00
    3  -18    6      0.28      0.00
    4  -18    6      0.69      0.00
    5  -18    6     -0.50      0.00
    6  -18    6      0.32      0.00
    7  -18    6      0.43      0.00
    8  -18    6     -1.03      0.00
    9  -18    6      0.61      0.00
   10  -18    6     -0.71      0.00
   11  -18    6      0.09      0.00
   12  -18    6      0.55      0.00
   13  -18    6      0.01      0.00
   14  -18    6     -0.11      0.00
   15  -18    6      0.27      0.00
   -8  -17    6     -0.99      0.00
    3  -17    6     -1.95      0.00
    4  -17    6     -1.64      0.00
    5  -17    6      3.42      0.00
    6  -17    6     -0.73      0.00
    7  -17    6     -0.51      0.00
    8  -17    6      0.18      0.00
    9  -17    6     -0.40      0.00
   10  -17    6     -0.58      0.00
   11  -17    6      1.09      0.00
   12  -17    6      0.12      0.00
   13  -17    6      0.52      0.00
   14  -17    6     -0.13      0.00
   15  -17    6      0.44      0.00
   16  -17    6      0.13      0.00
   -9  -16    6      1.98      0.00
    3  -16    6      1.98      0.00
    4  -16    6     -0.66      0.00
    5  -16    6     -1.89      0.00
    6  -16    6      1.47      0.00
    7  -16    6      0.97      0.00
    8  -16    6     -0.39      0.00
    9  -16    6      0.76      0.00
   10  -16    6     -0.21      0.00
   11  -16    6      0.82      0.00
   12  -16    6      0.09      0.00
   13  -16    6      0.31      0.00
   14  -16    6      0.89      0.00
   15  -16    6      0.04      0.00
   16  -16    6      0.26      0.00
  -10  -15    6      1.59      0.00
    3  -15    6     -2.65      0.00
    4  -15    6      2.47      0.00
    5  -15    6      3.89      0.00
    6  -15    6     -1.30      0.00
    7  -15    6      1.94      0.00
    8  -15    6     -0.43      0.00
    9  -15    6      0.37      0.00
   10  -15    6      1.54      0.00
   11  -15    6      0.90      0.00
   12  -15    6      0.00      0.00
   13  -15    6     -0.09      0.00
   14  -15    6     -0.41      0.00
   15  -15    6      0.33      0.00
   16  -15    6     -1.39      0.00
  -11  -14    6     -0.22      0.00
    3  -14    6      7.68      0.00
    4  -14    6      2.11      0.00
    5  -14    6      0.28      0.00
    6  -14    6     -4.41      0.00
    7  -14    6     -4.69      0.00
    8  -14    6     -0.60      0.00
    9  -14    6      0.15      0.00
   10  -14    6     -0.76      0.00
   11  -14    6      2.20      0.00
   15  -14    6      0.61      0.00
   16  -14    6     -0.57      0.00
   17  -14    6      0.21      0.00
  -12  -13    6     -0.18      0.00
    3  -13    6      0.98      0.00
    4  -13    6     -9.05      0.00
    5  -13    6     -5.30      0.00
    6  -13    6     -0.64      0.00
    7  -13    6     -2.34      0.00
    8  -13    6      0.02      0.00
    9  -13    6      0.33      0.00
   16  -13    6     -0.65      0.00
   17  -13    6     -0.18      0.00
  -13  -12    6     -0.98      0.00
  -12  -12    6     -2.40      0.00
    4  -12    6     -5.38      0.00
    5  -12    6     -5.10      0.00
    6  -12    6      0.17      0.00
    7  -12    6      0.93      0.00
   17  -12    6     -1.33      0.00
  -14  -11    6     -1.75      0.00
  -13  -11    6     -0.55      0.00
    4  -11    6     -1.95      0.00
    5  -11    6      3.82      0.00
    6  -11    6     -2.69      0.00
   17  -11    6      0.17      0.00
  -15  -10    6     -0.72      0.00
  -14  -10    6      0.79      0.00
   17  -10    6     -0.52      0.00
  -15   -9    6     -0.08      0.00
  -14   -9    6      0.51      0.00
   17   -9    6     -0.42      0.00
  -16   -8    6      0.38      0.00
  -15   -8    6     -0.94      0.00
   17   -8    6      0.34      0.00
  -16   -7    6     -0.02      0.00
  -15   -7    6      0.77      0.00
   17   -7    6      0.25      0.00
  -17   -6    6      0.23      0.00
  -16   -6    6      0.49      0.00
   17   -6    6     -0.34      0.00
  -17   -5    6      0.44      0.00
  -16   -5    6      0.21      0.00
   17   -5    6      0.10      0.00
  -18   -4    6      0.54      0.00
  -17   -4    6     -0.59      0.00
  -18   -3    6     -0.57      0.00
  -17   -3    6     -1.56      0.00
   16   -3    6      0.90      0.00
  -19   -2    6     -1.09      0.00
  -18   -2    6      2.05      0.00
   16   -2    6      0.09      0.00
  -19   -1    6      0.85      0.00
  -18   -1    6      0.53      0.00
   15   -1    6     -0.11      0.00
   16   -1    6     -0.41      0.00
  -19    0    6      0.78      0.00
  -18    0    6     -0.77      0.00
   15    0    6     -0.12      0.00
  -20    1    6     -0.18      0.00
  -19    1    6     -0.89      0.00
   14    1    6      0.88      0.00
   15    1    6      0.79      0.00
  -20    2    6     -0.13      0.00
   14    2    6      0.60      0.00
  -20    3    6     -0.86      0.00
   13    3    6      0.18      0.00
   14    3    6      1.28      0.00
  -20    4    6      0.06      0.00
   12    4    6      1.65      0.00
   13    4    6      0.39      0.00
  -20    5    6      0.11      0.00
   12    5    6      0.77      0.00
   13    5    6      0.41      0.00
  -20    6    6      1.55      0.00
  -11    6    6     -3.46      0.00
   11    6    6      1.24      0.00
   12    6    6      0.19      0.00
  -20    7    6      0.47      0.00
   11    7    6     -0.08      0.00
   12    7    6      0.42      0.00
  -20    8    6     -0.18      0.00
   10    8    6     -1.55      0.00
   11    8    6      0.90      0.00
  -20    9    6      0.11      0.00
    9    9    6      0.36      0.00
   10    9    6     -0.02      0.00
  -20   10    6     -1.10      0.00
    8   10    6      0.54      0.00
    9   10    6      1.90      0.00
  -20   11    6      0.69      0.00
    8   11    6     -1.42      0.00
    9   11    6     -0.12      0.00
  -20   12    6      0.12      0.00
    7   12    6     -1.59      0.00
    8   12    6     -0.23      0.00
  -19   13    6     -1.31      0.00
    6   13    6      1.27      0.00
    7   13    6      0.74      0.00
  -19   14    6     -0.27      0.00
  -18   14    6     -0.74      0.00
    5   14    6      0.07      0.00
    6   14    6     -0.29      0.00
  -18   15    6     -0.15      0.00
  -17   15    6     -1.21      0.00
  -16   15    6      0.45      0.00
    4   15    6     -0.54      0.00
  -18   16    6     -0.45      0.00
  -17   16    6      0.39      0.00
  -16   16    6      0.12      0.00
  -15   16    6      0.07      0.00
  -14   16    6     -0.75      0.00
   -9   16    6      1.27      0.00
    3   16    6      0.34      0.00
  -17   17    6      0.55      0.00
  -16   17    6      0.25      0.00
  -15   17    6     -0.28      0.00
  -14   17    6     -1.12      0.00
  -13   17    6     -0.17      0.00
  -12   17    6     -0.15      0.00
    1   17    6     -0.19      0.00
    2   17    6     -0.26      0.00
  -16   18    6      0.46      0.00
  -15   18    6      0.23      0.00
  -14   18    6     -0.53      0.00
  -13   18    6      0.52      0.00
  -12   18    6      0.51      0.00
  -11   18    6     -0.04      0.00
  -10   18    6      1.18      0.00
   -9   18    6      0.22      0.00
   -1   18    6     -0.96      0.00
    0   18    6      0.36      0.00
  -14   19    6      0.45      0.00
  -13   19    6      0.98      0.00
  -12   19    6      0.81      0.00
  -11   19    6     -0.34      0.00
  -10   19    6     -1.69      0.00
   -9   19    6      0.56      0.00
   -8   19    6      0.06      0.00
   -7   19    6      0.31      0.00
   -6   19    6      0.85      0.00
   -5   19    6      0.25      0.00
   -4   19    6     -0.56      0.00
   -3   19    6      1.03      0.00
   -2   19    6      0.57      0.00
  -12   20    6     -0.45      0.00
  -11   20    6     -0.44      0.00
  -10   20    6      0.15      0.00
   -9   20    6      0.19      0.00
   -8   20    6     -0.65      0.00
   -7   20    6      0.82      0.00
   -6   20    6     -0.26      0.00
   -5   20    6      0.77      0.00
   -3  -21    7     -0.61      0.00
   -2  -21    7      0.37      0.00
   -1  -21    7     -0.58      0.00
    0  -21    7      0.07      0.00
    1  -21    7      0.65      0.00
    2  -21    7      0.55      0.00
    3  -21    7     -0.28      0.00
    4  -21    7     -0.26      0.00
    5  -21    7      1.04      0.00
    6  -21    7     -1.03      0.00
    7  -21    7     -1.55      0.00
    8  -21    7      0.37      0.00
    9  -21    7      0.16      0.00
   10  -21    7      0.18      0.00
   11  -21    7      0.74      0.00
   12  -21    7     -0.12      0.00
   -5  -20    7     -0.05      0.00
   -4  -20    7     -0.55      0.00
    0  -20    7     -0.47      0.00
    1  -20    7     -1.45      0.00
    2  -20    7     -1.17      0.00
    3  -20    7      1.48      0.00
    4  -20    7     -1.02      0.00
    5  -20    7     -0.30      0.00
    6  -20    7      0.75      0.00
    7  -20    7      0.70      0.00
    8  -20    7     -0.45      0.00
    9  -20    7      1.43      0.00
   10  -20    7     -0.54      0.00
   11  -20    7     -0.01      0.00
   12  -20    7     -0.83      0.00
   13  -20    7     -0.44      0.00
   -6  -19    7     -0.30      0.00
    3  -19    7     -1.75      0.00
    4  -19    7      1.60      0.00
    5  -19    7      1.52      0.00
    6  -19    7     -0.76      0.00
    7  -19    7      0.70      0.00
    8  -19    7      0.00      0.00
    9  -19    7     -1.35      0.00
   10  -19    7     -0.10      0.00
   11  -19    7     -0.40      0.00
   12  -19    7     -0.19      0.00
   13  -19    7     -0.79      0.00
   14  -19    7      0.13      0.00
   -7  -18    7     -0.44      0.00
    3  -18    7      0.75      0.00
    4  -18    7     -1.37      0.00
    5  -18    7      0.50      0.00
    6  -18    7     -0.49      0.00
    7  -18    7     -1.29      0.00
    8  -18    7      1.07      0.00
    9  -18    7      0.08      0.00
   10  -18    7     -0.11      0.00
   11  -18    7     -0.43      0.00
   12  -18    7      0.55      0.00
   13  -18    7     -0.43      0.00
   14  -18    7     -0.24      0.00
   15  -18    7      0.00      0.00
   -9  -17    7     -0.60      0.00
   -8  -17    7     -0.23      0.00
    3  -17    7      1.58      0.00
    4  -17    7      0.13      0.00
    5  -17    7     -1.18      0.00
    6  -17    7     -0.43      0.00
    7  -17    7      1.32      0.00
    8  -17    7      0.72      0.00
    9  -17    7      1.13      0.00
   10  -17    7      0.78      0.00
   11  -17    7      0.58      0.00
   12  -17    7     -0.34      0.00
   13  -17    7      0.48      0.00
   14  -17    7      0.29      0.00
   15  -17    7      0.00      0.00
  -10  -16    7      0.10      0.00
    3  -16    7     -2.35      0.00
    4  -16    7     -0.72      0.00
    5  -16    7      1.44      0.00
    6  -16    7     -0.57      0.00
    7  -16    7      0.62      0.00
    8  -16    7     -0.07      0.00
    9  -16    7     -1.29      0.00
   10  -16    7     -0.09      0.00
   11  -16    7     -0.89      0.00
   12  -16    7      0.24      0.00
   13  -16    7      0.49      0.00
   14  -16    7      1.31      0.00
   15  -16    7      0.72      0.00
   16  -16    7     -0.04      0.00
  -11  -15    7     -1.10      0.00
    3  -15    7     -3.07      0.00
    4  -15    7     -3.63      0.00
    5  -15    7      0.31      0.00
    6  -15    7      1.12      0.00
    7  -15    7      2.09      0.00
    8  -15    7      1.41      0.00
    9  -15    7      0.47      0.00
   10  -15    7     -0.80      0.00
   11  -15    7      1.87      0.00
   12  -15    7     -1.31      0.00
   13  -15    7     -0.64      0.00
   14  -15    7     -0.33      0.00
   15  -15    7     -0.35      0.00
   16  -15    7      0.29      0.00
  -12  -14    7     -1.33      0.00
  -11  -14    7     -0.74      0.00
    3  -14    7      1.30      0.00
    4  -14    7     -0.39      0.00
    5  -14    7      2.08      0.00
    6  -14    7      1.40      0.00
    7  -14    7      3.63      0.00
    8  -14    7      0.89      0.00
    9  -14    7     -0.32      0.00
   10  -14    7     -1.89      0.00
   14  -14    7     -0.64      0.00
   15  -14    7      1.43      0.00
   16  -14    7     -0.61      0.00
  -13  -13    7      0.20      0.00
  -12  -13    7      1.48      0.00
   -8  -13    7     -0.82      0.00
    4  -13    7      2.58      0.00
    5  -13    7     10.53      0.00
    6  -13    7      0.81      0.00
    7  -13    7     -3.67      0.00
    8  -13    7     -0.50      0.00
   16  -13    7     -0.73      0.00
  -13  -12    7      1.80      0.00
    4  -12    7     -5.29      0.00
    5  -12    7     -3.37      0.00
    6  -12    7     -0.40      0.00
   17  -12    7     -0.62      0.00
  -14  -11    7     -0.84      0.00
  -13  -11    7      1.16      0.00
   17  -11    7     -0.60      0.00
  -15  -10    7      0.06      0.00
  -14  -10    7     -0.88      0.00
   17  -10    7     -0.40      0.00
  -15   -9    7     -0.63      0.00
  -14   -9    7      1.96      0.00
    6   -9    7     -7.46      0.00
   17   -9    7     -0.01      0.00
  -16   -8    7      0.82      0.00
  -15   -8    7     -0.26      0.00
   17   -8    7     -0.98      0.00
  -17   -7    7     -0.20      0.00
  -16   -7    7     -0.69      0.00
   17   -7    7     -0.51      0.00
  -17   -6    7      0.55      0.00
  -16   -6    7     -0.29      0.00
  -18   -5    7     -0.49      0.00
  -17   -5    7     -0.51      0.00
   16   -5    7      1.26      0.00
  -18   -4    7     -0.34      0.00
  -17   -4    7      1.73      0.00
   16   -4    7     -0.68      0.00
  -18   -3    7      0.98      0.00
   16   -3    7      0.76      0.00
  -19   -2    7     -1.09      0.00
  -18   -2    7     -0.11      0.00
   15   -2    7     -0.09      0.00
  -19   -1    7      0.39      0.00
   15   -1    7      0.56      0.00
  -19    0    7     -0.70      0.00
   14    0    7     -0.53      0.00
   15    0    7      0.03      0.00
  -20    1    7     -0.13      0.00
  -19    1    7     -0.42      0.00
   14    1    7     -0.32      0.00
  -20    2    7     -0.19      0.00
   13    2    7     -1.00      0.00
   14    2    7     -0.24      0.00
  -20    3    7      0.55      0.00
   13    3    7      0.41      0.00
  -20    4    7     -1.00      0.00
   12    4    7     -1.28      0.00
   13    4    7     -0.17      0.00
  -20    5    7      0.25      0.00
   11    5    7     -2.10      0.00
   12    5    7      0.59      0.00
  -20    6    7      0.03      0.00
   11    6    7     -0.49      0.00
   12    6    7      1.20      0.00
  -20    7    7      1.02      0.00
   10    7    7      0.70      0.00
   11    7    7      0.98      0.00
  -20    8    7     -0.07      0.00
    9    8    7      1.59      0.00
   10    8    7     -0.17      0.00
  -20    9    7     -0.13      0.00
    9    9    7      0.04      0.00
   10    9    7     -0.35      0.00
  -20   10    7      0.52      0.00
    8   10    7      0.47      0.00
    9   10    7      1.05      0.00
  -20   11    7     -0.93      0.00
    7   11    7      1.92      0.00
    8   11    7      0.15      0.00
  -20   12    7      0.32      0.00
  -19   12    7     -1.24      0.00
    6   12    7     -0.79      0.00
    7   12    7      0.99      0.00
  -19   13    7     -0.08      0.00
    5   13    7      0.52      0.00
    6   13    7      1.08      0.00
  -19   14    7     -0.55      0.00
  -18   14    7      0.66      0.00
    5   14    7     -1.16      0.00
  -18   15    7     -0.02      0.00
  -17   15    7      0.85      0.00
  -16   15    7      1.49      0.00
    3   15    7     -0.20      0.00
    4   15    7     -0.30      0.00
  -17   16    7      0.18      0.00
  -16   16    7     -0.79      0.00
  -15   16    7      0.36      0.00
  -14   16    7      0.95      0.00
    2   16    7     -0.36      0.00
  -17   17    7     -0.20      0.00
  -16   17    7     -0.15      0.00
  -15   17    7     -0.03      0.00
  -14   17    7      0.56      0.00
  -13   17    7      0.30      0.00
  -12   17    7      1.14      0.00
    0   17    7     -1.28      0.00
    1   17    7      0.35      0.00
  -15   18    7      0.00      0.00
  -14   18    7     -0.79      0.00
  -13   18    7     -0.35      0.00
  -12   18    7     -0.40      0.00
  -11   18    7      1.35      0.00
  -10   18    7     -0.57      0.00
   -9   18    7      1.29      0.00
   -2   18    7      0.34      0.00
   -1   18    7     -0.11      0.00
  -14   19    7      0.90      0.00
  -13   19    7     -0.16      0.00
  -12   19    7      1.06      0.00
  -11   19    7     -1.26      0.00
  -10   19    7     -0.41      0.00
   -9   19    7     -0.58      0.00
   -8   19    7      1.51      0.00
   -7   19    7     -1.41      0.00
   -6   19    7      0.15      0.00
   -5   19    7     -0.84      0.00
   -4   19    7      1.09      0.00
  -10   20    7     -0.04      0.00
   -9   20    7      0.02      0.00
   -8   20    7     -0.44      0.00
   -3  -21    8     -0.08      0.00
   -2  -21    8     -0.56      0.00
   -1  -21    8     -0.02      0.00
    0  -21    8      0.65      0.00
    1  -21    8      0.07      0.00
    2  -21    8      0.38      0.00
    3  -21    8      0.65      0.00
    4  -21    8     -0.84      0.00
    5  -21    8      0.57      0.00
    6  -21    8     -0.14      0.00
    7  -21    8      0.71      0.00
    8  -21    8     -0.17      0.00
    9  -21    8     -0.89      0.00
   10  -21    8     -0.14      0.00
   11  -21    8      0.25      0.00
   -5  -20    8     -0.10      0.00
   -4  -20    8      0.72      0.00
   -1  -20    8     -1.42      0.00
    0  -20    8     -0.37      0.00
    1  -20    8      0.09      0.00
    2  -20    8      0.36      0.00
    3  -20    8     -0.47      0.00
    4  -20    8      0.04      0.00
    5  -20    8      1.20      0.00
    6  -20    8      0.20      0.00
    7  -20    8     -0.59      0.00
    8  -20    8      0.20      0.00
    9  -20    8     -0.20      0.00
   10  -20    8     -0.91      0.00
   11  -20    8      0.49      0.00
   12  -20    8      0.09      0.00
   13  -20    8      0.24      0.00
   -6  -19    8      0.86      0.00
    3  -19    8      1.09      0.00
    4  -19    8      0.93      0.00
    5  -19    8      0.07      0.00
    6  -19    8      0.35      0.00
    7  -19    8     -0.36      0.00
    8  -19    8     -0.47      0.00
    9  -19    8      0.10      0.00
   10  -19    8      0.51      0.00
   11  -19    8     -0.10      0.00
   12  -19    8      0.11      0.00
   13  -19    8      0.31      0.00
   -8  -18    8      1.14      0.00
   -7  -18    8     -0.13      0.00
    3  -18    8      0.58      0.00
    4  -18    8      1.03      0.00
    5  -18    8     -0.62      0.00
    6  -18    8      0.69      0.00
    7  -18    8      0.33      0.00
    8  -18    8     -0.21      0.00
    9  -18    8     -0.64      0.00
   10  -18    8      0.68      0.00
   11  -18    8      0.01      0.00
   12  -18    8      0.15      0.00
   13  -18    8     -0.46      0.00
   14  -18    8      0.44      0.00
   -9  -17    8      0.40      0.00
    3  -17    8     -2.86      0.00
    4  -17    8     -0.04      0.00
    5  -17    8      1.48      0.00
    6  -17    8     -1.43      0.00
    7  -17    8      1.39      0.00
    8  -17    8      0.78      0.00
    9  -17    8      0.53      0.00
   10  -17    8      1.36      0.00
   11  -17    8      0.45      0.00
   12  -17    8      0.51      0.00
   13  -17    8     -1.12      0.00
   14  -17    8      0.00      0.00
   15  -17    8      0.35      0.00
  -10  -16    8      1.25      0.00
   -6  -16    8     -1.35      0.00
    3  -16    8      4.52      0.00
    4  -16    8     -2.36      0.00
    5  -16    8      2.25      0.00
    6  -16    8     -0.80      0.00
    7  -16    8     -0.11      0.00
    8  -16    8      1.08      0.00
    9  -16    8     -0.40      0.00
   10  -16    8     -0.67      0.00
   11  -16    8      0.54      0.00
   12  -16    8      0.48      0.00
   13  -16    8      1.39      0.00
   14  -16    8      0.12      0.00
   15  -16    8      0.12      0.00
  -11  -15    8     -0.42      0.00
    3  -15    8     -0.69      0.00
    4  -15    8      2.74      0.00
    5  -15    8     -1.50      0.00
    6  -15    8      0.19      0.00
    7  -15    8     -1.26      0.00
    8  -15    8      1.11      0.00
    9  -15    8     -0.12      0.00
   10  -15    8      2.71      0.00
   11  -15    8      0.22      0.00
   12  -15    8     -0.38      0.00
   13  -15    8      0.54      0.00
   14  -15    8     -0.21      0.00
   15  -15    8     -0.18      0.00
   16  -15    8     -0.69      0.00
  -12  -14    8      0.73      0.00
    4  -14    8     -5.40      0.00
    5  -14    8     -4.89      0.00
    6  -14    8     -5.09      0.00
    7  -14    8      0.72      0.00
    8  -14    8      2.39      0.00
    9  -14    8      0.06      0.00
   14  -14    8     -0.33      0.00
   15  -14    8      0.63      0.00
   16  -14    8      0.63      0.00
  -13  -13    8     -0.55      0.00
  -12  -13    8     -1.04      0.00
    4  -13    8     -7.98      0.00
    5  -13    8      2.90      0.00
    6  -13    8     -0.93      0.00
    7  -13    8      1.25      0.00
   15  -13    8     -0.82      0.00
   16  -13    8      0.18      0.00
  -14  -12    8     -1.22      0.00
  -13  -12    8     -0.99      0.00
   16  -12    8     -0.09      0.00
  -14  -11    8     -1.01      0.00
  -13  -11    8      0.44      0.00
   16  -11    8      0.53      0.00
  -15  -10    8      0.72      0.00
  -14  -10    8     -1.77      0.00
   16  -10    8     -0.58      0.00
  -16   -9    8     -0.04      0.00
  -15   -9    8      0.49      0.00
    4   -9    8      4.07      0.00
   16   -9    8      0.89      0.00
  -16   -8    8      0.20      0.00
  -15   -8    8     -0.64      0.00
   16   -8    8      0.84      0.00
  -17   -7    8      0.09      0.00
  -16   -7    8      1.76      0.00
   16   -7    8      1.35      0.00
  -17   -6    8      0.74      0.00
  -16   -6    8     -0.37      0.00
   16   -6    8      0.25      0.00
  -18   -5    8     -0.85      0.00
  -17   -5    8      0.75      0.00
   16   -5    8      0.00      0.00
  -18   -4    8      0.25      0.00
  -17   -4    8      0.77      0.00
  -19   -3    8     -0.46      0.00
  -18   -3    8     -0.59      0.00
   15   -3    8      1.32      0.00
  -19   -2    8     -0.35      0.00
  -18   -2    8      0.36      0.00
   15   -2    8     -0.98      0.00
  -19   -1    8     -0.35      0.00
    0   -1    8      3.03      0.00
   14   -1    8      1.12      0.00
   15   -1    8      0.21      0.00
  -20    0    8      0.35      0.00
  -19    0    8      0.61      0.00
   14    0    8      0.78      0.00
  -20    1    8     -0.38      0.00
  -19    1    8     -0.14      0.00
   13    1    8      2.11      0.00
   14    1    8      0.45      0.00
  -20    2    8     -0.11      0.00
   12    2    8     -1.07      0.00
   13    2    8     -0.51      0.00
  -20    3    8     -0.19      0.00
   12    3    8     -0.03      0.00
   13    3    8      1.49      0.00
  -20    4    8     -1.04      0.00
   11    4    8      1.82      0.00
   12    4    8      0.59      0.00
  -20    5    8     -0.02      0.00
   11    5    8      0.64      0.00
   12    5    8      0.36      0.00
   10    6    8      0.70      0.00
   11    6    8     -0.19      0.00
  -20    7    8      0.92      0.00
    9    7    8     -1.73      0.00
   10    7    8      0.72      0.00
  -20    8    8     -0.50      0.00
    9    8    8      0.05      0.00
   10    8    8     -0.29      0.00
  -20    9    8      0.16      0.00
    8    9    8      0.34      0.00
    9    9    8      0.46      0.00
  -20   10    8     -0.37      0.00
    7   10    8     -0.59      0.00
    8   10    8      0.29      0.00
  -20   11    8      1.37      0.00
    6   11    8     -1.80      0.00
    7   11    8     -0.46      0.00
  -19   12    8     -0.12      0.00
    5   12    8     -0.53      0.00
    6   12    8     -2.04      0.00
  -19   13    8     -1.26      0.00
    5   13    8      0.08      0.00
  -19   14    8     -0.25      0.00
  -18   14    8      0.75      0.00
    4   14    8     -0.46      0.00
  -18   15    8     -0.21      0.00
  -17   15    8      0.19      0.00
  -16   15    8      0.01      0.00
    2   15    8     -0.08      0.00
    3   15    8      0.28      0.00
  -17   16    8      0.53      0.00
  -16   16    8     -0.06      0.00
  -15   16    8      0.58      0.00
  -14   16    8     -2.14      0.00
    1   16    8      0.17      0.00
  -16   17    8     -1.10      0.00
  -15   17    8      0.16      0.00
  -14   17    8     -0.19      0.00
  -13   17    8     -0.38      0.00
  -12   17    8      0.82      0.00
  -11   17    8      0.74      0.00
   -1   17    8     -0.86      0.00
    0   17    8     -1.22      0.00
  -15   18    8      0.29      0.00
  -14   18    8      0.44      0.00
  -13   18    8      0.00      0.00
  -12   18    8      1.84      0.00
  -11   18    8      1.52      0.00
  -10   18    8      0.08      0.00
   -4   18    8     -0.70      0.00
   -3   18    8     -0.77      0.00
   -2   18    8     -0.02      0.00
  -13   19    8     -0.11      0.00
  -12   19    8      0.14      0.00
  -11   19    8     -0.38      0.00
  -10   19    8     -0.43      0.00
   -9   19    8      0.37      0.00
   -8   19    8     -0.02      0.00
   -7   19    8     -0.22      0.00
   -6   19    8      0.26      0.00
   -5   19    8     -0.11      0.00
   -3  -21    9     -0.12      0.00
   -2  -21    9      0.52      0.00
   -1  -21    9      0.08      0.00
    0  -21    9      0.80      0.00
    1  -21    9     -0.17      0.00
    2  -21    9      0.10      0.00
    3  -21    9     -0.41      0.00
    4  -21    9      0.07      0.00
    5  -21    9      0.41      0.00
    6  -21    9     -0.72      0.00
    7  -21    9     -0.02      0.00
    8  -21    9      1.04      0.00
    9  -21    9     -0.30      0.00
   10  -21    9      0.72      0.00
   11  -21    9     -0.33      0.00
   -5  -20    9     -0.73      0.00
   -4  -20    9      0.82      0.00
   -1  -20    9     -0.64      0.00
    0  -20    9     -1.51      0.00
    1  -20    9     -1.44      0.00
    2  -20    9     -0.93      0.00
    3  -20    9      0.07      0.00
    4  -20    9     -0.98      0.00
    5  -20    9      0.55      0.00
    6  -20    9      1.66      0.00
    7  -20    9     -0.29      0.00
    8  -20    9      0.51      0.00
    9  -20    9      0.06      0.00
   10  -20    9     -0.44      0.00
   11  -20    9     -0.08      0.00
   12  -20    9     -0.67      0.00
   -6  -19    9     -0.13      0.00
    2  -19    9     -0.74      0.00
    3  -19    9      0.67      0.00
    4  -19    9      1.86      0.00
    5  -19    9     -0.21      0.00
    6  -19    9      0.06      0.00
    7  -19    9     -0.43      0.00
    8  -19    9     -0.82      0.00
    9  -19    9      0.07      0.00
   10  -19    9      0.09      0.00
   11  -19    9      0.42      0.00
   12  -19    9     -0.54      0.00
   13  -19    9      0.10      0.00
   -8  -18    9     -1.05      0.00
   -7  -18    9      0.13      0.00
    3  -18    9     -1.73      0.00
    4  -18    9      0.45      0.00
    5  -18    9     -1.86      0.00
    6  -18    9      0.69      0.00
    7  -18    9     -0.43      0.00
    8  -18    9      1.40      0.00
    9  -18    9     -0.43      0.00
   10  -18    9      0.15      0.00
   11  -18    9     -0.30      0.00
   12  -18    9      0.51      0.00
   13  -18    9     -0.27      0.00
   14  -18    9      0.39      0.00
   -9  -17    9     -0.53      0.00
    3  -17    9     -0.58      0.00
    4  -17    9     -1.10      0.00
    5  -17    9     -1.16      0.00
    6  -17    9     -0.14      0.00
    7  -17    9      2.21      0.00
    8  -17    9      0.43      0.00
    9  -17    9      1.06      0.00
   10  -17    9      0.48      0.00
   11  -17    9      0.62      0.00
   12  -17    9     -0.37      0.00
   13  -17    9     -0.38      0.00
   14  -17    9      0.65      0.00
  -10  -16    9     -1.02      0.00
    3  -16    9     -0.65      0.00
    4  -16    9     -0.45      0.00
    5  -16    9      0.12      0.00
    6  -16    9     -2.72      0.00
    7  -16    9      1.38      0.00
    8  -16    9      0.47      0.00
    9  -16    9     -0.40      0.00
   10  -16    9      0.33      0.00
   11  -16    9      0.27      0.00
   12  -16    9      1.17      0.00
   13  -16    9     -0.16      0.00
   14  -16    9     -0.09      0.00
   15  -16    9      0.94      0.00
  -11  -15    9     -1.91      0.00
    4  -15    9     -2.65      0.00
    5  -15    9      5.91      0.00
    6  -15    9      0.55      0.00
    7  -15    9      0.72      0.00
    8  -15    9      2.52      0.00
    9  -15    9     -0.24      0.00
   10  -15    9      1.01      0.00
   11  -15    9     -1.40      0.00
   12  -15    9     -0.84      0.00
   13  -15    9      1.17      0.00
   14  -15    9     -0.32      0.00
   15  -15    9     -0.24      0.00
  -12  -14    9      0.77      0.00
    4  -14    9      1.50      0.00
    5  -14    9     -1.46      0.00
    6  -14    9      4.65      0.00
    7  -14    9      1.15      0.00
    8  -14    9     -1.08      0.00
   13  -14    9      0.51      0.00
   14  -14    9      0.42      0.00
   15  -14    9      0.55      0.00
  -13  -13    9      0.28      0.00
  -12  -13    9      1.43      0.00
   15  -13    9     -1.17      0.00
  -14  -12    9      1.59      0.00
  -13  -12    9     -0.82      0.00
   16  -12    9      0.14      0.00
  -14  -11    9     -0.67      0.00
   16  -11    9     -0.02      0.00
  -15  -10    9      0.28      0.00
  -14  -10    9     -1.90      0.00
   16  -10    9     -0.11      0.00
  -16   -9    9     -0.32      0.00
  -15   -9    9      1.35      0.00
   16   -9    9     -0.15      0.00
  -16   -8    9     -0.16      0.00
  -15   -8    9      0.24      0.00
   16   -8    9     -0.07      0.00
  -17   -7    9     -0.22      0.00
  -16   -7    9     -0.03      0.00
   16   -7    9     -0.42      0.00
  -17   -6    9      0.09      0.00
  -16   -6    9      0.62      0.00
  -18   -5    9     -0.16      0.00
  -17   -5    9      0.04      0.00
   15   -5    9     -0.43      0.00
  -18   -4    9     -0.44      0.00
  -17   -4    9      1.24      0.00
   15   -4    9      0.45      0.00
  -19   -3    9     -0.31      0.00
  -18   -3    9     -0.59      0.00
   15   -3    9      1.50      0.00
  -19   -2    9     -0.36      0.00
  -18   -2    9      1.00      0.00
   14   -2    9      0.53      0.00
  -19   -1    9      0.26      0.00
   14   -1    9      1.08      0.00
  -20    0    9     -0.21      0.00
  -19    0    9      0.55      0.00
   13    0    9     -1.81      0.00
   14    0    9     -0.13      0.00
  -20    1    9      0.24      0.00
  -19    1    9      0.20      0.00
   12    1    9      0.48      0.00
   13    1    9     -0.48      0.00
  -20    2    9      0.61      0.00
   12    2    9     -1.96      0.00
   13    2    9      0.30      0.00
  -20    3    9      0.47      0.00
   11    3    9     -0.01      0.00
   12    3    9     -0.18      0.00
  -20    4    9     -1.70      0.00
   11    4    9     -1.04      0.00
   12    4    9     -0.74      0.00
  -20    5    9     -0.11      0.00
   10    5    9     -0.42      0.00
   11    5    9      1.00      0.00
  -20    6    9     -0.99      0.00
    9    6    9      1.14      0.00
   10    6    9      0.79      0.00
  -20    7    9      1.18      0.00
    9    7    9      0.31      0.00
   10    7    9      0.59      0.00
  -20    8    9      0.48      0.00
    8    8    9     -0.22      0.00
    9    8    9     -0.09      0.00
  -20    9    9      0.01      0.00
   -2    9    9     -9.03      0.00
    7    9    9      1.86      0.00
    8    9    9     -0.83      0.00
  -20   10    9      0.24      0.00
    6   10    9     -0.41      0.00
    7   10    9      0.35      0.00
  -20   11    9      0.15      0.00
    5   11    9     -0.45      0.00
    6   11    9      1.11      0.00
  -19   12    9     -0.23      0.00
    5   12    9     -0.61      0.00
  -19   13    9     -0.35      0.00
    4   13    9     -1.02      0.00
  -18   14    9      1.62      0.00
    3   14    9      0.84      0.00
  -18   15    9      0.47      0.00
  -17   15    9      0.91      0.00
  -16   15    9      0.28      0.00
    1   15    9     -0.55      0.00
    2   15    9      0.15      0.00
  -17   16    9      0.78      0.00
  -16   16    9     -0.52      0.00
  -15   16    9      1.94      0.00
   -1   16    9     -0.77      0.00
    0   16    9     -0.17      0.00
  -16   17    9     -0.31      0.00
  -15   17    9      1.25      0.00
  -14   17    9     -0.96      0.00
  -13   17    9     -1.04      0.00
  -12   17    9     -0.77      0.00
   -3   17    9     -0.54      0.00
   -2   17    9      0.13      0.00
  -14   18    9     -0.94      0.00
  -13   18    9     -0.21      0.00
  -12   18    9      0.12      0.00
  -11   18    9      1.69      0.00
  -10   18    9     -1.04      0.00
   -9   18    9     -0.36      0.00
   -8   18    9     -1.23      0.00
   -7   18    9      1.75      0.00
   -6   18    9     -2.08      0.00
   -5   18    9      0.94      0.00
   -4   18    9     -1.11      0.00
  -11   19    9      0.27      0.00
  -10   19    9     -0.19      0.00
   -9   19    9      0.81      0.00
   -8   19    9     -0.70      0.00
   -3  -21   10      0.00      0.00
   -2  -21   10      0.09      0.00
   -1  -21   10      1.22      0.00
    0  -21   10      0.07      0.00
    1  -21   10      0.45      0.00
    2  -21   10     -0.18      0.00
    3  -21   10      0.78      0.00
    4  -21   10     -0.70      0.00
    5  -21   10      0.05      0.00
    6  -21   10      1.00      0.00
    7  -21   10     -0.04      0.00
    8  -21   10     -0.61      0.00
    9  -21   10     -0.45      0.00
   10  -21   10      0.36      0.00
   -5  -20   10      0.54      0.00
   -4  -20   10     -0.50      0.00
   -1  -20   10     -0.58      0.00
    0  -20   10     -0.15      0.00
    1  -20   10     -0.28      0.00
    2  -20   10     -1.52      0.00
    3  -20   10     -0.70      0.00
    4  -20   10     -0.24      0.00
    5  -20   10      0.84      0.00
    6  -20   10     -1.03      0.00
    7  -20   10      0.41      0.00
    8  -20   10      0.24      0.00
    9  -20   10     -0.83      0.00
   10  -20   10      0.31      0.00
   11  -20   10      0.04      0.00
   12  -20   10     -0.50      0.00
   -7  -19   10      1.03      0.00
   -6  -19   10     -0.55      0.00
    1  -19   10     -0.79      0.00
    2  -19   10      1.58      0.00
    3  -19   10     -0.20      0.00
    4  -19   10     -0.22      0.00
    5  -19   10     -0.60      0.00
    6  -19   10      0.37      0.00
    7  -19   10     -1.15      0.00
    8  -19   10      1.13      0.00
    9  -19   10     -0.36      0.00
   10  -19   10     -0.13      0.00
   11  -19   10      0.42      0.00
   12  -19   10      0.17      0.00
   -8  -18   10      0.78      0.00
    3  -18   10     -0.73      0.00
    4  -18   10      2.85      0.00
    5  -18   10     -1.48      0.00
    6  -18   10      0.94      0.00
    7  -18   10     -0.69      0.00
    8  -18   10      0.15      0.00
    9  -18   10      0.41      0.00
   10  -18   10      0.73      0.00
   11  -18   10     -0.20      0.00
   12  -18   10     -0.21      0.00
   13  -18   10     -0.02      0.00
   -9  -17   10      0.71      0.00
    3  -17   10     -2.60      0.00
    4  -17   10      3.28      0.00
    5  -17   10     -0.91      0.00
    6  -17   10      1.70      0.00
    7  -17   10      0.17      0.00
    8  -17   10      0.93      0.00
    9  -17   10      0.52      0.00
   10  -17   10      0.77      0.00
   11  -17   10     -0.10      0.00
   12  -17   10     -0.32      0.00
   13  -17   10     -0.19      0.00
   14  -17   10      0.92      0.00
  -10  -16   10     -0.50      0.00
    3  -16   10      3.92      0.00
    4  -16   10     -2.39      0.00
    5  -16   10      1.03      0.00
    6  -16   10     -4.34      0.00
    7  -16   10      2.50      0.00
    8  -16   10     -1.35      0.00
    9  -16   10      0.92      0.00
   10  -16   10     -0.31      0.00
   11  -16   10      2.07      0.00
   12  -16   10      0.82      0.00
   13  -16   10     -0.11      0.00
   14  -16   10     -0.11      0.00
  -11  -15   10      0.22      0.00
    4  -15   10     -2.68      0.00
    5  -15   10     -1.11      0.00
    6  -15   10     -3.19      0.00
    7  -15   10      0.60      0.00
    8  -15   10      1.90      0.00
    9  -15   10      1.80      0.00
   12  -15   10      0.52      0.00
   13  -15   10     -0.26      0.00
   14  -15   10     -0.93      0.00
   15  -15   10     -0.38      0.00
  -12  -14   10     -0.23      0.00
   13  -14   10      1.85      0.00
   14  -14   10      0.85      0.00
   15  -14   10      0.03      0.00
  -13  -13   10     -1.74      0.00
   15  -13   10     -0.39      0.00
  -14  -12   10     -0.71      0.00
  -13  -12   10     -0.48      0.00
   15  -12   10     -0.88      0.00
  -15  -11   10     -0.38      0.00
  -14  -11   10      0.56      0.00
   15  -11   10     -0.39      0.00
  -15  -10   10     -0.26      0.00
  -14  -10   10     -0.93      0.00
   15  -10   10      0.46      0.00
  -16   -9   10     -0.18      0.00
  -15   -9   10      1.45      0.00
   15   -9   10      0.55      0.00
  -16   -8   10     -0.09      0.00
  -15   -8   10      1.15      0.00
   15   -8   10      1.19      0.00
  -17   -7   10      0.92      0.00
  -16   -7   10      1.07      0.00
   15   -7   10      0.47      0.00
  -18   -6   10      0.00      0.00
  -17   -6   10     -0.50      0.00
  -16   -6   10     -0.48      0.00
   15   -6   10      0.17      0.00
  -18   -5   10     -0.43      0.00
  -17   -5   10     -0.68      0.00
   15   -5   10     -0.02      0.00
  -18   -4   10      0.28      0.00
  -17   -4   10      0.07      0.00
    7   -4   10     -1.60      0.00
  -19   -3   10     -0.34      0.00
  -18   -3   10     -0.59      0.00
   14   -3   10      0.05      0.00
  -19   -2   10     -0.95      0.00
  -18   -2   10     -0.80      0.00
   14   -2   10     -1.71      0.00
  -19   -1   10      0.16      0.00
   13   -1   10      0.75      0.00
  -20    0   10      1.50      0.00
  -19    0   10      0.47      0.00
   12    0   10      1.71      0.00
   13    0   10      0.28      0.00
  -20    1   10      0.37      0.00
  -19    1   10     -0.39      0.00
   12    1   10      0.68      0.00
   13    1   10      0.38      0.00
  -20    2   10     -1.26      0.00
   11    2   10     -0.27      0.00
   12    2   10     -0.95      0.00
  -20    3   10      1.23      0.00
   11    3   10      0.32      0.00
   12    3   10      0.28      0.00
  -20    4   10      0.22      0.00
   10    4   10      1.53      0.00
   11    4   10     -0.06      0.00
  -20    5   10     -0.07      0.00
    9    5   10      0.54      0.00
   10    5   10      0.87      0.00
  -20    6   10     -0.92      0.00
    8    6   10     -1.47      0.00
    9    6   10     -0.31      0.00
   10    6   10      0.40      0.00
  -20    7   10     -0.90      0.00
    8    7   10     -0.43      0.00
    9    7   10     -0.69      0.00
  -20    8   10     -0.68      0.00
    7    8   10      0.41      0.00
    8    8   10     -1.22      0.00
  -20    9   10      0.15      0.00
    6    9   10     -0.90      0.00
    7    9   10      1.25      0.00
  -20   10   10      0.34      0.00
    5   10   10      1.80      0.00
    6   10   10     -2.10      0.00
    7   10   10      0.66      0.00
  -20   11   10      0.49      0.00
  -19   11   10     -1.62      0.00
    5   11   10      0.13      0.00
    6   11   10     -0.60      0.00
  -19   12   10     -0.09      0.00
    4   12   10      0.35      0.00
    5   12   10     -0.79      0.00
  -19   13   10     -0.18      0.00
  -18   13   10     -0.79      0.00
    3   13   10      0.13      0.00
  -18   14   10     -0.69      0.00
    2   14   10      0.09      0.00
  -17   15   10      1.06      0.00
  -16   15   10      0.21      0.00
    0   15   10     -0.12      0.00
    1   15   10     -0.50      0.00
  -16   16   10     -0.85      0.00
  -15   16   10     -0.40      0.00
  -14   16   10     -1.00      0.00
   -2   16   10      0.89      0.00
   -1   16   10     -0.10      0.00
  -15   17   10      1.31      0.00
  -14   17   10     -0.27      0.00
  -13   17   10      1.02      0.00
  -12   17   10     -0.95      0.00
   -5   17   10      1.91      0.00
   -4   17   10      0.01      0.00
   -3   17   10     -0.53      0.00
  -13   18   10      1.06      0.00
  -12   18   10      0.07      0.00
  -11   18   10      1.26      0.00
  -10   18   10     -1.10      0.00
   -9   18   10     -0.14      0.00
   -8   18   10     -0.43      0.00
   -7   18   10      1.16      0.00
   -6   18   10     -1.07      0.00
   -3  -21   11      1.48      0.00
   -2  -21   11     -0.21      0.00
   -1  -21   11      0.13      0.00
    0  -21   11     -0.44      0.00
    1  -21   11      0.27      0.00
    2  -21   11      0.60      0.00
    3  -21   11     -0.79      0.00
    4  -21   11     -0.14      0.00
    5  -21   11      0.50      0.00
    6  -21   11     -0.42      0.00
    7  -21   11      0.82      0.00
    8  -21   11      0.19      0.00
    9  -21   11     -0.01      0.00
   10  -21   11     -0.02      0.00
   -5  -20   11      0.08      0.00
   -4  -20   11     -0.98      0.00
   -1  -20   11      0.50      0.00
    0  -20   11     -1.33      0.00
    1  -20   11     -1.46      0.00
    2  -20   11     -0.59      0.00
    3  -20   11      0.35      0.00
    4  -20   11     -0.37      0.00
    5  -20   11      0.26      0.00
    6  -20   11      0.79      0.00
    7  -20   11     -0.47      0.00
    8  -20   11      0.64      0.00
    9  -20   11     -0.26      0.00
   10  -20   11      0.83      0.00
   11  -20   11     -0.67      0.00
   -7  -19   11     -0.50      0.00
   -6  -19   11      0.28      0.00
    2  -19   11     -0.44      0.00
    3  -19   11     -0.72      0.00
    4  -19   11      1.26      0.00
    5  -19   11     -0.85      0.00
    6  -19   11     -1.41      0.00
    7  -19   11      0.83      0.00
    8  -19   11     -0.03      0.00
    9  -19   11     -0.04      0.00
   10  -19   11      0.31      0.00
   11  -19   11      0.22      0.00
   12  -19   11     -0.03      0.00
   -8  -18   11     -0.65      0.00
    3  -18   11     -0.81      0.00
    4  -18   11     -2.19      0.00
    5  -18   11      0.01      0.00
    6  -18   11     -0.11      0.00
    7  -18   11     -0.32      0.00
    8  -18   11     -0.07      0.00
    9  -18   11     -0.42      0.00
   10  -18   11     -0.12      0.00
   11  -18   11      0.55      0.00
   12  -18   11      0.41      0.00
   13  -18   11      0.02      0.00
   -9  -17   11     -0.08      0.00
    4  -17   11      0.76      0.00
    5  -17   11     -0.93      0.00
    6  -17   11      0.36      0.00
    7  -17   11     -0.82      0.00
    8  -17   11      1.14      0.00
    9  -17   11      0.87      0.00
   10  -17   11      0.92      0.00
   11  -17   11     -0.86      0.00
   12  -17   11      0.05      0.00
   13  -17   11      0.54      0.00
  -10  -16   11     -0.53      0.00
    5  -16   11     -2.33      0.00
    6  -16   11      1.66      0.00
    7  -16   11      0.90      0.00
    8  -16   11      0.30      0.00
    9  -16   11      0.31      0.00
   10  -16   11      0.60      0.00
   11  -16   11      0.76      0.00
   12  -16   11     -0.15      0.00
   13  -16   11     -0.21      0.00
   14  -16   11      1.13      0.00
  -11  -15   11      0.66      0.00
   11  -15   11      1.15      0.00
   12  -15   11     -0.71      0.00
   13  -15   11      0.88      0.00
   14  -15   11     -0.11      0.00
  -12  -14   11      0.70      0.00
   12  -14   11      0.34      0.00
   13  -14   11     -0.07      0.00
   14  -14   11      0.48      0.00
  -13  -13   11      1.02      0.00
   -8  -13   11     -0.60      0.00
   14  -13   11      0.22      0.00
  -14  -12   11      0.90      0.00
  -13  -12   11     -0.07      0.00
   15  -12   11      0.07      0.00
  -15  -11   11      0.02      0.00
  -14  -11   11      0.48      0.00
   15  -11   11      0.12      0.00
  -15  -10   11      0.06      0.00
  -14  -10   11     -0.19      0.00
   15  -10   11     -0.67      0.00
  -16   -9   11      0.30      0.00
  -15   -9   11     -0.18      0.00
   15   -9   11      0.13      0.00
  -17   -8   11     -0.49      0.00
  -16   -8   11     -0.13      0.00
  -15   -8   11      1.87      0.00
   15   -8   11     -0.94      0.00
  -17   -7   11      0.74      0.00
  -16   -7   11     -0.54      0.00
   14   -7   11      0.03      0.00
  -18   -6   11     -0.03      0.00
  -17   -6   11     -0.31      0.00
  -16   -6   11      0.82      0.00
   14   -6   11     -1.08      0.00
  -18   -5   11     -0.34      0.00
  -17   -5   11      0.06      0.00
   14   -5   11     -0.53      0.00
  -18   -4   11      0.55      0.00
  -17   -4   11      0.27      0.00
   14   -4   11      0.79      0.00
  -19   -3   11     -0.11      0.00
  -18   -3   11      0.68      0.00
   -2   -3   11      4.18      0.00
   13   -3   11      0.11      0.00
  -19   -2   11      0.64      0.00
  -18   -2   11     -0.32      0.00
   13   -2   11      0.19      0.00
  -19   -1   11     -1.00      0.00
   12   -1   11      0.69      0.00
   13   -1   11      0.08      0.00
  -20    0   11      0.89      0.00
  -19    0   11      1.88      0.00
   12    0   11     -0.40      0.00
  -20    1   11      0.82      0.00
  -19    1   11     -0.22      0.00
   11    1   11      0.26      0.00
   12    1   11     -0.75      0.00
  -20    2   11      0.81      0.00
   10    2   11     -0.72      0.00
   11    2   11     -0.54      0.00
  -20    3   11     -1.00      0.00
   10    3   11     -0.33      0.00
   11    3   11      0.20      0.00
  -20    4   11     -0.04      0.00
    9    4   11     -1.70      0.00
   10    4   11     -0.74      0.00
  -20    5   11      0.19      0.00
    8    5   11     -0.78      0.00
    9    5   11     -0.71      0.00
   10    5   11      1.50      0.00
  -20    6   11     -0.65      0.00
    8    6   11      1.61      0.00
    9    6   11     -0.88      0.00
  -20    7   11     -0.15      0.00
    7    7   11      2.08      0.00
    8    7   11     -0.65      0.00
  -20    8   11     -0.66      0.00
    6    8   11     -2.50      0.00
    7    8   11     -1.27      0.00
    8    8   11      0.50      0.00
  -20    9   11     -0.91      0.00
    5    9   11     -1.05      0.00
    6    9   11      0.75      0.00
    7    9   11      0.32      0.00
  -20   10   11     -0.31      0.00
    5   10   11      2.14      0.00
    6   10   11     -0.94      0.00
  -19   11   11     -0.72      0.00
    4   11   11      0.20      0.00
    5   11   11      0.96      0.00
  -19   12   11     -0.18      0.00
    3   12   11     -0.48      0.00
    4   12   11      0.66      0.00
  -18   13   11     -0.20      0.00
    2   13   11      0.09      0.00
  -18   14   11     -0.64      0.00
  -17   14   11     -0.13      0.00
    1   14   11     -0.03      0.00
  -17   15   11     -0.09      0.00
  -16   15   11      1.14      0.00
   -1   15   11      1.11      0.00
    0   15   11     -0.14      0.00
  -16   16   11      0.69      0.00
  -15   16   11     -0.18      0.00
  -14   16   11      0.48      0.00
   -4   16   11     -0.54      0.00
   -3   16   11      0.64      0.00
   -2   16   11      0.63      0.00
  -14   17   11     -0.56      0.00
  -13   17   11     -0.45      0.00
  -12   17   11     -1.36      0.00
  -11   17   11      0.57      0.00
  -10   17   11      0.62      0.00
   -9   17   11      0.43      0.00
   -8   17   11     -1.19      0.00
   -7   17   11      0.69      0.00
   -6   17   11      0.33      0.00
   -5   17   11     -0.11      0.00
   -3  -21   12      0.34      0.00
   -2  -21   12      0.36      0.00
   -1  -21   12      0.69      0.00
    0  -21   12      0.38      0.00
    1  -21   12      0.61      0.00
    2  -21   12      0.50      0.00
    3  -21   12     -0.62      0.00
    4  -21   12      0.46      0.00
    5  -21   12     -0.01      0.00
    6  -21   12      0.42      0.00
    7  -21   12     -0.69      0.00
    8  -21   12     -0.07      0.00
    9  -21   12     -0.28      0.00
   -5  -20   12     -0.91      0.00
   -4  -20   12     -0.68      0.00
   -1  -20   12      0.09      0.00
    0  -20   12     -0.56      0.00
    1  -20   12     -0.18      0.00
    2  -20   12     -0.46      0.00
    3  -20   12     -1.03      0.00
    4  -20   12     -0.31      0.00
    5  -20   12     -0.78      0.00
    6  -20   12     -0.39      0.00
    7  -20   12      0.22      0.00
    8  -20   12     -0.62      0.00
    9  -20   12      0.79      0.00
   10  -20   12     -0.42      0.00
   -7  -19   12      0.00      0.00
   -6  -19   12     -0.79      0.00
    2  -19   12      0.03      0.00
    3  -19   12     -1.12      0.00
    4  -19   12     -1.54      0.00
    5  -19   12      0.36      0.00
    6  -19   12     -0.65      0.00
    7  -19   12      1.01      0.00
    8  -19   12      0.10      0.00
    9  -19   12      0.16      0.00
   10  -19   12     -0.16      0.00
   11  -19   12      0.05      0.00
   -8  -18   12      0.43      0.00
    3  -18   12      0.67      0.00
    4  -18   12      1.48      0.00
    5  -18   12     -0.12      0.00
    6  -18   12     -0.32      0.00
    7  -18   12      0.66      0.00
    8  -18   12      0.44      0.00
    9  -18   12     -0.53      0.00
   10  -18   12      0.19      0.00
   11  -18   12     -1.19      0.00
   12  -18   12      0.97      0.00
   -9  -17   12     -1.27      0.00
    4  -17   12      1.82      0.00
    5  -17   12      0.32      0.00
    6  -17   12      0.14      0.00
    7  -17   12     -1.66      0.00
    8  -17   12      0.42      0.00
    9  -17   12      0.03      0.00
   10  -17   12      0.84      0.00
   11  -17   12     -0.40      0.00
   12  -17   12      0.38      0.00
   13  -17   12      0.50      0.00
  -10  -16   12     -0.05      0.00
    6  -16   12     -0.83      0.00
    7  -16   12     -0.26      0.00
    8  -16   12     -0.31      0.00
    9  -16   12      0.56      0.00
   10  -16   12      0.34      0.00
   11  -16   12      1.32      0.00
   12  -16   12     -1.71      0.00
   13  -16   12      0.30      0.00
  -11  -15   12     -0.68      0.00
   11  -15   12     -0.43      0.00
   12  -15   12     -0.60      0.00
   13  -15   12     -0.57      0.00
  -12  -14   12     -1.12      0.00
   13  -14   12      0.89      0.00
   14  -14   12      0.29      0.00
  -13  -13   12      0.07      0.00
   13  -13   12      0.15      0.00
   14  -13   12     -0.17      0.00
  -14  -12   12     -0.78      0.00
  -13  -12   12      1.16      0.00
   14  -12   12     -0.73      0.00
  -15  -11   12      0.14      0.00
  -14  -11   12     -0.81      0.00
   14  -11   12     -1.03      0.00
  -15  -10   12     -0.33      0.00
  -14  -10   12      0.28      0.00
   14  -10   12     -0.51      0.00
  -16   -9   12     -0.42      0.00
  -15   -9   12      0.63      0.00
   14   -9   12      1.51      0.00
  -17   -8   12      0.26      0.00
  -16   -8   12      0.04      0.00
  -15   -8   12      0.44      0.00
   14   -8   12     -0.02      0.00
  -17   -7   12      0.19      0.00
  -16   -7   12      0.69      0.00
   14   -7   12     -0.19      0.00
  -18   -6   12     -0.39      0.00
  -17   -6   12      0.64      0.00
  -16   -6   12     -2.35      0.00
   14   -6   12     -0.35      0.00
  -18   -5   12     -0.71      0.00
  -17   -5   12     -0.92      0.00
   13   -5   12      0.85      0.00
  -18   -4   12     -0.01      0.00
  -17   -4   12     -0.08      0.00
   13   -4   12      0.56      0.00
  -19   -3   12     -0.06      0.00
  -18   -3   12     -0.87      0.00
   13   -3   12     -1.55      0.00
  -19   -2   12     -0.17      0.00
  -18   -2   12      0.62      0.00
   12   -2   12     -0.95      0.00
  -19   -1   12      1.02      0.00
   12   -1   12      0.27      0.00
  -20    0   12      0.32      0.00
  -19    0   12      0.29      0.00
   11    0   12      1.72      0.00
   12    0   12      1.61      0.00
  -20    1   12      1.02      0.00
  -19    1   12     -0.32      0.00
   10    1   12      1.77      0.00
   11    1   12     -0.48      0.00
  -20    2   12      0.38      0.00
   10    2   12      0.26      0.00
   11    2   12      0.71      0.00
  -20    3   12      0.52      0.00
    9    3   12      2.83      0.00
   10    3   12      0.25      0.00
  -20    4   12     -1.62      0.00
    8    4   12     -0.49      0.00
    9    4   12     -0.11      0.00
   10    4   12      0.38      0.00
  -20    5   12      1.42      0.00
    8    5   12      1.52      0.00
    9    5   12     -0.39      0.00
  -20    6   12     -0.19      0.00
    7    6   12     -0.11      0.00
    8    6   12     -1.12      0.00
  -20    7   12     -1.96      0.00
    6    7   12     -0.84      0.00
    7    7   12     -0.02      0.00
  -20    8   12     -0.34      0.00
   -7    8   12     -2.59      0.00
    1    8   12     -3.78      0.00
    5    8   12     -0.35      0.00
    6    8   12     -1.46      0.00
    7    8   12     -0.89      0.00
  -20    9   12     -0.01      0.00
    4    9   12     -0.75      0.00
    5    9   12      0.50      0.00
    6    9   12      0.24      0.00
  -19   10   12     -0.83      0.00
  -16   10   12     -0.68      0.00
    4   10   12      0.22      0.00
    5   10   12     -0.50      0.00
  -19   11   12     -0.27      0.00
    3   11   12      1.02      0.00
    4   11   12     -0.33      0.00
  -19   12   12     -0.37      0.00
  -18   12   12     -0.96      0.00
    2   12   12     -0.84      0.00
    3   12   12      0.69      0.00
  -18   13   12     -1.51      0.00
  -17   13   12      1.10      0.00
    1   13   12     -0.82      0.00
  -17   14   12      0.86      0.00
  -16   14   12      1.66      0.00
   -1   14   12      0.70      0.00
    0   14   12     -0.61      0.00
  -16   15   12     -0.24      0.00
  -15   15   12     -2.13      0.00
   -3   15   12      1.11      0.00
   -2   15   12     -1.18      0.00
  -15   16   12     -0.53      0.00
  -14   16   12      1.41      0.00
  -13   16   12     -1.14      0.00
  -12   16   12      0.82      0.00
   -6   16   12     -0.55      0.00
   -5   16   12      1.09      0.00
   -4   16   12      0.14      0.00
  -12   17   12      0.32      0.00
  -11   17   12      0.06      0.00
  -10   17   12      0.73      0.00
   -9   17   12     -0.20      0.00
   -8   17   12      0.03      0.00
   -7   17   12      0.23      0.00
   -3  -21   13      0.32      0.00
   -2  -21   13     -0.01      0.00
   -1  -21   13      0.01      0.00
    0  -21   13      0.05      0.00
    1  -21   13      0.64      0.00
    2  -21   13     -0.43      0.00
    3  -21   13      0.60      0.00
    4  -21   13      0.36      0.00
    5  -21   13      0.01      0.00
    6  -21   13     -0.38      0.00
    7  -21   13      0.60      0.00
    8  -21   13      0.03      0.00
   -5  -20   13      0.46      0.00
   -4  -20   13     -1.46      0.00
   -3  -20   13      1.65      0.00
   -2  -20   13      0.02      0.00
   -1  -20   13      0.95      0.00
    0  -20   13     -0.34      0.00
    1  -20   13     -0.03      0.00
    2  -20   13      2.08      0.00
    3  -20   13     -0.66      0.00
    4  -20   13     -0.18      0.00
    5  -20   13      0.32      0.00
    6  -20   13     -0.03      0.00
    7  -20   13     -0.75      0.00
    8  -20   13      1.14      0.00
    9  -20   13      1.03      0.00
   10  -20   13     -0.71      0.00
   -7  -19   13      0.12      0.00
   -6  -19   13      0.48      0.00
    2  -19   13     -0.81      0.00
    3  -19   13     -0.51      0.00
    4  -19   13      1.26      0.00
    5  -19   13     -2.60      0.00
    6  -19   13      0.56      0.00
    7  -19   13     -0.54      0.00
    8  -19   13     -0.12      0.00
    9  -19   13      0.23      0.00
   10  -19   13      0.70      0.00
   11  -19   13     -0.61      0.00
   -8  -18   13      1.09      0.00
    3  -18   13     -3.08      0.00
    4  -18   13     -1.47      0.00
    5  -18   13     -0.28      0.00
    6  -18   13     -0.46      0.00
    7  -18   13      0.63      0.00
    8  -18   13     -1.54      0.00
    9  -18   13      0.70      0.00
   10  -18   13      0.13      0.00
   11  -18   13      0.18      0.00
   -9  -17   13     -0.28      0.00
    5  -17   13      0.61      0.00
    6  -17   13     -1.37      0.00
    7  -17   13      1.49      0.00
    8  -17   13      1.04      0.00
    9  -17   13      0.26      0.00
   10  -17   13     -0.72      0.00
   11  -17   13     -0.66      0.00
   12  -17   13      0.37      0.00
  -10  -16   13      0.69      0.00
    9  -16   13     -1.37      0.00
   10  -16   13      1.56      0.00
   11  -16   13     -0.21      0.00
   12  -16   13      0.63      0.00
  -11  -15   13     -0.16      0.00
   10  -15   13     -2.20      0.00
   11  -15   13      1.06      0.00
   12  -15   13     -1.38      0.00
   13  -15   13      0.35      0.00
  -12  -14   13      0.50      0.00
   12  -14   13     -1.09      0.00
   13  -14   13     -0.22      0.00
  -13  -13   13      0.42      0.00
    7  -13   13      3.02      0.00
   13  -13   13      0.71      0.00
  -14  -12   13     -0.26      0.00
  -13  -12   13      0.99      0.00
   13  -12   13      1.18      0.00
  -15  -11   13      0.65      0.00
  -14  -11   13     -0.18      0.00
   13  -11   13      0.04      0.00
  -15  -10   13     -0.09      0.00
  -14  -10   13     -1.92      0.00
   13  -10   13      1.09      0.00
  -16   -9   13      0.03      0.00
  -15   -9   13     -0.18      0.00
   13   -9   13     -0.64      0.00
  -17   -8   13      0.27      0.00
  -16   -8   13      0.88      0.00
  -15   -8   13      0.28      0.00
   13   -8   13     -0.36      0.00
  -17   -7   13      1.34      0.00
  -16   -7   13     -1.45      0.00
   13   -7   13      0.26      0.00
  -18   -6   13     -0.50      0.00
  -17   -6   13     -0.36      0.00
  -16   -6   13      0.43      0.00
   13   -6   13     -0.37      0.00
  -18   -5   13      0.16      0.00
  -17   -5   13      0.30      0.00
  -16   -5   13     -0.81      0.00
   13   -5   13     -0.35      0.00
  -18   -4   13     -0.26      0.00
  -17   -4   13      1.32      0.00
   12   -4   13     -0.30      0.00
  -19   -3   13     -0.11      0.00
  -18   -3   13     -0.21      0.00
   12   -3   13      0.59      0.00
  -19   -2   13     -0.59      0.00
  -18   -2   13     -1.25      0.00
   11   -2   13     -0.26      0.00
   12   -2   13     -0.15      0.00
  -19   -1   13      0.74      0.00
  -18   -1   13      1.79      0.00
   11   -1   13     -0.77      0.00
  -20    0   13      1.62      0.00
  -19    0   13      1.10      0.00
   10    0   13     -1.68      0.00
   11    0   13      0.89      0.00
  -20    1   13     -0.47      0.00
  -19    1   13     -0.80      0.00
    9    1   13     -0.28      0.00
   10    1   13     -0.12      0.00
  -20    2   13      0.97      0.00
  -19    2   13     -0.26      0.00
    9    2   13     -1.70      0.00
   10    2   13      0.31      0.00
  -20    3   13     -1.17      0.00
    8    3   13     -0.66      0.00
    9    3   13     -0.38      0.00
  -20    4   13     -0.05      0.00
    7    4   13      0.08      0.00
    8    4   13     -0.63      0.00
    9    4   13     -0.47      0.00
  -20    5   13     -0.79      0.00
    7    5   13      1.31      0.00
    8    5   13     -0.65      0.00
  -20    6   13      1.07      0.00
    6    6   13     -0.02      0.00
    7    6   13      0.09      0.00
  -20    7   13      0.84      0.00
    5    7   13      1.73      0.00
    6    7   13      1.21      0.00
    7    7   13     -0.26      0.00
  -20    8   13     -0.61      0.00
    4    8   13     -0.20      0.00
    5    8   13     -0.02      0.00
    6    8   13     -2.00      0.00
  -20    9   13      0.24      0.00
  -19    9   13     -1.85      0.00
    3    9   13     -0.25      0.00
    4    9   13      0.09      0.00
    5    9   13     -0.07      0.00
  -19   10   13     -0.63      0.00
    3   10   13     -0.70      0.00
    4   10   13      0.57      0.00
  -19   11   13     -0.30      0.00
  -18   11   13     -0.30      0.00
    2   11   13     -0.02      0.00
    3   11   13      1.35      0.00
  -18   12   13     -0.96      0.00
    1   12   13      0.12      0.00
    2   12   13     -0.46      0.00
  -17   13   13     -0.52      0.00
    0   13   13     -0.79      0.00
  -17   14   13      0.68      0.00
  -16   14   13      1.01      0.00
   -2   14   13     -0.79      0.00
   -1   14   13      0.30      0.00
  -15   15   13     -0.37      0.00
  -14   15   13      0.52      0.00
   -5   15   13     -1.00      0.00
   -4   15   13      0.14      0.00
   -3   15   13     -0.12      0.00
  -13   16   13     -0.29      0.00
  -12   16   13      0.59      0.00
  -11   16   13     -0.58      0.00
  -10   16   13      0.96      0.00
   -9   16   13     -0.45      0.00
   -8   16   13      0.52      0.00
   -7   16   13     -1.89      0.00
   -6   16   13      0.82      0.00
   -3  -21   14      0.22      0.00
   -2  -21   14      0.75      0.00
   -1  -21   14      0.99      0.00
    0  -21   14      0.46      0.00
    1  -21   14      0.10      0.00
    2  -21   14      0.50      0.00
    3  -21   14      0.30      0.00
    4  -21   14      0.55      0.00
    5  -21   14      0.08      0.00
    6  -21   14     -0.30      0.00
    7  -21   14     -0.89      0.00
   -5  -20   14     -0.35      0.00
   -4  -20   14      0.40      0.00
   -3  -20   14      1.31      0.00
   -2  -20   14     -0.14      0.00
   -1  -20   14      0.32      0.00
    0  -20   14     -0.45      0.00
    1  -20   14      1.35      0.00
    2  -20   14     -2.49      0.00
    3  -20   14      0.54      0.00
    4  -20   14     -0.94      0.00
    5  -20   14     -0.54      0.00
    6  -20   14      0.06      0.00
    7  -20   14      0.00      0.00
    8  -20   14      0.58      0.00
    9  -20   14      0.14      0.00
   -7  -19   14     -0.39      0.00
   -6  -19   14      0.02      0.00
    1  -19   14      0.50      0.00
    2  -19   14     -0.17      0.00
    3  -19   14     -0.13      0.00
    4  -19   14      0.58      0.00
    5  -19   14      0.09      0.00
    6  -19   14      0.51      0.00
    7  -19   14      0.06      0.00
    8  -19   14     -0.38      0.00
    9  -19   14      0.69      0.00
   10  -19   14     -0.92      0.00
   -8  -18   14     -0.25      0.00
   -7  -18   14      1.23      0.00
    4  -18   14      1.32      0.00
    5  -18   14     -0.98      0.00
    6  -18   14      1.48      0.00
    7  -18   14     -0.26      0.00
    8  -18   14     -0.64      0.00
    9  -18   14      0.18      0.00
   10  -18   14      0.50      0.00
   11  -18   14     -0.27      0.00
   -9  -17   14     -0.59      0.00
    6  -17   14     -0.09      0.00
    7  -17   14     -0.35      0.00
    8  -17   14      1.60      0.00
    9  -17   14     -0.28      0.00
   10  -17   14      0.34      0.00
   11  -17   14     -1.15      0.00
  -10  -16   14      0.02      0.00
    8  -16   14     -1.22      0.00
    9  -16   14      0.15      0.00
   10  -16   14     -1.04      0.00
   11  -16   14     -0.14      0.00
   12  -16   14     -0.91      0.00
  -11  -15   14      0.30      0.00
   10  -15   14     -1.61      0.00
   11  -15   14      0.06      0.00
   12  -15   14      0.48      0.00
  -12  -14   14     -0.37      0.00
   11  -14   14      0.83      0.00
   12  -14   14     -0.99      0.00
  -13  -13   14      0.62      0.00
   12  -13   14     -0.30      0.00
  -14  -12   14     -0.37      0.00
  -13  -12   14      0.83      0.00
   12  -12   14      0.47      0.00
   13  -12   14      0.15      0.00
  -15  -11   14      0.52      0.00
  -14  -11   14      0.94      0.00
   13  -11   14     -0.17      0.00
  -15  -10   14     -1.09      0.00
  -14  -10   14     -1.35      0.00
   13  -10   14      0.35      0.00
  -16   -9   14      0.11      0.00
  -15   -9   14     -0.50      0.00
   13   -9   14      0.62      0.00
  -17   -8   14      0.44      0.00
  -16   -8   14      0.17      0.00
  -15   -8   14      0.07      0.00
   13   -8   14     -0.20      0.00
  -17   -7   14      0.24      0.00
  -16   -7   14      1.51      0.00
   12   -7   14     -0.20      0.00
  -18   -6   14     -0.28      0.00
  -17   -6   14     -0.28      0.00
  -16   -6   14     -2.42      0.00
   12   -6   14     -0.33      0.00
  -18   -5   14     -1.34      0.00
  -17   -5   14     -0.56      0.00
   12   -5   14      0.46      0.00
  -18   -4   14      1.06      0.00
  -17   -4   14      0.85      0.00
   12   -4   14      0.10      0.00
  -19   -3   14      0.30      0.00
  -18   -3   14      0.40      0.00
   11   -3   14     -0.06      0.00
  -19   -2   14      0.50      0.00
  -18   -2   14     -0.62      0.00
   11   -2   14     -1.28      0.00
  -19   -1   14      0.01      0.00
  -18   -1   14      0.56      0.00
   10   -1   14     -0.10      0.00
   11   -1   14      0.34      0.00
  -20    0   14     -0.14      0.00
  -19    0   14      0.04      0.00
    9    0   14      0.48      0.00
   10    0   14      0.55      0.00
  -20    1   14      1.72      0.00
  -19    1   14     -0.34      0.00
    9    1   14      1.10      0.00
   10    1   14     -1.27      0.00
  -20    2   14      0.37      0.00
  -19    2   14      0.50      0.00
    8    2   14     -0.82      0.00
    9    2   14      0.01      0.00
  -20    3   14      0.52      0.00
    7    3   14      0.97      0.00
    8    3   14      2.18      0.00
    9    3   14      0.23      0.00
  -20    4   14     -1.05      0.00
  -13    4   14     -2.44      0.00
    6    4   14      0.86      0.00
    7    4   14      1.22      0.00
    8    4   14     -0.85      0.00
  -20    5   14      0.01      0.00
    6    5   14     -1.21      0.00
    7    5   14      1.06      0.00
  -20    6   14     -0.31      0.00
    5    6   14     -0.51      0.00
    6    6   14      0.75      0.00
    7    6   14     -0.11      0.00
  -20    7   14      0.00      0.00
    4    7   14      1.56      0.00
    5    7   14      1.34      0.00
    6    7   14     -0.15      0.00
  -19    8   14      0.07      0.00
    3    8   14      1.12      0.00
    4    8   14     -0.32      0.00
    5    8   14     -0.28      0.00
  -19    9   14     -1.16      0.00
    2    9   14      0.14      0.00
    3    9   14     -0.27      0.00
    4    9   14      0.32      0.00
  -19   10   14     -1.00      0.00
  -18   10   14      0.70      0.00
    1   10   14     -0.53      0.00
    2   10   14     -0.64      0.00
    3   10   14      0.15      0.00
  -18   11   14     -0.78      0.00
    0   11   14     -0.09      0.00
    1   11   14     -0.89      0.00
    2   11   14      1.36      0.00
  -18   12   14     -0.45      0.00
  -17   12   14     -0.15      0.00
   -1   12   14      0.95      0.00
    0   12   14      0.48      0.00
  -17   13   14      0.24      0.00
  -16   13   14      0.71      0.00
   -2   13   14     -0.49      0.00
   -1   13   14      1.75      0.00
  -16   14   14     -0.02      0.00
  -15   14   14     -0.52      0.00
  -14   14   14     -1.65      0.00
   -4   14   14     -0.30      0.00
   -3   14   14      0.80      0.00
  -14   15   14     -0.60      0.00
  -13   15   14      1.31      0.00
  -12   15   14     -1.71      0.00
  -11   15   14      0.02      0.00
  -10   15   14      0.08      0.00
   -9   15   14     -0.67      0.00
   -8   15   14     -0.42      0.00
   -7   15   14     -0.80      0.00
   -6   15   14      0.92      0.00
   -5   15   14      0.09      0.00
   -2  -21   15      0.66      0.00
   -1  -21   15     -0.72      0.00
    0  -21   15      0.36      0.00
    1  -21   15      0.53      0.00
    2  -21   15      0.43      0.00
    3  -21   15      1.31      0.00
    4  -21   15     -0.63      0.00
    5  -21   15      0.34      0.00
    6  -21   15      0.13      0.00
   -5  -20   15      0.50      0.00
   -4  -20   15      0.05      0.00
   -3  -20   15     -0.15      0.00
   -2  -20   15      1.22      0.00
   -1  -20   15      0.56      0.00
    0  -20   15      1.14      0.00
    1  -20   15      1.26      0.00
    2  -20   15      0.29      0.00
    3  -20   15      0.33      0.00
    4  -20   15      0.07      0.00
    5  -20   15      0.33      0.00
    6  -20   15     -0.28      0.00
    7  -20   15      0.16      0.00
    8  -20   15      0.50      0.00
   -6  -19   15     -1.03      0.00
   -5  -19   15      0.06      0.00
   -1  -19   15      1.08      0.00
    0  -19   15      0.27      0.00
    1  -19   15      1.78      0.00
    2  -19   15     -1.36      0.00
    3  -19   15      1.35      0.00
    4  -19   15     -0.44      0.00
    5  -19   15     -1.67      0.00
    6  -19   15     -0.48      0.00
    7  -19   15     -0.53      0.00
    8  -19   15      0.68      0.00
    9  -19   15     -0.08      0.00
   -8  -18   15     -0.08      0.00
   -7  -18   15     -0.27      0.00
    4  -18   15     -0.08      0.00
    5  -18   15     -0.07      0.00
    6  -18   15      1.03      0.00
    7  -18   15     -1.12      0.00
    8  -18   15     -0.08      0.00
    9  -18   15      0.19      0.00
   10  -18   15      0.43      0.00
   -9  -17   15     -0.88      0.00
    3  -17   15     -0.27      0.00
    6  -17   15      0.79      0.00
    7  -17   15      1.84      0.00
    8  -17   15     -0.56      0.00
    9  -17   15      0.20      0.00
   10  -17   15     -0.74      0.00
  -10  -16   15     -0.47      0.00
    7  -16   15     -2.87      0.00
    8  -16   15      0.61      0.00
    9  -16   15     -0.13      0.00
   10  -16   15      0.71      0.00
   11  -16   15     -0.20      0.00
  -11  -15   15      0.15      0.00
    9  -15   15     -1.52      0.00
   10  -15   15     -1.70      0.00
   11  -15   15     -0.09      0.00
  -12  -14   15     -0.60      0.00
   11  -14   15     -0.64      0.00
   12  -14   15     -0.19      0.00
  -13  -13   15      0.64      0.00
   12  -13   15      0.08      0.00
  -14  -12   15     -0.07      0.00
  -13  -12   15     -0.94      0.00
   12  -12   15      0.55      0.00
  -15  -11   15      0.56      0.00
  -14  -11   15      0.29      0.00
   12  -11   15      0.41      0.00
  -15  -10   15     -0.92      0.00
  -14  -10   15     -0.02      0.00
   12  -10   15     -0.21      0.00
  -16   -9   15      1.07      0.00
  -15   -9   15     -1.08      0.00
   12   -9   15     -0.87      0.00
  -17   -8   15     -0.34      0.00
  -16   -8   15      1.73      0.00
  -15   -8   15     -1.76      0.00
   12   -8   15      0.68      0.00
  -17   -7   15      0.45      0.00
  -16   -7   15      0.32      0.00
   12   -7   15      0.45      0.00
  -18   -6   15     -0.56      0.00
  -17   -6   15     -0.08      0.00
  -16   -6   15      0.17      0.00
   11   -6   15     -0.20      0.00
  -18   -5   15      0.17      0.00
  -17   -5   15     -0.62      0.00
   11   -5   15     -0.69      0.00
  -18   -4   15      0.47      0.00
  -17   -4   15     -0.62      0.00
   11   -4   15      1.24      0.00
  -19   -3   15     -0.12      0.00
  -18   -3   15      0.00      0.00
  -17   -3   15     -0.59      0.00
   10   -3   15      1.50      0.00
   11   -3   15      0.53      0.00
  -19   -2   15     -1.08      0.00
  -18   -2   15      1.58      0.00
   10   -2   15     -0.33      0.00
  -19   -1   15      1.23      0.00
  -18   -1   15      0.86      0.00
    9   -1   15     -1.42      0.00
   10   -1   15     -0.58      0.00
  -19    0   15     -0.79      0.00
  -18    0   15      0.50      0.00
    8    0   15      0.46      0.00
    9    0   15     -0.19      0.00
  -20    1   15     -0.03      0.00
  -19    1   15     -0.36      0.00
    8    1   15      0.29      0.00
    9    1   15      0.01      0.00
  -20    2   15      0.97      0.00
  -19    2   15      0.11      0.00
    7    2   15      0.77      0.00
    8    2   15     -1.93      0.00
  -20    3   15     -0.50      0.00
  -19    3   15     -0.01      0.00
    6    3   15     -2.73      0.00
    7    3   15      0.25      0.00
    8    3   15     -0.54      0.00
  -20    4   15      0.45      0.00
  -19    4   15     -0.30      0.00
    5    4   15     -0.39      0.00
    6    4   15     -1.48      0.00
    7    4   15      0.87      0.00
  -20    5   15      0.21      0.00
    5    5   15      1.93      0.00
    6    5   15      0.12      0.00
  -20    6   15      0.63      0.00
  -19    6   15      0.41      0.00
    4    6   15      1.12      0.00
    5    6   15      0.75      0.00
    6    6   15     -0.49      0.00
  -19    7   15     -0.68      0.00
    3    7   15      0.97      0.00
    4    7   15      0.24      0.00
    5    7   15      0.93      0.00
  -19    8   15      0.86      0.00
    2    8   15     -1.80      0.00
    3    8   15     -0.50      0.00
    4    8   15      0.71      0.00
  -19    9   15      0.02      0.00
  -18    9   15     -0.14      0.00
    1    9   15     -0.03      0.00
    2    9   15      0.08      0.00
    3    9   15      0.87      0.00
  -18   10   15     -0.38      0.00
    0   10   15      0.68      0.00
    1   10   15      0.39      0.00
    2   10   15     -0.25      0.00
  -18   11   15      1.41      0.00
  -17   11   15     -0.79      0.00
   -1   11   15     -0.97      0.00
    0   11   15     -0.93      0.00
  -17   12   15     -0.06      0.00
  -16   12   15      0.31      0.00
   -2   12   15     -1.18      0.00
   -1   12   15     -0.30      0.00
  -16   13   15     -0.28      0.00
  -15   13   15      0.30      0.00
   -4   13   15     -1.03      0.00
   -3   13   15      0.92      0.00
  -15   14   15     -0.55      0.00
  -14   14   15     -1.35      0.00
  -13   14   15      0.50      0.00
  -12   14   15     -0.76      0.00
  -11   14   15     -0.96      0.00
   -8   14   15      0.32      0.00
   -7   14   15      0.51      0.00
   -6   14   15     -1.26      0.00
   -5   14   15      0.09      0.00
  -12   15   15     -1.02      0.00
  -11   15   15      1.23      0.00
  -10   15   15      0.45      0.00
   -9   15   15      0.52      0.00
   -8   15   15     -0.49      0.00
   -2  -21   16      0.84      0.00
   -1  -21   16     -0.32      0.00
    0  -21   16      0.45      0.00
    1  -21   16      0.00      0.00
    2  -21   16      0.78      0.00
    3  -21   16     -0.90      0.00
    4  -21   16      1.30      0.00
    5  -21   16     -0.62      0.00
   -4  -20   16      0.53      0.00
   -3  -20   16     -0.35      0.00
   -2  -20   16      0.86      0.00
   -1  -20   16     -2.07      0.00
    0  -20   16      0.07      0.00
    1  -20   16     -0.98      0.00
    2  -20   16     -0.09      0.00
    3  -20   16     -0.38      0.00
    4  -20   16      0.32      0.00
    5  -20   16      0.68      0.00
    6  -20   16      0.39      0.00
    7  -20   16      0.06      0.00
   -6  -19   16      0.66      0.00
   -5  -19   16     -0.04      0.00
    0  -19   16     -0.85      0.00
    1  -19   16      3.46      0.00
    2  -19   16     -1.32      0.00
    3  -19   16      2.93      0.00
    4  -19   16      0.13      0.00
    5  -19   16      0.56      0.00
    6  -19   16     -0.50      0.00
    7  -19   16      0.49      0.00
    8  -19   16     -0.45      0.00
   -8  -18   16      0.67      0.00
   -7  -18   16      0.22      0.00
    3  -18   16      1.24      0.00
    4  -18   16      0.31      0.00
    5  -18   16      0.85      0.00
    6  -18   16     -0.22      0.00
    7  -18   16     -0.41      0.00
    8  -18   16      0.21      0.00
    9  -18   16      0.98      0.00
   -9  -17   16      0.29      0.00
   -8  -17   16     -0.67      0.00
    5  -17   16     -1.74      0.00
    6  -17   16      1.59      0.00
    7  -17   16      0.66      0.00
    8  -17   16      1.01      0.00
    9  -17   16     -1.14      0.00
   10  -17   16     -0.47      0.00
  -10  -16   16      0.32      0.00
    7  -16   16     -2.14      0.00
    8  -16   16     -0.50      0.00
    9  -16   16      0.01      0.00
   10  -16   16     -0.45      0.00
  -11  -15   16      0.24      0.00
    9  -15   16     -0.40      0.00
   10  -15   16     -0.27      0.00
  -12  -14   16     -0.56      0.00
   10  -14   16     -1.14      0.00
   11  -14   16     -0.40      0.00
  -13  -13   16      0.82      0.00
  -12  -13   16      0.38      0.00
   11  -13   16      0.09      0.00
  -14  -12   16      0.38      0.00
  -13  -12   16      1.80      0.00
   11  -12   16     -0.56      0.00
  -15  -11   16      0.74      0.00
  -14  -11   16      0.36      0.00
   11  -11   16      0.23      0.00
  -15  -10   16     -1.75      0.00
  -14  -10   16     -1.03      0.00
   11  -10   16      0.76      0.00
  -16   -9   16      0.66      0.00
  -15   -9   16     -1.37      0.00
   11   -9   16      0.86      0.00
  -16   -8   16      1.27      0.00
  -15   -8   16     -1.49      0.00
   11   -8   16      0.21      0.00
  -17   -7   16     -0.97      0.00
  -16   -7   16      0.98      0.00
   11   -7   16      0.13      0.00
  -17   -6   16     -1.24      0.00
  -16   -6   16     -0.83      0.00
   11   -6   16     -0.37      0.00
  -18   -5   16     -0.56      0.00
  -17   -5   16     -0.06      0.00
  -16   -5   16      1.16      0.00
   10   -5   16     -0.46      0.00
  -18   -4   16      1.27      0.00
  -17   -4   16      1.48      0.00
   10   -4   16     -0.74      0.00
  -18   -3   16      0.49      0.00
  -17   -3   16     -1.96      0.00
    9   -3   16     -0.07      0.00
   10   -3   16     -0.06      0.00
  -19   -2   16     -1.18      0.00
  -18   -2   16     -0.24      0.00
  -17   -2   16     -0.34      0.00
    9   -2   16     -0.21      0.00
  -19   -1   16     -0.76      0.00
  -18   -1   16      0.95      0.00
    8   -1   16      0.14      0.00
    9   -1   16      0.56      0.00
  -19    0   16      0.00      0.00
  -18    0   16      0.31      0.00
    7    0   16     -0.75      0.00
    8    0   16      2.04      0.00
  -19    1   16     -0.96      0.00
  -18    1   16     -0.62      0.00
    7    1   16     -0.13      0.00
    8    1   16      0.84      0.00
  -19    2   16      0.44      0.00
    6    2   16      0.09      0.00
    7    2   16      0.12      0.00
  -19    3   16     -0.19      0.00
    5    3   16      1.66      0.00
    6    3   16     -1.33      0.00
    7    3   16      1.62      0.00
  -19    4   16      1.31      0.00
    4    4   16      0.46      0.00
    5    4   16      0.64      0.00
    6    4   16     -0.96      0.00
  -19    5   16     -0.45      0.00
    4    5   16     -0.08      0.00
    5    5   16     -0.46      0.00
  -19    6   16     -0.06      0.00
    3    6   16     -0.54      0.00
    4    6   16     -1.54      0.00
    5    6   16      1.12      0.00
  -19    7   16      0.39      0.00
    2    7   16     -0.73      0.00
    3    7   16      0.56      0.00
    4    7   16      0.75      0.00
  -19    8   16      0.61      0.00
  -18    8   16     -1.50      0.00
    1    8   16      0.04      0.00
    2    8   16     -0.97      0.00
    3    8   16     -0.05      0.00
  -18    9   16     -0.44      0.00
    0    9   16     -2.56      0.00
    1    9   16      1.50      0.00
    2    9   16     -0.99      0.00
  -18   10   16     -0.25      0.00
  -17   10   16     -0.32      0.00
   -1   10   16      1.89      0.00
    0   10   16     -0.74      0.00
  -17   11   16      0.21      0.00
  -16   11   16     -0.63      0.00
   -2   11   16      1.65      0.00
   -1   11   16     -1.19      0.00
  -16   12   16      0.37      0.00
  -15   12   16      1.07      0.00
   -4   12   16      1.39      0.00
   -3   12   16     -0.51      0.00
   -2   12   16      0.69      0.00
  -15   13   16      0.11      0.00
  -14   13   16      0.08      0.00
  -13   13   16      0.59      0.00
  -12   13   16      0.20      0.00
   -7   13   16     -1.51      0.00
   -6   13   16      0.66      0.00
   -5   13   16     -0.19      0.00
   -4   13   16      0.21      0.00
  -13   14   16      0.35      0.00
  -12   14   16     -0.54      0.00
  -11   14   16     -0.97      0.00
  -10   14   16     -1.01      0.00
   -9   14   16     -0.68      0.00
   -8   14   16     -0.24      0.00
   -7   14   16     -0.49      0.00
    0  -21   17      0.22      0.00
    1  -21   17      1.41      0.00
    2  -21   17     -0.25      0.00
   -4  -20   17      0.22      0.00
   -3  -20   17     -0.71      0.00
   -2  -20   17      1.91      0.00
   -1  -20   17     -0.40      0.00
    0  -20   17      0.42      0.00
    1  -20   17      0.53      0.00
    2  -20   17      0.41      0.00
    3  -20   17     -0.40      0.00
    4  -20   17      0.34      0.00
    5  -20   17      0.16      0.00
   -6  -19   17     -0.05      0.00
   -5  -19   17     -1.50      0.00
   -4  -19   17      1.78      0.00
   -1  -19   17     -2.04      0.00
    0  -19   17      1.40      0.00
    1  -19   17     -0.88      0.00
    2  -19   17      0.62      0.00
    3  -19   17     -1.00      0.00
    4  -19   17     -0.32      0.00
    5  -19   17     -0.67      0.00
    6  -19   17      0.57      0.00
    7  -19   17     -0.10      0.00
   -7  -18   17     -0.25      0.00
   -6  -18   17      0.52      0.00
    1  -18   17      1.07      0.00
    2  -18   17     -3.19      0.00
    3  -18   17      1.96      0.00
    4  -18   17      0.58      0.00
    5  -18   17      0.97      0.00
    6  -18   17     -0.86      0.00
    7  -18   17     -0.84      0.00
    8  -18   17      0.13      0.00
   -9  -17   17     -0.76      0.00
   -8  -17   17      1.11      0.00
    4  -17   17     -1.07      0.00
    5  -17   17      0.77      0.00
    6  -17   17      1.23      0.00
    7  -17   17      0.25      0.00
    8  -17   17     -0.12      0.00
    9  -17   17      0.40      0.00
  -10  -16   17      0.83      0.00
   -9  -16   17     -0.42      0.00
    6  -16   17     -0.70      0.00
    7  -16   17     -1.44      0.00
    8  -16   17      0.50      0.00
    9  -16   17     -0.05      0.00
  -11  -15   17     -0.34      0.00
    8  -15   17      0.07      0.00
    9  -15   17     -1.02      0.00
   10  -15   17     -0.71      0.00
  -12  -14   17      0.02      0.00
    9  -14   17      0.01      0.00
   10  -14   17     -0.84      0.00
  -13  -13   17      0.24      0.00
  -12  -13   17     -1.26      0.00
   10  -13   17      0.48      0.00
  -14  -12   17     -0.38      0.00
  -13  -12   17     -0.28      0.00
   10  -12   17     -0.48      0.00
  -14  -11   17      0.77      0.00
  -13  -11   17      1.10      0.00
   10  -11   17      0.83      0.00
  -15  -10   17      0.53      0.00
  -14  -10   17      0.16      0.00
   10  -10   17      0.64      0.00
  -16   -9   17      0.10      0.00
  -15   -9   17     -0.49      0.00
  -14   -9   17      0.77      0.00
   10   -9   17     -0.09      0.00
  -16   -8   17      2.07      0.00
  -15   -8   17     -0.92      0.00
   10   -8   17     -0.64      0.00
  -17   -7   17     -0.07      0.00
  -16   -7   17      0.84      0.00
  -15   -7   17     -3.27      0.00
   10   -7   17     -0.42      0.00
  -17   -6   17     -0.90      0.00
  -16   -6   17      0.15      0.00
   10   -6   17     -1.61      0.00
  -18   -5   17     -0.66      0.00
  -17   -5   17      0.09      0.00
  -16   -5   17     -0.74      0.00
    9   -5   17     -0.33      0.00
   10   -5   17     -1.06      0.00
  -18   -4   17      0.49      0.00
  -17   -4   17      0.29      0.00
  -16   -4   17     -0.07      0.00
    9   -4   17     -0.19      0.00
  -18   -3   17      0.33      0.00
  -17   -3   17      1.39      0.00
    8   -3   17      1.83      0.00
    9   -3   17      1.27      0.00
  -19   -2   17     -0.09      0.00
  -18   -2   17      1.21      0.00
  -17   -2   17      0.28      0.00
    8   -2   17     -1.11      0.00
    9   -2   17      0.79      0.00
  -19   -1   17     -0.51      0.00
  -18   -1   17      0.02      0.00
  -17   -1   17      0.99      0.00
    7   -1   17     -0.62      0.00
    8   -1   17      0.51      0.00
  -19    0   17     -0.79      0.00
  -18    0   17      0.38      0.00
    6    0   17      0.54      0.00
    7    0   17      0.56      0.00
    8    0   17      0.21      0.00
  -19    1   17     -0.85      0.00
  -18    1   17      1.44      0.00
    6    1   17      0.12      0.00
    7    1   17     -0.92      0.00
  -19    2   17      0.82      0.00
  -18    2   17     -0.79      0.00
    5    2   17      1.73      0.00
    6    2   17     -0.55      0.00
  -19    3   17      0.43      0.00
  -18    3   17     -1.23      0.00
    4    3   17     -2.45      0.00
    5    3   17      1.58      0.00
    6    3   17     -0.99      0.00
  -19    4   17      0.62      0.00
  -18    4   17     -1.01      0.00
    3    4   17      1.04      0.00
    4    4   17     -0.66      0.00
    5    4   17      0.32      0.00
  -19    5   17      0.60      0.00
    2    5   17      0.70      0.00
    3    5   17      0.45      0.00
    4    5   17      0.48      0.00
  -19    6   17      0.65      0.00
  -18    6   17     -0.73      0.00
    1    6   17     -0.08      0.00
    2    6   17      0.96      0.00
    3    6   17     -0.82      0.00
  -19    7   17      0.00      0.00
  -18    7   17      1.60      0.00
    0    7   17      0.84      0.00
    1    7   17     -1.27      0.00
    2    7   17      0.63      0.00
    3    7   17     -0.73      0.00
  -18    8   17     -0.45      0.00
   -1    8   17     -1.16      0.00
    0    8   17      0.24      0.00
    1    8   17     -0.14      0.00
    2    8   17     -1.34      0.00
  -18    9   17      0.88      0.00
  -17    9   17     -0.10      0.00
   -2    9   17     -0.15      0.00
   -1    9   17      0.75      0.00
    0    9   17     -0.72      0.00
  -17   10   17      1.81      0.00
  -16   10   17     -0.46      0.00
   -3   10   17     -1.19      0.00
   -2   10   17      0.99      0.00
   -1   10   17      0.67      0.00
  -16   11   17     -1.61      0.00
  -15   11   17      0.54      0.00
   -4   11   17      0.23      0.00
   -3   11   17     -0.75      0.00
   -2   11   17     -0.01      0.00
  -15   12   17     -0.27      0.00
  -14   12   17     -0.18      0.00
  -13   12   17      0.30      0.00
  -12   12   17      0.39      0.00
   -7   12   17     -0.33      0.00
   -6   12   17      0.65      0.00
   -5   12   17     -0.61      0.00
   -4   12   17      0.74      0.00
  -13   13   17     -0.08      0.00
  -12   13   17     -0.40      0.00
  -11   13   17      1.02      0.00
  -10   13   17     -1.01      0.00
   -9   13   17      0.63      0.00
   -8   13   17     -0.63      0.00
   -7   13   17     -1.25      0.00
   -3  -20   18     -0.65      0.00
   -2  -20   18     -0.57      0.00
   -1  -20   18     -0.95      0.00
    0  -20   18     -0.98      0.00
    1  -20   18     -0.12      0.00
    2  -20   18      0.80      0.00
    3  -20   18     -0.78      0.00
    4  -20   18      1.57      0.00
   -5  -19   18     -0.47      0.00
   -4  -19   18     -0.54      0.00
   -3  -19   18     -0.67      0.00
   -2  -19   18      1.13      0.00
   -1  -19   18     -0.52      0.00
    0  -19   18      1.08      0.00
    1  -19   18      0.54      0.00
    2  -19   18      0.82      0.00
    3  -19   18      0.60      0.00
    4  -19   18      0.14      0.00
    5  -19   18      0.36      0.00
    6  -19   18      0.53      0.00
   -7  -18   18     -0.26      0.00
   -6  -18   18      0.14      0.00
    2  -18   18     -0.50      0.00
    3  -18   18      1.23      0.00
    4  -18   18      0.33      0.00
    5  -18   18      0.22      0.00
    6  -18   18      0.10      0.00
    7  -18   18     -0.12      0.00
   -8  -17   18      0.00      0.00
   -7  -17   18     -0.12      0.00
    3  -17   18      1.29      0.00
    4  -17   18     -1.68      0.00
    5  -17   18      1.01      0.00
    6  -17   18      0.85      0.00
    7  -17   18      0.31      0.00
    8  -17   18     -0.64      0.00
  -10  -16   18      0.08      0.00
   -9  -16   18     -0.16      0.00
    6  -16   18     -0.87      0.00
    7  -16   18     -1.16      0.00
    8  -16   18      0.48      0.00
  -11  -15   18     -0.50      0.00
  -10  -15   18      0.89      0.00
    7  -15   18     -0.72      0.00
    8  -15   18      1.30      0.00
    9  -15   18     -0.04      0.00
  -12  -14   18      0.21      0.00
  -11  -14   18      0.43      0.00
    8  -14   18     -0.39      0.00
    9  -14   18     -0.39      0.00
  -13  -13   18      0.74      0.00
  -12  -13   18      0.30      0.00
    9  -13   18     -0.51      0.00
  -13  -12   18     -0.09      0.00
    9  -12   18      0.04      0.00
  -14  -11   18     -0.73      0.00
  -13  -11   18     -0.87      0.00
    9  -11   18     -0.28      0.00
  -15  -10   18     -0.66      0.00
  -14  -10   18     -1.11      0.00
    9  -10   18     -0.57      0.00
  -15   -9   18     -0.53      0.00
  -14   -9   18     -0.09      0.00
   -8   -9   18      1.14      0.00
    9   -9   18     -0.43      0.00
  -16   -8   18      0.03      0.00
  -15   -8   18     -0.60      0.00
  -14   -8   18     -0.17      0.00
    9   -8   18      0.08      0.00
  -17   -7   18     -1.54      0.00
  -16   -7   18      0.00      0.00
  -15   -7   18     -1.17      0.00
    9   -7   18      1.47      0.00
  -17   -6   18     -0.23      0.00
  -16   -6   18      0.23      0.00
  -15   -6   18     -1.69      0.00
    9   -6   18      1.13      0.00
  -17   -5   18      0.13      0.00
  -16   -5   18      0.92      0.00
    8   -5   18     -0.58      0.00
    9   -5   18     -0.10      0.00
  -18   -4   18      0.34      0.00
  -17   -4   18      0.37      0.00
  -16   -4   18     -2.43      0.00
    8   -4   18     -0.78      0.00
  -18   -3   18     -0.93      0.00
  -17   -3   18     -0.25      0.00
  -16   -3   18      0.06      0.00
    7   -3   18     -0.33      0.00
    8   -3   18     -0.04      0.00
  -18   -2   18     -0.50      0.00
  -17   -2   18      0.77      0.00
    7   -2   18     -0.73      0.00
    8   -2   18      0.30      0.00
  -18   -1   18     -0.40      0.00
  -17   -1   18     -0.27      0.00
    6   -1   18     -1.72      0.00
    7   -1   18      1.07      0.00
  -19    0   18     -0.96      0.00
  -18    0   18     -0.48      0.00
  -17    0   18     -3.40      0.00
    5    0   18      0.01      0.00
    6    0   18      0.66      0.00
    7    0   18     -0.62      0.00
  -19    1   18     -1.08      0.00
  -18    1   18      0.88      0.00
  -17    1   18     -0.76      0.00
    4    1   18     -0.86      0.00
    5    1   18     -0.51      0.00
    6    1   18      0.55      0.00
  -19    2   18     -0.53      0.00
  -18    2   18      1.02      0.00
    4    2   18      1.76      0.00
    5    2   18      1.16      0.00
  -19    3   18     -0.11      0.00
  -18    3   18     -0.51      0.00
    3    3   18      0.75      0.00
    4    3   18     -0.99      0.00
    5    3   18      0.76      0.00
  -19    4   18      0.78      0.00
  -18    4   18     -0.61      0.00
    2    4   18     -1.65      0.00
    3    4   18      1.92      0.00
    4    4   18     -1.54      0.00
  -19    5   18      0.06      0.00
  -18    5   18     -1.09      0.00
    1    5   18      0.54      0.00
    2    5   18     -1.77      0.00
    3    5   18      0.06      0.00
  -18    6   18     -0.18      0.00
    0    6   18     -0.08      0.00
    1    6   18     -0.86      0.00
    2    6   18      0.81      0.00
  -18    7   18      0.98      0.00
  -17    7   18     -0.85      0.00
   -1    7   18     -2.01      0.00
    0    7   18      1.30      0.00
    1    7   18      1.10      0.00
  -17    8   18     -1.45      0.00
   -2    8   18      0.09      0.00
   -1    8   18      1.42      0.00
    0    8   18      0.09      0.00
  -17    9   18     -0.73      0.00
  -16    9   18     -1.17      0.00
   -4    9   18      2.54      0.00
   -3    9   18     -1.05      0.00
   -2    9   18      0.73      0.00
   -1    9   18     -1.28      0.00
  -16   10   18      0.32      0.00
  -15   10   18      0.74      0.00
   -5   10   18     -0.17      0.00
   -4   10   18      1.22      0.00
   -3   10   18     -1.50      0.00
  -15   11   18      0.51      0.00
  -14   11   18      0.88      0.00
  -13   11   18     -0.39      0.00
  -12   11   18     -0.31      0.00
   -7   11   18     -0.20      0.00
   -6   11   18     -0.85      0.00
   -5   11   18     -0.08      0.00
   -4   11   18     -0.08      0.00
  -13   12   18     -0.25      0.00
  -12   12   18      1.24      0.00
  -11   12   18      0.89      0.00
  -10   12   18     -1.32      0.00
   -9   12   18      1.91      0.00
   -8   12   18     -1.27      0.00
   -7   12   18      0.69      0.00
    0  -20   19     -0.94      0.00
    1  -20   19      0.58      0.00
   -4  -19   19      1.00      0.00
   -3  -19   19      0.08      0.00
   -2  -19   19      0.25      0.00
   -1  -19   19     -0.58      0.00
    0  -19   19      0.21      0.00
    1  -19   19     -1.34      0.00
    2  -19   19     -0.47      0.00
    3  -19   19     -0.69      0.00
    4  -19   19      0.37      0.00
   -6  -18   19      1.30      0.00
   -5  -18   19     -0.48      0.00
   -4  -18   19     -0.55      0.00
    1  -18   19     -1.84      0.00
    2  -18   19      0.82      0.00
    3  -18   19      0.93      0.00
    4  -18   19      0.74      0.00
    5  -18   19     -0.76      0.00
   -8  -17   19      0.43      0.00
   -7  -17   19      0.31      0.00
    3  -17   19      0.32      0.00
    4  -17   19      0.05      0.00
    5  -17   19      0.98      0.00
    6  -17   19      1.00      0.00
   -9  -16   19      0.20      0.00
   -8  -16   19     -0.71      0.00
   -4  -16   19     -0.68      0.00
    5  -16   19      1.09      0.00
    6  -16   19     -1.21      0.00
    7  -16   19     -0.70      0.00
  -10  -15   19      0.26      0.00
   -5  -15   19     -1.23      0.00
    7  -15   19     -0.01      0.00
    8  -15   19     -0.60      0.00
  -11  -14   19     -0.19      0.00
    7  -14   19     -1.66      0.00
    8  -14   19      1.17      0.00
  -12  -13   19      0.14      0.00
    8  -13   19      0.47      0.00
  -13  -12   19      0.46      0.00
  -12  -12   19      0.43      0.00
    8  -12   19      0.77      0.00
  -14  -11   19      0.95      0.00
  -13  -11   19      0.04      0.00
    8  -11   19     -0.44      0.00
  -15  -10   19      0.15      0.00
  -14  -10   19      0.43      0.00
  -13  -10   19     -0.33      0.00
    8  -10   19     -1.01      0.00
  -15   -9   19      0.68      0.00
  -14   -9   19     -0.05      0.00
    4   -9   19      0.32      0.00
    8   -9   19     -0.54      0.00
  -16   -8   19      0.98      0.00
  -15   -8   19      0.30      0.00
  -14   -8   19     -1.90      0.00
    8   -8   19      0.02      0.00
  -16   -7   19     -0.44      0.00
  -15   -7   19     -1.69      0.00
  -14   -7   19     -0.20      0.00
    8   -7   19     -0.43      0.00
  -17   -6   19     -0.86      0.00
  -16   -6   19     -0.38      0.00
  -15   -6   19     -0.53      0.00
    8   -6   19     -1.24      0.00
  -17   -5   19      0.72      0.00
  -16   -5   19      0.29      0.00
  -15   -5   19     -0.23      0.00
    7   -5   19      0.22      0.00
    8   -5   19     -0.50      0.00
  -17   -4   19      0.32      0.00
  -16   -4   19      0.55      0.00
    7   -4   19      1.31      0.00
  -18   -3   19      0.04      0.00
  -17   -3   19      0.49      0.00
  -16   -3   19     -1.07      0.00
    6   -3   19      0.42      0.00
    7   -3   19      0.17      0.00
  -18   -2   19     -0.28      0.00
  -17   -2   19      0.42      0.00
  -16   -2   19     -0.35      0.00
    5   -2   19      0.14      0.00
    6   -2   19     -0.85      0.00
    7   -2   19      0.35      0.00
  -18   -1   19      0.27      0.00
  -17   -1   19      0.46      0.00
  -16   -1   19     -1.90      0.00
    5   -1   19      0.28      0.00
    6   -1   19     -0.64      0.00
  -18    0   19     -0.92      0.00
  -17    0   19      0.30      0.00
    4    0   19     -2.39      0.00
    5    0   19      1.67      0.00
    6    0   19     -0.63      0.00
  -18    1   19      1.63      0.00
  -17    1   19     -2.29      0.00
    3    1   19      0.01      0.00
    4    1   19     -0.23      0.00
    5    1   19     -1.33      0.00
  -18    2   19      0.32      0.00
  -17    2   19     -0.93      0.00
    2    2   19      2.85      0.00
    3    2   19     -1.91      0.00
    4    2   19     -0.05      0.00
  -18    3   19      0.22      0.00
  -17    3   19     -0.78      0.00
    1    3   19     -3.91      0.00
    2    3   19     -0.98      0.00
    3    3   19     -0.78      0.00
    4    3   19      0.31      0.00
  -18    4   19     -0.81      0.00
  -17    4   19      1.09      0.00
    0    4   19     -0.55      0.00
    1    4   19      0.56      0.00
    2    4   19      0.43      0.00
    3    4   19      0.99      0.00
  -18    5   19      0.64      0.00
  -17    5   19      0.45      0.00
   -1    5   19      2.01      0.00
    0    5   19     -0.45      0.00
    1    5   19      1.90      0.00
    2    5   19     -0.40      0.00
  -18    6   19     -0.62      0.00
  -17    6   19      0.87      0.00
   -2    6   19      0.95      0.00
   -1    6   19      1.53      0.00
    0    6   19     -0.95      0.00
    1    6   19      0.27      0.00
  -17    7   19     -0.23      0.00
  -16    7   19     -0.38      0.00
   -3    7   19      1.64      0.00
   -2    7   19     -1.55      0.00
   -1    7   19      0.16      0.00
    0    7   19     -0.72      0.00
  -17    8   19      0.08      0.00
  -16    8   19      1.13      0.00
   -4    8   19      0.18      0.00
   -3    8   19     -0.44      0.00
   -2    8   19      0.17      0.00
   -1    8   19     -0.20      0.00
  -16    9   19      1.07      0.00
  -15    9   19      0.11      0.00
  -14    9   19     -0.20      0.00
   -6    9   19     -1.28      0.00
   -5    9   19     -0.60      0.00
   -4    9   19      1.24      0.00
   -3    9   19      0.00      0.00
  -15   10   19     -1.49      0.00
  -14   10   19     -0.50      0.00
  -13   10   19     -0.42      0.00
  -12   10   19     -0.03      0.00
   -8   10   19     -0.89      0.00
   -7   10   19      0.05      0.00
   -6   10   19     -0.06      0.00
   -5   10   19     -0.69      0.00
  -13   11   19     -0.51      0.00
  -12   11   19      0.28      0.00
  -11   11   19      0.24      0.00
  -10   11   19     -0.52      0.00
   -9   11   19      1.37      0.00
   -8   11   19     -0.95      0.00
   -7   11   19     -0.90      0.00
   -3  -19   20      0.99      0.00
   -2  -19   20      0.20      0.00
   -1  -19   20      0.55      0.00
    0  -19   20      0.68      0.00
    1  -19   20     -0.63      0.00
    2  -19   20      0.23      0.00
   -5  -18   20      0.97      0.00
   -4  -18   20      0.40      0.00
   -3  -18   20     -0.94      0.00
   -2  -18   20     -0.38      0.00
   -1  -18   20     -1.45      0.00
    0  -18   20      0.40      0.00
    1  -18   20     -0.17      0.00
    2  -18   20     -0.26      0.00
    3  -18   20      0.31      0.00
    4  -18   20     -0.17      0.00
   -7  -17   20      1.52      0.00
   -6  -17   20      1.27      0.00
   -5  -17   20      0.34      0.00
    2  -17   20     -0.08      0.00
    3  -17   20     -0.40      0.00
    4  -17   20     -0.06      0.00
    5  -17   20      0.55      0.00
   -9  -16   20      1.47      0.00
   -8  -16   20      1.23      0.00
   -7  -16   20      0.46      0.00
    4  -16   20      0.22      0.00
    5  -16   20     -0.17      0.00
    6  -16   20      0.28      0.00
  -10  -15   20      0.26      0.00
   -9  -15   20      0.88      0.00
    5  -15   20      1.81      0.00
    6  -15   20     -0.08      0.00
  -11  -14   20     -0.21      0.00
  -10  -14   20      0.06      0.00
    6  -14   20     -0.92      0.00
    7  -14   20     -0.44      0.00
  -12  -13   20     -0.26      0.00
  -11  -13   20      1.40      0.00
    6  -13   20      0.59      0.00
    7  -13   20     -0.57      0.00
  -13  -12   20     -0.01      0.00
  -12  -12   20     -0.36      0.00
    7  -12   20     -0.08      0.00
  -13  -11   20     -0.74      0.00
  -12  -11   20     -1.00      0.00
    7  -11   20      0.27      0.00
  -14  -10   20     -0.54      0.00
  -13  -10   20      0.36      0.00
    7  -10   20      1.16      0.00
  -15   -9   20     -0.12      0.00
  -14   -9   20     -0.42      0.00
  -13   -9   20     -1.04      0.00
    7   -9   20      0.00      0.00
  -15   -8   20      0.11      0.00
  -14   -8   20      0.91      0.00
    7   -8   20      0.71      0.00
  -16   -7   20      0.02      0.00
  -15   -7   20      1.05      0.00
  -14   -7   20     -1.75      0.00
    7   -7   20      1.63      0.00
  -16   -6   20     -0.25      0.00
  -15   -6   20     -0.69      0.00
  -14   -6   20      0.04      0.00
    7   -6   20      0.91      0.00
  -17   -5   20     -0.11      0.00
  -16   -5   20      0.08      0.00
  -15   -5   20     -1.34      0.00
    6   -5   20      0.08      0.00
    7   -5   20      0.85      0.00
  -17   -4   20     -0.29      0.00
  -16   -4   20     -1.12      0.00
  -15   -4   20      0.09      0.00
    5   -4   20     -0.23      0.00
    6   -4   20     -0.62      0.00
  -17   -3   20      0.14      0.00
  -16   -3   20      0.05      0.00
  -15   -3   20     -1.09      0.00
    5   -3   20      0.23      0.00
    6   -3   20     -1.47      0.00
  -17   -2   20     -0.62      0.00
  -16   -2   20     -1.05      0.00
  -15   -2   20      1.32      0.00
    4   -2   20     -0.87      0.00
    5   -2   20      0.02      0.00
  -18   -1   20     -0.97      0.00
  -17   -1   20      0.08      0.00
  -16   -1   20     -3.45      0.00
    3   -1   20     -0.24      0.00
    4   -1   20     -0.74      0.00
    5   -1   20      1.36      0.00
  -18    0   20     -0.75      0.00
  -17    0   20     -0.30      0.00
  -16    0   20     -1.02      0.00
    2    0   20     -1.46      0.00
    3    0   20      1.30      0.00
    4    0   20     -0.70      0.00
  -18    1   20     -0.16      0.00
  -17    1   20      0.17      0.00
  -16    1   20     -1.24      0.00
    1    1   20      1.04      0.00
    2    1   20     -1.25      0.00
    3    1   20      1.49      0.00
    4    1   20     -1.44      0.00
  -18    2   20      0.52      0.00
  -17    2   20      0.06      0.00
  -16    2   20      0.91      0.00
    0    2   20     -0.28      0.00
    1    2   20      0.51      0.00
    2    2   20      0.37      0.00
    3    2   20      0.30      0.00
  -18    3   20     -0.04      0.00
  -17    3   20      0.26      0.00
  -16    3   20     -0.42      0.00
    0    3   20      2.59      0.00
    1    3   20     -1.39      0.00
    2    3   20      0.43      0.00
  -17    4   20      0.09      0.00
  -16    4   20     -0.27      0.00
   -2    4   20      2.06      0.00
   -1    4   20     -2.58      0.00
    0    4   20      0.87      0.00
    1    4   20     -0.68      0.00
  -17    5   20      0.10      0.00
  -16    5   20     -0.18      0.00
   -3    5   20     -1.78      0.00
   -2    5   20     -0.25      0.00
   -1    5   20     -0.93      0.00
    0    5   20     -1.08      0.00
    1    5   20      0.08      0.00
  -17    6   20      0.22      0.00
  -16    6   20     -1.23      0.00
  -15    6   20      0.46      0.00
   -4    6   20     -1.59      0.00
   -3    6   20      0.17      0.00
   -2    6   20     -0.15      0.00
   -1    6   20      1.78      0.00
  -16    7   20     -0.99      0.00
  -15    7   20     -0.82      0.00
   -6    7   20     -0.27      0.00
   -5    7   20     -1.23      0.00
   -4    7   20      1.18      0.00
   -3    7   20      0.55      0.00
   -2    7   20      0.44      0.00
  -15    8   20     -1.32      0.00
  -14    8   20      0.55      0.00
   -8    8   20      0.26      0.00
   -7    8   20     -0.04      0.00
   -6    8   20      0.57      0.00
   -5    8   20     -0.18      0.00
   -4    8   20      0.20      0.00
   -3    8   20      0.04      0.00
  -14    9   20      2.03      0.00
  -13    9   20     -0.89      0.00
  -12    9   20      0.26      0.00
  -11    9   20     -1.17      0.00
  -10    9   20     -0.23      0.00
   -9    9   20      0.75      0.00
   -8    9   20     -0.54      0.00
   -7    9   20      0.16      0.00
   -6    9   20      0.49      0.00
   -5    9   20     -0.31      0.00
  -12   10   20      0.50      0.00
  -11   10   20      0.04      0.00
  -10   10   20     -1.43      0.00
   -9   10   20      0.51      0.00
   -8   10   20      0.62      0.00
   -4  -18   21     -0.84      0.00
   -3  -18   21      0.05      0.00
   -2  -18   21     -1.51      0.00
   -1  -18   21     -1.38      0.00
    0  -18   21      0.48      0.00
    1  -18   21     -0.05      0.00
    2  -18   21      0.47      0.00
   -6  -17   21      0.14      0.00
   -5  -17   21      0.22      0.00
   -4  -17   21      0.27      0.00
   -3  -17   21     -0.98      0.00
   -2  -17   21     -0.03      0.00
   -1  -17   21     -1.00      0.00
    0  -17   21      0.40      0.00
    1  -17   21      0.24      0.00
    2  -17   21      0.20      0.00
    3  -17   21     -0.22      0.00
   -8  -16   21     -0.55      0.00
   -7  -16   21      1.20      0.00
   -6  -16   21     -0.32      0.00
    3  -16   21     -0.89      0.00
    4  -16   21      0.19      0.00
   -9  -15   21      1.06      0.00
   -8  -15   21      0.09      0.00
    4  -15   21     -0.08      0.00
    5  -15   21      0.29      0.00
  -10  -14   21     -0.40      0.00
   -9  -14   21      0.27      0.00
    1  -14   21      0.25      0.00
    5  -14   21      0.52      0.00
  -11  -13   21      0.33      0.00
    5  -13   21      0.77      0.00
    6  -13   21      0.68      0.00
  -12  -12   21     -0.55      0.00
  -11  -12   21      0.20      0.00
    5  -12   21     -0.57      0.00
    6  -12   21      0.65      0.00
  -13  -11   21      0.34      0.00
  -12  -11   21     -1.59      0.00
    6  -11   21      1.01      0.00
  -14  -10   21      0.46      0.00
  -13  -10   21      0.57      0.00
  -12  -10   21      0.56      0.00
    6  -10   21      0.83      0.00
  -14   -9   21      0.07      0.00
  -13   -9   21     -1.29      0.00
  -12   -9   21      0.76      0.00
    6   -9   21     -1.61      0.00
  -15   -8   21      0.41      0.00
  -14   -8   21     -1.05      0.00
  -13   -8   21     -0.14      0.00
    6   -8   21      0.77      0.00
  -15   -7   21     -0.36      0.00
  -14   -7   21      0.92      0.00
  -13   -7   21     -0.11      0.00
    6   -7   21     -0.09      0.00
  -16   -6   21      0.29      0.00
  -15   -6   21      0.53      0.00
  -14   -6   21     -0.04      0.00
    5   -6   21     -0.11      0.00
    6   -6   21     -1.45      0.00
  -16   -5   21      0.05      0.00
  -15   -5   21      0.50      0.00
  -14   -5   21      0.02      0.00
    5   -5   21      0.85      0.00
  -16   -4   21      0.12      0.00
  -15   -4   21     -0.69      0.00
  -14   -4   21      1.08      0.00
    4   -4   21      1.67      0.00
    5   -4   21     -0.36      0.00
  -17   -3   21     -0.14      0.00
  -16   -3   21     -0.38      0.00
  -15   -3   21     -0.93      0.00
  -14   -3   21     -0.41      0.00
    3   -3   21     -0.38      0.00
    4   -3   21      1.03      0.00
    5   -3   21      0.32      0.00
  -17   -2   21      0.64      0.00
  -16   -2   21     -0.73      0.00
  -15   -2   21     -0.20      0.00
  -14   -2   21      0.00      0.00
    2   -2   21      2.75      0.00
    3   -2   21     -0.35      0.00
    4   -2   21     -0.20      0.00
  -17   -1   21     -0.20      0.00
  -16   -1   21     -0.90      0.00
  -15   -1   21     -0.53      0.00
    1   -1   21     -1.72      0.00
    2   -1   21      2.30      0.00
    3   -1   21      0.02      0.00
    4   -1   21      0.39      0.00
  -17    0   21      1.17      0.00
  -16    0   21     -1.22      0.00
  -15    0   21      0.89      0.00
    1    0   21     -0.51      0.00
    2    0   21      1.00      0.00
    3    0   21      0.66      0.00
  -17    1   21     -0.24      0.00
  -16    1   21     -1.46      0.00
  -15    1   21     -0.06      0.00
    0    1   21      0.75      0.00
    1    1   21      1.00      0.00
    2    1   21     -0.73      0.00
  -17    2   21      0.74      0.00
  -16    2   21     -0.35      0.00
  -15    2   21     -0.84      0.00
   -1    2   21      1.38      0.00
    0    2   21     -1.55      0.00
    1    2   21      0.69      0.00
    2    2   21     -1.14      0.00
  -17    3   21     -0.88      0.00
  -16    3   21     -0.75      0.00
  -15    3   21      0.36      0.00
  -14    3   21      0.54      0.00
   -3    3   21      1.93      0.00
   -2    3   21     -0.68      0.00
   -1    3   21     -0.89      0.00
    0    3   21      0.00      0.00
    1    3   21     -1.28      0.00
  -17    4   21      0.84      0.00
  -16    4   21     -0.24      0.00
  -15    4   21     -0.52      0.00
  -14    4   21      0.03      0.00
   -4    4   21      0.76      0.00
   -3    4   21     -0.99      0.00
   -2    4   21      0.97      0.00
   -1    4   21     -0.71      0.00
    0    4   21      0.98      0.00
  -16    5   21     -0.35      0.00
  -15    5   21      0.66      0.00
  -14    5   21     -0.29      0.00
  -13    5   21      0.80      0.00
   -6    5   21     -0.24      0.00
   -5    5   21      0.88      0.00
   -4    5   21     -0.09      0.00
   -3    5   21      0.05      0.00
   -2    5   21      0.42      0.00
   -1    5   21      0.99      0.00
  -16    6   21      0.19      0.00
  -15    6   21      0.13      0.00
  -14    6   21      0.74      0.00
  -13    6   21      2.10      0.00
  -12    6   21      0.25      0.00
   -8    6   21     -0.50      0.00
   -7    6   21      1.62      0.00
   -6    6   21     -0.21      0.00
   -5    6   21      0.05      0.00
   -4    6   21      0.10      0.00
   -3    6   21     -0.16      0.00
   -2    6   21      1.16      0.00
  -15    7   21      1.25      0.00
  -14    7   21     -0.12      0.00
  -13    7   21      0.33      0.00
  -12    7   21     -1.44      0.00
  -11    7   21     -1.27      0.00
  -10    7   21      0.23      0.00
   -9    7   21      0.12      0.00
   -8    7   21     -0.50      0.00
   -7    7   21      0.03      0.00
   -6    7   21      0.44      0.00
   -5    7   21     -0.41      0.00
   -4    7   21     -0.30      0.00
  -14    8   21      0.35      0.00
  -13    8   21     -0.93      0.00
  -12    8   21     -0.68      0.00
  -11    8   21     -0.58      0.00
  -10    8   21     -0.24      0.00
   -9    8   21      1.00      0.00
   -8    8   21      0.01      0.00
   -7    8   21     -0.19      0.00
   -6    8   21      0.25      0.00
  -11    9   21     -0.34      0.00
  -10    9   21      0.54      0.00
   -9    9   21     -0.18      0.00
   -5  -17   22      0.63      0.00
   -4  -17   22      0.62      0.00
   -3  -17   22     -0.10      0.00
   -2  -17   22     -1.77      0.00
   -1  -17   22     -0.10      0.00
    0  -17   22      0.26      0.00
    1  -17   22      1.24      0.00
   -7  -16   22      0.65      0.00
   -6  -16   22      0.74      0.00
   -5  -16   22      0.49      0.00
   -4  -16   22     -0.39      0.00
   -3  -16   22     -0.35      0.00
   -2  -16   22      0.04      0.00
   -1  -16   22      0.89      0.00
    0  -16   22      0.79      0.00
    1  -16   22      0.91      0.00
    2  -16   22      0.47      0.00
    3  -16   22     -0.64      0.00
   -8  -15   22      0.69      0.00
   -7  -15   22      1.25      0.00
   -6  -15   22     -0.59      0.00
    2  -15   22      0.67      0.00
    3  -15   22     -1.03      0.00
  -10  -14   22      0.37      0.00
   -9  -14   22      0.62      0.00
   -8  -14   22      0.05      0.00
    3  -14   22     -0.67      0.00
    4  -14   22     -0.49      0.00
  -11  -13   22      0.79      0.00
  -10  -13   22     -0.45      0.00
    3  -13   22      0.69      0.00
    4  -13   22      0.10      0.00
  -12  -12   22     -0.81      0.00
  -11  -12   22     -0.23      0.00
  -10  -12   22      0.00      0.00
    4  -12   22     -0.14      0.00
    5  -12   22     -0.05      0.00
  -12  -11   22     -0.51      0.00
  -11  -11   22     -0.31      0.00
    4  -11   22      0.93      0.00
    5  -11   22     -0.73      0.00
  -13  -10   22     -0.12      0.00
  -12  -10   22     -2.05      0.00
  -11  -10   22     -1.27      0.00
    4  -10   22      0.75      0.00
    5  -10   22      0.66      0.00
  -14   -9   22     -0.76      0.00
  -13   -9   22     -0.09      0.00
  -12   -9   22     -0.30      0.00
    4   -9   22     -0.99      0.00
    5   -9   22      0.11      0.00
  -14   -8   22      0.80      0.00
  -13   -8   22     -2.27      0.00
  -12   -8   22      0.61      0.00
    4   -8   22      0.57      0.00
    5   -8   22      0.79      0.00
  -15   -7   22      0.15      0.00
  -14   -7   22     -0.23      0.00
  -13   -7   22     -0.04      0.00
  -12   -7   22     -0.67      0.00
    4   -7   22      1.65      0.00
    5   -7   22     -0.05      0.00
  -15   -6   22      0.10      0.00
  -14   -6   22     -0.01      0.00
  -13   -6   22      0.90      0.00
    4   -6   22      0.62      0.00
  -16   -5   22      0.05      0.00
  -15   -5   22     -0.76      0.00
  -14   -5   22     -0.11      0.00
  -13   -5   22      0.05      0.00
    3   -5   22      0.92      0.00
    4   -5   22      0.24      0.00
  -16   -4   22      0.15      0.00
  -15   -4   22      0.22      0.00
  -14   -4   22      0.56      0.00
  -13   -4   22      0.02      0.00
    2   -4   22     -0.90      0.00
    3   -4   22      0.80      0.00
    4   -4   22     -0.77      0.00
  -16   -3   22     -0.88      0.00
  -15   -3   22     -0.64      0.00
  -14   -3   22      1.22      0.00
  -13   -3   22     -0.50      0.00
    1   -3   22      0.30      0.00
    2   -3   22     -0.31      0.00
    3   -3   22     -1.10      0.00
  -16   -2   22      0.17      0.00
  -15   -2   22     -0.84      0.00
  -14   -2   22      0.58      0.00
  -13   -2   22     -1.92      0.00
    0   -2   22      0.34      0.00
    1   -2   22     -2.49      0.00
    2   -2   22      1.24      0.00
    3   -2   22     -0.72      0.00
  -16   -1   22     -0.44      0.00
  -15   -1   22     -1.54      0.00
  -14   -1   22      0.07      0.00
  -13   -1   22      0.36      0.00
   -1   -1   22     -1.71      0.00
    0   -1   22      0.22      0.00
    1   -1   22     -1.77      0.00
    2   -1   22      0.44      0.00
  -16    0   22      0.24      0.00
  -15    0   22     -0.52      0.00
  -14    0   22     -1.60      0.00
  -13    0   22      0.58      0.00
   -2    0   22      0.18      0.00
   -1    0   22     -2.20      0.00
    0    0   22      0.73      0.00
    1    0   22     -2.15      0.00
    2    0   22      0.53      0.00
  -16    1   22     -0.62      0.00
  -15    1   22     -0.15      0.00
  -14    1   22      0.11      0.00
  -13    1   22      1.77      0.00
   -3    1   22     -2.50      0.00
   -2    1   22      0.83      0.00
   -1    1   22     -2.06      0.00
    0    1   22      1.16      0.00
    1    1   22      0.19      0.00
  -16    2   22      0.66      0.00
  -15    2   22      0.59      0.00
  -14    2   22     -0.02      0.00
  -13    2   22      1.54      0.00
  -12    2   22      0.88      0.00
   -4    2   22      0.00      0.00
   -3    2   22      1.15      0.00
   -2    2   22      0.73      0.00
   -1    2   22      0.58      0.00
    0    2   22      0.48      0.00
  -16    3   22      0.13      0.00
  -15    3   22      0.24      0.00
  -14    3   22      0.53      0.00
  -13    3   22     -1.74      0.00
  -12    3   22      0.29      0.00
   -6    3   22     -2.02      0.00
   -5    3   22      1.18      0.00
   -4    3   22     -0.07      0.00
   -3    3   22      0.94      0.00
   -2    3   22      0.37      0.00
   -1    3   22      0.92      0.00
  -16    4   22     -0.67      0.00
  -15    4   22      0.20      0.00
  -14    4   22     -0.65      0.00
  -13    4   22      0.54      0.00
  -12    4   22     -0.18      0.00
  -11    4   22     -2.60      0.00
  -10    4   22     -0.39      0.00
   -9    4   22     -1.25      0.00
   -8    4   22     -1.27      0.00
   -7    4   22      0.04      0.00
   -6    4   22      0.46      0.00
   -5    4   22      0.79      0.00
   -4    4   22      0.36      0.00
   -3    4   22     -0.23      0.00
   -2    4   22     -0.90      0.00
  -15    5   22      0.16      0.00
  -14    5   22     -0.69      0.00
  -13    5   22     -0.85      0.00
  -12    5   22     -0.08      0.00
  -11    5   22     -1.55      0.00
  -10    5   22      1.56      0.00
   -9    5   22      0.13      0.00
   -8    5   22      0.72      0.00
   -7    5   22     -0.62      0.00
   -6    5   22      0.34      0.00
   -5    5   22      0.10      0.00
   -4    5   22     -0.46      0.00
   -3    5   22     -1.26      0.00
  -14    6   22     -1.41      0.00
  -13    6   22     -0.43      0.00
  -12    6   22      0.38      0.00
  -11    6   22     -0.61      0.00
  -10    6   22      1.06      0.00
   -9    6   22     -0.36      0.00
   -8    6   22     -0.55      0.00
   -7    6   22     -0.26      0.00
   -6    6   22     -1.09      0.00
   -5    6   22      0.53      0.00
   -4    6   22     -1.03      0.00
  -13    7   22      0.23      0.00
  -12    7   22      0.70      0.00
  -11    7   22     -0.07      0.00
  -10    7   22     -0.62      0.00
   -9    7   22      0.34      0.00
   -8    7   22     -2.76      0.00
   -7    7   22      0.16      0.00
   -5  -16   23     -0.95      0.00
   -4  -16   23      0.37      0.00
   -3  -16   23     -0.07      0.00
   -2  -16   23     -0.30      0.00
   -1  -16   23      0.55      0.00
    0  -16   23     -0.81      0.00
   -7  -15   23     -0.10      0.00
   -6  -15   23     -0.43      0.00
   -5  -15   23     -0.19      0.00
   -4  -15   23      0.79      0.00
   -3  -15   23      0.08      0.00
   -2  -15   23     -0.74      0.00
   -1  -15   23      0.01      0.00
    0  -15   23     -0.25      0.00
    1  -15   23      0.02      0.00
   -8  -14   23     -0.42      0.00
   -7  -14   23      0.41      0.00
   -6  -14   23      0.59      0.00
    0  -14   23      0.92      0.00
    1  -14   23      0.15      0.00
    2  -14   23      1.06      0.00
  -10  -13   23      0.57      0.00
   -9  -13   23     -0.27      0.00
   -8  -13   23      1.14      0.00
    1  -13   23     -0.28      0.00
    2  -13   23     -0.04      0.00
    3  -13   23     -0.49      0.00
  -11  -12   23     -0.30      0.00
  -10  -12   23     -0.07      0.00
   -9  -12   23     -0.08      0.00
    2  -12   23     -0.55      0.00
    3  -12   23      0.58      0.00
  -12  -11   23      0.18      0.00
  -11  -11   23      1.27      0.00
  -10  -11   23     -0.88      0.00
    2  -11   23      0.19      0.00
    3  -11   23      0.05      0.00
  -12  -10   23     -0.08      0.00
  -11  -10   23      0.41      0.00
  -10  -10   23     -2.12      0.00
    3  -10   23     -0.42      0.00
    4  -10   23      0.65      0.00
  -13   -9   23     -0.26      0.00
  -12   -9   23      0.13      0.00
  -11   -9   23      0.83      0.00
    3   -9   23      0.10      0.00
    4   -9   23     -1.40      0.00
  -14   -8   23     -0.37      0.00
  -13   -8   23      0.35      0.00
  -12   -8   23     -0.53      0.00
  -11   -8   23     -1.38      0.00
    3   -8   23      0.41      0.00
  -14   -7   23      0.15      0.00
  -13   -7   23     -0.89      0.00
  -12   -7   23      1.02      0.00
  -11   -7   23      0.58      0.00
    3   -7   23      0.17      0.00
  -14   -6   23      1.09      0.00
  -13   -6   23      0.93      0.00
  -12   -6   23     -2.29      0.00
  -11   -6   23      1.03      0.00
    2   -6   23      0.74      0.00
    3   -6   23     -1.30      0.00
  -15   -5   23     -0.09      0.00
  -14   -5   23     -0.36      0.00
  -13   -5   23      0.56      0.00
  -12   -5   23      0.01      0.00
  -11   -5   23      1.61      0.00
    1   -5   23     -0.09      0.00
    2   -5   23     -0.64      0.00
    3   -5   23      0.46      0.00
  -15   -4   23     -0.33      0.00
  -14   -4   23      0.10      0.00
  -13   -4   23     -0.85      0.00
  -12   -4   23     -0.76      0.00
    0   -4   23     -3.04      0.00
    1   -4   23      1.19      0.00
    2   -4   23     -0.21      0.00
  -15   -3   23     -1.14      0.00
  -14   -3   23     -0.15      0.00
  -13   -3   23     -0.30      0.00
  -12   -3   23     -1.38      0.00
   -1   -3   23     -0.26      0.00
    0   -3   23     -0.86      0.00
    1   -3   23     -0.05      0.00
    2   -3   23      0.03      0.00
  -15   -2   23     -0.14      0.00
  -14   -2   23     -0.56      0.00
  -13   -2   23     -0.90      0.00
  -12   -2   23      3.36      0.00
  -11   -2   23      1.12      0.00
   -2   -2   23     -0.50      0.00
   -1   -2   23      0.84      0.00
    0   -2   23     -0.43      0.00
    1   -2   23      0.27      0.00
  -16   -1   23      0.32      0.00
  -15   -1   23     -1.02      0.00
  -14   -1   23      1.80      0.00
  -13   -1   23      0.75      0.00
  -12   -1   23      1.24      0.00
  -11   -1   23     -1.82      0.00
   -3   -1   23      3.06      0.00
   -2   -1   23     -1.04      0.00
   -1   -1   23     -0.16      0.00
    0   -1   23      0.89      0.00
    1   -1   23     -0.27      0.00
  -16    0   23      1.20      0.00
  -15    0   23     -0.51      0.00
  -14    0   23     -0.56      0.00
  -13    0   23     -0.46      0.00
  -12    0   23      0.44      0.00
  -11    0   23     -1.23      0.00
  -10    0   23     -0.95      0.00
   -5    0   23      0.72      0.00
   -4    0   23     -0.81      0.00
   -3    0   23      0.29      0.00
   -2    0   23      1.71      0.00
   -1    0   23     -0.28      0.00
    0    0   23      1.05      0.00
  -15    1   23     -0.80      0.00
  -14    1   23     -0.26      0.00
  -13    1   23     -0.31      0.00
  -12    1   23     -0.48      0.00
  -11    1   23     -0.74      0.00
  -10    1   23     -1.03      0.00
   -9    1   23     -0.63      0.00
   -8    1   23     -0.36      0.00
   -7    1   23     -1.01      0.00
   -6    1   23     -0.59      0.00
   -5    1   23     -0.34      0.00
   -4    1   23      0.38      0.00
   -3    1   23     -0.02      0.00
   -2    1   23      1.02      0.00
   -1    1   23      0.08      0.00
  -15    2   23     -0.76      0.00
  -14    2   23      0.16      0.00
  -13    2   23     -0.73      0.00
  -12    2   23      0.43      0.00
  -11    2   23     -1.49      0.00
  -10    2   23      0.46      0.00
   -9    2   23     -1.05      0.00
   -8    2   23      0.94      0.00
   -7    2   23     -0.55      0.00
   -6    2   23      0.35      0.00
   -5    2   23      1.30      0.00
   -4    2   23      1.56      0.00
   -3    2   23     -0.75      0.00
   -2    2   23      0.20      0.00
  -15    3   23     -0.53      0.00
  -14    3   23     -0.48      0.00
  -13    3   23     -0.61      0.00
  -12    3   23      1.36      0.00
  -11    3   23     -0.14      0.00
  -10    3   23      1.23      0.00
   -9    3   23      1.13      0.00
   -8    3   23      0.16      0.00
   -7    3   23      0.90      0.00
   -6    3   23     -0.80      0.00
   -5    3   23      0.06      0.00
   -4    3   23      0.40      0.00
   -3    3   23      0.24      0.00
  -14    4   23      0.63      0.00
  -13    4   23     -0.94      0.00
  -12    4   23      0.58      0.00
  -11    4   23     -0.96      0.00
  -10    4   23      0.13      0.00
   -9    4   23     -0.23      0.00
   -8    4   23      0.03      0.00
   -7    4   23     -0.54      0.00
   -6    4   23      0.38      0.00
   -5    4   23      0.84      0.00
   -4    4   23      1.10      0.00
  -13    5   23      1.09      0.00
  -12    5   23      1.35      0.00
  -11    5   23     -1.02      0.00
  -10    5   23      1.00      0.00
   -9    5   23      0.11      0.00
   -8    5   23      0.48      0.00
   -7    5   23      0.22      0.00
   -6    5   23      1.01      0.00
  -11    6   23     -0.73      0.00
  -10    6   23      0.33      0.00
   -9    6   23      1.93      0.00
   -8    6   23      0.10      0.00
   -4  -15   24      0.84      0.00
   -3  -15   24     -0.32      0.00
   -2  -15   24     -0.20      0.00
   -7  -14   24      0.26      0.00
   -6  -14   24      0.65      0.00
   -5  -14   24     -0.78      0.00
   -4  -14   24      1.73      0.00
   -3  -14   24     -1.15      0.00
   -2  -14   24     -0.13      0.00
   -1  -14   24     -0.24      0.00
    0  -14   24     -0.18      0.00
   -8  -13   24      0.87      0.00
   -7  -13   24     -0.57      0.00
   -6  -13   24      1.74      0.00
   -5  -13   24     -1.10      0.00
   -4  -13   24     -0.11      0.00
   -3  -13   24     -1.26      0.00
   -2  -13   24      0.72      0.00
   -1  -13   24     -0.09      0.00
    0  -13   24      0.86      0.00
    1  -13   24     -0.67      0.00
  -10  -12   24     -0.07      0.00
   -9  -12   24     -0.37      0.00
   -8  -12   24      1.35      0.00
   -7  -12   24      0.06      0.00
   -1  -12   24     -0.36      0.00
    0  -12   24     -0.54      0.00
    1  -12   24      0.34      0.00
  -10  -11   24     -0.83      0.00
   -9  -11   24     -1.01      0.00
   -8  -11   24     -0.05      0.00
    0  -11   24      0.24      0.00
    1  -11   24     -0.28      0.00
    2  -11   24     -0.07      0.00
  -11  -10   24     -0.25      0.00
  -10  -10   24     -1.76      0.00
   -9  -10   24      1.69      0.00
    0  -10   24      0.40      0.00
    1  -10   24      0.15      0.00
    2  -10   24      0.43      0.00
  -12   -9   24     -0.73      0.00
  -11   -9   24      0.68      0.00
  -10   -9   24     -1.80      0.00
   -9   -9   24     -0.04      0.00
    1   -9   24     -0.83      0.00
    2   -9   24      0.60      0.00
  -13   -8   24      0.05      0.00
  -12   -8   24      0.11      0.00
  -11   -8   24      0.59      0.00
  -10   -8   24      0.76      0.00
   -9   -8   24      0.02      0.00
    1   -8   24      1.09      0.00
    2   -8   24     -0.47      0.00
  -13   -7   24      0.46      0.00
  -12   -7   24      0.51      0.00
  -11   -7   24     -0.06      0.00
  -10   -7   24     -0.24      0.00
   -9   -7   24     -1.94      0.00
    0   -7   24     -1.83      0.00
    1   -7   24      0.75      0.00
    2   -7   24     -0.14      0.00
  -14   -6   24     -0.01      0.00
  -13   -6   24     -0.41      0.00
  -12   -6   24     -0.53      0.00
  -11   -6   24     -0.15      0.00
  -10   -6   24      0.29      0.00
   -9   -6   24      0.08      0.00
   -1   -6   24     -0.87      0.00
    0   -6   24      0.33      0.00
    1   -6   24      0.77      0.00
  -14   -5   24      0.22      0.00
  -13   -5   24      0.25      0.00
  -12   -5   24     -0.56      0.00
  -11   -5   24      1.88      0.00
  -10   -5   24      0.55      0.00
   -9   -5   24      0.44      0.00
   -2   -5   24      0.10      0.00
   -1   -5   24     -0.15      0.00
    0   -5   24     -0.42      0.00
    1   -5   24      0.40      0.00
  -14   -4   24      0.33      0.00
  -13   -4   24      1.07      0.00
  -12   -4   24     -0.11      0.00
  -11   -4   24      1.51      0.00
  -10   -4   24     -0.75      0.00
   -9   -4   24     -0.26      0.00
   -4   -4   24      1.07      0.00
   -3   -4   24      0.32      0.00
   -2   -4   24      0.74      0.00
   -1   -4   24      1.42      0.00
    0   -4   24      0.42      0.00
    1   -4   24      0.10      0.00
  -14   -3   24      0.30      0.00
  -13   -3   24      0.13      0.00
  -12   -3   24     -1.16      0.00
  -11   -3   24      1.35      0.00
  -10   -3   24     -1.38      0.00
   -9   -3   24      0.54      0.00
   -8   -3   24     -0.84      0.00
   -7   -3   24     -0.30      0.00
   -6   -3   24      0.68      0.00
   -5   -3   24     -1.87      0.00
   -4   -3   24      1.19      0.00
   -3   -3   24      0.47      0.00
   -2   -3   24      0.59      0.00
   -1   -3   24      0.95      0.00
    0   -3   24     -1.53      0.00
  -14   -2   24     -0.56      0.00
  -13   -2   24     -0.03      0.00
  -12   -2   24      1.28      0.00
  -11   -2   24     -1.48      0.00
  -10   -2   24     -0.54      0.00
   -9   -2   24     -2.97      0.00
   -8   -2   24      0.74      0.00
   -7   -2   24     -3.82      0.00
   -6   -2   24      1.34      0.00
   -5   -2   24     -0.65      0.00
   -4   -2   24     -0.16      0.00
   -3   -2   24      0.88      0.00
   -2   -2   24     -0.56      0.00
   -1   -2   24     -0.58      0.00
    0   -2   24     -0.37      0.00
  -14   -1   24     -0.37      0.00
  -13   -1   24     -1.72      0.00
  -12   -1   24      0.70      0.00
  -11   -1   24     -2.09      0.00
  -10   -1   24      0.15      0.00
   -9   -1   24     -2.23      0.00
   -8   -1   24      1.66      0.00
   -7   -1   24     -1.33      0.00
   -6   -1   24      0.89      0.00
   -5   -1   24      0.39      0.00
   -4   -1   24      0.63      0.00
   -3   -1   24     -0.87      0.00
   -2   -1   24     -0.07      0.00
   -1   -1   24     -1.40      0.00
  -14    0   24     -0.72      0.00
  -13    0   24      0.48      0.00
  -12    0   24      1.09      0.00
  -11    0   24     -0.29      0.00
  -10    0   24      0.51      0.00
   -9    0   24      0.86      0.00
   -8    0   24      0.33      0.00
   -7    0   24     -0.16      0.00
   -6    0   24      0.23      0.00
   -5    0   24      0.51      0.00
   -4    0   24     -1.13      0.00
   -3    0   24      0.49      0.00
   -2    0   24     -0.99      0.00
  -14    1   24      0.98      0.00
  -13    1   24     -0.14      0.00
  -12    1   24      1.34      0.00
  -11    1   24     -0.02      0.00
  -10    1   24      0.18      0.00
   -9    1   24     -0.14      0.00
   -8    1   24      2.07      0.00
   -7    1   24      0.00      0.00
   -6    1   24     -0.77      0.00
   -5    1   24      0.79      0.00
   -4    1   24     -0.17      0.00
   -3    1   24     -0.67      0.00
  -14    2   24      1.10      0.00
  -13    2   24     -0.25      0.00
  -12    2   24      0.48      0.00
  -11    2   24     -1.07      0.00
  -10    2   24      1.08      0.00
   -9    2   24     -0.33      0.00
   -8    2   24      0.23      0.00
   -7    2   24      0.01      0.00
   -6    2   24      0.03      0.00
   -5    2   24     -0.03      0.00
   -4    2   24      1.23      0.00
  -13    3   24     -0.72      0.00
  -12    3   24      1.73      0.00
  -11    3   24     -0.70      0.00
  -10    3   24      0.78      0.00
   -9    3   24     -1.07      0.00
   -8    3   24      0.50      0.00
   -7    3   24     -0.67      0.00
   -6    3   24     -0.30      0.00
   -5    3   24     -0.04      0.00
  -11    4   24     -1.73      0.00
  -10    4   24      0.15      0.00
   -9    4   24      0.65      0.00
   -8    4   24     -0.23      0.00
   -7    4   24      0.02      0.00
   -6  -13   25     -0.32      0.00
   -5  -13   25     -1.41      0.00
   -4  -13   25      0.74      0.00
   -3  -13   25     -1.45      0.00
   -2  -13   25      0.51      0.00
   -8  -12   25      0.80      0.00
   -7  -12   25     -1.82      0.00
   -6  -12   25      1.43      0.00
   -5  -12   25     -0.41      0.00
   -4  -12   25      1.39      0.00
   -3  -12   25     -0.13      0.00
   -2  -12   25     -0.09      0.00
   -1  -12   25     -0.67      0.00
   -9  -11   25     -1.38      0.00
   -8  -11   25     -0.11      0.00
   -7  -11   25     -0.14      0.00
   -6  -11   25      0.20      0.00
   -5  -11   25      0.79      0.00
   -4  -11   25     -0.96      0.00
   -3  -11   25      0.28      0.00
   -2  -11   25     -0.52      0.00
   -1  -11   25      0.45      0.00
  -10  -10   25     -0.43      0.00
   -9  -10   25      0.33      0.00
   -8  -10   25      0.49      0.00
   -7  -10   25     -0.75      0.00
   -6  -10   25      0.64      0.00
   -4  -10   25     -0.64      0.00
   -3  -10   25      1.53      0.00
   -2  -10   25     -1.29      0.00
   -1  -10   25      0.25      0.00
    0  -10   25      0.47      0.00
  -11   -9   25      0.24      0.00
  -10   -9   25     -1.37      0.00
   -9   -9   25      0.56      0.00
   -8   -9   25      0.46      0.00
   -7   -9   25      1.62      0.00
   -6   -9   25      0.40      0.00
   -5   -9   25      2.58      0.00
   -3   -9   25      1.62      0.00
   -2   -9   25      0.06      0.00
   -1   -9   25     -0.15      0.00
    0   -9   25     -0.56      0.00
  -11   -8   25      0.93      0.00
  -10   -8   25      0.22      0.00
   -9   -8   25     -1.21      0.00
   -8   -8   25      0.08      0.00
   -7   -8   25     -0.02      0.00
   -6   -8   25     -0.71      0.00
   -5   -8   25      0.15      0.00
   -4   -8   25      0.05      0.00
   -3   -8   25     -2.01      0.00
   -2   -8   25     -0.83      0.00
   -1   -8   25     -1.36      0.00
    0   -8   25      0.13      0.00
  -12   -7   25      0.43      0.00
  -11   -7   25     -1.03      0.00
  -10   -7   25      0.74      0.00
   -9   -7   25     -0.35      0.00
   -8   -7   25      0.43      0.00
   -7   -7   25     -0.22      0.00
   -6   -7   25     -0.02      0.00
   -5   -7   25     -1.64      0.00
   -4   -7   25     -0.21      0.00
   -3   -7   25     -0.89      0.00
   -2   -7   25      0.60      0.00
   -1   -7   25     -0.85      0.00
    0   -7   25     -1.01      0.00
  -12   -6   25      0.03      0.00
  -11   -6   25      0.43      0.00
  -10   -6   25     -0.07      0.00
   -9   -6   25     -0.77      0.00
   -8   -6   25      0.41      0.00
   -7   -6   25     -0.35      0.00
   -6   -6   25     -0.65      0.00
   -5   -6   25      0.32      0.00
   -4   -6   25      2.16      0.00
   -3   -6   25     -0.65      0.00
   -2   -6   25      0.44      0.00
   -1   -6   25      1.27      0.00
    0   -6   25     -0.52      0.00
  -13   -5   25      0.53      0.00
  -12   -5   25      0.00      0.00
  -11   -5   25      0.87      0.00
  -10   -5   25      0.89      0.00
   -9   -5   25     -0.62      0.00
   -8   -5   25     -0.76      0.00
   -7   -5   25      2.57      0.00
   -6   -5   25     -0.10      0.00
   -5   -5   25      0.23      0.00
   -4   -5   25      0.62      0.00
   -3   -5   25      0.01      0.00
   -2   -5   25     -1.08      0.00
   -1   -5   25     -0.57      0.00
  -13   -4   25     -0.04      0.00
  -12   -4   25     -0.25      0.00
  -11   -4   25      1.15      0.00
  -10   -4   25     -1.38      0.00
   -9   -4   25      0.76      0.00
   -8   -4   25     -1.33      0.00
   -7   -4   25      0.83      0.00
   -6   -4   25      0.52      0.00
   -5   -4   25      0.66      0.00
   -4   -4   25      0.44      0.00
   -3   -4   25     -1.82      0.00
   -2   -4   25      0.30      0.00
   -1   -4   25      0.21      0.00
  -13   -3   25     -0.70      0.00
  -12   -3   25     -1.45      0.00
  -11   -3   25      1.36      0.00
  -10   -3   25      0.17      0.00
   -9   -3   25      0.65      0.00
   -8   -3   25     -0.07      0.00
   -7   -3   25      0.40      0.00
   -6   -3   25     -1.41      0.00
   -5   -3   25     -1.26      0.00
   -4   -3   25     -1.34      0.00
   -3   -3   25      0.37      0.00
   -2   -3   25     -0.80      0.00
  -13   -2   25      1.22      0.00
  -12   -2   25      1.70      0.00
  -11   -2   25      0.05      0.00
  -10   -2   25     -1.53      0.00
   -9   -2   25     -0.17      0.00
   -8   -2   25     -0.31      0.00
   -7   -2   25     -0.69      0.00
   -6   -2   25      0.52      0.00
   -5   -2   25     -0.17      0.00
   -4   -2   25     -0.04      0.00
   -3   -2   25      0.09      0.00
   -2   -2   25      1.16      0.00
  -13   -1   25     -0.39      0.00
  -12   -1   25      0.03      0.00
  -11   -1   25     -0.12      0.00
  -10   -1   25     -0.06      0.00
   -9   -1   25     -0.38      0.00
   -8   -1   25      2.56      0.00
   -7   -1   25     -0.68      0.00
   -6   -1   25      0.84      0.00
   -5   -1   25      0.31      0.00
   -4   -1   25      1.25      0.00
   -3   -1   25      0.51      0.00
  -12    0   25      0.58      0.00
  -11    0   25     -0.36      0.00
  -10    0   25      0.39      0.00
   -9    0   25     -1.32      0.00
   -8    0   25     -0.19      0.00
   -7    0   25     -0.73      0.00
   -6    0   25     -0.42      0.00
   -5    0   25      0.14      0.00
   -4    0   25      1.15      0.00
  -12    1   25     -0.48      0.00
  -11    1   25     -0.53      0.00
  -10    1   25     -0.92      0.00
   -9    1   25      0.34      0.00
   -8    1   25      0.05      0.00
   -7    1   25      0.12      0.00
   -6    1   25      0.20      0.00
  -10    2   25      0.90      0.00
   -9    2   25     -0.10      0.00
   -8    2   25      1.16      0.00
   -7  -10   26     -0.46      0.00
   -6  -10   26     -0.69      0.00
   -5  -10   26      0.75      0.00
   -4  -10   26     -1.41      0.00
   -3  -10   26      1.17      0.00
   -9   -9   26      0.21      0.00
   -8   -9   26      0.61      0.00
   -7   -9   26     -0.50      0.00
   -6   -9   26     -0.67      0.00
   -5   -9   26      1.52      0.00
   -4   -9   26      0.22      0.00
   -3   -9   26      1.99      0.00
   -9   -8   26     -1.00      0.00
   -8   -8   26     -0.71      0.00
   -7   -8   26      1.16      0.00
   -6   -8   26      0.55      0.00
   -5   -8   26      2.22      0.00
   -4   -8   26     -0.55      0.00
   -3   -8   26      0.76      0.00
  -10   -7   26      0.39      0.00
   -9   -7   26      0.65      0.00
   -8   -7   26      0.92      0.00
   -7   -7   26      2.33      0.00
   -6   -7   26      0.87      0.00
   -5   -7   26      0.07      0.00
   -4   -7   26      1.07      0.00
   -3   -7   26     -0.77      0.00
  -10   -6   26      1.62      0.00
   -9   -6   26      0.09      0.00
   -8   -6   26      0.40      0.00
   -7   -6   26     -0.23      0.00
   -6   -6   26     -0.24      0.00
   -5   -6   26     -0.69      0.00
   -4   -6   26     -0.30      0.00
   -3   -6   26     -0.95      0.00
  -11   -5   26      0.43      0.00
  -10   -5   26     -0.11      0.00
   -9   -5   26      0.13      0.00
   -8   -5   26     -0.68      0.00
   -7   -5   26     -0.30      0.00
   -6   -5   26     -1.30      0.00
   -5   -5   26     -1.75      0.00
   -4   -5   26      0.24      0.00
   -3   -5   26     -0.83      0.00
  -11   -4   26      0.61      0.00
  -10   -4   26     -0.34      0.00
   -9   -4   26     -0.24      0.00
   -8   -4   26     -0.65      0.00
   -7   -4   26     -0.34      0.00
   -6   -4   26      0.26      0.00
   -5   -4   26      1.38      0.00
   -4   -4   26      0.53      0.00
  -11   -3   26      1.26      0.00
  -10   -3   26     -0.26      0.00
   -9   -3   26      0.24      0.00
   -8   -3   26     -0.97      0.00
   -7   -3   26      0.50      0.00
   -6   -3   26     -1.27      0.00
   -5   -3   26      0.52      0.00
  -10   -2   26     -1.67      0.00
   -9   -2   26     -1.15      0.00
   -8   -2   26     -1.07      0.00
   -7   -2   26     -0.27      0.00
   -6   -2   26     -0.72      0.00
   -9   -1   26     -0.41      0.00
   -8   -1   26      0.66      0.00
   -7   -1   26      0.15      0.00
    0    0    0      0.00      0.00
# SQUEEZE RESULTS (Version = 230318)
# Note: Data are Listed for all Voids in the P1 Unit Cell
# i.e. Centre of Gravity, Solvent Accessible Volume,
# Recovered number of Electrons in the Void and
# Details about the Squeezed Material
loop_
  _platon_squeeze_void_nr
  _platon_squeeze_void_average_x
  _platon_squeeze_void_average_y
  _platon_squeeze_void_average_z
  _platon_squeeze_void_volume
  _platon_squeeze_void_count_electrons
  _platon_squeeze_void_content
   1 -0.017 -0.014  0.000      1297       307 ' '
   2  0.000  0.000  0.500       281        70 ' '
   3  0.500  0.500  0.500       390        83 ' '
# Missing Reflections Below sin(th)/lambda = 0.25
loop_
  _platon_missing_refln_index_h
  _platon_missing_refln_index_k
  _platon_missing_refln_index_l
  _platon_missing_refln_theta
   -3    6    0     7.285
    4   -8    1     9.639
    5   -8    1    10.119
    4   -7    1     8.646
    3   -6    1     7.213
    2   -4    1     4.823
    3   -8    2     9.334
    4   -8    2     9.681
    5   -8    2    10.230
    3   -7    2     8.287
    4   -7    2     8.757
    3   -6    2     7.323
    2   -5    2     5.951
   -1   -4    2     5.248
    3   -8    3     9.441
    4   -8    3     9.858
    3   -7    3     8.474
    0   -5    3     6.023
   -1    3    3     5.481
    4   -3    4     7.909
    5   -1    4     9.657
   -3    0    5     5.513
    0   -1    8     8.754
_platon_squeeze_void_probe_radius                  1.20
_platon_squeeze_details
)
TITL sol_a.res in P-1
CELL   16.0050   17.7770   20.4410    104.91    109.45    104.86
SPGR P-1
# Solvent Accessible Volume =      1967
# Electrons Found in S.A.V. =       460
# Note: Atoms in Void are Labelled as Cxxx and Qxxx for all Others
C101 0.869 0.692 0.344 !       7.69 eA-3
C102 0.438 0.839 0.239 !       7.36 eA-3
C103 0.263 0.514 0.066 !       6.51 eA-3
C104 0.484 0.810 0.135 !       6.35 eA-3
C105 0.470 0.720 0.143 !       5.88 eA-3
C106 0.924 0.821 0.424 !       5.87 eA-3
C107 0.465 0.854 0.190 !       4.73 eA-3
C108 0.503 0.809 0.083 !       4.43 eA-3
C109 0.217 0.566 0.059 !       3.67 eA-3
C110 0.216 0.609 0.127 !       3.65 eA-3
C111 0.015 0.122 0.497 !       3.64 eA-3
C112 0.918 0.738 0.412 !       3.62 eA-3
C113 0.859 0.852 0.374 !       3.53 eA-3
C114 0.684 0.380 0.469 !       3.07 eA-3
C115 0.660 0.451 0.411 !       2.65 eA-3
C116 0.876 0.773 0.357 !       2.65 eA-3
C117 0.407 0.968 0.061 !       2.60 eA-3
C118 0.655 0.039 0.065 !       2.39 eA-3
C119 0.655 0.387 0.419 !       2.22 eA-3
C120 0.079 0.368 0.063 !       2.22 eA-3
C121 0.095 0.326 0.019 !       2.17 eA-3
C122 0.610 0.343 0.441 !       2.05 eA-3
C123 0.285 0.616 0.200 !       1.97 eA-3
C124 0.125 0.385 0.141 !       1.93 eA-3
C125 0.809 0.905 0.065 !       1.93 eA-3
C126 0.183 0.679 0.140 !       1.91 eA-3
C127 0.500 0.500 0.500 !       1.85 eA-3
C128 0.596 0.105 0.075 !       1.74 eA-3
C129 0.639 0.514 0.483 !       1.73 eA-3
C130 0.719 0.526 0.470 !       1.72 eA-3
C131 0.907 0.847 0.096 !       1.70 eA-3
C132 0.639 0.465 0.345 !       1.68 eA-3
C133 0.876 0.925 0.078 !       1.64 eA-3
C134 0.015 0.788 0.484 !       1.63 eA-3
C135 0.703 0.068 0.137 !       1.55 eA-3
C136 0.450 0.309 0.458 !       1.52 eA-3
C137 0.046 0.114 0.044 !       1.41 eA-3
C138 0.639 0.066-0.001 !       1.41 eA-3
C139 0.521 0.397 0.485 !       1.35 eA-3
C140 0.550 0.327 0.440 !       1.31 eA-3
C141 0.938 0.907 0.447 !       1.26 eA-3
C142 0.393 0.987 0.011 !       1.22 eA-3
C143 0.717 0.868 0.052 !       1.22 eA-3
C144 0.120 0.645 0.098 !       1.20 eA-3
C145 0.964 0.779 0.046 !       1.16 eA-3
Q146 0.891 0.433 0.423 !       1.08 eA-3
C147 0.782 1.001 0.059 !       1.07 eA-3
C148 0.427 0.405 0.470 !       1.06 eA-3
C149 1.001 0.450 0.010 !       0.97 eA-3
C150 0.014 0.561 1.003 !       0.97 eA-3
C151 0.038 0.422 0.064 !       0.90 eA-3
Q152 0.950 0.411 0.392 !       0.90 eA-3
C153 0.154 0.453 0.086 !       0.89 eA-3
Q154 0.450 0.983 0.254 !       0.85 eA-3
C155 0.467 0.728 0.203 !       0.77 eA-3
Q156 0.436 0.935 0.298 !       0.77 eA-3
C157 0.196 0.695 0.207 !       0.76 eA-3
Q158 0.854 0.507 0.392 !       0.73 eA-3
Q159 0.859 0.400 0.467 !       0.72 eA-3
Q160 0.440 0.550 0.120 !       0.71 eA-3
C161 1.004 0.327 0.008 !       0.71 eA-3
Q162 0.075 0.128 0.235 !       0.71 eA-3
Q163 0.030 0.258 0.310 !       0.69 eA-3
Q164 0.425 0.944 0.329 !       0.68 eA-3
Q165 0.468 0.965 0.187 !       0.66 eA-3
Q166 0.752 0.685 0.441 !       0.66 eA-3
C167 0.066 0.188 0.028 !       0.65 eA-3
Q168 0.691 0.174 0.188 !       0.63 eA-3
Q169 0.474 0.030 0.158 !       0.63 eA-3
Q170 0.246 0.761 0.018 !       0.62 eA-3
Q171 0.221 0.606 0.486 !       0.62 eA-3
Q172 0.079 0.889 0.114 !       0.61 eA-3
Q173 0.659 0.188 0.434 !       0.60 eA-3
Q174 0.403 0.821 0.328 !       0.60 eA-3
Q175 0.589 0.855 0.471 !       0.59 eA-3
Q176 0.626 0.123 0.176 !       0.59 eA-3
Q177 0.931 0.364 0.439 !       0.58 eA-3
Q178 0.575 0.106 0.218 !       0.57 eA-3
Q179 0.811 0.107 0.378 !       0.56 eA-3
Q180 0.719 0.204 0.214 !       0.56 eA-3
Q181 0.766 0.516 0.204 !       0.56 eA-3
C182 0.029 0.697 0.060 !       0.56 eA-3
Q183 0.280 0.132 0.422 !       0.55 eA-3
Q184 0.499 0.365-0.001 !       0.55 eA-3
Q185 0.095 0.669 0.308 !       0.54 eA-3
Q186 0.817 0.711 0.204 !       0.54 eA-3
Q187 0.029 0.302 0.324 !       0.53 eA-3
Q188 0.625 0.137 0.126 !       0.53 eA-3
Q189 0.828 0.784 0.168 !       0.53 eA-3
Q190 0.096 0.015 0.356 !       0.52 eA-3
Q191 0.626 0.411 0.303 !       0.52 eA-3
Q192 0.375 0.021 0.458 !       0.51 eA-3
Q193 0.174 0.172 0.374 !       0.51 eA-3
Q194 0.481 0.425 0.029 !       0.51 eA-3
Q195 0.441 0.135 0.398 !       0.50 eA-3
)
;
_shelx_fab_checksum              71502
loop_
_space_group_symop_operation_xyz
'x, y, z'
'-x, -y, -z'
loop_
_atom_site_label
_atom_site_type_symbol
_atom_site_fract_x
_atom_site_fract_y
_atom_site_fract_z
_atom_site_U_iso_or_equiv
_atom_site_adp_type
_atom_site_occupancy
_atom_site_site_symmetry_order
_atom_site_calc_flag
_atom_site_refinement_flags_posn
_atom_site_refinement_flags_adp
_atom_site_refinement_flags_occupancy
_atom_site_disorder_assembly
_atom_site_disorder_group
Cu1 Cu 0.92860(3) 0.83495(3) 0.73630(2) 0.04384(13) Uani 1 1 d . U . . .
Cu2 Cu 0.96718(3) 0.72261(3) 0.65193(2) 0.04308(13) Uani 1 1 d . U . . .
O1_1 O 0.85093(17) 0.83803(16) 0.64027(13) 0.0495(6) Uani 1 1 d . U . . .
C1_1 C 0.8317(2) 0.7835(2) 0.57780(18) 0.0446(8) Uani 1 1 d . U . . .
N1_1 N 0.7321(2) 0.5317(2) 0.21690(17) 0.0533(8) Uani 1 1 d . U . . .
H1A_1 H 0.770230 0.507632 0.209506 0.064 Uiso 1 1 calc R U . . .
H1B_1 H 0.750587 0.571704 0.258894 0.064 Uiso 1 1 calc R U . . .
O2_1 O 0.87118(17) 0.73196(16) 0.56811(13) 0.0471(6) Uani 1 1 d . U . . .
C2_1 C 0.7535(2) 0.7811(2) 0.51029(19) 0.0438(7) Uani 1 1 d . U . . .
N2_1 N 0.3579(2) 0.4224(2) -0.00363(16) 0.0516(7) Uani 1 1 d . U . . .
H2_1 H 0.325713 0.451500 0.007611 0.062 Uiso 1 1 calc R U . . .
O3_1 O 0.94627(17) 0.27410(16) 0.25234(13) 0.0482(6) Uani 1 1 d . U . . .
C3_1 C 0.7021(3) 0.8321(2) 0.5177(2) 0.0542(9) Uani 1 1 d . U . . .
H3_1 H 0.718368 0.870934 0.564592 0.065 Uiso 1 1 calc R U . . .
O4_1 O 0.9900(2) 0.1869(2) 0.18183(15) 0.0607(7) Uani 1 1 d . U . . .
C4_1 C 0.6265(3) 0.8254(3) 0.4553(2) 0.0593(10) Uani 1 1 d . U . . .
H4_1 H 0.592079 0.859670 0.460624 0.071 Uiso 1 1 calc R U . . .
O5_1 O 0.34402(18) 0.30868(18) -0.09648(14) 0.0599(7) Uani 1 1 d . U . . .
C5_1 C 0.6021(2) 0.7681(2) 0.3856(2) 0.0501(8) Uani 1 1 d . U . . .
H5_1 H 0.550806 0.763515 0.344208 0.060 Uiso 1 1 calc R U . . .
O6_1 O 0.22047(17) 0.35006(18) -0.10249(14) 0.0583(7) Uani 1 1 d . U . . .
C7_1 C 0.7290(2) 0.7235(2) 0.43960(19) 0.0456(8) Uani 1 1 d . U . . .
H7_1 H 0.763341 0.689114 0.434402 0.055 Uiso 1 1 calc R U . . .
C8_1 C 0.6279(2) 0.6574(2) 0.30418(19) 0.0471(8) Uani 1 1 d . U . . .
C9_1 C 0.6040(2) 0.6056(3) 0.2438(2) 0.0497(8) Uani 1 1 d . U . . .
C10_1 C 0.5761(2) 0.5412(2) 0.17350(18) 0.0461(8) Uani 1 1 d . U . . .
C11_1 C 0.6420(2) 0.5062(2) 0.16182(18) 0.0456(8) Uani 1 1 d . U . . .
C12_1 C 0.6102(2) 0.4409(2) 0.09270(19) 0.0485(8) Uani 1 1 d . U . . .
C13_1 C 0.5169(3) 0.4132(2) 0.03673(19) 0.0491(8) Uani 1 1 d . U . . .
H13_1 H 0.497818 0.370783 -0.009017 0.059 Uiso 1 1 calc R U . . .
C14_1 C 0.4533(2) 0.4483(2) 0.04902(18) 0.0477(8) Uani 1 1 d . U . . .
C15_1 C 0.4831(2) 0.5128(2) 0.11730(19) 0.0472(8) Uani 1 1 d . U . . .
H15_1 H 0.440880 0.537336 0.125655 0.057 Uiso 1 1 calc R U . . .
C16_1 C 0.3121(3) 0.3567(3) -0.0697(2) 0.0524(9) Uani 1 1 d . U . . .
C17_1 C 0.1624(3) 0.2808(3) -0.1738(2) 0.0592(10) Uani 1 1 d . U . . .
H17A_1 H 0.172853 0.230116 -0.170850 0.071 Uiso 1 1 calc R U . . .
H17B_1 H 0.178852 0.293225 -0.212428 0.071 Uiso 1 1 calc R U . . .
C18_1 C 0.0587(3) 0.2688(3) -0.1918(2) 0.0600(10) Uani 1 1 d . U . . .
H18_1 H 0.045118 0.261751 -0.149979 0.072 Uiso 1 1 calc R U . . .
C19_1 C 0.0289(3) 0.3363(3) -0.2100(3) 0.0638(11) Uani 1 1 d . U . . .
C20_1 C 0.0657(3) 0.4220(3) -0.1682(3) 0.0802(15) Uani 1 1 d . U . . .
H20_1 H 0.116478 0.445266 -0.120915 0.096 Uiso 1 1 calc R U . . .
C21_1 C 0.0249(4) 0.4716(4) -0.1985(4) 0.0972(19) Uani 1 1 d . U . . .
H21_1 H 0.050077 0.529293 -0.171831 0.117 Uiso 1 1 calc R U . . .
C22_1 C -0.0507(4) 0.4386(4) -0.2662(4) 0.0968(18) Uani 1 1 d . U . . .
H22_1 H -0.078116 0.473776 -0.283789 0.116 Uiso 1 1 calc R U . . .
C23_1 C -0.0887(3) 0.3537(3) -0.3100(4) 0.0869(16) Uani 1 1 d . U . . .
H23_1 H -0.140263 0.331502 -0.356824 0.104 Uiso 1 1 calc R U . . .
C24_1 C -0.0466(3) 0.3033(3) -0.2812(3) 0.0655(11) Uani 1 1 d . U . . .
C25_1 C -0.0679(3) 0.2135(3) -0.3146(2) 0.0589(10) Uani 1 1 d . U . . .
C26_1 C -0.1335(3) 0.1526(3) -0.3843(2) 0.0683(12) Uani 1 1 d . U . . .
H26_1 H -0.173727 0.166783 -0.419500 0.082 Uiso 1 1 calc R U . . .
C27_1 C -0.1384(3) 0.0705(3) -0.4009(2) 0.0641(11) Uani 1 1 d . U . . .
H27_1 H -0.182016 0.029578 -0.447500 0.077 Uiso 1 1 calc R U . . .
C28_1 C -0.0789(3) 0.0489(3) -0.3487(2) 0.0621(10) Uani 1 1 d . U . . .
H28_1 H -0.083128 -0.006497 -0.360361 0.075 Uiso 1 1 calc R U . . .
C29_1 C -0.0127(3) 0.1095(3) -0.2788(2) 0.0596(10) Uani 1 1 d . U . . .
H29_1 H 0.027242 0.095006 -0.243723 0.072 Uiso 1 1 calc R U . . .
C30_1 C -0.0072(3) 0.1915(3) -0.2623(2) 0.0567(10) Uani 1 1 d . U . . .
C31_1 C 0.6716(3) 0.3982(3) 0.08157(19) 0.0496(8) Uani 1 1 d . U . . .
C32_1 C 0.7204(3) 0.3587(3) 0.07455(19) 0.0527(9) Uani 1 1 d . U . . .
C33_1 C 0.7744(3) 0.3074(3) 0.0670(2) 0.0573(9) Uani 1 1 d . U . . .
C34_1 C 0.7670(5) 0.2633(5) -0.0033(3) 0.103(2) Uani 1 1 d . U . . .
H34_1 H 0.727794 0.268513 -0.045753 0.124 Uiso 1 1 calc R U . . .
C35_1 C 0.8172(6) 0.2130(6) -0.0094(3) 0.137(3) Uani 1 1 d . U . . .
H35_1 H 0.814385 0.186205 -0.056110 0.164 Uiso 1 1 calc R U . . .
C36_1 C 0.8726(6) 0.2005(5) 0.0521(3) 0.116(3) Uani 1 1 d . U . . .
H36_1 H 0.903247 0.162998 0.046300 0.139 Uiso 1 1 calc R U . . .
C37_1 C 0.8819(3) 0.2448(3) 0.1227(2) 0.0610(10) Uani 1 1 d . U . . .
C38_1 C 0.8329(3) 0.2970(2) 0.1292(2) 0.0489(8) Uani 1 1 d . U . . .
H38_1 H 0.838844 0.326320 0.176392 0.059 Uiso 1 1 calc R U . . .
C39_1 C 0.9438(3) 0.2342(3) 0.1910(2) 0.0517(9) Uani 1 1 d . U . . .
C6_1 C 0.6537(2) 0.7170(2) 0.37676(19) 0.0460(8) Uani 1 1 d . U . . .
O1_2 O 0.8221(2) 0.73571(18) 0.71787(19) 0.0653(8) Uani 1 1 d . U . . .
N1_2 N 0.6656(3) 0.2105(2) 0.4786(2) 0.0687(10) Uani 1 1 d . U . . .
H1A_2 H 0.672208 0.262443 0.491021 0.082 Uiso 1 1 calc R U . . .
H1B_2 H 0.674566 0.186560 0.440647 0.082 Uiso 1 1 calc R U . . .
C1_2 C 0.8125(3) 0.6609(3) 0.6860(2) 0.0577(9) Uani 1 1 d . U . . .
O2_2 O 0.86366(18) 0.63893(16) 0.65563(15) 0.0533(6) Uani 1 1 d . U . . .
N2_2 N 0.5761(2) 0.03355(19) 0.65243(16) 0.0480(7) Uani 1 1 d . U . . .
H2_2 H 0.555135 0.056937 0.682474 0.058 Uiso 1 1 calc R U . . .
C2_2 C 0.7330(3) 0.5926(3) 0.6840(3) 0.0753(13) Uani 1 1 d . U . . .
O3_2 O 0.93589(17) 0.17607(16) 0.33789(13) 0.0488(6) Uani 1 1 d . U . . .
C3_2 C 0.6713(6) 0.6123(4) 0.7137(6) 0.148(4) Uani 1 1 d . U . . .
H3_2 H 0.678528 0.668037 0.733967 0.177 Uiso 1 1 calc R U . . .
O4_2 O 0.95871(17) 0.08027(17) 0.25694(13) 0.0503(6) Uani 1 1 d . U . . .
C5_2 C 0.5902(6) 0.4670(4) 0.6854(6) 0.156(4) Uani 1 1 d . U . . .
H5_2 H 0.543083 0.425319 0.687194 0.188 Uiso 1 1 calc R U . . .
O5_2 O 0.6110(3) -0.0839(2) 0.61653(19) 0.0735(8) Uani 1 1 d . U . . .
C6_2 C 0.6508(4) 0.4457(3) 0.6546(4) 0.0881(17) Uani 1 1 d . U . . .
O6_2 O 0.5575(3) -0.0585(2) 0.70544(18) 0.0721(8) Uani 1 1 d . U . . .
C7_2 C 0.7209(3) 0.5099(3) 0.6534(3) 0.0626(11) Uani 1 1 d . U . . .
H7_2 H 0.760378 0.496572 0.631555 0.075 Uiso 1 1 calc R U . . .
C8_2 C 0.6404(3) 0.3594(3) 0.6250(3) 0.0699(12) Uani 1 1 d . U . . .
C9_2 C 0.6329(3) 0.2883(3) 0.6034(3) 0.0608(10) Uani 1 1 d . U . . .
C10_2 C 0.6255(2) 0.2030(2) 0.5817(2) 0.0514(8) Uani 1 1 d . U . . .
C11_2 C 0.6407(3) 0.1658(3) 0.5194(2) 0.0508(8) Uani 1 1 d . U . . .
C12_2 C 0.6345(2) 0.0819(2) 0.50255(19) 0.0467(8) Uani 1 1 d . U . . .
C13_2 C 0.6133(2) 0.0375(2) 0.54589(19) 0.0460(8) Uani 1 1 d . U . . .
H13_2 H 0.608923 -0.017896 0.533627 0.055 Uiso 1 1 calc R U . . .
C14_2 C 0.5986(2) 0.0758(2) 0.60744(19) 0.0450(8) Uani 1 1 d . U . . .
C15_2 C 0.6045(2) 0.1578(2) 0.6244(2) 0.0468(8) Uani 1 1 d . U . . .
H15_2 H 0.594283 0.183502 0.665216 0.056 Uiso 1 1 calc R U . . .
C16_2 C 0.5840(3) -0.0396(3) 0.6532(2) 0.0579(10) Uani 1 1 d . U . . .
C17_2 C 0.5796(4) -0.1277(3) 0.7218(3) 0.0719(12) Uani 1 1 d . U . . .
H17A_2 H 0.646906 -0.117200 0.735937 0.086 Uiso 1 1 calc R U . . .
H17B_2 H 0.542350 -0.179620 0.678220 0.086 Uiso 1 1 calc R U . . .
C18_2 C 0.5545(4) -0.1337(3) 0.7855(3) 0.0859(16) Uani 1 1 d . U . . .
H18_2 H 0.576998 -0.077008 0.822632 0.103 Uiso 1 1 calc R U . . .
C19_2 C 0.4478(5) -0.1783(4) 0.7628(3) 0.0851(15) Uani 1 1 d . U . . .
C20_2 C 0.3729(5) -0.1609(5) 0.7242(4) 0.111(2) Uani 1 1 d . U . . .
H20_2 H 0.382176 -0.115895 0.708605 0.133 Uiso 1 1 calc R U . . .
C21_2 C 0.2780(6) -0.2147(5) 0.7083(5) 0.122(3) Uani 1 1 d . U . . .
H21_2 H 0.225333 -0.204527 0.681488 0.147 Uiso 1 1 calc R U . . .
C22_2 C 0.2646(5) -0.2796(5) 0.7318(5) 0.117(2) Uani 1 1 d . U . . .
H22_2 H 0.203190 -0.313215 0.721669 0.141 Uiso 1 1 calc R U . . .
C23_2 C 0.3449(5) -0.2965(4) 0.7722(4) 0.1007(19) Uani 1 1 d . U . . .
H23_2 H 0.336075 -0.340987 0.788436 0.121 Uiso 1 1 calc R U . . .
C24_2 C 0.4358(4) -0.2462(4) 0.7870(3) 0.0851(15) Uani 1 1 d . U . . .
C25_2 C 0.5290(4) -0.2497(4) 0.8254(3) 0.0943(18) Uani 1 1 d . U . . .
C26_2 C 0.5515(5) -0.3038(5) 0.8571(4) 0.132(3) Uani 1 1 d . U . . .
H26_2 H 0.504401 -0.346212 0.858199 0.159 Uiso 1 1 calc R U . . .
C27_2 C 0.6498(5) -0.2943(6) 0.8890(5) 0.173(5) Uani 1 1 d . U . . .
H27_2 H 0.667440 -0.331159 0.910631 0.208 Uiso 1 1 calc R U . . .
C28_2 C 0.7178(6) -0.2303(6) 0.8875(5) 0.179(5) Uani 1 1 d . U . . .
H28_2 H 0.781841 -0.223205 0.909402 0.215 Uiso 1 1 calc R U . . .
C29_2 C 0.6928(5) -0.1764(5) 0.8539(4) 0.136(3) Uani 1 1 d . U . . .
H29_2 H 0.739280 -0.133803 0.852418 0.163 Uiso 1 1 calc R U . . .
C30_2 C 0.6005(4) -0.1861(4) 0.8233(3) 0.0922(17) Uani 1 1 d . U . . .
C31_2 C 0.6569(3) 0.0441(2) 0.4428(2) 0.0503(8) Uani 1 1 d . U . . .
C32_2 C 0.6818(3) 0.0175(2) 0.3952(2) 0.0510(9) Uani 1 1 d . U . . .
C33_2 C 0.7200(2) -0.0072(2) 0.34278(19) 0.0493(8) Uani 1 1 d . U . . .
C34_2 C 0.6882(3) -0.0898(3) 0.2941(2) 0.0585(10) Uani 1 1 d . U . . .
H34_2 H 0.639702 -0.131621 0.294357 0.070 Uiso 1 1 calc R U . . .
C35_2 C 0.7287(3) -0.1096(3) 0.2451(2) 0.0620(11) Uani 1 1 d . U . . .
H35_2 H 0.706085 -0.164748 0.211863 0.074 Uiso 1 1 calc R U . . .
C36_2 C 0.8024(3) -0.0488(2) 0.2450(2) 0.0528(9) Uani 1 1 d . U . . .
H36_2 H 0.829861 -0.063267 0.212476 0.063 Uiso 1 1 calc R U . . .
C37_2 C 0.8356(2) 0.0345(2) 0.29360(18) 0.0467(8) Uani 1 1 d . U . . .
C38_2 C 0.7938(2) 0.0547(2) 0.34195(18) 0.0472(8) Uani 1 1 d . U . . .
H38_2 H 0.815280 0.110061 0.374248 0.057 Uiso 1 1 calc R U . . .
C39_2 C 0.9162(2) 0.1014(2) 0.29580(18) 0.0468(8) Uani 1 1 d . U . . .
C4_2 C 0.6000(7) 0.5496(4) 0.7130(7) 0.195(5) Uani 1 1 d . U . . .
H4_2 H 0.557615 0.562939 0.731397 0.234 Uiso 1 1 calc R U . . .
O1_3 O 0.8912(2) 0.92276(18) 0.80233(15) 0.0572(6) Uani 1 1 d . U . . .
N1_3 N 0.8419(3) 1.0329(3) 0.8160(2) 0.0747(11) Uani 1 1 d . U . . .
C2_3 C 0.8667(8) 1.0475(6) 0.8948(4) 0.159(4) Uani 1 1 d . U . . .
H2A_3 H 0.809538 1.035497 0.902573 0.239 Uiso 1 1 calc R U . . .
H2B_3 H 0.908160 1.105021 0.924846 0.239 Uiso 1 1 calc R U . . .
H2C_3 H 0.898754 1.011419 0.908927 0.239 Uiso 1 1 calc R U . . .
C3_3 C 0.8056(4) 1.0883(3) 0.7853(3) 0.0799(14) Uani 1 1 d . U . . .
H3A_3 H 0.788505 1.068625 0.732480 0.120 Uiso 1 1 calc R U . . .
H3B_3 H 0.853860 1.143934 0.809270 0.120 Uiso 1 1 calc R U . . .
H3C_3 H 0.750167 1.089305 0.793514 0.120 Uiso 1 1 calc R U . . .
C1_3 C 0.8547(3) 0.9692(3) 0.7762(2) 0.0597(10) Uani 1 1 d . U . . .
H1_3 H 0.835322 0.957959 0.725338 0.072 Uiso 1 1 calc R U . . .
O1_4 O 1.0075(3) 0.6424(2) 0.5811(2) 0.0782(9) Uani 1 1 d . U . . .
N1_4 N 0.9909(10) 0.5747(7) 0.4572(6) 0.189(4) Uani 1 1 d . U . . .
C2_4 C 1.1034(11) 0.6009(7) 0.4902(7) 0.198(5) Uani 1 1 d . U . . .
H2A_4 H 1.118581 0.558235 0.462366 0.297 Uiso 1 1 calc R U . . .
H2B_4 H 1.128022 0.607121 0.541796 0.297 Uiso 1 1 calc R U . . .
H2C_4 H 1.131791 0.653208 0.486344 0.297 Uiso 1 1 calc R U . . .
C3_4 C 0.9225(10) 0.5250(8) 0.3858(6) 0.220(6) Uani 1 1 d . U . . .
H3A_4 H 0.913701 0.559064 0.356347 0.330 Uiso 1 1 calc R U . . .
H3B_4 H 0.863309 0.498587 0.387424 0.330 Uiso 1 1 calc R U . . .
H3C_4 H 0.942750 0.482791 0.363604 0.330 Uiso 1 1 calc R U . . .
C1_4 C 0.9599(10) 0.6072(7) 0.5165(5) 0.170(4) Uani 1 1 d . U . . .
H1_4 H 0.895312 0.598534 0.500243 0.204 Uiso 1 1 calc R U . . .
loop_
_atom_site_aniso_label
_atom_site_aniso_U_11
_atom_site_aniso_U_22
_atom_site_aniso_U_33
_atom_site_aniso_U_23
_atom_site_aniso_U_13
_atom_site_aniso_U_12
Cu1 0.0405(2) 0.0486(3) 0.0423(2) 0.01821(18) 0.01907(18) 0.01354(19)
Cu2 0.0371(2) 0.0483(2) 0.0411(2) 0.01686(18) 0.01634(17) 0.01245(18)
O1_1 0.0424(12) 0.0529(14) 0.0387(12) 0.0093(11) 0.0106(10) 0.0127(11)
C1_1 0.0351(16) 0.0475(19) 0.0386(17) 0.0099(14) 0.0152(13) 0.0036(15)
N1_1 0.0429(16) 0.065(2) 0.0408(15) 0.0128(14) 0.0088(13) 0.0214(15)
O2_1 0.0424(12) 0.0539(14) 0.0399(12) 0.0139(10) 0.0154(10) 0.0167(11)
C2_1 0.0345(15) 0.0445(18) 0.0431(17) 0.0120(14) 0.0141(13) 0.0081(14)
N2_1 0.0414(15) 0.0558(18) 0.0419(16) 0.0124(13) 0.0058(12) 0.0164(14)
O3_1 0.0445(13) 0.0586(15) 0.0444(13) 0.0223(11) 0.0192(10) 0.0203(11)
C3_1 0.0421(18) 0.053(2) 0.048(2) 0.0034(16) 0.0122(15) 0.0135(16)
O4_1 0.0745(18) 0.0768(19) 0.0504(15) 0.0320(14) 0.0315(14) 0.0439(16)
C4_1 0.0439(19) 0.058(2) 0.056(2) 0.0037(18) 0.0098(17) 0.0211(18)
O5_1 0.0442(14) 0.0650(17) 0.0456(14) 0.0055(12) 0.0083(11) 0.0121(13)
C5_1 0.0379(17) 0.051(2) 0.0465(19) 0.0109(16) 0.0087(14) 0.0130(15)
O6_1 0.0386(13) 0.0659(17) 0.0454(14) 0.0089(12) 0.0034(11) 0.0131(12)
C7_1 0.0380(16) 0.0495(19) 0.0418(17) 0.0129(15) 0.0146(14) 0.0122(15)
C8_1 0.0363(16) 0.054(2) 0.0427(19) 0.0157(16) 0.0120(14) 0.0132(15)
C9_1 0.0365(17) 0.061(2) 0.0415(19) 0.0171(17) 0.0094(14) 0.0141(16)
C10_1 0.0433(17) 0.0502(19) 0.0359(16) 0.0143(14) 0.0102(14) 0.0147(15)
C11_1 0.0390(17) 0.054(2) 0.0347(16) 0.0169(14) 0.0097(13) 0.0122(15)
C12_1 0.0437(18) 0.060(2) 0.0390(17) 0.0202(16) 0.0145(14) 0.0179(16)
C13_1 0.0477(19) 0.053(2) 0.0351(17) 0.0136(15) 0.0101(14) 0.0139(16)
C14_1 0.0403(17) 0.055(2) 0.0359(17) 0.0160(15) 0.0078(14) 0.0123(16)
C15_1 0.0419(17) 0.053(2) 0.0426(18) 0.0180(15) 0.0141(15) 0.0175(16)
C16_1 0.0441(19) 0.057(2) 0.0408(18) 0.0147(16) 0.0096(15) 0.0113(17)
C17_1 0.0391(18) 0.065(2) 0.047(2) 0.0068(18) 0.0051(15) 0.0108(17)
C18_1 0.0414(19) 0.069(3) 0.048(2) 0.0131(18) 0.0100(16) 0.0091(18)
C19_1 0.0412(19) 0.063(2) 0.069(3) 0.013(2) 0.0184(18) 0.0108(18)
C20_1 0.049(2) 0.070(3) 0.090(3) 0.005(3) 0.019(2) 0.014(2)
C21_1 0.065(3) 0.063(3) 0.132(5) 0.013(3) 0.029(3) 0.016(3)
C22_1 0.068(3) 0.074(3) 0.134(5) 0.038(3) 0.026(3) 0.028(3)
C23_1 0.052(2) 0.076(3) 0.111(4) 0.036(3) 0.016(3) 0.016(2)
C24_1 0.0366(18) 0.066(3) 0.078(3) 0.024(2) 0.0138(18) 0.0126(18)
C25_1 0.0374(18) 0.060(2) 0.065(2) 0.0224(19) 0.0116(17) 0.0115(17)
C26_1 0.041(2) 0.074(3) 0.060(2) 0.024(2) -0.0018(17) 0.0087(19)
C27_1 0.045(2) 0.061(3) 0.056(2) 0.0149(19) 0.0037(17) 0.0053(18)
C28_1 0.045(2) 0.060(2) 0.063(2) 0.0185(19) 0.0133(18) 0.0091(18)
C29_1 0.0421(19) 0.067(3) 0.057(2) 0.0241(19) 0.0115(17) 0.0134(18)
C30_1 0.0360(17) 0.068(3) 0.049(2) 0.0178(18) 0.0107(15) 0.0079(17)
C31_1 0.0446(18) 0.062(2) 0.0348(17) 0.0165(15) 0.0109(14) 0.0177(17)
C32_1 0.049(2) 0.065(2) 0.0375(18) 0.0188(16) 0.0132(15) 0.0187(19)
C33_1 0.059(2) 0.072(3) 0.048(2) 0.0260(19) 0.0225(17) 0.032(2)
C34_1 0.147(5) 0.154(6) 0.049(2) 0.045(3) 0.037(3) 0.118(5)
C35_1 0.213(8) 0.205(8) 0.048(3) 0.046(4) 0.053(4) 0.169(7)
C36_1 0.179(6) 0.168(6) 0.056(3) 0.048(3) 0.049(3) 0.142(6)
C37_1 0.071(3) 0.080(3) 0.047(2) 0.031(2) 0.0269(19) 0.042(2)
C38_1 0.0484(19) 0.057(2) 0.0434(18) 0.0204(16) 0.0209(15) 0.0193(17)
C39_1 0.051(2) 0.058(2) 0.056(2) 0.0273(18) 0.0260(17) 0.0229(18)
C6_1 0.0388(17) 0.0460(18) 0.0411(17) 0.0109(14) 0.0138(14) 0.0075(15)
O1_2 0.0640(17) 0.0552(16) 0.092(2) 0.0328(16) 0.0488(16) 0.0204(14)
N1_2 0.082(2) 0.068(2) 0.080(2) 0.044(2) 0.051(2) 0.027(2)
C1_2 0.053(2) 0.054(2) 0.073(3) 0.031(2) 0.0301(19) 0.0192(19)
O2_2 0.0436(13) 0.0528(15) 0.0614(15) 0.0221(12) 0.0239(12) 0.0124(11)
N2_2 0.0520(16) 0.0498(17) 0.0454(16) 0.0188(13) 0.0261(13) 0.0158(14)
C2_2 0.070(3) 0.056(2) 0.121(4) 0.037(3) 0.062(3) 0.023(2)
O3_2 0.0420(12) 0.0554(15) 0.0462(13) 0.0193(11) 0.0203(11) 0.0115(11)
C3_2 0.150(6) 0.055(3) 0.303(10) 0.056(5) 0.180(7) 0.037(3)
O4_2 0.0405(12) 0.0591(15) 0.0432(13) 0.0149(11) 0.0190(10) 0.0091(11)
C5_2 0.154(6) 0.056(3) 0.320(11) 0.053(5) 0.193(7) 0.028(4)
O5_2 0.095(2) 0.076(2) 0.075(2) 0.0379(17) 0.0511(18) 0.0416(19)
C6_2 0.084(3) 0.058(3) 0.151(5) 0.043(3) 0.082(4) 0.025(2)
O6_2 0.094(2) 0.0720(19) 0.076(2) 0.0442(16) 0.0515(18) 0.0354(18)
C7_2 0.053(2) 0.057(2) 0.091(3) 0.034(2) 0.041(2) 0.0196(19)
C8_2 0.065(3) 0.057(3) 0.108(4) 0.038(2) 0.055(3) 0.021(2)
C9_2 0.054(2) 0.059(2) 0.079(3) 0.031(2) 0.038(2) 0.0168(19)
C10_2 0.0392(17) 0.052(2) 0.062(2) 0.0241(17) 0.0215(16) 0.0129(16)
C11_2 0.0419(18) 0.059(2) 0.054(2) 0.0271(17) 0.0216(16) 0.0142(16)
C12_2 0.0349(16) 0.057(2) 0.0401(17) 0.0190(15) 0.0134(13) 0.0075(15)
C13_2 0.0375(16) 0.0468(19) 0.0433(18) 0.0142(15) 0.0137(14) 0.0073(14)
C14_2 0.0342(16) 0.053(2) 0.0423(17) 0.0206(15) 0.0140(14) 0.0090(15)
C15_2 0.0380(16) 0.051(2) 0.0465(18) 0.0156(15) 0.0181(14) 0.0122(15)
C16_2 0.061(2) 0.065(2) 0.049(2) 0.0212(18) 0.0300(18) 0.017(2)
C17_2 0.083(3) 0.067(3) 0.073(3) 0.038(2) 0.037(2) 0.025(2)
C18_2 0.116(4) 0.075(3) 0.067(3) 0.036(2) 0.042(3) 0.024(3)
C19_2 0.111(4) 0.086(3) 0.080(3) 0.043(3) 0.058(3) 0.033(3)
C20_2 0.144(6) 0.140(6) 0.155(6) 0.112(5) 0.112(5) 0.095(5)
C21_2 0.129(5) 0.164(7) 0.182(7) 0.128(6) 0.110(5) 0.098(5)
C22_2 0.110(5) 0.158(6) 0.158(6) 0.107(5) 0.093(5) 0.066(5)
C23_2 0.109(5) 0.119(5) 0.116(5) 0.080(4) 0.068(4) 0.045(4)
C24_2 0.100(4) 0.092(4) 0.074(3) 0.047(3) 0.045(3) 0.027(3)
C25_2 0.097(4) 0.097(4) 0.076(3) 0.054(3) 0.023(3) 0.013(3)
C26_2 0.100(5) 0.144(6) 0.117(5) 0.096(5) 0.007(4) -0.002(4)
C27_2 0.097(5) 0.180(8) 0.190(8) 0.149(7) -0.014(5) -0.007(5)
C28_2 0.094(5) 0.206(9) 0.166(7) 0.142(7) -0.021(5) -0.022(5)
C29_2 0.091(4) 0.141(6) 0.117(5) 0.087(5) -0.008(4) -0.015(4)
C30_2 0.094(4) 0.088(4) 0.074(3) 0.047(3) 0.018(3) 0.010(3)
C31_2 0.0425(18) 0.058(2) 0.0440(19) 0.0207(16) 0.0163(15) 0.0100(16)
C32_2 0.0433(18) 0.059(2) 0.0428(18) 0.0219(16) 0.0159(15) 0.0075(16)
C33_2 0.0423(18) 0.062(2) 0.0400(17) 0.0221(16) 0.0171(14) 0.0116(16)
C34_2 0.050(2) 0.060(2) 0.050(2) 0.0154(17) 0.0212(17) 0.0003(18)
C35_2 0.054(2) 0.061(2) 0.052(2) 0.0078(18) 0.0241(18) 0.0029(19)
C36_2 0.0453(19) 0.061(2) 0.0422(18) 0.0141(16) 0.0191(15) 0.0089(17)
C37_2 0.0371(16) 0.061(2) 0.0348(16) 0.0190(15) 0.0118(13) 0.0105(15)
C38_2 0.0409(17) 0.056(2) 0.0359(16) 0.0178(15) 0.0122(14) 0.0102(16)
C39_2 0.0369(16) 0.061(2) 0.0351(16) 0.0205(16) 0.0098(13) 0.0125(16)
C4_2 0.195(7) 0.069(3) 0.412(14) 0.069(6) 0.255(9) 0.045(4)
O1_3 0.0653(16) 0.0640(17) 0.0553(15) 0.0250(13) 0.0330(13) 0.0319(14)
N1_3 0.076(2) 0.082(3) 0.064(2) 0.017(2) 0.0297(19) 0.037(2)
C2_3 0.248(11) 0.179(8) 0.077(4) 0.026(5) 0.063(6) 0.150(8)
C3_3 0.070(3) 0.082(3) 0.090(3) 0.027(3) 0.032(3) 0.039(3)
C1_3 0.055(2) 0.065(2) 0.052(2) 0.0157(18) 0.0249(18) 0.0157(19)
O1_4 0.089(2) 0.079(2) 0.070(2) 0.0187(17) 0.0416(18) 0.0380(19)
N1_4 0.265(12) 0.181(9) 0.150(8) 0.088(7) 0.106(8) 0.080(9)
C2_4 0.232(14) 0.120(8) 0.194(12) 0.052(8) 0.052(11) 0.051(9)
C3_4 0.271(15) 0.225(13) 0.096(7) 0.000(7) 0.034(8) 0.109(12)
C1_4 0.231(11) 0.176(9) 0.104(4) 0.045(5) 0.072(6) 0.087(8)
loop_
_atom_type_symbol
_atom_type_description
_atom_type_scat_dispersion_real
_atom_type_scat_dispersion_imag
_atom_type_scat_source
C C 0.0033 0.0016 'International Tables Vol C Tables 4.2.6.8 and 6.1.1.4'
H H 0.0000 0.0000 'International Tables Vol C Tables 4.2.6.8 and 6.1.1.4'
N N 0.0061 0.0033 'International Tables Vol C Tables 4.2.6.8 and 6.1.1.4'
O O 0.0106 0.0060 'International Tables Vol C Tables 4.2.6.8 and 6.1.1.4'
Cu Cu 0.3201 1.2651 'International Tables Vol C Tables 4.2.6.8 and 6.1.1.4'
loop_
_geom_angle_atom_site_label_1
_geom_angle_atom_site_label_2
_geom_angle_atom_site_label_3
_geom_angle
_geom_angle_site_symmetry_1
_geom_angle_site_symmetry_3
_geom_angle_publ_flag
O4_1 Cu1 O1_2 88.65(14) 2_766 . ?
O4_1 Cu1 O1_1 167.90(11) 2_766 . ?
O1_2 Cu1 O1_1 88.99(13) . . ?
O4_1 Cu1 O4_2_$1 90.44(13) 2_766 2_766 ?
O1_2 Cu1 O4_2_$1 169.46(12) . 2_766 ?
O1_1 Cu1 O4_2_$1 89.71(11) . 2_766 ?
O4_1 Cu1 O1_3 96.87(12) 2_766 . ?
O1_2 Cu1 O1_3 95.17(12) . . ?
O1_1 Cu1 O1_3 95.16(11) . . ?
O4_2 Cu1 O1_3 95.36(11) 2_766 . ?
O4_1 Cu1 Cu2 84.24(9) 2_766 . ?
O1_2 Cu1 Cu2 82.76(9) . . ?
O1_1 Cu1 Cu2 83.69(8) . . ?
O4_2 Cu1 Cu2 86.71(8) 2_766 . ?
O1_3 Cu1 Cu2 177.64(8) . . ?
O2_2 Cu2 O3_1_$1 88.34(11) . 2_766 ?
O2_2 Cu2 O2_1 88.69(11) . . ?
O3_1 Cu2 O2_1 168.80(10) 2_766 . ?
O2_2 Cu2 O3_2_$1 167.54(11) . 2_766 ?
O3_1 Cu2 O3_2_$1 90.27(11) 2_766 2_766 ?
O2_1 Cu2 O3_2_$1 90.31(11) . 2_766 ?
O2_2 Cu2 O1_4 100.43(13) . . ?
O3_1 Cu2 O1_4 97.37(13) 2_766 . ?
O2_1 Cu2 O1_4 93.78(13) . . ?
O3_2 Cu2 O1_4 92.03(13) 2_766 . ?
O2_2 Cu2 Cu1 85.73(9) . . ?
O3_1 Cu2 Cu1 84.31(8) 2_766 . ?
O2_1 Cu2 Cu1 84.71(8) . . ?
O3_2 Cu2 Cu1 81.81(8) 2_766 . ?
O1_4 Cu2 Cu1 173.64(10) . . ?
C1_1 O1_1 Cu1 122.2(3) . . ?
O2_1 C1_1 O1_1 125.8(3) . . ?
O2_1 C1_1 C2_1 118.1(3) . . ?
O1_1 C1_1 C2_1 116.1(3) . . ?
C1_1 O2_1 Cu2 122.2(2) . . ?
C3_1 C2_1 C7_1 119.4(3) . . ?
C3_1 C2_1 C1_1 121.0(3) . . ?
C7_1 C2_1 C1_1 119.5(3) . . ?
C16_1 N2_1 C14_1 126.6(3) . . ?
C39_1 O3_1 Cu2_$1 122.4(2) . 2_766 ?
C2_1 C3_1 C4_1 120.2(3) . . ?
C39_1 O4_1 Cu1_$1 122.9(2) . 2_766 ?
C5_1 C4_1 C3_1 120.3(4) . . ?
C4_1 C5_1 C6_1 120.5(3) . . ?
C16_1 O6_1 C17_1 114.7(3) . . ?
C6_1 C7_1 C2_1 120.7(3) . . ?
C9_1 C8_1 C6_1 177.8(4) . . ?
C8_1 C9_1 C10_1 177.2(4) . . ?
C15_1 C10_1 C11_1 120.8(3) . . ?
C15_1 C10_1 C9_1 119.6(3) . . ?
C11_1 C10_1 C9_1 119.5(3) . . ?
N1_1 C11_1 C12_1 121.0(3) . . ?
N1_1 C11_1 C10_1 121.4(3) . . ?
C12_1 C11_1 C10_1 117.4(3) . . ?
C13_1 C12_1 C11_1 121.2(4) . . ?
C13_1 C12_1 C31_1 119.6(3) . . ?
C11_1 C12_1 C31_1 119.1(3) . . ?
C14_1 C13_1 C12_1 120.6(3) . . ?
C13_1 C14_1 C15_1 119.2(3) . . ?
C13_1 C14_1 N2_1 123.9(3) . . ?
C15_1 C14_1 N2_1 116.8(3) . . ?
C14_1 C15_1 C10_1 120.7(3) . . ?
O5_1 C16_1 N2_1 127.4(3) . . ?
O5_1 C16_1 O6_1 123.6(3) . . ?
N2_1 C16_1 O6_1 108.9(4) . . ?
O6_1 C17_1 C18_1 107.3(3) . . ?
C19_1 C18_1 C30_1 102.8(3) . . ?
C19_1 C18_1 C17_1 115.9(4) . . ?
C30_1 C18_1 C17_1 110.3(4) . . ?
C20_1 C19_1 C24_1 119.6(5) . . ?
C20_1 C19_1 C18_1 129.9(4) . . ?
C24_1 C19_1 C18_1 110.4(4) . . ?
C21_1 C20_1 C19_1 118.3(5) . . ?
C22_1 C21_1 C20_1 121.6(5) . . ?
C21_1 C22_1 C23_1 121.9(6) . . ?
C22_1 C23_1 C24_1 117.2(5) . . ?
C23_1 C24_1 C19_1 121.3(5) . . ?
C23_1 C24_1 C25_1 129.9(4) . . ?
C19_1 C24_1 C25_1 108.8(4) . . ?
C26_1 C25_1 C30_1 119.8(4) . . ?
C26_1 C25_1 C24_1 132.0(4) . . ?
C30_1 C25_1 C24_1 108.2(4) . . ?
C27_1 C26_1 C25_1 119.4(4) . . ?
C28_1 C27_1 C26_1 120.6(4) . . ?
C27_1 C28_1 C29_1 120.4(4) . . ?
C30_1 C29_1 C28_1 119.2(4) . . ?
C29_1 C30_1 C25_1 120.6(4) . . ?
C29_1 C30_1 C18_1 129.7(4) . . ?
C25_1 C30_1 C18_1 109.7(4) . . ?
C32_1 C31_1 C12_1 175.2(4) . . ?
C31_1 C32_1 C33_1 176.1(4) . . ?
C38_1 C33_1 C34_1 118.3(4) . . ?
C38_1 C33_1 C32_1 120.8(3) . . ?
C34_1 C33_1 C32_1 120.9(4) . . ?
C35_1 C34_1 C33_1 119.9(4) . . ?
C34_1 C35_1 C36_1 121.6(5) . . ?
C35_1 C36_1 C37_1 119.3(5) . . ?
C38_1 C37_1 C36_1 119.1(4) . . ?
C38_1 C37_1 C39_1 120.4(3) . . ?
C36_1 C37_1 C39_1 120.5(4) . . ?
C37_1 C38_1 C33_1 121.8(4) . . ?
O3_1 C39_1 O4_1 125.5(4) . . ?
O3_1 C39_1 C37_1 116.8(3) . . ?
O4_1 C39_1 C37_1 117.6(3) . . ?
C7_1 C6_1 C5_1 119.0(3) . . ?
C7_1 C6_1 C8_1 120.7(3) . . ?
C5_1 C6_1 C8_1 120.3(3) . . ?
C1_2 O1_2 Cu1 124.0(3) . . ?
O2_2 C1_2 O1_2 125.8(4) . . ?
O2_2 C1_2 C2_2 117.3(4) . . ?
O1_2 C1_2 C2_2 117.0(4) . . ?
C1_2 O2_2 Cu2 120.9(3) . . ?
C16_2 N2_2 C14_2 126.6(3) . . ?
C7_2 C2_2 C3_2 119.4(4) . . ?
C7_2 C2_2 C1_2 120.3(4) . . ?
C3_2 C2_2 C1_2 120.3(4) . . ?
C39_2 O3_2 Cu2_$1 125.5(2) . 2_766 ?
C4_2 C3_2 C2_2 119.9(5) . . ?
C39_2 O4_2 Cu1_$1 119.9(2) . 2_766 ?
C4_2 C5_2 C6_2 120.1(5) . . ?
C7_2 C6_2 C5_2 118.3(5) . . ?
C7_2 C6_2 C8_2 121.3(4) . . ?
C5_2 C6_2 C8_2 120.4(4) . . ?
C16_2 O6_2 C17_2 114.2(4) . . ?
C2_2 C7_2 C6_2 121.3(4) . . ?
C9_2 C8_2 C6_2 177.5(6) . . ?
C8_2 C9_2 C10_2 176.7(5) . . ?
C15_2 C10_2 C11_2 120.6(4) . . ?
C15_2 C10_2 C9_2 118.5(4) . . ?
C11_2 C10_2 C9_2 120.8(4) . . ?
N1_2 C11_2 C10_2 121.4(4) . . ?
N1_2 C11_2 C12_2 121.0(4) . . ?
C10_2 C11_2 C12_2 117.5(3) . . ?
C13_2 C12_2 C11_2 121.0(3) . . ?
C13_2 C12_2 C31_2 120.0(4) . . ?
C11_2 C12_2 C31_2 118.9(3) . . ?
C14_2 C13_2 C12_2 120.4(4) . . ?
C15_2 C14_2 C13_2 119.0(3) . . ?
C15_2 C14_2 N2_2 118.4(3) . . ?
C13_2 C14_2 N2_2 122.6(3) . . ?
C14_2 C15_2 C10_2 121.4(3) . . ?
O5_2 C16_2 N2_2 129.0(4) . . ?
O5_2 C16_2 O6_2 122.2(4) . . ?
N2_2 C16_2 O6_2 108.8(3) . . ?
O6_2 C17_2 C18_2 106.5(4) . . ?
C17_2 C18_2 C30_2 111.7(5) . . ?
C17_2 C18_2 C19_2 114.8(5) . . ?
C30_2 C18_2 C19_2 103.2(4) . . ?
C20_2 C19_2 C24_2 122.4(6) . . ?
C20_2 C19_2 C18_2 128.8(5) . . ?
C24_2 C19_2 C18_2 108.8(5) . . ?
C19_2 C20_2 C21_2 117.7(5) . . ?
C22_2 C21_2 C20_2 121.1(7) . . ?
C21_2 C22_2 C23_2 119.9(7) . . ?
C24_2 C23_2 C22_2 119.6(6) . . ?
C23_2 C24_2 C19_2 119.4(6) . . ?
C23_2 C24_2 C25_2 131.1(5) . . ?
C19_2 C24_2 C25_2 109.5(5) . . ?
C26_2 C25_2 C30_2 120.6(6) . . ?
C26_2 C25_2 C24_2 130.0(6) . . ?
C30_2 C25_2 C24_2 109.4(5) . . ?
C25_2 C26_2 C27_2 118.3(6) . . ?
C28_2 C27_2 C26_2 119.5(7) . . ?
C27_2 C28_2 C29_2 121.1(8) . . ?
C30_2 C29_2 C28_2 119.2(6) . . ?
C29_2 C30_2 C25_2 121.3(6) . . ?
C29_2 C30_2 C18_2 129.6(5) . . ?
C25_2 C30_2 C18_2 109.0(5) . . ?
C32_2 C31_2 C12_2 175.2(4) . . ?
C31_2 C32_2 C33_2 174.4(4) . . ?
C34_2 C33_2 C38_2 119.0(3) . . ?
C34_2 C33_2 C32_2 122.8(3) . . ?
C38_2 C33_2 C32_2 118.2(4) . . ?
C35_2 C34_2 C33_2 119.9(4) . . ?
C36_2 C35_2 C34_2 121.0(4) . . ?
C35_2 C36_2 C37_2 120.0(4) . . ?
C38_2 C37_2 C36_2 119.0(3) . . ?
C38_2 C37_2 C39_2 119.6(3) . . ?
C36_2 C37_2 C39_2 121.3(3) . . ?
C37_2 C38_2 C33_2 121.0(4) . . ?
O4_2 C39_2 O3_2 125.4(3) . . ?
O4_2 C39_2 C37_2 118.4(3) . . ?
O3_2 C39_2 C37_2 116.2(3) . . ?
C3_2 C4_2 C5_2 120.9(5) . . ?
C1_3 O1_3 Cu1 120.6(3) . . ?
C1_3 N1_3 C3_3 123.0(4) . . ?
C1_3 N1_3 C2_3 117.9(5) . . ?
C3_3 N1_3 C2_3 119.1(5) . . ?
O1_3 C1_3 N1_3 124.5(4) . . ?
C1_4 O1_4 Cu2 122.1(7) . . ?
C3_4 N1_4 C1_4 118.9(13) . . ?
C3_4 N1_4 C2_4 129.3(11) . . ?
C1_4 N1_4 C2_4 111.7(10) . . ?
O1_4 C1_4 N1_4 127.5(12) . . ?
loop_
_geom_bond_atom_site_label_1
_geom_bond_atom_site_label_2
_geom_bond_distance
_geom_bond_site_symmetry_2
_geom_bond_publ_flag
Cu1 O4_1_$1 1.947(3) 2_766 ?
Cu1 O1_2 1.961(3) . ?
Cu1 O1_1 1.966(3) . ?
Cu1 O4_2_$1 1.969(3) 2_766 ?
Cu1 O1_3 2.133(3) . ?
Cu1 Cu2 2.6294(10) . ?
Cu2 O2_2 1.960(3) . ?
Cu2 O3_1_$1 1.961(3) 2_766 ?
Cu2 O2_1 1.962(3) . ?
Cu2 O3_2_$1 1.963(3) 2_766 ?
Cu2 O1_4 2.140(3) . ?
O1_1 C1_1 1.270(4) . ?
C1_1 O2_1 1.251(4) . ?
C1_1 C2_1 1.505(5) . ?
N1_1 C11_1 1.369(4) . ?
C2_1 C3_1 1.383(5) . ?
C2_1 C7_1 1.395(5) . ?
N2_1 C16_1 1.348(5) . ?
N2_1 C14_1 1.412(4) . ?
O3_1 C39_1 1.254(5) . ?
C3_1 C4_1 1.387(6) . ?
O4_1 C39_1 1.273(5) . ?
C4_1 C5_1 1.378(5) . ?
O5_1 C16_1 1.208(5) . ?
C5_1 C6_1 1.393(5) . ?
O6_1 C16_1 1.353(5) . ?
O6_1 C17_1 1.446(4) . ?
C7_1 C6_1 1.392(5) . ?
C8_1 C9_1 1.199(5) . ?
C8_1 C6_1 1.433(5) . ?
C9_1 C10_1 1.428(5) . ?
C10_1 C15_1 1.402(5) . ?
C10_1 C11_1 1.409(5) . ?
C11_1 C12_1 1.406(5) . ?
C12_1 C13_1 1.406(5) . ?
C12_1 C31_1 1.427(5) . ?
C13_1 C14_1 1.379(5) . ?
C14_1 C15_1 1.395(5) . ?
C17_1 C18_1 1.518(5) . ?
C18_1 C19_1 1.488(7) . ?
C18_1 C30_1 1.517(6) . ?
C19_1 C20_1 1.390(7) . ?
C19_1 C24_1 1.396(6) . ?
C20_1 C21_1 1.376(8) . ?
C21_1 C22_1 1.351(9) . ?
C22_1 C23_1 1.386(8) . ?
C23_1 C24_1 1.386(7) . ?
C24_1 C25_1 1.461(6) . ?
C25_1 C26_1 1.390(6) . ?
C25_1 C30_1 1.400(6) . ?
C26_1 C27_1 1.385(7) . ?
C27_1 C28_1 1.384(6) . ?
C28_1 C29_1 1.393(6) . ?
C29_1 C30_1 1.380(6) . ?
C31_1 C32_1 1.196(5) . ?
C32_1 C33_1 1.421(6) . ?
C33_1 C38_1 1.395(5) . ?
C33_1 C34_1 1.398(6) . ?
C34_1 C35_1 1.357(8) . ?
C35_1 C36_1 1.386(7) . ?
C36_1 C37_1 1.392(6) . ?
C37_1 C38_1 1.369(6) . ?
C37_1 C39_1 1.507(5) . ?
O1_2 C1_2 1.265(5) . ?
N1_2 C11_2 1.373(5) . ?
C1_2 O2_2 1.259(5) . ?
C1_2 C2_2 1.498(6) . ?
N2_2 C16_2 1.341(5) . ?
N2_2 C14_2 1.405(4) . ?
C2_2 C7_2 1.375(6) . ?
C2_2 C3_2 1.390(7) . ?
O3_2 C39_2 1.272(5) . ?
C3_2 C4_2 1.370(8) . ?
O4_2 C39_2 1.254(4) . ?
C5_2 C4_2 1.376(9) . ?
C5_2 C6_2 1.398(7) . ?
O5_2 C16_2 1.207(5) . ?
C6_2 C7_2 1.392(6) . ?
C6_2 C8_2 1.439(7) . ?
O6_2 C16_2 1.358(5) . ?
O6_2 C17_2 1.451(6) . ?
C8_2 C9_2 1.187(6) . ?
C9_2 C10_2 1.427(6) . ?
C10_2 C15_2 1.392(5) . ?
C10_2 C11_2 1.405(6) . ?
C11_2 C12_2 1.412(6) . ?
C12_2 C13_2 1.394(5) . ?
C12_2 C31_2 1.436(5) . ?
C13_2 C14_2 1.393(5) . ?
C14_2 C15_2 1.380(5) . ?
C17_2 C18_2 1.505(7) . ?
C18_2 C30_2 1.532(8) . ?
C18_2 C19_2 1.532(8) . ?
C19_2 C20_2 1.358(9) . ?
C19_2 C24_2 1.412(7) . ?
C20_2 C21_2 1.446(10) . ?
C21_2 C22_2 1.356(9) . ?
C22_2 C23_2 1.429(9) . ?
C23_2 C24_2 1.380(8) . ?
C24_2 C25_2 1.462(9) . ?
C25_2 C26_2 1.348(9) . ?
C25_2 C30_2 1.409(8) . ?
C26_2 C27_2 1.434(11) . ?
C27_2 C28_2 1.374(10) . ?
C28_2 C29_2 1.380(10) . ?
C29_2 C30_2 1.342(9) . ?
C31_2 C32_2 1.204(5) . ?
C32_2 C33_2 1.429(5) . ?
C33_2 C34_2 1.391(6) . ?
C33_2 C38_2 1.401(5) . ?
C34_2 C35_2 1.383(6) . ?
C35_2 C36_2 1.383(5) . ?
C36_2 C37_2 1.396(5) . ?
C37_2 C38_2 1.390(5) . ?
C37_2 C39_2 1.492(5) . ?
O1_3 C1_3 1.255(5) . ?
N1_3 C1_3 1.320(6) . ?
N1_3 C3_3 1.440(7) . ?
N1_3 C2_3 1.458(8) . ?
O1_4 C1_4 1.173(10) . ?
N1_4 C3_4 1.373(13) . ?
N1_4 C1_4 1.496(13) . ?
N1_4 C2_4 1.585(15) . ?
