#------------------------------------------------------------------------------
#$Date: 2021-01-07 06:50:47 +0200 (Thu, 07 Jan 2021) $
#$Revision: 260677 $
#$URL: file:///home/coder/svn-repositories/cod/cif/7/12/73/7127300.cif $
#------------------------------------------------------------------------------
#
# This file is available in the Crystallography Open Database (COD),
# http://www.crystallography.net/
#
# All data on this site have been placed in the public domain by the
# contributors.
#
data_7127300
loop_
_publ_author_name
'Schneider, Matthew L.'
'Linder-Patton, Oliver M'
'Bloch, Witold M.'
_publ_section_title
;
 A covalent deprotection strategy for assembling supramolecular
 coordination polymers from metal-organic cages.
;
_journal_issue                   85
_journal_name_full
'Chemical communications (Cambridge, England)'
_journal_page_first              12969
_journal_page_last               12972
_journal_paper_doi               10.1039/d0cc05349j
_journal_volume                  56
_journal_year                    2020
_chemical_formula_moiety         'C19 H13 N3 O2 Pt, C2 H4'
_chemical_formula_sum            'C21 H17 N3 O2 Pt'
_chemical_formula_weight         538.47
_space_group_crystal_system      trigonal
_space_group_IT_number           148
_space_group_name_Hall           '-R 3'
_space_group_name_H-M_alt        'R -3 :H'
_atom_sites_solution_hydrogens   geom
_atom_sites_solution_primary     iterative
_audit_creation_date             2019-12-07
_audit_creation_method
;
Olex2 1.2
(compiled 2018.05.29 svn.r3508 for OlexSys, GUI svn.r5506)
;
_audit_update_record
;
2020-09-16 deposited with the CCDC.	2020-09-21 downloaded from the CCDC.
;
_cell_angle_alpha                90
_cell_angle_beta                 90
_cell_angle_gamma                120
_cell_formula_units_Z            18
_cell_length_a                   30.2541(5)
_cell_length_b                   30.2541(5)
_cell_length_c                   10.0134(2)
_cell_measurement_reflns_used    4676
_cell_measurement_temperature    100
_cell_measurement_theta_max      75.3640
_cell_measurement_theta_min      4.7040
_cell_volume                     7937.4(2)
_computing_cell_refinement       'CrysAlisPro 1.171.39.45h (Rigaku OD, 2018)'
_computing_data_collection       'CrysAlisPro 1.171.39.45h (Rigaku OD, 2018)'
_computing_data_reduction        'CrysAlisPro 1.171.39.45h (Rigaku OD, 2018)'
_computing_molecular_graphics    'Olex2 (Dolomanov et al., 2009)'
_computing_publication_material  'Olex2 (Dolomanov et al., 2009)'
_computing_structure_refinement  'ShelXL (Sheldrick, 2015)'
_computing_structure_solution    'ShelXT (Sheldrick, 2015)'
_diffrn_ambient_temperature      100
_diffrn_detector                 'CCD plate'
_diffrn_detector_type            HyPix
_diffrn_measured_fraction_theta_full 0.990
_diffrn_measured_fraction_theta_max 0.956
_diffrn_measurement_details
;
List of Runs (angles in degrees, time in seconds):

  # Type    Start    End  Width  t~exp~   \w     \q     \k     \f   Frames
#--------------------------------------------------------------------------
  1  \w      8.00  71.00   0.50    2.95    --   42.80 -99.00-139.00  126
  2  \w     37.00 100.00   0.50    5.37    --  108.63 -99.00-139.00  126
  3  \w     44.00  71.00   0.50    5.37    --  108.63 -45.00-150.00   54
  4  \w     40.00  65.00   0.50    5.37    --  108.63 -30.00-120.00   50
  5  \w     37.00  63.00   0.50    5.37    --  108.63 -30.00 -90.00   52
  6  \w     38.00  64.00   0.50    5.37    --  108.63 -30.00 -30.00   52
  7  \w     36.00  61.00   0.50    5.37    --  108.63 -27.00 -16.00   50
  8  \w     34.00  59.00   0.50    5.37    --  108.63 -45.00 -30.00   50
  9  \w     37.00  62.00   0.50    5.37    --  108.63 -45.00 -90.00   50
 10  \w     30.00  66.00   0.50    5.37    --  108.63 -30.00-150.00   72
 11  \w     39.00  64.00   0.50    5.37    --  108.63 -30.00-180.00   50
 12  \w     34.00  75.00   0.50    5.37    --  108.63 -45.00  30.00   82
 13  \w     32.00  57.00   0.50    5.37    --  108.63 -30.00  60.00   50
 14  \w     83.00 117.00   0.50    2.95    --   42.80 125.00-180.00   68
 15  \w    -48.00 -19.00   0.50    5.37    --  -84.50  27.00-158.00   58
;
_diffrn_measurement_device       'four-circle diffractometer'
_diffrn_measurement_device_type
'XtaLAB Synergy, Single source at home/near, HyPix'
_diffrn_measurement_method       '\w scans'
_diffrn_orient_matrix_type
'CrysAlisPro convention (1999,Acta A55,543-557)'
_diffrn_orient_matrix_UB_11      0.0552637000
_diffrn_orient_matrix_UB_12      0.0447845000
_diffrn_orient_matrix_UB_13      -0.0081943000
_diffrn_orient_matrix_UB_21      -0.0035008000
_diffrn_orient_matrix_UB_22      0.0143756000
_diffrn_orient_matrix_UB_23      0.1457351000
_diffrn_orient_matrix_UB_31      0.0197367000
_diffrn_orient_matrix_UB_32      -0.0352888000
_diffrn_orient_matrix_UB_33      0.0486662000
_diffrn_radiation_monochromator  mirror
_diffrn_radiation_probe          x-ray
_diffrn_radiation_type           CuK\a
_diffrn_radiation_wavelength     1.54184
_diffrn_reflns_av_R_equivalents  0.0305
_diffrn_reflns_av_unetI/netI     0.0322
_diffrn_reflns_Laue_measured_fraction_full 0.990
_diffrn_reflns_Laue_measured_fraction_max 0.956
_diffrn_reflns_limit_h_max       36
_diffrn_reflns_limit_h_min       -24
_diffrn_reflns_limit_k_max       17
_diffrn_reflns_limit_k_min       -38
_diffrn_reflns_limit_l_max       12
_diffrn_reflns_limit_l_min       -11
_diffrn_reflns_number            8283
_diffrn_reflns_point_group_measured_fraction_full 0.990
_diffrn_reflns_point_group_measured_fraction_max 0.956
_diffrn_reflns_theta_full        67.684
_diffrn_reflns_theta_max         75.677
_diffrn_reflns_theta_min         2.921
_diffrn_source                   'micro-focus sealed X-ray tube'
_diffrn_source_type              'PhotonJet (Cu) X-ray Source'
_exptl_absorpt_coefficient_mu    15.064
_exptl_absorpt_correction_T_max  1.00000
_exptl_absorpt_correction_T_min  0.74610
_exptl_absorpt_correction_type   multi-scan
_exptl_absorpt_process_details
;
CrysAlisPro 1.171.39.45h (Rigaku Oxford Diffraction, 2018)
Empirical absorption correction using spherical harmonics,
 implemented in SCALE3 ABSPACK scaling algorithm.
;
_exptl_crystal_colour            orange
_exptl_crystal_colour_primary    orange
_exptl_crystal_density_diffrn    2.028
_exptl_crystal_description       needle
_exptl_crystal_F_000             4644
_exptl_crystal_size_max          0.05
_exptl_crystal_size_mid          0.001
_exptl_crystal_size_min          0.001
_refine_diff_density_max         0.944
_refine_diff_density_min         -0.969
_refine_diff_density_rms         0.119
_refine_ls_extinction_method     none
_refine_ls_goodness_of_fit_ref   1.079
_refine_ls_hydrogen_treatment    constr
_refine_ls_matrix_type           full
_refine_ls_number_parameters     244
_refine_ls_number_reflns         3517
_refine_ls_number_restraints     0
_refine_ls_restrained_S_all      1.079
_refine_ls_R_factor_all          0.0262
_refine_ls_R_factor_gt           0.0239
_refine_ls_shift/su_max          0.004
_refine_ls_shift/su_mean         0.000
_refine_ls_structure_factor_coef Fsqd
_refine_ls_weighting_details
'w=1/[\s^2^(Fo^2^)+(0.0308P)^2^+30.1977P] where P=(Fo^2^+2Fc^2^)/3'
_refine_ls_weighting_scheme      calc
_refine_ls_wR_factor_gt          0.0625
_refine_ls_wR_factor_ref         0.0634
_reflns_Friedel_coverage         0.000
_reflns_number_gt                3269
_reflns_number_total             3517
_reflns_threshold_expression     'I > 2\s(I)'
_cod_data_source_file            d0cc05349j2.cif
_cod_data_source_block           1P-cHex_100K
_cod_depositor_comments
'Adding full bibliography for 7127299--7127303.cif.'
_cod_original_cell_volume        7937.4(3)
_cod_original_sg_symbol_H-M      'R -3'
_cod_database_code               7127300
_shelx_shelxl_version_number     2018/3
_chemical_oxdiff_formula         C19H13N3O2Pt
_shelx_space_group_comment
;
The symmetry employed for this shelxl refinement is uniquely defined
by the following loop, which should always be used as a source of
symmetry information in preference to the above space-group names.
They are only intended as comments.
;
_reflns_odcompleteness_completeness 99.17
_reflns_odcompleteness_iscentric 1
_reflns_odcompleteness_theta     66.97
_olex2_refinement_description
;
1. Fixed Uiso
 At 1.2 times of:
  All C(H) groups, All C(H,H) groups, All N(H) groups
2.a Secondary CH2 refined with riding coordinates:
 C20(H20A,H20B), C21(H21A,H21B)
2.b Aromatic/amide H refined with riding coordinates:
 N2(H2), C9(H9), C2(H2A), C10(H10), C5(H5), C17(H17), C14(H14), C12(H12),
 C16(H16), C15(H15), C11(H11), C3(H3), C4(H4)
;
_shelx_res_file
;
TITL 03096_a.res in R-3
    03096.res
    created by SHELXL-2018/3 at 18:25:37 on 07-Dec-2019
REM Old TITL 03096 in R3
REM SHELXT solution in R-3
REM R1 0.041, Rweak 0.006, Alpha 0.031, Orientation as input
REM Formula found by SHELXT: C6 N4 O2 Pt
CELL 1.54184 30.2541 30.2541 10.0134 90 90 120
ZERR 18 0.0005 0.0005 0.0002 0 0 0
LATT 3
SYMM -Y,+X-Y,+Z
SYMM +Y-X,-X,+Z
SFAC C H N O Pt
UNIT 378 306 54 36 18

L.S. 20
PLAN  5
BOND $H
LIST 4
fmap 2
acta
REM <olex2.extras>
REM <HklSrc "%.\\03096.hkl">
REM </olex2.extras>

WGHT    0.030800   30.197701
FVAR       0.04570
PT1   5    0.652974    0.674940    0.547215    11.00000    0.01799    0.02154 =
         0.02244    0.00070    0.00005    0.00990
O1    4    0.723300    0.676364    0.540559    11.00000    0.01498    0.02246 =
         0.03140   -0.00111    0.00188    0.00830
O2    4    0.755140    0.623964    0.546794    11.00000    0.01734    0.02454 =
         0.03848    0.00214   -0.00051    0.01054
N3    3    0.627945    0.598616    0.544818    11.00000    0.01991    0.01976 =
         0.02318    0.00017    0.00152    0.00544
N1    3    0.683172    0.750642    0.538431    11.00000    0.02316    0.02339 =
         0.02531    0.00008    0.00049    0.01261
C1    1    0.588461    0.679545    0.550589    11.00000    0.02072    0.03137 =
         0.02425   -0.00552   -0.00022    0.01464
N2    3    0.675422    0.818013    0.498641    11.00000    0.02675    0.02652 =
         0.03072   -0.00390   -0.00276    0.01758
AFIX  43
H2    2    0.661541    0.836303    0.482962    11.00000   -1.20000
AFIX   0
C9    1    0.779397    0.797230    0.560306    11.00000    0.02323    0.02265 =
         0.02871    0.00109    0.00288    0.01209
AFIX  43
H9    2    0.782649    0.768985    0.580517    11.00000   -1.20000
AFIX   0
C6    1    0.596927    0.729487    0.522444    11.00000    0.02872    0.03038 =
         0.02478   -0.00139   -0.00294    0.01659
C2    1    0.538067    0.643209    0.580638    11.00000    0.02471    0.03149 =
         0.02645   -0.00212    0.00096    0.01261
AFIX  43
H2A   2    0.530568    0.610482    0.604639    11.00000   -1.20000
AFIX   0
C10   1    0.821377    0.845497    0.551413    11.00000    0.02457    0.02765 =
         0.03389   -0.00115   -0.00021    0.01371
AFIX  43
H10   2    0.853647    0.849869    0.566670    11.00000   -1.20000
AFIX   0
C7    1    0.650833    0.767224    0.515913    11.00000    0.02725    0.02916 =
         0.02040   -0.00225    0.00047    0.01820
C5    1    0.558025    0.740874    0.517095    11.00000    0.03415    0.02962 =
         0.03329   -0.00634   -0.00649    0.01904
AFIX  43
H5    2    0.565210    0.773850    0.497323    11.00000   -1.20000
AFIX   0
C19   1    0.719219    0.632545    0.549012    11.00000    0.02129    0.02145 =
         0.02022    0.00030    0.00079    0.00769
C17   1    0.656560    0.538085    0.559077    11.00000    0.02794    0.02857 =
         0.02963    0.00753    0.00282    0.01411
AFIX  43
H17   2    0.683339    0.531615    0.569828    11.00000   -1.20000
AFIX   0
C14   1    0.579878    0.559846    0.527489    11.00000    0.02073    0.03075 =
         0.03751   -0.00164   -0.00135    0.00823
AFIX  43
H14   2    0.553698    0.567022    0.513929    11.00000   -1.20000
AFIX   0
C8    1    0.731847    0.792676    0.537627    11.00000    0.02510    0.02416 =
         0.02216   -0.00092    0.00153    0.01343
C13   1    0.727118    0.835594    0.510628    11.00000    0.02601    0.02830 =
         0.02507   -0.00486   -0.00198    0.01555
C18   1    0.665960    0.588078    0.555131    11.00000    0.02379    0.02557 =
         0.01787    0.00305    0.00100    0.01129
C12   1    0.769636    0.884093    0.498606    11.00000    0.03420    0.02348 =
         0.03566    0.00032   -0.00037    0.01653
AFIX  43
H12   2    0.766538    0.912340    0.477264    11.00000   -1.20000
AFIX   0
C16   1    0.607091    0.498274    0.546862    11.00000    0.03184    0.02101 =
         0.03497    0.00240    0.00311    0.00806
AFIX  43
H16   2    0.599686    0.464529    0.550221    11.00000   -1.20000
AFIX   0
C15   1    0.568827    0.510159    0.529444    11.00000    0.01815    0.02661 =
         0.04597   -0.00095    0.00071    0.00153
AFIX  43
H15   2    0.535234    0.484061    0.518958    11.00000   -1.20000
AFIX   0
C11   1    0.816803    0.888274    0.519959    11.00000    0.02754    0.02117 =
         0.03719   -0.00067   -0.00024    0.00855
AFIX  43
H11   2    0.846112    0.920128    0.513321    11.00000   -1.20000
AFIX   0
C3    1    0.498576    0.654327    0.575881    11.00000    0.02161    0.03844 =
         0.03041   -0.00323    0.00087    0.01025
AFIX  43
H3    2    0.465407    0.629049    0.595971    11.00000   -1.20000
AFIX   0
C4    1    0.508446    0.702910    0.541334    11.00000    0.02456    0.04237 =
         0.03538   -0.00661   -0.00273    0.02019
AFIX  43
H4    2    0.481823    0.709806    0.534585    11.00000   -1.20000
AFIX   0

C20   1    0.958896    1.011599    0.754102    11.00000    0.04366    0.04904 =
         0.14052    0.01179    0.01048    0.02513
AFIX  23
H20A  2    0.955152    1.012597    0.850084    11.00000   -1.20000
H20B  2    0.934202    1.018759    0.712447    11.00000   -1.20000
AFIX   0
C21   1    0.947121    0.959142    0.714986    11.00000    0.03513    0.04685 =
         0.12559    0.01093    0.00265    0.01406
AFIX  23
H21A  2    0.942300    0.955463    0.619017    11.00000   -1.20000
H21B  2    0.915311    0.934412    0.756762    11.00000   -1.20000
AFIX   0
HKLF 4




REM  03096_a.res in R-3
REM wR2 = 0.0634, GooF = S = 1.079, Restrained GooF = 1.079 for all data
REM R1 = 0.0239 for 3269 Fo > 4sig(Fo) and 0.0262 for all 3517 data
REM 244 parameters refined using 0 restraints

END

WGHT      0.0308     30.1818

REM Highest difference peak  0.944,  deepest hole -0.969,  1-sigma level  0.119
Q1    1   0.6136  0.6788  0.5358  11.00000  0.05    0.94
Q2    1   0.6313  0.6489  0.5222  11.00000  0.05    0.90
Q3    1   0.6529  0.6751  0.6587  11.00000  0.05    0.86
Q4    1   0.6520  0.6748  0.4361  11.00000  0.05    0.78
Q5    1   0.6232  0.6692  0.6342  11.00000  0.05    0.77
;
_shelx_res_checksum              34227
_shelx_hkl_file
;
   0   0   3 9999.00  302.75
   0   0   6   21.99    2.15
   0   0   9  917.22   29.19
   1  -1  -1    4.62    0.25
   1  -1   2   -0.22    0.86
   1  -1   5   66.07    3.37
  -1   0   5   62.95    3.14
   0   1   5   63.77    3.36
   1  -1   8   11.31    2.91
  -1   0   8    8.61    2.44
   0   1   8   12.52    2.41
  -1   0  11    1.82    1.19
   0   1  11    1.47    1.16
   1  -1  11    2.83    1.32
   0  -1   1    4.30    0.47
   1   0   4   10.94    1.49
  -1   1   4    8.99    1.26
   0  -1   4    9.23    1.37
   1   0   7   -0.19    1.40
  -1   1  10   -0.22    1.37
   1   0  10    1.35    1.49
   0  -1  10    0.11    1.43
   1  -2   0 1923.82   58.28
   1  -2   3 8778.36  265.99
  -2   1   6 2140.76   66.90
   1   1   6 2208.90   67.38
   1  -2   6 2144.88   67.15
   1  -2   9    2.40    1.59
   1   1   9   -0.12    1.50
  -2   1   9    0.67    1.57
  -2   1  12  256.60    8.32
   1   1  12  231.46    7.94
   1  -2  12  246.99    8.28
   2  -3  -1  187.17    5.91
   2  -3   2   99.50    3.28
   2  -3   2  106.52    3.82
  -3   1   5   49.84    2.58
   1   2   5   46.92    2.93
   2  -3   5   49.30    2.92
   1   2   8    0.86    2.52
  -3   1   8   -0.21    2.15
   2  -3   8   -1.26    2.69
  -3   1  11    4.17    1.21
   1   2  11    5.30    1.34
   2  -3  11    4.04    1.42
   2  -2   1    0.85    0.62
   2  -2   1    0.82    0.32
  -2   0   4   12.70    1.32
   2  -2   4   16.40    1.67
   2  -2   7    4.04    1.48
   0   2   7    0.94    1.42
  -2   0  10    3.15    1.52
   2  -2  10    2.79    1.51
   0   2  10    1.07    1.34
  -1  -1   3 1012.68   30.89
   2  -1   3  982.21   31.10
  -1  -1   6 2501.65   78.10
  -1   2   6 2542.31   78.32
   2  -1   6 2560.77   78.52
   2  -1   9  782.29   25.34
  -1  -1   9  796.65   25.32
  -1   2   9  786.15   25.22
   2  -1  12    7.83    1.28
   2  -1  12    6.49    1.45
   0  -2   2  240.26    7.43
   0  -2   2  223.25    7.06
  -2   2   5   93.45    4.09
   2   0   5   99.00    4.46
   0  -2   5   92.78    4.15
   0  -2   8   34.31    3.61
  -2   2   8   41.93    2.82
   2   0   8   41.64    3.39
   2   0  11    5.11    1.38
  -2   2  11    5.50    1.21
   0  -2  11    6.38    1.40
   1  -3  -2  238.79    7.47
   1  -3   1   50.72    1.87
   1  -3   4   -1.08    1.17
   1  -3   7    4.75    1.15
   2   1   7    2.66    1.63
   2   1  10    1.11    1.42
  -3   2  10    0.72    1.31
   1  -3  10    0.70    1.55
   2  -4  -3  985.94   30.03
   2  -4   0  581.67   17.91
   2  -4   3   95.07    3.75
   2  -4   3   89.65    2.99
   2   2   6 1452.52   46.10
   2  -4   9  701.08   22.31
   2   2   9  663.34   22.14
  -4   2   9  693.16   22.09
   2  -4  12   12.75    1.57
   2   2  12   12.69    1.24
  -4   2  12   16.42    1.58
   3  -5  -1  296.82    9.40
   3  -5   2   41.80    1.75
   3  -5   8   19.02    2.26
  -5   2   8   18.00    2.84
   2   3   8   15.33    2.95
   2   3  11   13.09    1.56
   3  -5  11   12.79    1.65
   3  -4  -2   16.41    0.91
   3  -4   1  132.95    4.38
  -4   1   4   73.24    3.00
   3  -4   4   76.78    3.56
   1   3   7    1.85    0.79
   3  -4   7   -0.09    1.04
   1   3   7    1.88    1.51
   3  -4  10    4.62    1.59
  -4   1  10    5.10    1.36
   1   3  10    6.99    1.46
   3  -3   0 3525.87  106.75
   3  -3   3  805.18   24.05
  -3   0   3  740.19   23.51
   3  -3   6  142.96    6.11
   0   3   6  128.65    5.91
   0   3   9  662.54   21.81
   3  -3   9  690.55   22.04
  -3   0   9  677.05   21.86
   3  -3  12  283.72    9.61
   3  -3  12  290.28    9.53
  -3   0  12  295.40    9.68
   3  -2   2  257.00    8.40
  -2  -1   2  250.44    7.97
  -2  -1   5    1.50    1.02
   3  -2   5    2.15    1.42
  -2  -1   5    1.44    1.17
   3  -2   8    4.73    2.55
  -2  -1   8    5.67    2.94
  -1   3   8    6.81    2.11
   3  -2  11    4.16    1.44
  -1   3  11    5.19    1.21
  -2  -1  11    5.28    1.30
   3  -1   1  188.90    6.16
  -1  -2   4    3.05    1.03
   3  -1   4    5.70    1.50
   3  -1   7   20.96    2.42
   3  -1  10    8.07    1.72
  -1  -2  10    8.60    1.68
  -2   3  10    9.13    1.55
   0  -3  -3  695.75   21.25
   0  -3   3  683.78   21.11
   0  -3   3  718.95   21.68
   3   0   6   96.40    4.79
  -3   3   6   87.59    4.17
   3   0   9  545.60   18.39
   0  -3   9  560.71   18.44
  -3   3   9  569.11   18.25
  -3   3  12  282.31    8.96
   3   0  12  251.83    8.70
   0  -3  12  267.33    8.92
   1  -4  -1  300.40    9.45
   1  -4   2  406.91   12.66
  -4   3   5   14.83    1.43
   1  -4   5   10.42    1.36
   3   1   5   10.77    1.89
   3   1   8   17.53    2.75
  -4   3   8   22.02    2.34
   1  -4   8   16.83    2.44
   1  -4  11   16.40    1.75
   3   1  11   13.48    1.57
  -4   3  11   11.47    1.30
   2  -5  -2   86.94    3.10
   2  -5   1    1.87    0.79
   3   2   7    4.08    1.81
   3   2   7    2.75    0.84
   2  -5   7    1.84    1.09
  -5   3  10    0.09    1.22
   2  -5  10    3.20    1.57
   3   2  10    3.22    1.56
   3  -6  -3  458.81   14.31
   3  -6   0 1998.56   60.89
   3  -6   3  910.84   27.96
   3   3   6   12.80    2.12
   3   3   9  435.09   14.01
   3  -6   9  410.54   14.17
  -6   3   9  405.07   13.84
  -6   3  12  218.41    6.95
   3  -6  12  212.10    6.90
   4  -7  -7   23.59    1.45
   4  -7  -4  306.96    9.69
   4  -7  -1  353.40   11.28
   4  -7   2    0.05    0.83
  -7   3   5  282.08    9.57
   3   4   8  216.42   10.04
   4  -7   8  236.16    8.51
  -7   3   8  223.85    8.33
  -7   3  11   22.04    1.96
   4  -7  11   21.56    1.92
   4  -7  11   22.91    1.95
   3   4  11   22.40    1.75
   4  -6  -8   47.17    3.55
   4  -6  -2   14.55    0.99
   4  -6   1   20.10    1.30
  -6   2   4   14.11    1.02
   2   4   7    1.38    1.64
   2   4   7    3.49    0.86
   4  -6   7    4.73    1.22
   4  -6  10   25.35    2.32
   2   4  10   23.50    2.00
  -6   2  10   21.85    1.86
   4  -5  -3  112.48    3.75
   4  -5   0  192.72    6.26
  -5   1   3 1773.35   55.82
   4  -5   3 1957.87   56.66
   4  -5   3 1863.53   55.81
   1   4   6  824.02   27.03
   1   4   9    1.32    1.45
  -5   1   9    1.22    1.35
   4  -5   9    1.50    1.57
   4  -5  12  175.23    6.28
  -5   1  12  191.47    6.40
   4  -4  -1  288.25    9.04
   4  -4   2   43.34    2.27
   4  -4   2   40.31    1.62
  -4   0   5   74.30    3.37
   4  -4   5   78.94    4.02
   4  -4   8   39.69    2.88
  -4   0   8   34.99    3.51
   4  -4  11    0.10    1.24
   0   4  11    0.38    1.07
   4  -3   1  322.65   10.27
   4  -3   1  318.79    9.95
   4  -3   4  141.27    5.68
  -3  -1   4  141.01    5.04
   4  -3   7   14.46    2.12
  -1   4   7   17.99    2.23
  -1   4  10    8.10    1.54
  -3  -1  10    7.67    1.55
   4  -3  10   10.34    1.86
   4  -2   3 1142.25   34.75
  -2  -2   3 1099.63   34.23
  -2   4   6  277.95   10.35
   4  -2   6  293.19   10.75
   4  -2   9   20.64    2.20
  -2   4   9   22.58    2.02
  -2  -2   9   19.38    2.14
   4  -2  12  169.88    6.06
   4  -2  12  179.98    6.17
   4  -1   2   19.20    1.51
   4  -1   5   24.37    2.34
   4  -1   8    0.50    1.77
   4  -1   8    1.92    2.02
  -1  -3   8    0.80    2.30
  -3   4   8    2.38    1.92
  -3   4  11    8.64    1.24
   4  -1  11   11.95    1.60
  -1  -3  11   11.35    1.53
   4   0   4  160.65    5.57
   0  -4   4  125.94    4.01
   4   0   7   37.80    3.18
   0  -4   7   38.15    2.31
   0  -4  10    0.46    1.55
  -4   4  10   -0.84    1.18
   4   0  10    0.92    1.47
   1  -5  -3  227.96    7.32
   1  -5   3 1480.30   45.14
   4   1   6  631.90   21.43
   1  -5   9   -0.13    1.62
   4   1   9    0.68    1.46
  -5   4   9    2.54    1.32
   1  -5  12  146.74    5.23
   4   1  12  136.30    5.01
  -5   4  12  153.87    5.24
   2  -6  -4    0.98    0.41
   2  -6  -1  136.48    4.71
   2  -6   2  112.65    3.99
   2  -6   5   37.32    2.24
   4   2   5   44.95    2.96
   4   2   8   11.48    3.78
   2  -6   8    8.47    1.92
   4   2  11   43.90    2.42
   2  -6  11   40.35    2.43
   2  -6  11   38.26    2.51
   3  -7  -8    7.92    1.56
   3  -7  -2   86.23    3.29
   3  -7   1   22.17    1.53
   3  -7   4   53.94    2.07
   3  -7   7   76.90    3.53
   4   3   7   71.52    3.11
   4   3   7   77.01    4.73
   3  -7  10    4.96    1.88
   4   3  10    4.50    1.59
   4  -8  -9  247.54    8.82
   4  -8  -3   32.33    1.63
   4  -8   0  578.78   18.20
   4  -8   3 1024.80   31.61
   4   4   6  372.85   13.73
   4   4   9    0.73    1.34
   4  -8   9   -0.13    1.61
   4  -8  12   81.12    3.14
  -8   4  12   87.16    3.23
   5  -9 -10  124.11    4.83
   5  -9  -7   41.57    2.09
   5  -9  -4  146.98    5.05
   5  -9  -1 1224.01   37.75
   5  -9   2  832.80   25.92
  -9   4   5   20.58    1.69
   4   5   8   96.00    3.99
   4   5   8   88.15    5.69
   5  -9  11  100.17    4.27
   5  -9  11  100.07    4.13
   4   5  11  104.46    4.06
  -9   4  11  103.91    4.19
   5  -8  -8   17.63    1.99
   5  -8  -2   12.56    1.14
   5  -8   1  235.17    7.80
   5  -8   4  234.42    7.60
   3   5   7   29.20    3.15
   3   5   7   31.74    1.81
   3   5  10    4.94    1.56
   5  -8  10    3.18    1.93
   5  -7  -9   -0.81    1.26
   5  -7  -3 1012.91   31.10
   5  -7   0  265.99    8.64
   5  -7   3  254.30    8.20
   2   5   6  977.16   31.88
  -7   2   9  371.95   12.66
   5  -7   9  382.84   12.99
   2   5   9  375.64   12.66
  -7   2  12    4.21    1.06
   5  -7  12    2.49    0.88
   5  -6  -7   76.25    3.04
   5  -6  -1  566.50   17.60
   5  -6   2  568.79   17.65
  -6   1   5    0.85    1.15
  -6   1   8  172.63    6.90
   5  -6   8  184.05    7.00
   1   5   8  186.57    8.76
   1   5  11  125.39    4.73
   5  -6  11  123.43    5.01
  -6   1  11  128.07    5.06
   5  -5  -8   36.89    3.10
   5  -5  -2  158.70    5.21
   5  -5   1   21.73    1.21
   5  -5   4   59.55    3.23
   0   5   7   69.15    2.93
   5  -5   7   73.18    3.21
  -5   0   7   69.08    3.22
  -5   0  10    3.36    1.35
   0   5  10    2.36    1.27
   5  -5  10    2.38    1.72
   5  -4   0  155.13    5.06
   5  -4   3  246.47    8.66
  -4  -1   6  675.18   22.30
   5  -4   6  732.07   23.34
   5  -4   9  278.72    9.88
  -4  -1   9  272.26    9.72
  -1   5   9  268.73    9.55
   5  -4  12    2.50    1.11
  -4  -1  12    3.84    1.24
   5  -4  12    0.98    1.11
   5  -3   2   93.54    3.82
   5  -3   5   30.41    2.53
  -3  -2   5   26.55    1.96
   5  -3   8   17.00    1.98
  -2   5   8   16.31    2.63
  -3  -2   8   14.20    2.51
  -3  -2  11    1.84    1.54
   5  -3  11    2.67    1.39
   5  -2   4  520.05   15.35
  -2  -3   4  442.84   13.91
  -2  -3   7  201.23    7.41
   5  -2   7  208.20    7.11
   5  -2   7  208.45    8.78
   5  -2  10   30.01    2.49
  -2  -3  10   31.27    2.43
  -3   5  10   26.89    2.02
   5  -1   0  185.44    5.98
   5  -1   3  116.84    4.76
   5  -1   6  528.37   17.91
  -4   5   6  504.10   17.11
  -1  -4   9  232.99    8.26
   5  -1   9  213.36    8.09
  -4   5   9  211.66    7.80
  -1  -4  12    0.89    1.16
   5  -1  12   -0.22    1.04
  -4   5  12    0.98    1.14
   5   0   5  120.75    5.58
   0  -5   5  125.15    4.86
   0  -5   8   41.32    2.82
   5   0   8   35.06    4.47
   0  -5  11    1.61    1.23
   0  -5  11   -0.10    1.45
   5   0  11    1.46    1.28
   1  -6  -2  325.42   10.44
   5   1   4   22.48    2.12
   1  -6   4   16.20    0.91
   5   1   7   85.31    5.05
   5   1   7   85.35    3.44
   1  -6   7   81.06    3.77
   1  -6  10   33.57    2.64
   5   1  10   35.81    2.55
   2  -7  -9    1.35    1.31
   2  -7  -3  998.34   30.77
   2  -7   0  197.99    6.68
   2  -7   3  382.30   12.19
   5   2   6  776.59   26.10
   2  -7   9  277.19   10.31
   5   2   9  299.02   10.13
   2  -7  12    1.14    0.97
   5   2  12    1.33    0.84
  -7   5  12    1.19    0.95
   3  -8  -7  194.64    6.75
   3  -8  -4  117.10    4.09
   3  -8  -1   80.29    3.23
   3  -8   2  511.56   16.20
   3  -8   5  224.76    7.89
   5   3   8    6.28    2.53
   5   3   8    6.54    1.70
   3  -8   8   11.65    2.40
   3  -8  11   13.89    1.65
   3  -8  11   18.92    1.81
   5   3  11   14.54    1.52
   4  -9  -8    1.76    1.25
   4  -9  -2  218.19    7.41
   4  -9   1  214.68    7.34
   4  -9   4    2.40    0.70
   5   4   7   73.39    4.80
   5   4   7   72.85    3.15
   5   4  10   59.73    3.21
   4  -9  10   58.84    3.37
   4  -9  10   57.39    3.26
   5 -10  -9    0.68    1.39
   5 -10  -3  786.49   24.58
   5 -10   0  236.90    8.10
   5 -10   3  111.43    4.22
   5   5   6  384.16   14.21
   6 -11 -10   94.20    3.99
   6 -11  -7  465.84   15.07
   6 -11  -4  291.71    9.62
   6 -11  -1   56.01    2.67
   6 -11   2  803.40   25.25
 -11   5   5  504.72   16.33
   5   6   8   24.88    3.71
   5   6   8   23.51    1.86
   6 -11   8   22.56    2.30
   5   6  11   39.54    2.10
   6 -11  11   36.62    2.11
   6 -10  -8   11.64    1.36
   6 -10  -8   11.59    1.84
   6 -10  -2  139.70    5.06
   6 -10   1    6.74    1.24
   6 -10   4   77.47    3.04
 -10   4   4   77.65    3.26
   4   6   7  111.04    4.44
   4   6   7  125.02    6.51
   6 -10   7  118.12    4.85
   4   6  10   21.82    1.97
   6 -10  10   21.87    2.08
   6  -9  -9  211.23    7.72
   6  -9  -3  638.55   19.97
   6  -9   0 1188.36   36.66
   6  -9   3  279.11    9.14
   3   6   9  258.72    9.08
  -9   3  12   93.53    3.41
   6  -8  -7  272.35    9.08
   6  -8  -1   55.74    2.43
   6  -8   2  967.58   29.88
  -8   2   5  696.57   22.15
  -8   2   8   35.40    2.48
   2   6   8   36.73    3.80
  -8   2  11   47.24    2.68
   6  -8  11   51.34    2.63
   6  -8  11   51.17    2.75
   2   6  11   50.74    2.39
   6  -7  -8   19.83    2.03
   6  -7  -2  185.89    6.17
   6  -7   1   60.50    2.49
  -7   1   4   22.39    1.78
  -7   1   7   84.79    3.73
   1   6   7   87.88    3.51
   1   6   7   89.56    5.02
   1   6  10   40.37    2.51
   6  -7  10   44.00    3.00
   6  -6  -9  294.52   10.07
   6  -6   0 2087.64   63.56
  -6   0   6   75.41    3.62
   6  -6   9  372.35   12.78
  -6   0   9  373.31   12.55
   0   6   9  361.81   12.43
   6  -6  12  137.29    4.71
  -6   0  12  141.43    4.76
   6  -5  -7   81.15    3.49
   6  -5  -1  112.56    3.88
   6  -5   2  339.12   11.28
   6  -5   5   86.67    4.34
  -5  -1   5   78.97    3.57
  -5  -1   8    5.98    1.86
   6  -5   8    5.36    1.82
  -1   6   8    3.69    1.84
   6  -5  11   52.64    2.88
  -5  -1  11   52.60    2.93
   6  -4   4    1.38    1.59
  -4  -2   7  112.15    4.56
  -2   6   7  106.48    5.39
  -2   6  10   95.55    4.03
   6  -4  10   95.93    4.47
  -4  -2  10   94.52    4.26
   6  -3   3  521.92   17.04
  -3  -3   6    2.08    1.42
   6  -3   6    3.52    1.63
   6  -3   9  183.95    7.10
  -3  -3   9  175.04    7.03
  -3   6   9  188.33    6.77
   6  -3  12  100.13    3.82
   6  -3  12  104.04    3.89
  -2  -4  -4   13.39    0.87
   6  -2   5   74.81    4.15
  -2  -4   8   51.19    3.15
   6  -2   8   46.19    4.73
   6  -2  11   18.12    1.83
   6  -1   1  530.54   16.72
  -1  -5   4   16.61    1.00
   6  -1   4   19.93    2.13
   6  -1   7   85.57    3.49
  -1  -5   7   87.37    3.90
   6  -1   7   87.60    5.12
   6  -1  10  122.78    5.16
  -1  -5  10  111.92    5.00
   0  -6  -3  573.83   17.96
   6   0   0 2241.92   68.13
   0  -6   3  372.53   12.53
   6   0   3  449.57   13.31
   6   0   6   84.52    4.78
   0  -6   6   83.65    3.93
   6   0   9  339.91   11.41
   0  -6   9  316.79   11.50
   6   0  12  105.10    3.90
   0  -6  12  106.39    4.01
  -6   6  12  108.33    3.95
   1  -7  -7    1.05    0.74
   1  -7  -4  180.15    6.00
   6   1  -1  168.61    5.29
   1  -7   2    0.55    0.97
   1  -7   5  124.53    4.97
   6   1   5  130.41    5.85
   6   1   8  127.38    7.19
   6   1   8  138.93    5.41
   1  -7   8  139.93    5.93
   6   1  11   23.43    1.90
   1  -7  11   23.32    2.00
   2  -8  -8  125.50    4.75
   2  -8  -2   61.24    2.66
   2  -8   1  288.32    9.50
   2  -8   4  101.66    3.70
   2  -8   4  101.53    4.08
   6   2   7    6.28    2.26
   2  -8   7    7.34    1.38
   6   2   7    7.26    1.06
   2  -8  10   61.37    3.57
   2  -8  10   67.31    3.57
   6   2  10   65.83    3.44
   3  -9  -9  182.48    6.91
   3  -9  -3  259.77    8.66
   3  -9   0  855.41   26.69
   3  -9   3  301.73    9.93
   6   3   6   35.16    3.20
   3  -9   9  225.26    8.50
   3  -9  12   82.39    3.05
   4 -10 -10   29.02    2.08
   4 -10  -7   65.39    2.91
   4 -10  -4  716.50   22.41
   4 -10  -1  612.41   19.44
   4 -10   2   10.30    1.34
   4 -10   5  336.46   11.29
   6   4   8  230.46   10.19
   6   4   8  214.05    7.74
   4 -10  11   12.82    1.49
   6   4  11   14.62    1.47
 -10   6  11   13.24    1.47
   5 -11  -8  139.94    5.27
   5 -11  -2   89.03    3.69
   5 -11   1  439.29   14.34
 -11   6   4  274.22    9.23
   5 -11   4  283.67    9.30
   5 -11   4  279.27    9.35
   5 -11   7   14.25    2.01
   6   5   7   13.60    1.68
   6   5   7   12.01    3.03
   6   5   7   12.82    1.62
   5 -11  10   33.32    2.36
   6   5  10   30.29    2.24
   6 -12  -9  104.38    4.59
   6 -12  -6    0.23    0.86
   6 -12  -3  393.90   12.91
   6 -12   0  566.63   18.22
   6 -12   3  121.26    4.67
   6 -12   6   26.05    1.89
   6   6   6   22.48    2.76
   6   6   6   21.30    1.49
   6   6   6   22.16    1.50
   6 -12   9  105.55    4.76
   6 -12   9  100.77    4.52
   7 -13 -10   40.54    2.34
   7 -13  -7  126.63    4.93
   7 -13  -4 1025.33   31.99
   7 -13  -1  696.15   22.20
   7 -13   2   63.92    3.07
 -13   6   5  623.65   19.95
   7 -13   8  399.65   13.95
   6   7   8  437.03   13.76
   7 -13   8  405.12   14.13
   6   7  11   18.66    1.35
 -13   6  11   18.20    1.37
   7 -12  -8   54.82    2.68
   7 -12  -8   54.79    2.89
   7 -12  -8   54.28    3.14
   7 -12  -2   53.02    2.61
   7 -12   1  133.16    5.15
 -12   5   4    8.42    1.21
   7 -12   4    7.78    1.09
   7 -12   4    9.38    1.04
   5   7   7   39.45    5.07
   5   7   7   41.71    2.98
   7 -12   7   43.77    3.58
   7 -12  10   67.83    3.25
 -12   5  10   65.69    3.29
   7 -12  10   72.69    3.58
   5   7  10   67.24    3.22
   7 -11  -9  174.23    6.69
   7 -11  -3   15.70    1.33
   7 -11   0  669.72   21.19
   7 -11   3  692.98   21.84
   7 -11   9    5.05    1.84
   7 -10 -10   20.71    1.79
   7 -10  -7   85.82    3.51
   7 -10  -4  682.24   21.31
   7 -10  -1  682.55   21.45
   7 -10   2    6.51    1.09
 -10   3   5  253.07    8.82
   3   7   8  287.67   12.62
   3   7   8  314.94   10.51
   7 -10   8  314.89   10.97
   7 -10  11   38.43    2.11
   3   7  11   36.54    1.98
 -10   3  11   40.57    2.26
   7  -9  -8   45.34    3.03
   7  -9  -2   76.27    3.03
   7  -9   1  249.62    8.32
  -9   2   4   64.60    3.02
   2   7   7    1.97    0.82
   2   7   7    1.51    1.82
   7  -9   7    1.65    1.18
  -9   2  10   25.36    2.30
   2   7  10   26.30    2.04
   7  -8  -9  173.38    6.50
   7  -8  -3  120.60    4.25
   7  -8   0  507.85   16.02
   7  -8   3 1268.48   38.94
  -8   1   6  317.63   11.03
  -8   1   9    7.94    1.49
   1   7   9    6.05    1.38
  -8   1  12   85.98    3.28
   7  -7  -7   58.05    2.87
   7  -7  -1  331.93   10.61
   7  -7   2   61.97    2.49
  -7   0   5  503.54   16.41
  -7   0   8  210.18    7.75
   7  -7  11    1.33    1.16
  -7   0  11    3.23    1.38
   7  -7  11    5.59    1.46
   7  -6  -8  128.71    5.20
   7  -6   1  201.39    6.65
   7  -6   4  192.36    7.47
  -6  -1   4  190.89    6.88
  -1   7   7    2.82    1.65
  -6  -1   7    3.91    1.21
  -1   7  10   45.85    2.53
   7  -6  10   49.88    3.08
   7  -5   3 1056.17   33.31
   7  -5   6  357.76   13.56
  -5  -2   6  381.21   12.71
  -5  -2   9    1.77    1.49
   7  -5   9    1.14    1.59
  -2   7   9   -1.09    1.24
   7  -5  12   76.68    3.05
  -5  -2  12   71.56    3.05
   7  -4  -7   67.89    3.05
   7  -4   5   48.16    3.27
  -4  -3   5   45.70    2.67
  -4  -3   8   10.65    1.90
   7  -4   8    6.98    1.86
  -4  -3  11    2.95    1.51
   7  -4  11    1.40    1.29
   7  -3   1  338.96   11.04
   7  -3   4  346.14   12.20
   7  -3   7   22.94    2.75
   7  -3   7   23.58    1.57
   7  -3  10   33.87    2.68
  -3  -4  10   36.35    2.53
   7  -2   0  257.95    8.34
   7  -2   3 1063.33   33.50
   7  -2   6  458.21   16.35
  -2  -5   9   -1.25    1.55
   7  -2   9    0.94    1.44
   7  -2  12   68.23    2.88
  -5   7  12   76.37    2.99
   7  -2  12   73.55    2.97
  -2  -5  12   80.45    3.12
  -1  -6  -4   18.78    1.16
   7  -1   5   28.42    2.64
  -1  -6   5   27.49    2.11
   7  -1   8   22.68    2.09
   7  -1   8   22.74    3.32
  -1  -6   8   20.31    2.63
   7  -1  11   54.14    2.80
  -1  -6  11   50.38    2.83
   0  -7   4  401.34   13.26
   0  -7   4  396.41   12.83
   7   0   4  426.88   14.03
   0  -7   7   63.07    3.24
   7   0   7   65.61    4.48
   0  -7  10   13.78    2.12
   0  -7  10   19.24    2.36
   7   0  10   15.81    2.06
   1  -8  -9  110.72    4.68
   1  -8  -3  155.46    5.49
   1  -8   3 1081.97   33.48
   1  -8   6  259.90    9.15
   7   1   6  245.60   10.26
   1  -8   9   12.87    2.04
  -8   7  12   79.14    3.04
   7   1  12   78.28    3.06
   2  -9  -7  142.72    5.27
   2  -9  -4    4.27    0.81
   2  -9  -1  233.26    7.97
   2  -9   2  300.25    9.97
   7   2   5    8.24    1.96
   2  -9   5    6.91    1.39
   7   2   8   74.25    3.37
   2  -9   8   72.74    3.91
   7   2   8   73.82    5.20
   2  -9  11   86.59    3.72
   7   2  11   82.83    3.64
  -9   7  11   85.49    3.59
   3 -10  -8   88.11    3.74
   3 -10  -2  223.31    7.70
   3 -10   1   69.94    3.13
   3 -10   4  398.35   12.75
   3 -10   4  389.03   12.93
   7   3   7  175.42    6.33
   7   3   7  174.77    8.39
   7   3   7  175.32    6.34
   7   3  10    3.06    1.49
   3 -10  10    0.56    1.47
   3 -10  10    2.51    1.69
   4 -11  -9  106.06    4.65
   4 -11  -3  206.79    7.22
   4 -11   0   88.70    3.78
   4 -11   3  534.87   17.17
   7   4   6  305.89   10.20
   7   4   6  314.50   12.21
   4 -11   9    9.84    1.85
   5 -12 -10  222.87    7.87
   5 -12  -7  112.67    4.89
   5 -12  -4   88.03    3.58
   5 -12  -1 1352.13   41.97
   5 -12   2  961.53   30.19
   5 -12   5    2.86    1.12
   5 -12   8  243.03    9.25
   5 -12   8  257.76    9.40
   7   5   8  268.15    9.00
   5 -12  11  184.34    6.46
   7   5  11  191.99    6.51
 -12   7  11  183.08    6.38
   6 -13  -8   81.63    3.54
   6 -13  -2  422.04   13.94
   6 -13   1   30.11    2.16
   6 -13   4  369.54   12.04
   6 -13   4  364.85   12.16
   6 -13   7  208.87    7.84
   7   6   7  215.78    7.45
   7   6   7  209.07    9.82
   6 -13   7  195.09    7.75
   7   6   7  207.12    7.38
   7   6  10   15.84    1.66
   6 -13  10   15.07    1.85
 -13   7  10   16.20    1.62
   6 -13  10   13.28    1.62
   7 -14  -9   38.54    2.25
   7 -14  -9   37.21    2.67
   7 -14  -6   82.70    3.52
   7 -14  -3    0.49    1.04
   7 -14   0  230.19    8.26
   7 -14   3  212.45    7.69
   7 -14   6   45.43    2.55
   7 -14   6   47.82    2.72
   7   7   6   49.65    2.43
   7 -14   9    4.05    1.45
 -14   7   9    2.05    1.40
   7 -14   9    3.86    1.70
   8 -15 -10  306.99   10.34
   8 -15  -7  127.19    5.00
   8 -15  -4  172.80    6.38
   8 -15  -1 1671.34   51.89
   8 -15   2 1231.47   38.60
   8 -15   8  256.44    9.07
   8 -15   8  233.88    8.73
 -15   7   8  241.61    8.79
   7   8   8  255.86    8.65
   7   8  11  178.27    5.97
   8 -14 -11   10.98    0.94
   8 -14  -8   91.33    4.10
   8 -14  -8   94.12    3.91
   8 -14  -8   94.79    4.41
   8 -14  -2   42.38    2.49
   8 -14   1  233.81    8.33
   8 -14   4  144.24    5.46
   8 -14   7   10.40    2.00
   6   8   7   10.96    1.56
   6   8   7    8.29    2.76
   6   8   7   10.88    1.66
   8 -14   7    8.38    1.74
   8 -14  10   12.60    1.70
   6   8  10   13.16    1.49
 -14   6  10   10.91    1.44
   8 -13  -9    0.57    1.48
   8 -13  -6  164.16    5.92
   8 -13  -3  344.05   11.45
   8 -13   0   18.29    1.78
   8 -13   3  234.86    8.18
   5   8   6  259.04    8.80
   5   8   6  263.35    8.79
   8 -13   6  260.03    9.12
 -13   5   9   64.36    3.33
   8 -13   9   55.46    3.05
   8 -13   9   63.65    3.47
   8 -12 -10  251.50    8.66
   8 -12  -7  137.91    5.40
   8 -12  -4   48.68    2.29
   8 -12  -1  836.27   26.30
   8 -12   2  670.15   21.28
 -12   4   5    2.76    1.21
   8 -12   8  175.89    6.97
   4   8   8  181.03    6.54
   4   8  11  157.41    5.75
 -12   4  11  170.61    5.97
   8 -11  -8   37.44    2.30
   8 -11  -8   35.33    2.53
   8 -11  -2  124.12    4.65
   8 -11   1    6.64    1.21
   8 -11   4   67.52    2.79
 -11   3   4   62.41    3.03
   3   8   7   40.25    2.31
   8 -11   7   37.18    2.79
   3   8   7   38.21    3.90
   3   8  10    0.44    1.18
   8 -11  10   -1.03    1.24
 -11   3  10    0.83    1.45
   8 -11  10    0.77    1.48
   8 -10  -9    1.39    1.34
   8 -10  -3  610.79   19.23
   8 -10   0  138.11    5.06
   8 -10   3  217.05    7.36
 -10   2   6  482.84   16.03
   8 -10   9  152.68    6.42
   2   8   9  166.25    6.06
   8  -9 -10  138.69    5.19
   8  -9  -7   66.99    2.99
   8  -9  -7   63.36    3.19
   8  -9  -7   65.27    2.83
   8  -9  -1  762.78   23.79
   8  -9   2  679.65   21.29
  -9   1   5    2.30    1.28
   1   8   8  174.02    8.39
  -9   1   8  180.52    6.81
   8  -9   8  173.73    6.91
  -9   1  11  126.64    4.93
   8  -8  -8   22.40    2.47
   8  -8  -2   74.42    2.91
   8  -8   1   43.14    2.06
  -8   0   4  147.25    5.65
   0   8   7   99.55    5.35
  -8   0   7   97.33    4.15
   0   8   7   93.47    3.78
   8  -8   7  101.54    4.19
  -8   0  10    4.45    1.90
   0   8  10    4.25    1.30
   8  -7  -9   10.31    1.51
   8  -7   0  518.08   16.28
  -7  -1   6  491.87   16.37
  -1   8   9  116.85    4.74
  -7  -1   9  116.78    4.96
   8  -7  12    0.21    0.89
  -7  -1  12    1.29    0.88
   8  -6  -7    7.77    1.29
  -6  -2   5   54.86    2.90
   8  -6   5   49.29    3.37
  -6  -2   8  131.92    5.57
   8  -6  11   49.81    2.78
  -6  -2  11   50.48    2.80
   8  -5  -8   10.41    1.55
  -5  -3   4  127.36    5.02
   8  -5   4  121.34    5.52
   8  -5   7  194.17    6.95
  -5  -3   7  203.56    7.41
  -3   8   7  215.68    8.44
   8  -5  10   21.93    2.35
  -5  -3  10   22.34    2.48
   8  -4   3   28.07    2.22
   8  -4   6  523.20   18.53
  -4  -4   6  530.82   17.46
  -4  -4   9  277.69    9.71
   8  -4   9  257.38    9.62
  -4  -4  12    7.55    1.16
   8  -4  12    5.60    1.04
   8  -3  -7   25.65    1.73
   8  -3   5   24.64    2.57
  -3  -5   8   20.09    2.77
   8  -3  11    1.46    1.34
   8  -2   1   58.31    2.70
   8  -2   4  225.69    8.35
  -2  -6   4  220.23    7.69
  -2  -6   4  206.44    7.15
   8  -2   7  291.59   12.05
  -2  -6   7  312.99   10.60
   8  -2   7  300.51   10.11
  -2  -6  10   46.78    2.96
   8  -2  10   48.29    3.02
   8  -1   0  514.90   16.15
  -1  -7   6  529.49   17.51
   8  -1   6  532.15   18.78
   8  -1   9  197.53    7.19
  -1  -7   9  180.91    7.28
   8  -1  12   -0.05    0.78
  -7   8  12    1.45    0.78
  -1  -7  12    0.52    0.91
   0  -8  -7   95.34    3.79
   0  -8  -4  144.52    5.15
   8   0  -1   37.40    1.43
   8   0   2   76.34    3.43
   8   0   5  207.97    8.63
   0  -8   5  217.52    7.78
   8   0   8   28.63    3.51
   0  -8   8   24.78    2.47
   8   0  11   16.22    1.68
   0  -8  11   15.92    1.74
   1  -9  -8    2.21    1.42
   1  -9  -2  479.89   15.45
   1  -9   1   88.85    3.64
   8   1   4  123.08    5.60
   1  -9   4  129.90    4.74
   1  -9   4  129.18    5.06
   8   1   7  288.14   11.94
   1  -9   7  284.08   10.24
   8   1   7  295.34    9.80
   1  -9  10   99.08    4.52
   1  -9  10   95.91    4.46
   8   1  10   95.86    4.38
   2 -10  -9   10.27    1.68
   2 -10  -3  627.49   19.95
   2 -10   0  679.08   21.55
   2 -10   3   14.62    1.42
   8   2   6  372.25   14.14
   2 -10   6  372.18   12.74
   2 -10   9  209.95    8.01
   2 -10   9  208.65    8.00
   3 -11 -10   47.47    2.62
   3 -11  -7  359.97   11.97
   3 -11  -4  307.74   10.25
   3 -11  -1    1.02    1.14
   3 -11   2  482.16   15.67
   8   3   5  444.35   16.43
   3 -11   5  478.11   15.38
   8   3   8   28.89    3.70
   8   3   8   27.27    1.98
   3 -11  11   36.87    2.10
 -11   8  11   31.58    1.89
   8   3  11   35.57    2.06
   4 -12  -8    4.30    1.16
   4 -12  -2 1009.11   31.65
   4 -12   1  824.55   26.09
   4 -12   4    0.76    0.85
   4 -12   4    2.48    1.14
   8   4   7  210.34    7.49
   8   4   7  213.91   10.05
   8   4   7  208.86    7.51
   4 -12   7  199.76    8.06
 -12   8  10  114.59    4.51
   4 -12  10  105.40    4.59
   8   4  10  108.61    4.58
   5 -13  -9    1.76    1.50
   5 -13  -6   50.47    2.46
   5 -13  -3  154.17    5.85
   5 -13   0  163.02    6.19
   5 -13   3    0.68    1.06
   8   5   6   93.40    3.79
   5 -13   6   91.81    4.03
   5 -13   6   93.70    4.12
   8   5   6   97.92    5.58
   5 -13   9   73.35    3.82
   5 -13   9   71.06    3.62
   6 -14 -10  107.87    4.38
   6 -14  -7  571.45   18.44
   6 -14  -4  287.60    9.84
   6 -14  -1   99.38    4.33
   6 -14   2 1133.15   35.57
   6 -14   5  706.62   22.54
   6 -14   8   23.46    2.14
   8   6   8   23.08    1.87
   6 -14   8   20.65    2.24
   8   6  11   70.17    2.94
   7 -15 -11   26.18    1.39
   7 -15  -8   -0.18    1.11
   7 -15  -2  606.78   19.73
   7 -15   1  288.12   10.13
   7 -15   4    6.78    1.17
   7 -15   7   90.50    4.26
   8   7   7  102.52    6.50
   8   7   7  100.22    4.11
   8   7   7   97.98    4.14
   7 -15   7   96.74    4.54
   8   7  10   49.56    2.56
   8 -16  -9    1.02    1.18
   8 -16  -9   -0.68    1.58
   8 -16  -6   26.53    2.78
   8 -16  -3   81.74    3.77
   8 -16   0   35.11    2.49
   8 -16   3   23.65    1.95
   8   8   6   76.60    5.73
   8   8   6   71.16    3.57
   8 -16   6   68.42    3.46
   8 -16   9   29.34    2.36
   9 -17 -10  154.16    5.64
   9 -17  -7  708.39   22.56
   9 -17  -4  535.10   17.59
   9 -17  -1   10.56    1.64
   9 -17   2 1028.25   32.68
   9 -17   5  865.36   27.54
   8   9   5  877.66   27.30
   9 -17   8   57.72    3.22
   8   9   8   54.93    2.80
   9 -16 -11   -0.13    0.60
   9 -16  -8   25.59    2.12
   9 -16  -8   24.71    2.39
   9 -16  -8   24.61    1.83
   9 -16  -2   87.30    3.99
   9 -16   1    1.43    1.22
   9 -16   4   29.78    2.01
   7   9   7   27.95    1.91
   7   9   7   25.23    1.86
   7   9   7   24.36    3.51
   9 -16   7   27.86    2.32
   7   9  10    0.93    0.98
   9 -15  -9   35.29    2.62
   9 -15  -9   41.09    2.28
   9 -15  -6    0.17    1.05
   9 -15  -3  129.93    5.14
   9 -15   0  330.66   11.37
   9 -15   3  112.55    4.65
   6   9   6    8.73    1.15
   9 -15   6    7.15    1.35
   6   9   6    9.47    1.18
 -15   6   9   44.88    2.66
   9 -15   9   47.20    2.96
   9 -14 -10  145.08    5.43
   9 -14  -7  657.97   21.00
   9 -14  -4  417.40   13.70
   9 -14  -1  103.93    4.35
   9 -14   2 1261.22   39.35
 -14   5   5  665.50   21.33
   5   9   8   20.17    1.65
   9 -14   8   17.05    1.76
   9 -14   8   16.16    2.03
 -14   5   8   22.02    2.11
 -14   5  11   69.51    2.73
   9 -13 -11   19.01    1.16
   9 -13  -8    2.09    1.54
   9 -13  -8    1.68    1.29
   9 -13  -2  115.32    4.55
   9 -13   1   32.13    2.12
 -13   4   4   16.18    1.58
   9 -13   4   16.46    1.37
   4   9   7   75.25    3.33
   9 -13   7   73.19    3.73
   4   9   7   72.46    5.13
   9 -13  10   27.40    2.10
   4   9  10   25.30    1.77
 -13   4  10   21.62    1.93
   9 -12  -9  149.63    5.91
   9 -12  -6    4.80    0.95
   9 -12  -3  229.44    7.87
   9 -12   0  313.55   10.54
   9 -12   3   27.28    1.72
   9 -12   6   80.13    3.61
   3   9   6   85.43    3.35
 -12   3   6   88.67    3.99
   3   9   6   76.78    3.26
   9 -12   9  167.36    6.60
 -12   3   9  182.51    6.88
   9 -12   9  184.02    6.97
   9 -11 -10   68.84    3.09
   9 -11  -7  314.24   11.12
   9 -11  -7  303.25   10.50
   9 -11  -7  320.17   10.64
   9 -11  -1   30.77    1.90
   9 -11   2  622.29   19.73
 -11   2   5  547.13   17.84
   2   9   8   22.88    3.36
   9 -11   8   28.89    2.40
 -11   2  11   52.73    2.68
   9 -11  11   62.96    2.87
   9 -10  -8   20.53    2.06
   9 -10  -2  351.93   11.46
   9 -10   1  261.70    8.76
 -10   1   4    7.61    1.51
   9 -10   7   33.81    2.40
   1   9   7   35.14    3.44
   1   9   7   34.96    1.96
   9 -10  10   38.37    2.64
   9 -10  10   36.91    2.38
 -10   1  10   40.53    2.63
   1   9  10   41.80    2.33
   9  -9  -9  115.85    4.75
   9  -9   0  980.34   30.38
  -9   0   6   54.53    3.13
   9  -9   9  201.97    7.52
   0   9   9  189.05    6.97
  -9   0  12   39.55    1.79
   9  -8 -10   84.43    3.46
   9  -8  -7  265.56    9.02
   9  -8  -7  268.19    9.34
   9  -8  -1   89.05    3.45
  -8  -1   5  205.06    7.58
   9  -8   8    5.01    1.75
  -8  -1   8    5.37    2.04
  -8  -1  11   70.34    3.30
   9  -7  -8   68.20    3.60
  -7  -2   4    4.01    1.49
   9  -7   7  164.33    5.83
  -7  -2   7  140.17    5.82
  -7  -2  10  115.90    5.09
   9  -6  -9  210.90    7.45
   9  -6   3  272.10    9.78
  -6  -3   6   27.06    2.28
  -6  -3   9  197.08    7.42
   9  -6  12   78.84    3.04
  -6  -3  12   74.82    3.04
   9  -5  -7   66.26    3.06
  -5  -4   5   82.65    3.94
   9  -5   5   86.10    4.63
  -5  -4   8    0.86    2.09
  -5  -4  11   28.06    2.14
   9  -5  11   26.94    2.03
   9  -4  -8   85.30    3.68
   9  -4   1 1151.80   35.77
   9  -4   4  170.48    7.01
  -4  -5   7   47.77    3.19
  -4  -5   7   48.16    2.71
   9  -4   7   41.06    2.16
   9  -4   7   43.85    3.56
  -4  -5  10  124.49    5.56
   9  -4  10  134.92    5.50
   9  -3   6    0.23    1.75
  -3  -6   9  218.57    8.50
   9  -3   9  238.81    8.48
  -6   9  12   97.44    3.48
   9  -3  12   95.09    3.58
   9  -2  -7    1.93    0.85
  -2  -7  -4   62.62    2.73
   9  -2   2   71.98    3.44
   9  -2   5    6.89    1.95
  -2  -7   5    9.21    1.64
  -2  -7   8   51.87    3.19
   9  -2   8   47.67    2.57
   9  -2   8   41.64    4.12
   9  -2  11   13.64    1.61
  -2  -7  11   10.14    1.60
   9  -1   1  763.15   24.00
  -1  -8   4   65.93    3.36
  -1  -8   4   69.74    2.96
   9  -1   4   73.90    3.98
   9  -1   7   72.84    3.12
   9  -1   7   69.50    3.07
   9  -1   7   60.80    4.58
  -1  -8   7   68.63    3.51
   9  -1  10  151.36    6.13
  -1  -8  10  158.03    6.27
   0  -9  -3  220.74    7.70
   9   0   0  911.45   28.22
   0  -9   3  457.55   14.92
   9   0   3  466.36   15.53
   0  -9   6    2.36    1.49
   9   0   6    0.24    1.85
   0  -9   9  128.22    5.56
   0  -9   9  123.04    5.45
   9   0  12   46.91    2.00
   1 -10 -10   40.18    2.36
   1 -10  -7    7.23    1.21
   1 -10  -4  258.95    8.81
   1 -10  -1  358.18   11.01
   9   1  -1  315.76   10.20
   1 -10   2   32.86    2.13
   9   1   5  117.08    5.83
   1 -10   5  115.01    4.84
   1 -10   8  206.78    7.82
   9   1   8  192.09    9.53
   1 -10   8  202.14    7.79
 -10   9  11   24.51    1.72
   1 -10  11   27.91    1.95
   9   1  11   26.75    1.94
   2 -11  -8  184.82    6.66
   2 -11  -2  392.16   12.97
   2 -11   1 1057.00   33.07
   2 -11   4  323.10   11.02
   2 -11   4  324.77   10.85
   9   2   7   15.25    2.38
   9   2   7   15.27    2.39
   9   2   7   11.53    4.17
   2 -11  10  148.23    5.78
   9   2  10  140.55    5.66
   3 -12  -3   33.03    2.15
   3 -12   0  418.82   13.86
   3 -12   3  524.04   17.07
   9   3   6   21.23    1.55
   9   3   6   23.73    2.97
   3 -12   6   20.74    1.88
   3 -12   6   19.86    2.00
   3 -12   6   20.62    1.87
   3 -12   9   59.82    3.42
   4 -13 -10   22.10    1.85
   4 -13  -7   97.74    4.18
   4 -13  -4  787.53   24.97
   4 -13  -1  600.77   19.47
   4 -13   2   18.99    1.83
   4 -13   5  494.11   16.20
   4 -13   8  352.88   12.56
   4 -13   8  372.29   12.77
   9   4   8  370.00   12.25
   9   4  11   25.95    1.76
   5 -14  -8  231.58    8.13
   5 -14  -2  379.73   12.86
   5 -14   1 1281.44   40.12
   5 -14   4  444.89   14.44
   5 -14   4  427.31   14.21
   9   5   7    0.56    1.67
   9   5   7    1.25    2.50
   5 -14   7    0.13    2.09
   9   5   7   -0.54    1.67
   5 -14   7    0.95    1.58
   9   5  10   68.61    3.20
 -14   9  10   66.88    2.95
   5 -14  10   66.03    3.17
   6 -15  -9   48.04    3.05
   6 -15  -9   46.98    2.60
   6 -15  -6   11.07    1.48
   6 -15  -3    4.76    1.25
   6 -15   0    4.06    1.46
   6 -15   3    9.01    1.46
   9   6   6    3.17    1.21
   6 -15   6    3.41    1.32
   6 -15   6    3.48    1.22
   9   6   6    0.85    2.32
   6 -15   9   30.06    2.54
   6 -15   9   26.46    2.15
   9   6   9   21.54    1.95
   7 -16 -10   35.09    2.14
   7 -16  -7  110.06    4.53
   7 -16  -4  951.10   30.12
   7 -16  -1  872.39   27.91
   7 -16   2   13.79    1.71
   9   7   5  351.28   11.56
   9   7   8  365.27   12.07
   7 -16   8  366.43   12.50
   7 -16   8  348.04   12.19
   9   7  11   26.49    1.43
   8 -17  -8   13.53    1.53
   8 -17  -2  155.45    6.28
   8 -17   1  243.03    9.00
   8 -17   4   70.71    3.44
   9   8   7    4.05    1.22
   8 -17   7    4.18    1.61
   9   8   7    3.87    1.20
   9   8  10   30.06    1.83
   9 -18  -9   18.58    2.01
   9 -18  -9   20.71    1.67
   9 -18  -6    5.33    1.71
   9 -18  -3   12.24    1.57
   9 -18   0   48.01    3.01
   9 -18   3   29.10    2.25
   9   9   6    0.88    1.49
   9 -18   6    0.45    1.42
  10 -19 -10   28.76    1.78
  10 -19  -7  143.50    5.51
  10 -19  -4  914.71   29.03
  10 -19  -4  901.28   28.38
  10 -19  -1  843.90   27.33
  10 -19   2    0.30    1.23
  10 -19   5  492.36   16.05
   9  10   5  490.54   15.92
   9  10   8  450.81   14.69
  10 -18  -8    2.87    1.15
  10 -18  -8    1.38    1.40
  10 -18  -8    1.37    1.57
  10 -18  -5    0.87    1.00
  10 -18  -2    6.08    1.44
  10 -18   1    8.89    1.56
  10 -18   4    1.13    0.96
   8  10   7   10.42    1.40
  10 -18   7    7.72    1.62
   8  10   7    8.15    1.29
   8  10  10    2.47    0.95
  10 -17  -9   21.74    1.97
  10 -17  -9   15.65    1.57
  10 -17  -6   58.20    2.91
  10 -17  -3   35.53    2.32
  10 -17   0   13.12    1.77
  10 -17   3  102.00    4.48
   7  10   6   38.08    2.36
   7  10   6   35.65    2.27
  10 -17   6   37.59    2.91
  10 -17   9    0.92    1.34
  10 -16 -10   36.21    2.09
  10 -16  -7  206.09    7.34
  10 -16  -4 1331.56   41.53
  10 -16  -1 1049.26   33.15
  10 -16   2    6.20    1.33
   6  10   5  806.42   25.25
  10 -16   8  589.05   18.94
   6  10   8  566.61   18.48
  10 -15 -11   27.88    1.43
  10 -15  -8   20.90    2.17
  10 -15  -8   26.02    2.05
  10 -15  -2   37.68    2.29
  10 -15   1   56.12    2.98
 -15   5   4    9.70    1.32
  10 -15   4    7.23    1.14
  10 -15   7    6.33    1.81
 -15   5   7    4.49    1.87
   5  10   7   10.57    3.40
   5  10   7    6.04    1.32
 -15   5  10   17.68    1.58
  10 -15  10   21.66    1.85
   5  10  10   20.13    1.53
  10 -14  -9   85.22    4.01
  10 -14  -9   85.53    3.58
  10 -14  -6  159.48    5.77
  10 -14  -3   23.25    1.69
  10 -14   0  104.99    4.41
  10 -14   3  208.44    7.23
 -14   4   3  192.28    7.07
   4  10   6   47.32    2.24
 -14   4   6   45.78    2.60
   4  10   6   45.53    2.20
 -14   4   6   42.79    2.74
  10 -14   6   43.72    2.53
  10 -14   9    6.94    1.73
 -14   4   9    6.01    1.64
  10 -13 -10   33.14    2.04
  10 -13  -7  144.49    5.68
  10 -13  -7  145.47    5.93
  10 -13  -7  142.79    5.40
  10 -13  -1  810.40   25.59
  10 -13   2    1.78    1.02
 -13   3   5  524.28   17.19
 -13   3   8  448.38   15.34
  10 -13   8  460.48   15.36
   3  10   8  458.48   14.86
 -13   3  11   44.36    2.14
  10 -12  -8   80.13    3.60
  10 -12  -8   84.49    3.98
  10 -12  -2    5.33    1.03
  10 -12   1  293.11    9.90
 -12   2   4  219.56    7.93
  10 -12   7    8.48    2.04
   2  10   7    7.91    1.79
 -12   2  10   21.31    1.99
   2  10  10   18.13    1.56
  10 -12  10   21.70    1.98
  10 -11  -9  142.04    5.60
  10 -11  -6  189.36    6.72
  10 -11  -6  202.86    7.16
  10 -11  -3    6.19    0.98
  10 -11   0  401.13   13.07
  10 -11   6   93.55    3.98
 -11   1   6   96.88    4.44
  10 -11   9   22.30    2.14
   1  10   9   23.73    1.76
 -11   1   9   21.31    2.23
  10 -10 -10    4.14    1.12
  10 -10  -7  138.75    5.85
  10 -10  -7  131.66    5.15
  10 -10  -1  397.34   12.88
  10 -10   2   38.51    2.07
 -10   0   5  390.70   13.27
   0  10   8  192.66    9.47
  10 -10   8  218.48    7.97
  10 -10  11    5.67    1.29
 -10   0  11    6.11    1.30
  10  -9  -8  183.01    6.89
  10  -9   1  382.89   12.39
  -9  -1   4  273.16    9.62
  -9  -1   7    4.33    1.33
  10  -9   7    6.05    1.45
  -9  -1   7    5.19    1.90
  -1  10   7    6.93    1.04
  10  -9  10   47.00    2.86
  -9  -1  10   48.35    3.01
  10  -8  -9  189.75    6.91
  -8  -2   6   96.51    4.54
  10  -8   9    9.00    1.86
  -8  -2   9    9.66    2.01
  -8  -2  12   49.69    2.13
  10  -7  -7  157.47    5.96
  -7  -3   5  298.85   10.58
  -7  -3   8   88.29    4.25
  10  -7   8   95.57    4.28
  -7  -3  11    2.00    1.34
  10  -6  -8  201.71    7.34
  10  -6   4  745.37   24.56
  -6  -4   7   77.47    3.67
  -6  -4   7   80.14    4.19
  10  -6   7   72.70    3.14
  -6  -4  10   28.62    2.47
  10  -5  -9  158.70    5.77
  10  -5   6  350.13   13.58
  -5  -5   6  368.12   12.59
  -5  -5   9    0.85    1.46
  -5  -5   9    0.41    1.77
  -5  -5  12   55.56    2.41
  10  -5  12   57.82    2.41
  10  -4  -7  100.99    4.09
  10  -4   2  137.38    5.51
  10  -4   5   91.21    4.91
  -4  -6   8   10.02    1.97
  10  -4   8   12.66    1.45
  10  -4  11    4.66    1.36
  10  -3  -8  297.21   10.05
  10  -3   1  645.22   20.54
  10  -3   4  715.22   23.69
  10  -3   7   98.85    3.99
  10  -3   7  103.98    5.97
  -3  -7   7  101.30    4.53
  10  -3  10   17.26    2.06
  10  -2   0  129.60    4.71
  10  -2   3  655.55   21.50
  10  -2   6  299.39   12.32
  -2  -8   6  330.60   11.31
  10  -2   9    0.11    1.47
  -2  -8   9    2.29    1.69
  -2  -8   9    2.32    1.98
  10  -2  12   41.90    1.90
  -1  -9  -7   36.96    2.05
  10  -1  -7   33.98    1.91
  -1  -9  -4    6.89    1.06
  10  -1   2  359.05   12.21
  -1  -9   5   42.91    2.73
  10  -1   5   36.61    3.21
  10  -1   8   22.52    1.82
  10  -1   8   16.36    3.23
  -1  -9   8   22.39    2.40
  -1  -9   8   20.92    2.49
  -1  -9  11   43.95    2.45
  10  -1  11   40.07    2.33
   0 -10  -8  212.55    7.49
   0 -10  -2   37.53    2.27
  10   0   1  385.59   12.70
   0 -10   4  643.44   20.67
   0 -10   4  635.49   20.39
   0 -10   7  153.72    6.60
  10   0   7  140.51    8.11
  10   0  10    6.42    1.61
   0 -10  10    5.47    1.68
   1 -11  -9   44.20    2.28
   1 -11  -3  272.66    9.41
  10   1   0   75.71    3.10
   1 -11   0   77.63    3.52
  10   1   3  558.01   18.68
   1 -11   3  561.73   18.14
  10   1   6  339.82   13.79
   1 -11   6  379.46   12.34
  10   1   6  346.12   11.85
   1 -11   6  362.45   12.28
   1 -11   6  375.05   12.54
   1 -11   9   19.90    2.27
   1 -11   9   19.84    2.25
   2 -12 -10  135.25    5.21
   2 -12  -7   77.23    3.70
   2 -12  -4   48.90    2.58
  10   2  -1  652.22   20.76
   2 -12  -1  733.30   21.69
   2 -12   2  661.44   21.28
   2 -12   5   23.45    2.06
  10   2   8  108.16    4.45
   2 -12   8  104.99    4.85
  10   2  11  123.27    4.82
   2 -12  11  135.77    4.85
   3 -13  -8  178.74    6.53
   3 -13  -2  351.54   12.00
   3 -13   1  210.62    7.75
  10   3   4  856.15   26.72
   3 -13   4  811.27   25.72
   3 -13   4  781.69   25.65
  10   3   7  229.34    8.21
   3 -13   7  236.53    8.70
  10   3   7  226.71   10.47
   3 -13   7  225.78    8.58
  10   3   7  239.23    8.25
  10   3  10    1.41    1.27
   3 -13  10    2.73    1.38
 -13  10  10    1.53    1.08
   4 -14  -9   10.49    1.87
   4 -14  -9    9.23    1.25
   4 -14  -3  114.76    4.82
   4 -14   0    0.35    1.49
   4 -14   3   74.45    3.63
   4 -14   6  124.22    5.11
  10   4   6  126.86    4.79
   4 -14   6  122.99    5.20
  10   4   6  123.78    6.62
   4 -14   6  117.40    5.01
  10   4   9    7.60    1.46
   4 -14   9    7.96    1.67
   4 -14   9    7.93    1.88
   5 -15 -10  195.62    7.01
   5 -15  -7  100.72    4.28
   5 -15  -4   58.18    2.99
   5 -15  -1  749.07   24.17
   5 -15   2  569.83   18.75
   5 -15   5    4.77    1.32
  10   5   5    5.36    1.00
   5 -15   8  153.65    6.06
   5 -15   8  140.35    5.83
  10   5   8  141.61    5.58
  10   5  11  127.89    4.60
   6 -16  -8  106.72    4.37
   6 -16  -2   37.54    2.58
   6 -16   1  165.03    6.61
   6 -16   4  342.95   11.59
   6 -16   4  356.55   12.01
  10   6   7  109.16    4.52
   6 -16   7  117.79    5.03
   6 -16   7  103.70    4.76
  10   6   7  116.44    4.62
  10   6   7  116.09    6.67
  10   6  10    1.77    1.11
   7 -17  -9    6.99    1.39
   7 -17  -9    6.46    1.65
   7 -17  -6   54.09    2.89
   7 -17  -3   22.99    1.97
   7 -17   0   20.08    2.05
   7 -17   3   46.91    2.83
   7 -17   6   20.69    2.43
  10   7   6   24.96    1.97
  10   7   9   -0.08    1.05
   8 -18 -10  280.73    9.41
   8 -18  -7  160.36    6.06
   8 -18  -4   41.11    2.52
   8 -18  -1  881.61   28.44
   8 -18   2  915.84   29.49
  10   8   5   37.13    3.47
   8 -18   5   35.53    2.22
  10   8   5   29.42    1.93
  10   8   5   32.03    1.83
  10   8   8  172.48    6.37
   9 -19  -8   10.79    1.51
   9 -19  -8   12.05    2.07
   9 -19  -5    3.08    2.14
   9 -19  -2    2.71    1.37
   9 -19   1   74.56    3.94
   9 -19   4  115.61    5.03
  10   9   7   26.16    1.97
  10   9   7   29.93    2.01
  10   9  10    1.16    0.93
  10 -20  -9    2.54    1.38
  10 -20  -9    3.31    1.16
  10 -20  -3   10.99    1.70
  10 -20   0   13.75    1.89
  10 -20   3    2.95    1.31
  10  10   6   16.27    1.55
  11 -21 -10  244.25    8.02
  11 -21  -7   87.22    3.80
  11 -21  -4  163.56    6.02
  11 -21  -4  148.80    6.34
  11 -21  -1 1024.51   33.06
  11 -21   2  611.31   20.62
  11 -21   2  616.28   19.73
  10  11   5    4.13    2.39
  10  11   5    2.68    1.56
  10  11   8  188.45    6.66
  11 -20  -8    4.11    1.85
  11 -20  -8    6.36    1.68
  11 -20  -5    2.65    1.30
  11 -20  -2    6.31    1.49
  11 -20   1    2.70    1.38
  11 -20   4    1.14    1.07
  11 -20   4   -0.69    1.00
   9  11   7    5.43    1.18
   9  11   7    5.06    1.24
   9  11  10    2.90    0.90
  11 -19  -9   -0.48    1.29
  11 -19  -9    0.91    1.07
  11 -19  -3    9.24    1.50
  11 -19   0    2.21    1.28
  11 -19   3    0.28    1.05
   8  11   6    1.92    1.19
  11 -19   6   -1.07    1.65
   8  11   6   -0.52    1.07
  11 -18 -10  347.72   11.35
  11 -18  -7  157.21    5.82
  11 -18  -7  149.86    6.26
  11 -18  -4  140.54    5.07
  11 -18  -4  131.33    5.46
  11 -18  -1 1414.89   44.46
  11 -18   2 1159.82   36.73
   7  11   5   10.90    1.16
  11 -18   8  318.76   11.13
   7  11   8  325.35   10.80
  11 -17  -8   37.74    2.69
  11 -17  -8   36.73    2.38
  11 -17  -5   58.84    2.75
  11 -17  -2   33.40    2.32
  11 -17   1    2.90    1.27
  11 -17   4    6.89    1.21
   6  11   7    3.58    1.12
  11 -17   7    3.21    1.45
   6  11  10    0.06    0.88
  11 -16  -9    0.11    1.51
  11 -16  -9    0.64    1.17
  11 -16  -6   54.19    2.89
  11 -16  -3  183.98    6.87
  11 -16   0   74.20    3.62
  11 -16   3   18.78    1.67
   5  11   6   68.37    3.48
   5  11   6   70.43    3.23
  11 -16   6   65.05    3.29
  11 -16   9   15.49    1.92
 -16   5   9   13.56    1.73
  11 -15 -10  378.16   12.37
  11 -15  -7  158.47    6.34
  11 -15  -7  159.23    5.84
  11 -15  -7  154.01    6.14
  11 -15  -1 1756.72   54.40
  11 -15   2 1248.15   39.04
 -15   4   5   13.04    1.67
 -15   4   8  259.99    9.49
  11 -15   8  271.63    9.58
   4  11   8  265.99    9.07
  11 -14  -8   14.17    1.64
  11 -14  -8   15.14    1.98
  11 -14  -2   18.67    1.68
  11 -14   1   39.92    2.40
 -14   3   4  145.09    5.72
   3  11   7   75.32    5.20
  11 -14   7   67.18    3.82
 -14   3   7   74.83    3.96
   3  11   7   78.90    3.46
  11 -14  10   -0.19    1.30
 -14   3  10    3.36    1.27
  11 -13  -9    7.16    1.57
  11 -13  -9    5.01    1.11
  11 -13  -6  132.95    4.82
  11 -13  -6  121.12    5.15
  11 -13  -3  177.12    6.41
  11 -13   0   12.82    1.54
  11 -13   3  114.30    4.55
 -13   2   6  197.82    7.10
 -13   2   6  182.58    7.25
   2  11   6  185.30    6.50
  11 -13   6  180.79    6.87
   2  11   6  193.36    6.56
  11 -13   9   49.29    3.01
 -13   2   9   48.56    2.94
   2  11   9   47.13    2.45
  11 -12 -10  227.64    7.82
  11 -12  -7   87.68    4.16
  11 -12  -7   83.99    3.93
  11 -12  -1 1137.81   35.40
  11 -12   2 1021.25   31.91
 -12   1   5   28.52    2.28
 -12   1   8  180.03    7.06
  11 -12   8  176.94    6.91
  11 -12  11  177.30    5.97
 -12   1  11  154.09    5.78
  11 -11  -8   34.14    2.50
  11 -11  -8   34.19    2.15
  11 -11  -2  367.55   12.07
  11 -11   1    4.72    1.13
 -11   0   4  167.28    6.51
  11 -11   7  221.54    8.54
   0  11   7  232.06    8.19
 -11   0   7  229.82    8.92
 -11   0  10   30.68    2.33
  11 -11  10   31.49    2.36
  11 -10  -9   20.35    1.81
  11 -10  -6  308.44   10.84
  11 -10  -6  325.97   10.67
  11 -10   0   90.36    3.67
 -10  -1   6  378.80   13.35
  11 -10   6  391.27   12.73
  11 -10   9   52.96    3.12
 -10  -1   9   52.08    3.25
  11  -9 -10  150.47    5.41
  11  -9  -7   17.40    2.88
  11  -9  -7   10.32    1.40
  -9  -2   5   39.04    2.73
  -9  -2   8  191.38    7.44
  11  -9   8  182.54    7.14
  -9  -2  11   69.32    3.19
  11  -8  -8   25.68    2.01
  -8  -3   7  367.12   13.15
  -8  -3   7  372.59   12.66
  11  -8  10   48.91    2.93
  -8  -3  10   49.06    3.08
  11  -7  -9    6.87    1.25
  -7  -4   6  394.04   13.67
  11  -7   9  109.55    4.89
  -7  -4   9  107.75    5.05
  11  -6  -7   10.33    1.46
  11  -6   2   89.66    4.16
  -6  -5   5   71.84    3.80
  11  -6   5   72.75    4.42
  -6  -5   8  154.28    6.20
  -6  -5   8  148.41    6.36
  11  -6   8  154.87    6.01
  -6  -5  11   36.20    2.27
  11  -5  -8   23.49    1.82
  11  -5   4  325.77   11.94
  -5  -6   7  544.31   18.13
  -5  -6   7  530.31   17.70
  11  -5   7  531.17   17.09
  -5  -6  10  101.17    4.68
  11  -4   3   12.72    1.97
  11  -4   6  374.79   14.28
  11  -4  12    2.69    0.80
  -3  -8  -7   37.94    2.08
  11  -3  -7   37.24    2.11
  -3  -8  -4   61.78    2.90
  11  -3   2  127.98    5.28
  -3  -8   5  143.75    6.07
  11  -3   5  150.20    6.85
  -3  -8   8   31.58    2.70
  11  -3   8   39.82    2.24
  -3  -8  11   -0.76    1.26
  11  -3  11   -0.49    1.23
  -2  -9  -8   30.59    1.99
  11  -2   1   33.87    2.18
  -2  -9   4  206.74    7.36
  -2  -9   7  367.09   12.51
  -2  -9   7  336.37   12.49
  -2  -9   7  346.82   12.48
  11  -2   7  351.84   14.33
  11  -2   7  344.15   11.71
  11  -2   7  350.96   11.73
  -2  -9  10   76.34    3.78
  11  -2  10   67.39    3.58
  -1 -10  -3  519.65   16.92
  11  -1   0  372.23   12.07
  -1 -10   3    4.98    1.30
  11  -1   3    6.94    1.78
  11  -1   6  208.74    7.41
  11  -1   6  217.17    7.42
  -1 -10   6  223.75    8.27
  11  -1   6  225.70    9.47
  -1 -10   6  208.10    7.85
  -1 -10   9  150.67    6.11
  -1 -10   9  146.89    6.23
   0 -11 -10   25.47    1.89
   0 -11  -7  249.03    8.84
   0 -11  -4  175.05    6.50
  11   0   2  347.79   12.15
   0 -11   2  357.63   11.94
   0 -11   5  388.50   13.32
   0 -11   8   38.69    2.85
   0 -11   8   37.62    2.91
 -11  11  11   20.16    1.31
   0 -11  11   19.14    1.66
  11   0  11   16.20    1.65
   1 -12  -8    9.97    1.45
   1 -12  -2  654.05   21.11
   1 -12   1   88.13    4.01
  11   1   1   82.89    3.75
   1 -12   4  272.35    9.57
   1 -12   4  264.82    9.39
  11   1   4  272.09   10.37
   1 -12   7  454.82   15.55
  11   1   7  473.08   17.60
   1 -12  10  132.76    5.37
  11   1  10  133.22    5.31
   2 -13  -9   29.23    1.84
   2 -13  -3  364.63   12.43
   2 -13   0  466.38   15.45
  11   2   0  461.16   14.90
  11   2   3    4.36    1.58
   2 -13   3    5.07    1.34
  11   2   6  144.39    5.34
   2 -13   6  133.05    5.60
   2 -13   6  145.03    5.90
   2 -13   6  142.69    5.74
  11   2   6  145.61    7.23
   2 -13   9  132.00    5.56
   3 -14 -10   57.40    2.91
   3 -14  -7  334.58   11.39
   3 -14  -4  116.79    4.82
  11   3  -1  131.83    4.61
   3 -14  -1  139.55    5.58
   3 -14   2  747.87   24.11
   3 -14   5  443.99   14.85
  11   3   8   14.53    1.70
   3 -14   8   19.12    2.28
   3 -14   8   21.64    2.13
  11   3  11   32.26    1.95
   4 -15  -8    1.57    1.19
   4 -15  -2  627.58   20.54
   4 -15   1  199.39    7.63
   4 -15   4   73.36    3.51
   4 -15   4   67.60    3.42
  11   4   7  240.72    8.57
   4 -15   7  257.25    9.09
   4 -15   7  235.09    8.90
  11   4   7  232.83   10.90
  11   4   7  246.62    8.57
   4 -15  10   68.39    3.13
  11   4  10   70.17    3.17
   5 -16  -9   19.36    2.14
   5 -16  -9   14.86    1.74
   5 -16  -6    1.59    1.84
   5 -16  -3   44.01    2.74
   5 -16   0  138.30    5.81
   5 -16   3   12.46    1.46
   5 -16   3   13.90    1.63
   5 -16   6   21.98    1.93
  11   5   6   22.72    2.37
   5 -16   6   19.03    2.87
  11   5   9   44.79    2.48
   5 -16   9   43.15    2.65
   6 -17 -10   68.54    3.09
   6 -17  -7  447.17   14.78
   6 -17  -4  288.19   10.24
   6 -17  -1    5.02    1.55
   6 -17   2  451.65   15.39
   6 -17   5  421.03   13.94
  11   6   5  445.79   15.87
  11   6   5  410.27   13.66
  11   6   5  413.20   13.63
   6 -17   5  428.02   13.99
   6 -17   8   16.37    1.82
  11   6   8   19.97    1.77
  11   6  11   41.18    1.80
   7 -18  -8   15.69    1.67
   7 -18  -2   50.35    3.12
   7 -18   1    0.30    1.37
   7 -18   4   77.02    3.77
   7 -18   7  107.45    4.57
  11   7   7  111.59    4.52
  11   7   7  108.38    4.48
  11   7  10   27.84    1.76
   8 -19  -9   19.31    1.62
   8 -19  -9   14.95    1.89
   8 -19  -6    2.60    1.33
   8 -19  -3   16.71    1.89
   8 -19   0   48.82    3.11
   8 -19   3    9.58    1.61
  11   8   6   -1.57    2.56
  11   8   6   -0.47    1.18
  11   8   9    9.03    1.26
   9 -20 -10   84.83    3.42
   9 -20  -7  442.39   14.56
   9 -20  -4  305.35   10.96
   9 -20  -1   42.50    2.96
   9 -20   2  821.35   26.86
  11   9   5  593.88   19.23
  11   9   5  624.59   21.68
  11   9   5  607.68   19.33
  11   9   8   27.82    1.96
  10 -21  -8   25.44    1.84
  10 -21  -8   25.19    2.16
  10 -21  -5   42.87    2.53
  10 -21  -2   19.71    1.72
  10 -21  -2   17.12    2.08
  10 -21   1    2.77    1.38
  10 -21   4   22.63    2.18
  10 -21   4   28.86    1.86
  11  10   7   18.51    1.57
  11  10   7   16.91    1.61
  11  10  10    1.07    0.76
  11 -22  -9   12.61    1.51
  11 -22  -9   10.24    1.22
  11 -22  -6   31.74    2.15
  11 -22  -3    6.69    1.05
  11 -22  -3    7.53    1.35
  11 -22  -3    5.75    1.51
  11 -22   0   20.85    2.29
  11 -22   0   21.38    1.84
  11 -22   3   75.58    3.42
  11 -22   3   73.84    4.04
  11  11   6   25.78    1.81
  12 -23 -10   89.13    3.13
  12 -23  -7  447.30   15.00
  12 -23  -4  220.48    7.66
  12 -23  -4  208.63    7.56
  12 -23  -1   79.44    4.41
  12 -23  -1   83.66    3.74
  12 -23   2  703.31   23.53
  12 -23   2  704.46   22.53
  11  12   5  457.93   14.89
  11  12   8   28.24    1.67
  12 -22  -8   -0.09    1.25
  12 -22  -5   13.20    1.54
  12 -22  -2   66.08    3.76
  12 -22  -2   65.53    3.09
  12 -22  -2   63.56    2.74
  12 -22   1   33.93    2.72
  12 -22   1   31.45    2.12
  12 -22   4    0.63    1.48
  12 -22   4    1.07    1.55
  10  12   7    8.14    1.30
  12 -21  -9    3.94    1.29
  12 -21  -9    4.83    1.08
  12 -21  -6    4.25    1.22
  12 -21  -3    2.12    1.01
  12 -21  -3    1.06    0.82
  12 -21  -3    0.47    1.12
  12 -21   0    0.83    1.27
  12 -21   3   11.44    1.66
  12 -21   3   14.97    1.43
   9  12   6   31.61    1.94
   9  12   6   32.14    2.01
  12 -20 -10  132.03    4.74
  12 -20  -7  539.71   17.43
  12 -20  -4  349.56   11.47
  12 -20  -4  337.37   12.04
  12 -20  -1   67.13    3.69
  12 -20   2 1002.45   32.21
   8  12   5  604.82   19.29
   8  12   8   17.55    1.58
  12 -19  -8    6.08    1.56
  12 -19  -8    4.85    1.77
  12 -19  -5    1.80    1.71
  12 -19  -2   17.45    1.94
  12 -19   1   23.86    2.14
  12 -19   4    7.68    1.32
   7  12   4    7.29    0.97
   7  12   7    2.74    1.04
  12 -19   7    1.19    1.30
   7  12  10    0.18    0.73
  12 -18  -9    7.70    1.54
  12 -18  -9    7.55    1.25
  12 -18  -3   16.03    1.68
  12 -18   0   44.85    2.84
  12 -18   3   -0.39    1.13
  12 -18   6   17.99    1.80
   6  12   6   18.82    1.89
   6  12   6   17.03    1.61
  12 -17 -10  123.29    4.59
  12 -17  -7  659.99   21.16
  12 -17  -7  662.25   21.68
  12 -17  -7  671.00   21.51
  12 -17  -1  132.74    5.50
  12 -17   2 1592.44   49.67
   5  12   5  960.24   29.87
  12 -17   8   40.24    2.68
   5  12   8   48.30    2.41
  12 -16  -8    0.59    1.29
  12 -16  -8    1.22    1.56
  12 -16  -5   17.19    1.38
  12 -16  -2   54.39    2.92
  12 -16   1   29.32    2.20
 -16   4   4   -0.21    1.16
   4  12   7   27.98    3.39
 -16   4   7   29.67    2.40
   4  12   7   27.57    1.89
  12 -16   7   31.88    2.29
 -16   4  10   14.04    1.35
  12 -16  10   22.12    1.62
  12 -15  -9    9.54    1.72
  12 -15  -9   12.10    1.43
  12 -15  -6    7.90    2.16
  12 -15  -6    8.15    3.06
  12 -15  -3  120.18    4.84
  12 -15   0  181.33    6.79
  12 -15   3   15.16    1.55
 -15   3   6   24.44    2.24
   3  12   6   25.74    1.63
 -15   3   6   26.03    2.18
  12 -15   6   25.02    1.89
   3  12   6   28.25    1.72
 -15   3   9   53.54    2.99
  12 -15   9   54.35    3.08
  12 -14 -10  158.89    5.71
  12 -14  -7  706.49   23.31
  12 -14  -7  732.60   23.10
  12 -14  -1   38.89    2.33
  12 -14   2  991.00   31.21
 -14   2   5  769.34   24.78
  12 -14   8   55.53    3.18
 -14   2   8   60.33    3.32
  12 -13  -8   69.35    3.28
  12 -13  -8   72.01    3.60
  12 -13  -2  466.43   15.22
  12 -13   1  400.17   13.29
 -13   1   4    2.41    1.40
  12 -13   7  101.76    4.66
 -13   1   7  108.59    4.96
   1  12   7  105.21    4.13
 -13   1  10  103.33    4.42
  12 -13  10  111.31    4.50
  12 -12  -9   26.97    2.09
  12 -12  -6   13.64    1.48
  12 -12  -6   14.87    1.64
  12 -12   0  449.42   14.69
 -12   0   6   80.98    3.70
  12 -12   6   72.14    3.36
 -12   0   6   73.40    3.89
   0  12   6   71.72    2.98
  12 -12   9  158.04    6.08
 -12   0   9  141.12    6.03
  12 -11 -10  130.95    4.84
  12 -11  -7  451.42   15.12
  12 -11  -7  453.32   14.87
 -11  -1   5  411.05   14.14
 -11  -1   8   10.53    1.92
  12 -11   8    7.64    1.75
  12 -11  11   47.11    2.44
 -11  -1  11   45.70    2.36
  12 -10  -8   97.86    4.34
  12 -10  -8  101.38    4.09
 -10  -2   7   79.04    4.25
 -10  -2   7   77.10    4.18
  12 -10   7   73.88    3.71
 -10  -2  10  135.52    5.47
  12 -10  10  135.80    5.46
  12  -9  -9   64.36    3.05
  12  -9  -6   20.40    1.73
  12  -9  -6   17.82    1.48
  -9  -3   6   57.40    3.12
  -9  -3   6   55.47    3.46
  12  -9   9  120.62    5.07
  -9  -3   9  110.81    5.24
  12  -8  -7  184.64    6.68
  12  -8  -7  188.95    7.32
  -8  -4   5  239.02    8.99
  12  -8   8    6.52    1.59
  -8  -4   8    7.06    2.04
  -8  -4  11   76.00    3.39
  12  -7  -8  237.86    8.38
  -7  -5   7  121.09    5.84
  -7  -5   7  125.06    5.84
  -7  -5   7  108.64    5.38
  12  -7   7  113.39    4.47
  -7  -5  10  229.20    8.44
  12  -6  -9  102.84    4.10
  12  -6  -6   23.46    1.70
  12  -6   3  390.42   13.63
  -6  -6   6    1.46    1.23
  -6  -6   6    0.48    1.30
  -6  -6   6    2.38    1.75
  12  -6   9   98.84    4.59
  -6  -6   9  105.86    4.94
  12  -5  -7   38.08    2.81
  12  -5   2   51.04    3.04
  12  -5   5    1.73    1.90
  12  -5   8   60.36    2.86
  -5  -7   8   50.86    3.47
  12  -4  -8  169.85    6.18
  12  -4   1  816.66   25.89
  12  -4   7  151.60    5.75
  -4  -8   7  153.81    6.48
  12  -4   7  138.08    7.97
  12  -4   7  148.52    5.74
  12  -3  -6   83.33    3.45
  12  -3   3  236.61    9.01
  12  -3   6    5.58    0.96
  12  -3   6    5.72    1.02
  -3  -9   6    4.09    1.49
  -3  -9   6    5.74    1.43
  -3  -9   6    4.70    1.75
  12  -3   6    6.29    2.25
  -3  -9   9  146.57    6.22
  12  -2  -7   11.37    2.31
  -2 -10  -4  243.14    8.61
  12  -2   2    8.98    1.71
  -2 -10   5   78.04    4.08
  -2 -10   8   91.24    4.54
  -2 -10   8   92.12    4.53
  12  -2   8   92.42    3.94
  -2 -10  11   10.55    1.49
  12  -2  11   10.56    1.52
 -10  12  11   10.26    1.06
  -1 -11  -8  173.02    6.36
  12  -1   1 1137.87   35.63
  -1 -11   4  140.41    5.62
  12  -1   4  154.56    6.65
  12  -1   7   90.73    3.98
  -1 -11   7   96.74    4.78
  -1 -11   7  101.22    4.68
  -1 -11   7   96.05    4.60
  12  -1   7   84.51    5.80
  12  -1   7   92.54    3.98
  12  -1  10  211.04    7.85
  -1 -11  10  223.79    7.97
   0 -12  -9  144.07    5.30
   0 -12  -3   54.50    3.03
  12   0   0  429.19   13.90
  12   0   3  336.73   12.14
   0 -12   3  339.74   11.63
   0 -12   6   18.69    2.16
  12   0   6   13.41    2.48
   0 -12   6   17.68    1.89
   0 -12   6   17.28    1.85
   0 -12   9   27.20    2.52
   1 -13 -10   24.29    1.88
   1 -13  -7   51.64    3.03
   1 -13  -4  519.24   17.12
   1 -13  -1  376.62   12.91
  12   1   2   21.37    2.12
   1 -13   2   17.90    1.96
   1 -13   5  418.55   14.29
   1 -13   8  314.15   11.21
  12   1  11   28.90    1.99
   2 -14  -8  145.42    5.58
   2 -14  -2  719.47   23.29
   2 -14   1 1102.30   33.58
  12   2   1 1022.38   33.25
   2 -14   4  154.06    6.09
  12   2   4  161.78    7.07
   2 -14   4  152.08    6.14
   2 -14   7   65.45    3.94
   2 -14   7   73.36    3.92
  12   2   7   73.41    3.41
  12   2   7   71.68    5.49
   2 -14  10  162.69    6.06
  12   2  10  161.28    6.05
   3 -15  -9   64.28    2.98
   3 -15  -3    7.24    1.54
  12   3   0   90.19    3.82
   3 -15   0  103.90    4.54
   3 -15   3  291.81   10.48
  12   3   3  295.55   10.90
   3 -15   6   37.44    2.56
   3 -15   6   42.41    3.09
  12   3   6   41.27    3.13
   3 -15   6   36.67    2.71
  12   3   9   14.59    1.60
   3 -15   9   12.76    1.97
   4 -16 -10   28.06    1.90
   4 -16  -7   67.23    3.30
   4 -16  -4  535.74   17.77
   4 -16  -1  304.18   10.91
   4 -16   2   16.89    1.98
  12   4   2   19.61    2.00
  12   4   5  288.40   11.36
  12   4   5  270.57    9.29
   4 -16   5  270.19    9.55
   4 -16   5  291.60    9.79
   4 -16   5  273.17    9.61
  12   4   5  265.76    9.26
   4 -16   8  209.59    7.96
  12   4   8  216.78    7.72
  12   4  11   14.29    1.17
   5 -17  -8   81.96    3.65
   5 -17  -2  207.65    8.02
   5 -17   1  173.21    7.01
   5 -17   4   12.14    1.61
  12   5   4   15.42    2.29
   5 -17   4   15.71    1.63
  12   5   7   40.26    2.35
   5 -17   7   37.42    2.64
  12   5   7   36.38    2.34
  12   5  10   70.36    3.10
   6 -18  -9   15.57    1.84
   6 -18  -9   12.13    1.51
   6 -18  -6   33.81    2.32
   6 -18  -3    3.45    1.29
   6 -18   0   28.35    2.43
   6 -18   3   84.62    4.20
  12   6   6   25.19    2.04
  12   6   6   19.81    3.44
   6 -18   6   20.65    1.99
  12   6   9    1.17    1.10
   7 -19 -10   48.74    2.45
   7 -19  -7   56.94    3.02
   7 -19  -4  577.30   19.21
   7 -19  -1  527.79   17.93
   7 -19   2    1.29    1.25
  12   7   5  419.72   15.76
  12   7   5  406.60   13.36
  12   7   5  393.01   13.22
  12   7   8  310.16   10.53
   8 -20  -8    5.40    1.84
   8 -20  -8    2.75    1.23
   8 -20  -5   21.32    2.02
   8 -20  -2  128.14    5.74
   8 -20   1   72.18    4.03
  12   8   4    1.43    1.84
   8 -20   4   -0.51    0.98
   8 -20   4    1.07    0.99
  12   8   4    0.39    0.83
  12   8   7   31.47    2.15
  12   8   7   32.71    2.20
  12   8  10   28.93    1.76
   9 -21  -9    8.79    1.52
   9 -21  -9    7.23    1.19
   9 -21  -3  102.09    5.05
   9 -21  -3  111.74    4.43
   9 -21   0   19.26    2.19
   9 -21   3   25.02    1.86
   9 -21   3   27.74    2.41
  12   9   6   68.12    3.22
  10 -22 -10   20.23    1.25
  10 -22  -4  692.47   22.05
  10 -22  -1  507.06   16.65
  10 -22  -1  511.37   17.61
  10 -22   2    5.82    1.59
  10 -22   2    4.04    1.26
  12  10   5  375.95   14.76
  12  10   5  378.42   12.52
  12  10   8  332.71   10.98
  11 -23  -8    9.84    1.46
  11 -23  -5   72.30    3.39
  11 -23  -2   70.12    4.10
  11 -23  -2   65.03    3.34
  11 -23   1    2.44    1.28
  11 -23   1    1.34    1.40
  11 -23   4   19.95    1.81
  11 -23   4   21.76    2.17
  12  11   7   20.54    1.59
  12  11   7   19.15    1.67
  12 -24  -9    2.11    1.28
  12 -24  -9   -0.15    0.98
  12 -24  -6   31.15    2.11
  12 -24  -6   34.58    2.53
  12 -24  -3   89.95    3.80
  12 -24  -3   89.54    4.15
  12 -24  -3   96.52    4.77
  12 -24   0   47.71    3.57
  12 -24   0   44.96    3.92
  12 -24   3    3.27    1.56
  12 -24   3    1.27    1.52
  12  12   6   12.57    1.43
  12  12   6   12.93    1.42
  13 -25  -7   96.87    4.19
  13 -25  -7   95.03    4.18
  13 -25  -4  507.96   16.53
  13 -25  -4  517.82   16.58
  13 -25  -1  380.54   13.05
  13 -25  -1  395.18   14.09
  13 -25   2    0.39    1.57
  13 -25   2    2.83    1.86
  12  13   5  297.45    9.98
  12  13   8  246.43    8.07
  13 -24  -8   26.08    1.85
  13 -24  -5    2.38    1.15
  13 -24  -2   44.04    2.22
  13 -24  -2   42.57    3.41
  13 -24  -2   48.12    2.89
  13 -24   1  124.60    6.44
  13 -24   1  136.93    5.83
  11  13   4   48.26    2.44
  13 -24   4   47.01    2.49
  11  13   7   -0.07    0.94
  13 -23  -9   10.23    1.35
  13 -23  -9   11.06    1.19
  13 -23  -6    7.20    1.70
  13 -23  -6    8.43    1.40
  13 -23  -3    3.77    1.51
  13 -23  -3    3.75    2.41
  13 -23  -3    1.09    2.18
  13 -23   0   28.71    2.11
  13 -23   0   32.02    2.68
  13 -23   3   10.39    2.22
  13 -23   3   12.47    2.12
  10  13   6   -0.38    0.92
  10  13   6   -0.08    1.01
  13 -22 -10   22.57    1.28
  13 -22  -7  181.66    7.21
  13 -22  -7  195.29    7.20
  13 -22  -4  783.39   24.74
  13 -22  -1  459.75   15.81
  13 -22  -1  449.08   14.84
  13 -22   2   13.04    1.91
  13 -22   2   13.76    1.53
   9  13   5  440.09   14.29
   9  13   8  327.41   10.71
  13 -21  -8    1.10    1.32
  13 -21  -5    2.97    1.24
  13 -21  -2    5.21    1.18
  13 -21  -2    7.14    1.51
  13 -21   1   10.21    1.76
  13 -21   1   11.89    1.46
  13 -21   4    1.95    1.10
   8  13   4    0.43    0.98
  13 -21   4   -0.08    0.98
   8  13   7    7.09    1.22
  13 -20  -9   -1.29    1.24
  13 -20  -9    1.67    1.03
  13 -20  -6    5.42    1.69
  13 -20  -6    5.39    1.23
  13 -20  -3    9.04    1.08
  13 -20  -3   10.97    1.56
  13 -20  -3   11.07    1.27
  13 -20   0    0.77    1.26
  13 -20   3    0.60    1.15
  13 -20   3    0.80    0.94
   7  13   6   -0.83    1.03
   7  13   6    1.38    0.95
  13 -19 -10   54.52    2.45
  13 -19  -7  136.38    5.16
  13 -19  -7  130.40    5.45
  13 -19  -4  986.25   30.75
  13 -19  -1  826.78   26.74
  13 -19   2   12.96    1.68
   6  13   5  794.14   24.93
  13 -19   8  553.60   18.40
   6  13   8  581.63   18.15
  13 -18  -8   13.40    1.95
  13 -18  -8   15.20    1.73
  13 -18  -5   10.61    1.64
  13 -18  -2    6.60    1.42
  13 -18   1   58.70    3.29
   5  13   7    7.65    1.20
  13 -18   7    8.62    1.55
  13 -17  -9   18.85    1.85
  13 -17  -9   15.12    1.51
  13 -17  -3    7.17    1.32
  13 -17   0  119.80    5.09
  13 -17   3   98.41    4.39
   4  13   6    0.46    1.05
  13 -17   6    1.02    1.42
 -17   4   6    0.13    1.37
   4  13   6    1.65    1.16
 -17   4   9   13.51    1.57
  13 -17   9   18.37    1.76
  13 -16 -10   59.25    2.65
  13 -16  -7  173.53    6.96
  13 -16  -7  182.53    6.79
  13 -16  -1  833.04   26.59
  13 -16   2    7.00    1.43
 -16   3   5  578.94   19.05
 -16   3   8  458.33   15.41
  13 -16   8  465.69   15.39
  13 -15  -8   77.89    3.87
  13 -15  -8   82.82    3.64
  13 -15  -5   64.38    2.86
  13 -15  -5   68.78    3.26
  13 -15  -2   12.57    1.46
  13 -15   1  247.39    8.83
 -15   2   4  176.58    6.87
 -15   2   7    6.48    1.75
  13 -15   7    6.45    1.54
   2  13   7    8.19    1.21
  13 -15  10   19.41    1.67
 -15   2  10   20.60    1.63
  13 -14  -9   34.23    2.44
  13 -14  -9   38.47    2.11
  13 -14  -6    7.84    2.64
  13 -14  -6    8.71    1.91
  13 -14   0  251.35    8.86
   1  13   6   36.71    1.91
 -14   1   6   36.18    2.71
 -14   1   6   42.16    2.71
  13 -14   6   35.01    2.19
 -14   1   9   12.29    1.99
  13 -14   9   13.05    1.90
  13 -13 -10   18.95    1.46
  13 -13  -7  154.25    5.94
  13 -13  -7  151.94    6.13
  13 -13  -1  992.86   31.18
 -13   0   5  325.47   11.55
 -13   0   8  294.92   10.49
  13 -13   8  288.03   10.27
  13 -13  11   17.79    1.53
  13 -12  -8  291.66   10.42
  13 -12  -8  304.45   10.18
 -12  -1   7   54.89    3.42
  13 -12   7   43.90    2.96
 -12  -1   7   46.59    3.62
  -1  13   7   50.79    2.42
  13 -12  10   26.59    2.09
 -12  -1  10   25.55    2.08
  13 -11  -9  135.68    5.26
  13 -11  -6  134.61    5.24
  13 -11  -6  125.79    4.96
 -11  -2   6   20.36    2.42
 -11  -2   6   18.22    1.96
  13 -11   6   20.34    1.55
  13 -11   9   30.19    2.39
 -11  -2   9   28.83    2.54
  13 -10 -10    1.21    0.92
  13 -10  -7  208.94    7.73
  13 -10  -7  208.28    7.45
 -10  -3   5  527.29   17.78
  13 -10   8  180.62    7.12
 -10  -3   8  191.67    7.42
 -10  -3  11    6.03    1.38
  13 -10  11    5.35    1.37
  13  -9 -11   27.73    1.44
  13  -9  -8  337.77   11.69
  13  -9  -8  351.80   11.50
  -9  -4   7  109.41    5.04
  -9  -4   7  104.32    5.20
  13  -9   7  104.21    4.19
  13  -9  10   25.05    2.12
  -9  -4  10   24.88    2.19
  13  -8  -9   73.45    3.26
  13  -8  -6   78.76    3.61
  13  -8  -6   85.12    3.50
  -8  -5   6   58.46    3.19
  -8  -5   6   54.86    3.55
  13  -8   6   55.18    2.45
  13  -8   6   56.40    2.46
  -8  -5   9    2.70    1.87
  13  -8   9    2.66    1.70
  13  -7  -7  198.79    7.17
  13  -7  -7  189.41    7.13
  -7  -6   5  437.63   15.13
  13  -7   8  100.48    4.33
  -7  -6   8   90.97    4.69
  -7  -6  11    2.88    1.39
  13  -6  -8  416.84   13.72
  -6  -7   7  135.71    5.81
  -6  -7   7  129.92    6.09
  13  -6   7  128.57    5.03
  -6  -7  10   40.28    2.69
  13  -5  -6  264.55    9.01
  13  -5  -6  261.91    8.88
  13  -5   3  347.46   12.49
  13  -5   6  185.00    6.53
  13  -5   6  185.01    8.54
  13  -5   6  187.78    6.56
  -5  -8   6  190.49    7.13
  13  -5   9    1.70    1.55
  13  -4  -7   80.62    3.62
  13  -4   2  118.82    5.19
  -4  -9   5   26.30    2.63
  13  -4   8    3.32    1.12
  13  -4  11   19.73    1.75
  -4  -9  11   22.57    1.89
  -3 -10  -8  430.97   14.13
  13  -3   1  761.37   24.33
  13  -3   4 1004.98   32.30
  -3 -10   4  977.40   31.23
  13  -3   7  156.03    5.88
  -3 -10   7  157.82    6.75
  13  -3   7  161.49    5.90
  13  -3   7  155.34    8.02
  -3 -10   7  156.75    6.58
  -3 -10   7  155.07    6.50
  -3 -10  10   31.16    2.40
  13  -2  -9   45.32    2.32
  13  -2  -6  189.31    6.69
  -2 -11  -3  100.30    4.48
  13  -2   0    9.12    1.22
  -2 -11   3  161.23    6.50
  13  -2   3  186.20    7.22
  13  -2   6  147.80    5.33
  13  -2   6  136.77    7.13
  -2 -11   6  144.73    6.20
  -2 -11   6  132.24    5.73
  13  -2   6  142.87    5.26
  -2 -11   9    5.78    1.95
  -1 -12 -10   96.21    3.95
  -1 -12  -4    3.26    1.11
  13  -1   2  467.03   15.77
  -1 -12   5   21.45    2.33
  13  -1   8   72.19    3.37
  -1 -12   8   70.75    3.90
  13  -1  11   74.34    3.21
   0 -13  -8  283.07    9.74
   0 -13  -2    2.07    1.30
   0 -13   1  944.61   30.04
  13   0   1  939.82   29.81
  13   0   4 1061.01   34.27
   0 -13   4 1042.04   33.23
  13   0   7  169.91    8.68
   0 -13   7  165.29    6.83
  13   0   7  166.54    6.24
   0 -13   7  168.04    6.94
   0 -13  10   21.81    1.91
  13   0  10   22.43    1.93
   1 -14  -9   13.23    1.42
  13   1  -6  200.84    7.11
   1 -14  -3  255.43    9.34
  13   1   0    2.57    0.95
   1 -14   0    4.54    1.68
  13   1   3  115.85    5.52
   1 -14   3  116.75    5.06
   1 -14   6  164.28    6.42
   1 -14   6  163.65    6.31
  13   1   6  142.66    5.97
   1 -14   6  160.68    6.57
   1 -14   9   32.92    2.60
   2 -15 -10   96.95    4.00
   2 -15  -7   54.78    2.94
   2 -15  -4   73.97    3.65
   2 -15  -1  649.41   21.34
  13   2   2  423.94   14.32
   2 -15   2  404.74   14.17
   2 -15   5    1.56    1.18
   2 -15   5    1.72    1.51
  13   2   5    0.76    1.72
  13   2   5    3.53    1.04
   2 -15   8  108.76    4.94
  13   2  11  104.96    3.87
   3 -16  -8  218.24    7.81
  13   3  -5  303.16   10.08
   3 -16  -2   22.89    2.25
  13   3   1  251.97    9.19
   3 -16   1  264.91    9.62
  13   3   4  376.37   14.16
   3 -16   4  390.48   13.26
   3 -16   4  378.70   13.06
   3 -16   7   47.12    2.99
  13   3   7   45.67    2.65
  13   3   7   47.77    2.64
  13   3  10   21.49    1.73
   4 -17  -9    6.75    1.21
   4 -17  -9    8.41    1.74
   4 -17  -9    6.77    1.40
   4 -17  -3  212.13    8.24
  13   4   0   51.35    2.64
   4 -17   0   58.10    3.38
  13   4   3   20.71    2.38
   4 -17   3   28.22    2.31
   4 -17   6  116.66    5.07
   4 -17   6  114.77    5.04
  13   4   6  111.64    4.88
  13   4   9   40.60    2.32
   5 -18 -10  193.14    6.75
   5 -18  -7   97.49    4.27
   5 -18  -4   34.85    2.47
   5 -18  -1  540.31   18.37
   5 -18   2  456.52   15.91
  13   5   2  468.05   15.88
  13   5   5    1.66    2.63
   5 -18   5    1.35    1.32
   5 -18   5    1.70    1.21
  13   5   5    1.48    1.24
   5 -18   8  151.28    5.92
  13   5   8  153.46    5.80
   6 -19  -8   99.56    4.17
   6 -19  -2   25.77    2.39
  13   6   1  169.44    6.63
   6 -19   1  170.16    7.07
   6 -19   4  106.18    4.89
  13   6   4  105.93    4.21
  13   6   4  111.85    5.83
  13   6   7    3.51    1.27
  13   6   7    4.41    1.32
  13   6  10   20.12    1.61
   7 -20  -9    8.00    1.56
   7 -20  -9    7.28    1.29
   7 -20  -6   13.51    1.66
   7 -20  -3   87.14    4.39
   7 -20  -3   87.64    3.77
   7 -20   0   70.09    3.99
   7 -20   3    3.73    1.23
  13   7   3    2.26    1.51
   7 -20   3    5.73    1.50
  13   7   6   28.75    2.05
  13   7   9   51.48    2.47
   8 -21 -10  197.22    6.63
   8 -21  -7  139.29    5.44
   8 -21  -1  757.51   24.49
   8 -21  -1  789.75   25.52
   8 -21   2  641.48   20.69
   8 -21   2  646.15   21.63
  13   8   5    5.60    1.32
  13   8   5    4.71    2.34
  13   8   5    7.28    1.56
  13   8   8  151.59    5.63
   9 -22  -8   36.18    2.10
   9 -22  -8   35.62    2.59
   9 -22  -8   37.40    2.43
   9 -22  -5    5.39    1.35
   9 -22  -2   40.92    2.49
   9 -22  -2   42.76    3.04
   9 -22   1  125.96    5.94
   9 -22   1  128.48    5.17
   9 -22   4   32.14    2.30
   9 -22   4   23.21    2.48
  13   9   4   31.14    3.42
  13   9   4   25.05    2.30
  13   9   7    7.06    1.29
  13   9   7    6.11    1.25
  13   9  10   18.97    1.13
  10 -23  -9   17.97    1.60
  10 -23  -9   16.56    1.36
  10 -23  -6    0.38    1.15
  10 -23  -3  107.76    5.55
  10 -23  -3  102.26    4.80
  10 -23   0  210.52    7.67
  10 -23   0  204.36    8.52
  10 -23   3   55.04    3.79
  13  10   3   63.35    4.17
  10 -23   3   55.85    3.37
  13  10   6    3.06    1.26
  11 -24  -7   71.31    3.65
  11 -24  -4   76.94    3.51
  11 -24  -4   79.56    3.50
  11 -24  -1  612.45   20.37
  11 -24  -1  639.67   21.43
  11 -24   2  495.99   17.56
  11 -24   2  506.60   16.58
  13  11   5   11.74    1.44
  13  11   8  128.79    4.66
  12 -25  -8    0.73    1.07
  12 -25  -8    0.40    1.18
  12 -25  -5   38.76    2.27
  12 -25  -2  153.54    6.06
  12 -25  -2  153.01    5.49
  12 -25  -2  141.25    6.68
  12 -25   1   69.73    3.69
  12 -25   1   73.00    4.32
  12 -25   4   -0.95    1.21
  13  12   7   30.84    1.82
  13 -26  -9   26.69    1.32
  13 -26  -6    8.53    1.28
  13 -26  -6    7.26    1.68
  13 -26  -3   18.11    1.82
  13 -26  -3   15.05    1.45
  13 -26   0   90.52    5.14
  13 -26   0   91.18    4.24
  13 -26   3   81.61    3.75
  13  13   6   11.86    1.30
  13  13   6   13.64    1.44
  14 -27  -7   93.96    3.81
  14 -27  -7   87.50    3.74
  14 -27  -4   17.49    1.44
  14 -27  -4   14.06    1.65
  14 -27  -4   14.61    1.52
  14 -27  -1  333.83   11.47
  14 -27   2  239.43    8.58
  13  14   5    0.27    0.91
  14 -26  -8   40.91    2.15
  14 -26  -8   38.12    2.08
  14 -26  -5   53.68    2.65
  14 -26  -5   55.17    2.97
  14 -26  -2    1.76    1.62
  14 -26  -2    0.83    1.39
  14 -26   1   62.47    4.19
  14 -26   1   68.80    3.47
  12  14   4  138.01    5.07
  14 -26   4  134.80    5.14
  12  14   7   51.31    2.30
  14 -25  -9   19.62    1.22
  14 -25  -6   65.07    3.05
  14 -25  -6   70.67    3.47
  14 -25  -3   58.15    3.76
  14 -25  -3   59.40    3.03
  14 -25  -3   60.13    2.74
  14 -25  -3   57.03    3.00
  14 -25   0   12.64    2.05
  14 -25   0   18.47    2.41
  14 -25   3    9.52    2.05
  14 -25   3   10.81    1.57
  11  14   6   39.44    2.14
  11  14   6   39.85    2.06
  14 -24  -7   88.18    3.91
  14 -24  -7   76.31    3.83
  14 -24  -4  161.02    5.81
  14 -24  -4  157.86    5.77
  14 -24  -4  151.24    6.06
  14 -24  -1  923.04   30.41
  14 -24  -1  929.05   29.39
  14 -24   2  607.11   20.63
  14 -24   2  606.74   19.62
  10  14   5   12.64    1.32
  10  14   8  139.32    4.87
  14 -23  -8   15.90    1.64
  14 -23  -5   25.73    1.82
  14 -23  -5   25.04    2.15
  14 -23  -2    1.64    0.75
  14 -23  -2    3.16    1.88
  14 -23  -2    1.51    1.66
  14 -23   1   34.28    2.25
  14 -23   1   31.05    2.68
  14 -23   4   36.81    2.20
   9  14   4   34.77    2.14
   9  14   7    9.89    1.25
  14 -22  -9    4.81    1.18
  14 -22  -9    3.70    0.99
  14 -22  -6    2.06    1.18
  14 -22  -6    3.46    1.59
  14 -22  -3   11.30    1.93
  14 -22  -3   13.14    1.24
  14 -22  -3   12.20    1.53
  14 -22   0    4.42    1.21
  14 -22   0    8.27    1.67
  14 -22   3   14.07    1.77
  14 -22   3    8.32    1.34
   8  14   6    3.28    1.00
   8  14   6    4.59    1.12
  14 -21 -10  290.17    9.32
  14 -21  -7  163.64    6.43
  14 -21  -7  159.57    6.31
  14 -21  -4  119.83    4.83
  14 -21  -1 1163.13   36.57
  14 -21  -1 1132.48   35.63
  14 -21   2  705.82   23.02
  14 -21   2  690.12   22.10
   7  14   5    2.67    1.24
   7  14   8  262.08    8.74
  14 -20  -8    1.73    1.54
  14 -20  -8    0.92    1.35
  14 -20  -5   16.90    1.87
  14 -20  -5   17.21    2.43
  14 -20  -2   40.47    2.70
  14 -20   1   11.63    1.77
  14 -20   4    0.43    0.88
  14 -20   7    8.11    1.35
   6  14   7    7.64    1.17
  14 -19  -9    5.66    1.34
  14 -19  -9    5.07    1.08
  14 -19  -6    9.63    1.36
  14 -19  -6    9.64    1.82
  14 -19  -6    8.26    1.72
  14 -19  -3    0.82    1.10
  14 -19   0   41.36    2.73
  14 -19   3   27.07    2.20
   5  14   6   -0.72    0.94
   5  14   6    0.31    0.97
  14 -18 -10  329.09   10.68
  14 -18  -7  167.20    6.44
  14 -18  -4  146.53    5.35
  14 -18  -4  149.89    5.70
  14 -18  -1 1548.42   48.43
  14 -18   2  979.19   31.27
 -18   4   5    5.68    1.41
  14 -18   8  247.17    8.73
  14 -17  -8    1.61    1.52
  14 -17  -8    2.66    1.30
  14 -17  -5   43.26    2.26
  14 -17  -5   43.05    2.64
  14 -17  -2  112.68    4.84
  14 -17   1    0.13    1.10
 -17   3   4   84.40    4.06
  14 -17   7   92.46    4.06
 -17   3   7   83.21    4.11
   3  14   7   91.62    3.64
  14 -16  -9   18.40    1.74
  14 -16  -9   17.32    1.53
  14 -16  -6   50.89    3.04
  14 -16   0   45.48    2.69
 -16   2   6   87.30    4.66
  14 -16   6   80.37    3.82
   2  14   6   79.73    3.64
 -16   2   6   83.85    4.14
 -16   2   9    7.28    1.49
  14 -16   9    6.78    1.46
  14 -15 -10  293.43    9.67
  14 -15  -7  144.18    5.85
  14 -15  -7  142.00    5.62
  14 -15  -1 1126.38   35.45
 -15   1   5    6.97    1.40
 -15   1   5    4.35    1.68
 -15   1   8  244.94    8.83
  14 -15   8  235.65    8.64
  14 -14  -8   27.49    2.22
  14 -14  -8   24.52    1.92
  14 -14  -5  334.27   11.28
  14 -14  -5  360.91   11.66
 -14   0   4  166.28    6.72
 -14   0   7  207.89    8.07
  14 -14   7  203.25    7.50
 -14   0   7  201.28    7.82
   0  14   7  201.58    7.03
 -14   0  10   24.11    1.83
  14 -14  10   25.85    1.87
  14 -13  -9   31.14    2.16
  14 -13  -9   28.36    1.85
  14 -13  -6  152.25    6.38
  14 -13  -6  153.05    5.91
  14 -13   6  213.06    7.86
 -13  -1   6  230.44    8.42
 -13  -1   6  232.40    8.69
  14 -13   9   18.78    2.04
 -13  -1   9   18.42    2.22
  14 -12 -10  178.79    6.22
  14 -12  -7   65.23    3.42
  14 -12  -7   65.25    3.27
 -12  -2   5    0.46    1.73
 -12  -2   8  148.21    6.16
  14 -12   8  144.10    5.85
  14 -12  11   79.85    3.25
  14 -11 -11   38.43    1.83
  14 -11  -8   15.17    1.76
  14 -11  -8   14.32    1.55
 -11  -3   7  325.62   12.06
 -11  -3   7  352.34   11.99
  14 -11   7  322.83   11.42
 -11  -3  10   57.97    3.09
  14 -11  10   58.07    2.95
  14 -10  -9    7.79    1.32
  14 -10  -6  120.29    4.89
  14 -10  -6  120.36    4.70
 -10  -4   6  103.78    5.29
  14 -10   6  109.29    4.12
  14 -10   9    6.96    1.80
 -10  -4   9    9.18    2.09
  14  -9  -7    0.44    1.23
  14  -9  -7    2.91    1.95
  -9  -5   5   83.37    4.46
  -9  -5   8  255.55    9.39
  14  -9   8  244.05    8.94
  -9  -5  11   78.24    3.47
  14  -9  11   86.47    3.49
  14  -8  -8   20.94    1.80
  -8  -6   7  584.60   19.44
  -8  -6   7  587.28   19.65
  14  -8   7  572.04   18.42
  -8  -6  10  113.50    4.86
  14  -8  10  116.49    4.77
  14  -7  -6   42.86    2.41
  14  -7  -6   45.02    2.28
  14  -7   6   83.34    3.43
  -7  -7   6   89.83    4.25
  -7  -7   6   93.11    4.80
  14  -7   6   86.34    3.48
  -7  -7   9   39.97    3.00
  14  -7   9   39.53    2.75
  14  -6 -10   13.78    1.31
  14  -6  -7   10.01    1.63
  -6  -8   8   96.95    4.91
  14  -6   8  104.16    4.16
  14  -5   4  432.11   15.51
  14  -5   7  734.49   23.08
  14  -5   7  722.23   23.09
  14  -4  -9    5.52    1.28
  14  -4  -6   42.79    2.29
  14  -4   3   17.24    2.13
  -4 -10   6  177.89    7.27
  14  -4   6  175.13    6.23
  -4 -10   6  165.20    6.77
  14  -4   6  173.46    6.18
  14  -4   6  169.18    8.20
  -4 -10   9   86.35    4.38
  -3 -11  -4  153.14    6.13
  14  -3   2   19.54    2.06
  -3 -11   5   71.01    4.09
  -3 -11   8   14.23    2.23
  14  -3   8   18.28    1.63
  14  -3  11    2.59    1.25
  -2 -12  -8   55.88    2.87
  14  -2  -8   56.85    2.83
  14  -2   1   38.03    2.43
  14  -2   4  536.60   18.21
  -2 -12   4  505.19   17.14
  14  -2   7  757.24   24.58
  -2 -12   7  796.90   25.26
  -2 -12   7  796.86   25.55
  14  -2   7  733.72   27.15
  14  -2   7  782.16   24.61
  -2 -12  10  161.13    6.16
  -1 -13  -9   10.07    1.29
  -1 -13  -3  261.83    9.58
  14  -1   0  227.15    7.88
  -1 -13   3   38.22    2.65
  14  -1   3   35.71    2.90
  14  -1   6    7.98    2.12
  14  -1   6    8.10    1.79
  -1 -13   6    7.57    1.98
  -1 -13   6   10.70    2.16
  -1 -13   9   41.03    2.88
   0 -14 -10   22.46    1.76
   0 -14  -7  209.54    7.28
  14   0  -7  187.60    7.03
   0 -14  -4  172.02    6.81
   0 -14  -1   14.86    2.00
  14   0   2  478.68   16.62
   0 -14   2  503.18   16.63
  14   0   5  409.84   14.59
   0 -14   5  367.63   12.76
  14   0   5  357.55   12.39
   0 -14   5  402.48   13.31
   0 -14   8   22.23    2.39
  14   0   8   25.19    1.99
  14   0  11   16.55    1.32
   1 -15  -8    8.04    1.39
  14   1  -5  501.58   16.15
   1 -15  -2  733.56   24.00
  14   1   1   48.52    2.76
   1 -15   1   42.51    2.97
  14   1   4  317.50   11.69
   1 -15   4  295.51   10.67
   1 -15   4  285.51   10.61
   1 -15   7  352.65   12.38
   1 -15   7  353.26   12.54
  14   1  10   53.02    2.75
   2 -16  -9   60.37    2.79
  14   2  -6   13.37    2.04
   2 -16  -3  116.16    5.24
   2 -16   0  415.94   13.80
  14   2   0  379.67   12.92
  14   2   3  112.67    5.48
   2 -16   3  112.11    5.14
   2 -16   6    5.77    1.70
   2 -16   6    8.00    1.97
  14   2   6    8.46    1.70
  14   2   6    6.66    1.58
   2 -16   9   54.42    3.00
   3 -17 -10   65.48    2.95
   3 -17  -7  318.18   10.93
   3 -17  -4  139.47    5.89
   3 -17  -1   29.79    2.57
  14   3   2  342.21   12.62
   3 -17   2  366.77   12.70
  14   3   5  227.54    8.29
   3 -17   5  236.26    8.56
   3 -17   5  241.69    8.78
   3 -17   8   11.17    1.77
  14   3   8   10.80    1.55
  14   3  11   34.77    1.63
   4 -18  -8   32.25    2.18
  14   4  -5  243.18    8.25
   4 -18  -2  158.07    6.77
   4 -18   1    1.86    1.51
  14   4   1    0.13    1.11
  14   4   4  143.55    6.84
   4 -18   4  144.81    5.97
  14   4   4  136.18    5.23
   4 -18   4  138.58    5.64
  14   4   7  145.67    5.74
   4 -18   7  159.01    6.03
  14   4   7  143.40    5.71
  14   4  10   21.86    1.67
   5 -19  -9   50.39    2.87
   5 -19  -9   53.38    2.65
   5 -19  -6   48.58    2.75
   5 -19  -3    6.11    1.47
   5 -19   0  160.18    6.90
  14   5   3  104.82    5.38
   5 -19   3  104.88    5.00
  14   5   6    7.41    1.45
  14   5   6    3.78    2.35
  14   5   9   17.30    1.52
   6 -20 -10   78.17    3.18
   6 -20  -7  386.24   12.96
   6 -20  -4  233.35    8.91
   6 -20  -1   20.12    2.23
  14   6   2  477.06   17.17
   6 -20   2  525.91   17.38
  14   6   5  325.09   11.45
  14   6   5  351.85   13.67
  14   6   5  347.90   11.40
  14   6   8    4.81    1.31
   7 -21  -8   40.66    2.30
  14   7  -2   52.04    2.38
   7 -21  -2   53.62    2.90
   7 -21  -2   54.15    3.52
   7 -21   1   36.53    2.33
   7 -21   1   28.69    2.68
  14   7   4  153.46    7.77
   7 -21   4  162.46    5.88
   7 -21   4  152.02    6.54
  14   7   4  155.13    6.10
  14   7   7   76.53    3.46
  14   7   7   73.73    3.45
  14   7  10    0.38    0.82
   8 -22  -9   41.78    2.39
   8 -22  -9   43.10    2.16
   8 -22  -3    1.66    1.55
   8 -22  -3    3.18    1.51
   8 -22   0  185.27    7.69
  14   8   0  173.39    6.16
   8 -22   0  184.27    6.78
  14   8   3  223.42    9.22
   8 -22   3  217.98    7.91
   8 -22   3  220.19    8.74
  14   8   3  219.73    7.64
  14   8   6   29.21    2.10
   9 -23  -4  254.54    8.92
   9 -23  -1   17.08    1.90
  14   9  -1   19.17    1.31
   9 -23  -1   15.46    2.23
  14   9   2  479.00   17.35
   9 -23   2  509.65   16.52
   9 -23   2  506.81   17.52
  14   9   5  438.23   14.40
  14   9   5  440.06   14.26
  14   9   8   33.07    1.92
  10 -24  -8   33.69    2.16
  10 -24  -5   37.91    2.34
  10 -24  -2    2.80    2.02
  10 -24  -2    0.99    1.82
  10 -24   1   83.46    4.52
  10 -24   1   70.64    4.89
  10 -24   4   70.94    3.31
  14  10   4   74.64    4.93
  14  10   7   12.94    1.35
  14  10   7   10.54    1.28
  11 -25  -9   24.47    1.37
  11 -25  -6   46.98    2.59
  11 -25  -3    3.05    1.49
  11 -25  -3    3.83    1.12
  11 -25  -3    5.32    1.87
  11 -25   0   52.44    3.75
  11 -25   0   56.16    3.30
  11 -25   3  113.10    5.60
  11 -25   3  116.65    4.77
  14  11   6   52.20    2.59
  12 -26  -7  235.47    8.07
  12 -26  -7  237.13    8.42
  12 -26  -7  247.03    8.45
  12 -26  -4  161.58    6.09
  12 -26  -4  170.81    6.16
  12 -26  -1    6.22    1.76
  12 -26  -1    5.89    2.14
  12 -26   2  295.12   11.11
  12 -26   2  285.39   10.08
  14  12   5  267.33    9.07
  14  12   8    9.78    0.94
  13 -27  -8   28.89    1.77
  13 -27  -8   23.68    1.68
  13 -27  -5    0.70    1.06
  13 -27  -5    0.82    1.22
  13 -27  -2   61.61    3.23
  13 -27   1  151.26    6.01
  14  13   4   49.48    2.44
  13 -27   4   49.91    2.54
  14  13   7    2.40    0.83
  14 -28  -6   74.05    3.36
  14 -28  -6   81.53    3.58
  14 -28  -3   34.69    1.95
  14 -28  -3   43.16    2.41
  14 -28   0   13.39    1.93
  14 -28   3   96.41    4.10
  14  14   6   67.06    2.71
  14  14   6   68.48    2.82
  15 -29  -7  124.16    4.45
  15 -29  -4  103.26    3.93
  15 -29  -4   93.69    3.77
  15 -29  -4  102.73    4.31
  15 -29  -1    4.78    1.64
  15 -29   2  198.89    7.27
  14  15   5  157.83    5.44
  15 -28  -8    0.91    0.73
  15 -28  -8    1.09    0.75
  15 -28  -5   65.22    2.86
  15 -28  -5   63.52    3.16
  15 -28  -5   73.25    3.41
  15 -28  -2  117.51    4.90
  15 -28   1   11.58    1.88
  13  15   4   44.66    2.21
  15 -28   4   49.71    2.42
  13  15   7  107.84    3.79
  15 -27  -6   10.66    1.54
  15 -27  -3  124.86    4.83
  15 -27  -3  114.72    4.41
  15 -27   0  132.20    5.41
  15 -27   3   21.96    1.84
  12  15   6   13.38    1.12
  12  15   6   12.37    1.18
  15 -26  -7  287.80    9.99
  15 -26  -7  302.34   10.02
  15 -26  -4  210.06    7.14
  15 -26  -4  194.69    7.05
  15 -26  -4  202.67    7.38
  15 -26  -1   30.00    2.34
  15 -26  -1   27.19    2.93
  15 -26   2  559.96   19.48
  15 -26   2  571.28   18.45
  11  15   5  425.38   13.69
  15 -25  -8    0.44    1.06
  15 -25  -8    0.41    1.02
  15 -25  -5   49.33    2.56
  15 -25  -5   56.28    3.01
  15 -25  -2   95.87    4.95
  15 -25  -2   93.03    4.21
  15 -25   1    6.64    1.88
  15 -25   1    9.44    2.18
  15 -25   4   13.20    1.39
  10  15   7   28.19    1.62
  15 -24  -9   15.98    1.31
  15 -24  -6    0.80    1.04
  15 -24  -6    0.92    1.47
  15 -24  -3   27.94    2.46
  15 -24  -3   23.39    1.66
  15 -24  -3   22.34    1.85
  15 -24  -3   23.32    2.27
  15 -24   0   47.44    3.96
  15 -24   0   43.12    3.41
  15 -24   3   28.25    2.57
  15 -24   3   26.26    2.36
   9  15   6    1.56    0.84
   9  15   6    2.95    1.00
  15 -23  -7  467.70   15.69
  15 -23  -7  478.86   15.62
  15 -23  -4  317.50   10.92
  15 -23  -4  334.78   11.35
  15 -23  -4  335.19   10.96
  15 -23  -1   26.43    2.60
  15 -23  -1   27.23    2.07
  15 -23   2  751.76   24.55
  15 -23   2  730.77   23.50
  15 -22  -8    2.09    1.24
  15 -22  -5    1.84    1.07
  15 -22  -5    0.84    1.48
  15 -22  -2    5.33    1.46
  15 -22  -2    2.91    1.19
  15 -22   1   15.64    1.97
  15 -22   1   15.36    1.57
  15 -22   4   64.72    2.98
   7  15   7   30.24    1.78
  15 -21  -9   19.17    1.44
  15 -21  -9   18.46    1.58
  15 -21  -6    5.31    1.20
  15 -21  -6    4.84    1.62
  15 -21  -6    7.34    1.72
  15 -21  -3   15.10    1.42
  15 -21  -3   11.44    1.16
  15 -21  -3   15.22    1.47
  15 -21   0   16.58    1.95
  15 -21   0   15.69    1.57
  15 -21   3    3.37    1.01
   6  15   6    5.19    1.03
  15 -20 -10  103.15    3.74
  15 -20  -7  605.38   19.64
  15 -20  -4  479.37   15.39
  15 -20  -4  473.84   15.75
  15 -20  -1   54.30    3.26
  15 -20   2 1246.13   39.38
  15 -20   2 1320.73   40.38
  15 -19  -8   14.85    2.03
  15 -19  -8   13.42    1.64
  15 -19  -5    1.77    1.17
  15 -19  -5    1.53    1.54
  15 -19  -2   21.76    2.04
  15 -19   1  106.28    4.88
  15 -19   4   28.27    1.68
   4  15   7    5.91    1.02
  15 -19   7    4.28    1.23
  15 -18  -9    0.75    1.17
  15 -18  -9    0.63    0.97
  15 -18  -6   33.29    2.54
  15 -18  -6   35.23    2.46
  15 -18   0    6.01    1.36
 -18   3   6   57.68    3.30
  15 -18   9    5.73    1.17
  15 -17 -10  114.17    4.20
  15 -17  -7  474.09   15.73
  15 -17  -7  479.88   15.96
  15 -17  -4  305.26   10.04
  15 -17  -4  300.87   10.40
  15 -17  -1   75.63    3.74
 -17   2   5  668.90   21.91
  15 -17   8   23.81    1.97
 -17   2   8   27.81    2.20
  15 -16  -8   43.69    2.70
  15 -16  -8   42.92    2.51
  15 -16  -5    4.19    0.95
  15 -16  -5    3.81    1.35
  15 -16  -5    5.87    1.49
 -16   1   4   35.79    2.71
  15 -16   7   49.05    2.75
 -16   1   7   50.17    3.11
  15 -16  10   81.32    3.32
  15 -15  -9    0.73    1.03
  15 -15  -9    0.09    1.14
  15 -15  -6   54.32    3.05
 -15   0   6   84.90    4.29
 -15   0   6   82.05    4.35
  15 -15   6   78.56    3.81
 -15   0   9   60.28    3.18
  15 -15   9   60.85    3.08
  15 -14 -10   62.96    2.70
  15 -14  -7  336.26   11.64
  15 -14  -7  333.67   11.38
 -14  -1   5  552.26   17.83
 -14  -1   5  524.69   18.27
 -14  -1   8    9.13    1.84
  15 -14   8    9.33    1.53
  15 -13 -11  103.98    3.64
  15 -13  -8  109.04    4.73
  15 -13  -8  117.82    4.60
  15 -13  -5    0.92    1.03
 -13  -2   7   52.80    3.38
 -13  -2   7   52.95    3.48
  15 -13   7   49.97    2.91
 -13  -2  10  101.63    4.22
  15 -13  10  104.49    4.17
  15 -12  -9   14.61    1.61
  15 -12  -6   35.67    3.59
  15 -12  -6   38.97    2.90
 -12  -3   6   99.92    5.06
  15 -12   6  102.23    4.15
 -12  -3   6  106.80    5.19
 -12  -3   9   58.92    3.45
  15 -12   9   65.77    3.34
  15 -11  -7  231.46    8.40
  15 -11  -7  233.00    8.21
 -11  -4   5  299.37   10.48
 -11  -4   5  293.70   11.08
 -11  -4   8    4.53    1.97
  15 -11   8    2.34    1.52
  15 -11  11   56.93    2.52
  15 -10 -11  119.46    4.09
  15 -10  -8  136.94    5.38
  15 -10  -5    3.35    1.09
  15 -10  -5    3.66    1.01
  15 -10   7  106.16    4.36
 -10  -5   7   97.93    4.83
 -10  -5   7   91.32    5.01
  15 -10   7   96.75    3.87
 -10  -5  10  206.97    7.71
  15 -10  10  220.48    7.65
  15  -9  -9   27.51    1.88
  15  -9  -6    2.96    1.06
  15  -9  -6    3.09    1.30
  15  -9   6    8.46    1.05
  -9  -6   6   10.39    2.03
  15  -9   6    8.89    1.00
  -9  -6   6    8.54    2.32
  -9  -6   9   45.09    3.27
  15  -9   9   48.80    2.98
  15  -8 -10   49.58    2.37
  15  -8  -7   87.75    3.91
  -8  -7   5  214.26    8.03
  -8  -7   5  221.91    8.75
  -8  -7   8    0.58    1.90
  15  -8   8   -0.21    1.27
  15  -8  11   31.20    1.89
  15  -7  -8  250.44    8.69
  15  -7  -5   11.86    1.28
  -7  -8   7  133.01    6.04
  -7  -8   7  143.23    6.49
  15  -7   7  141.48    5.33
  -7  -8  10  317.15   10.89
  15  -7  10  315.69   10.75
  15  -6  -6    8.58    1.30
  15  -6   3  130.19    5.95
  15  -6   6    1.37    0.85
  15  -6   6    0.24    0.84
  -6  -9   6   -0.14    1.68
  15  -6   9   46.88    2.86
  15  -5 -10   20.80    1.34
  15  -5  -7    9.22    1.45
  15  -5   2   39.35    2.76
  -5 -10   5    4.10    2.14
  15  -5   5    2.45    0.98
  15  -5   8   26.61    1.86
  -4 -11  -8  263.34    9.09
  15  -4  -5   13.71    1.32
  15  -4   4  229.81    9.49
  -4 -11   4  234.47    8.65
  -4 -11   7  176.96    7.34
  15  -4   7  171.91    6.27
  -4 -11   7  159.75    6.95
  15  -4   7  168.57    6.26
  -4 -11  10  394.69   13.20
  15  -3  -9   54.44    2.60
  15  -3   3  108.10    5.32
  -3 -12   6    7.77    2.15
  15  -3   6    7.42    1.89
  -3 -12   6    5.03    2.94
  15  -3   6    6.10    2.56
  -3 -12   9   11.09    2.14
  -2 -13 -10   15.93    1.50
  15  -2  -7    7.05    1.46
  -2 -13  -4  181.75    7.14
  15  -2   2   15.00    1.89
  -2 -13   5   67.92    3.57
  15  -2   5   73.20    3.14
  -2 -13   5   73.37    4.15
  15  -2   5   73.64    4.75
  15  -2   5   72.48    3.26
  -2 -13   8   89.20    4.34
  15  -2   8   77.68    3.63
  15  -2  11   10.00    1.16
  -1 -14  -8  230.08    8.26
  15  -1  -8  236.91    8.08
  15  -1  -5    4.71    1.10
  -1 -14  -2  808.04   26.28
  15  -1   1 1049.46   33.80
  -1 -14   1 1093.29   34.15
  -1 -14   4  108.43    4.88
  15  -1   4  107.92    5.66
  15  -1   7  147.61    5.75
  -1 -14   7  159.16    6.58
  15  -1   7  150.53    5.79
  -1 -14   7  152.26    6.35
  15  -1  10  251.58    8.70
   0 -15  -9   57.57    2.68
  15   0  -6   73.77    3.52
   0 -15  -3    5.46    1.49
  15   0   0   67.04    3.06
   0 -15   0   72.11    3.94
  15   0   3  144.24    6.59
   0 -15   3  148.95    6.21
   0 -15   6   52.69    3.40
  15   0   6   48.59    2.93
   0 -15   6   63.27    3.61
  15   0   6   58.52    4.75
   0 -15   9    0.78    1.51
  15   0   9   -0.08    1.11
   1 -16 -10   16.55    1.53
  15   1  -7   56.53    2.79
   1 -16  -7   64.30    3.17
   1 -16  -4  402.62   14.06
   1 -16  -1  313.06   11.41
  15   1   2    0.97    1.28
   1 -16   2    0.48    1.40
   1 -16   5  160.06    6.50
  15   1   5  142.67    5.75
  15   1   5  154.68    7.54
   1 -16   5  161.25    6.15
   1 -16   8  137.92    5.77
  15   1  11    9.69    0.99
   2 -17  -8  209.03    7.52
  15   2  -5    1.55    1.02
   2 -17  -2  424.14   14.90
   2 -17   1  521.61   17.31
  15   2   1  489.62   16.76
  15   2   4   34.63    3.25
   2 -17   4   35.47    2.64
  15   2   4   41.49    2.19
   2 -17   4   35.18    2.70
  15   2   7   99.36    4.33
   2 -17   7  104.49    4.73
  15   2  10  153.73    5.60
   3 -18  -9   25.02    1.65
  15   3  -6  168.09    6.12
   3 -18  -3  133.83    6.00
   3 -18   0    7.29    1.76
   3 -18   3  167.57    6.92
  15   3   3  158.41    7.18
   3 -18   6   88.27    4.17
  15   3   6   79.37    3.75
  15   3   6   86.24    5.76
  15   3   6   87.21    3.80
   4 -19 -10    5.39    1.28
   4 -19  -7  115.58    4.83
  15   4  -4  474.47   15.01
   4 -19  -4  445.37   15.95
   4 -19  -1  237.09    9.31
   4 -19   2   23.74    2.42
  15   4   2   22.36    2.34
  15   4   5  293.88   11.90
   4 -19   5  286.29   10.03
  15   4   5  275.06    9.73
  15   4   8  163.63    6.14
   5 -20  -8    5.32    1.30
   5 -20  -2  418.41   14.89
   5 -20   1  258.25    9.80
  15   5   1  241.46    9.15
   5 -20   4    4.26    1.21
  15   5   4    5.68    2.08
   5 -20   4    4.21    1.28
  15   5   4    4.98    1.51
  15   5   7   52.72    2.78
  15   5   7   53.66    2.82
  15   5  10   49.97    2.27
   6 -21  -9    2.10    1.31
   6 -21  -9    3.60    1.12
   6 -21  -6   69.46    3.41
  15   6  -3   90.07    3.64
   6 -21  -3   97.10    4.06
   6 -21  -3   84.03    4.59
   6 -21   0    2.36    1.64
  15   6   3  132.13    6.48
   6 -21   3  144.63    5.47
   6 -21   3  130.04    6.12
  15   6   6  204.45    7.45
  15   6   9   48.73    2.28
   7 -22 -10   16.14    1.13
   7 -22  -7   88.82    3.96
   7 -22  -4  558.17   18.08
  15   7  -1  422.94   13.43
   7 -22  -1  404.83   13.95
   7 -22  -1  417.24   14.97
  15   7   2    3.14    1.50
   7 -22   2    1.66    1.36
   7 -22   2    0.79    1.41
  15   7   5  259.15    9.08
  15   7   5  264.95    9.03
  15   7   8  199.35    6.99
   8 -23  -8    6.35    1.15
   8 -23  -5   44.25    2.57
  15   8  -2  138.65    5.12
   8 -23  -2  148.07    6.08
   8 -23  -2  139.59    6.83
   8 -23   1   23.73    2.67
   8 -23   1   23.54    2.14
  15   8   4   46.94    3.97
   8 -23   4   41.32    3.10
   8 -23   4   50.26    2.87
  15   8   4   50.57    2.74
  15   8   7  106.50    4.42
  15   8   7  111.55    4.38
   9 -24  -9    6.54    1.23
   9 -24  -9    5.64    1.13
   9 -24  -6  131.00    5.17
   9 -24  -3  161.08    7.22
   9 -24  -3  176.53    6.69
   9 -24   0   15.69    3.30
   9 -24   0   13.44    3.12
  15   9   3   72.09    4.69
   9 -24   3   84.37    4.07
   9 -24   3   75.97    4.35
  15   9   3   82.42    3.50
  15   9   6  118.82    4.69
  10 -25  -7   62.40    3.19
  10 -25  -4  363.47   12.42
  10 -25  -4  384.41   12.48
  10 -25  -1  326.18   11.37
  10 -25  -1  318.70   12.21
  10 -25   2    1.35    1.83
  10 -25   2    1.03    1.78
  15  10   5  192.24    6.89
  15  10   8  183.44    6.24
  11 -26  -8   23.62    1.75
  11 -26  -8   22.57    1.66
  11 -26  -5   69.48    3.21
  11 -26  -2   32.42    2.92
  11 -26  -2   35.09    2.45
  11 -26  -2   31.07    1.91
  11 -26   1    5.47    1.74
  11 -26   1    6.44    2.13
  11 -26   4   61.90    2.99
  15  11   7   32.89    1.86
  12 -27  -6   26.60    1.75
  12 -27  -6   26.64    2.00
  12 -27  -3   71.32    3.52
  12 -27  -3   77.03    3.25
  12 -27   0   23.42    2.22
  12 -27   3   26.07    2.09
  15  12   6  116.85    4.36
  15  12   6  117.69    4.45
  13 -28  -7   22.97    1.64
  13 -28  -7   24.72    1.77
  13 -28  -4  217.17    7.74
  13 -28  -4  215.89    7.58
  13 -28  -4  223.55    7.58
  13 -28  -1  191.42    7.20
  13 -28   2   -0.73    1.50
  15  13   5  129.20    4.78
  14 -29  -8   39.55    1.74
  14 -29  -5   72.28    3.01
  14 -29  -5   74.35    3.24
  14 -29  -5   75.91    3.51
  14 -29  -2    3.70    1.51
  14 -29   1   75.17    3.71
  15  14   4  155.39    5.57
  14 -29   4  157.99    5.64
  15  14   7   31.93    1.50
  15 -30  -6   27.09    1.72
  15 -30  -3  138.28    5.20
  15 -30  -3  134.51    5.27
  15 -30   0   75.42    3.65
  15  15   3    5.90    0.97
  15 -30   3    8.36    1.47
  15  15   6   82.22    3.04
  16 -31  -7   21.85    1.21
  16 -31  -4  169.93    5.84
  16 -31  -4  167.79    6.06
  16 -31  -1  135.62    5.35
  16 -31   2    0.75    1.31
  15  16   5   80.97    3.02
  16 -30  -5    2.52    1.18
  16 -30  -2  123.77    4.78
  16 -30  -2  114.14    4.51
  16 -30   1  207.65    7.52
  16 -30   4   30.91    1.79
  16 -29  -6   29.49    1.75
  16 -29  -6   31.66    1.99
  16 -29  -3    4.94    0.76
  16 -29  -3    6.30    1.39
  16 -29  -3    4.24    1.27
  16 -29   0  130.68    5.34
  16 -29   3  110.92    4.42
  13  16   6    5.57    0.81
  16 -28  -7   20.09    1.48
  16 -28  -4  211.02    7.50
  16 -28  -4  221.44    7.41
  16 -28  -4  206.13    7.27
  16 -28  -4  219.55    7.80
  16 -28  -1  185.60    6.98
  16 -28   2    6.21    1.50
  16 -27  -8   42.69    2.10
  16 -27  -8   48.43    2.22
  16 -27  -5    0.14    0.91
  16 -27  -5    0.42    1.59
  16 -27  -5    1.34    1.26
  16 -27  -2   75.79    3.59
  16 -27  -2   76.09    3.48
  16 -27   1  128.47    5.27
  16 -27   4   19.05    1.56
  11  16   7   12.84    0.99
  16 -26  -9   32.77    1.49
  16 -26  -6   84.06    3.78
  16 -26  -3   28.75    1.73
  16 -26  -3   33.03    2.10
  16 -26   0   14.67    2.38
  16 -26   0   16.97    1.97
  16 -26   3   93.34    3.99
  10  16   6   55.88    2.52
  16 -25  -7   95.03    4.00
  16 -25  -7   90.37    3.96
  16 -25  -4  512.06   16.31
  16 -25  -4  503.49   16.29
  16 -25  -4  506.81   16.65
  16 -25  -1  482.33   16.86
  16 -25  -1  480.66   15.90
  16 -25   2    1.34    1.78
  16 -25   2    3.11    1.46
  16 -24  -8   33.02    2.11
  16 -24  -8   38.86    2.09
  16 -24  -5    5.58    1.13
  16 -24  -5    5.37    1.54
  16 -24  -5    8.06    1.74
  16 -24  -2    4.40    1.80
  16 -24  -2    3.08    1.58
  16 -24   1   20.73    2.70
  16 -24   1   21.78    2.22
  16 -24   4    4.52    1.11
   8  16   7    4.98    0.91
  16 -23  -9   17.23    1.37
  16 -23  -6   66.24    3.42
  16 -23  -6   65.73    3.42
  16 -23  -3   12.47    1.36
  16 -23  -3   11.53    1.78
  16 -23  -3   12.90    1.63
  16 -23   0   46.50    3.31
  16 -23   0   45.34    2.65
  16 -23   3   48.46    2.65
   7  16   6   14.34    1.30
  16 -22  -7   67.16    3.59
  16 -22  -7   72.58    3.52
  16 -22  -4  631.31   20.15
  16 -22  -4  638.66   20.24
  16 -22  -4  641.61   20.64
  16 -22  -1  649.59   20.59
  16 -22  -1  614.40   20.43
  16 -22   2    2.41    1.46
  16 -22   2    4.03    1.24
  16 -21  -8    2.61    1.27
  16 -21  -5   16.76    1.55
  16 -21  -5   15.86    1.94
  16 -21  -2   21.96    2.12
  16 -21  -2   17.24    1.53
  16 -21   1    5.16    1.50
  16 -21   1    5.60    1.26
  16 -21   4   14.02    1.54
   5  16   7   46.74    2.21
  16 -20  -9    0.29    1.01
  16 -20  -9    0.76    0.91
  16 -20  -6   17.16    1.97
  16 -20  -6   14.96    1.92
  16 -20  -3   28.30    1.98
  16 -20  -3   32.85    1.87
  16 -20  -3   32.84    1.74
  16 -20   0    7.86    1.58
  16 -20   3   59.88    2.74
  16 -19 -10   17.56    1.32
  16 -19  -7  156.06    6.04
  16 -19  -4  828.76   25.76
  16 -19  -4  803.40   26.14
  16 -19  -4  831.00   26.18
  16 -19  -1  808.36   26.26
 -19   3   5  496.13   16.57
  16 -19   8  420.01   13.76
  16 -18  -8   46.00    2.76
  16 -18  -8   38.69    2.47
  16 -18  -5  121.89    5.18
  16 -18  -5  123.78    5.16
  16 -18   4  248.47    8.31
 -18   2   4  245.42    9.18
  16 -18   7   66.12    3.23
 -18   2   7   72.09    3.56
  16 -17  -9   35.52    2.12
  16 -17  -9   35.37    1.98
  16 -17  -6    0.21    1.39
 -17   1   6   23.64    2.33
 -17   1   6   18.25    2.72
  16 -17   9   29.34    1.92
  16 -16 -10   24.89    1.52
  16 -16  -7   81.48    3.95
  16 -16  -7   79.58    3.72
  16 -16  -4  519.03   16.92
 -16   0   5  613.09   20.64
 -16   0   5  624.27   20.21
 -16   0   8  430.45   14.42
  16 -16   8  424.08   14.16
  16 -15  -8  139.76    5.63
  16 -15  -8  145.21    5.49
  16 -15  -5  151.45    5.85
  16 -15  -5  146.73    5.72
 -15  -1   7   61.03    3.63
 -15  -1   7   59.98    3.44
  16 -15   7   58.67    3.02
  16 -15  10   11.94    1.30
  16 -14  -9   60.29    2.89
  16 -14  -6   11.70    2.06
  16 -14  -6    7.87    1.67
 -14  -2   6    7.28    2.13
  16 -14   6   10.83    1.82
 -14  -2   6   11.41    2.21
  16 -14   9   64.27    3.13
 -14  -2   9   58.92    3.22
  16 -13  -7   48.34    2.87
  16 -13  -7   45.12    2.61
 -13  -3   5  315.66   11.02
 -13  -3   5  311.10   11.62
 -13  -3   8  218.78    8.32
  16 -13   8  217.10    7.93
  16 -13  11   11.55    0.98
  16 -12 -11   12.15    0.87
  16 -12  -8  222.82    7.96
  16 -12  -8  221.38    7.83
  16 -12  -5  281.72    9.63
 -12  -4   7   66.82    4.09
 -12  -4   7   69.77    3.89
  16 -12   7   70.88    3.44
  16 -12  10   26.16    1.84
 -12  -4  10   23.93    1.91
  16 -11  -9   44.33    2.40
  16 -11  -6   20.72    2.45
  16 -11  -6   23.54    2.80
 -11  -5   6    0.42    3.28
 -11  -5   6   -0.54    2.02
  16 -11   9   15.13    1.84
 -11  -5   9   13.71    2.10
  16 -10 -10   -0.39    0.94
  16 -10  -7  110.84    4.69
  16 -10  -7  115.13    4.59
 -10  -6   5  197.92    7.38
  16 -10   5  191.63    6.68
 -10  -6   5  179.29    7.91
 -10  -6   8  109.43    5.09
  16 -10   8  101.86    4.52
  16 -10  11    5.29    0.97
  16  -9  -8  386.45   12.85
  16  -9  -5  333.07   11.42
  16  -9  -5  355.15   11.55
  -9  -7   7  112.98    5.78
  -9  -7   7  127.84    5.62
  16  -9   7  123.69    4.66
  16  -9  10   38.32    2.33
  -9  -7  10   42.36    2.56
  16  -8  -6   73.03    4.02
  16  -8  -6   65.04    3.34
  16  -8   6   26.81    1.62
  -8  -8   6   22.30    2.87
  16  -8   6   23.27    1.58
  -8  -8   6   28.94    4.13
  16  -8   9    1.64    1.55
  -8  -8   9    0.13    1.87
  16  -7 -10    1.24    0.85
  16  -7  -7   26.09    1.98
  16  -7   5   99.71    3.89
  -7  -9   5   98.88    4.54
  16  -7   5  102.18    4.03
  -7  -9   8   30.04    2.78
  16  -7   8   26.27    1.85
  16  -7  11    0.11    0.90
  16  -6  -5  834.91   26.29
  16  -6   4 1392.02   44.83
  16  -6   7  237.56    8.20
  16  -6   7  233.63    8.19
  16  -6  10   32.99    2.21
  16  -5  -9   14.85    1.57
  16  -5  -6   62.63    3.57
  16  -5   3  183.91    7.70
  -5 -11   6   58.85    3.96
  16  -5   6   57.73    3.03
  16  -5   6   56.61    3.27
  16  -5   9    1.40    1.37
  -4 -12  -4    0.31    1.22
  16  -4   2   56.86    3.36
  16  -4   5   16.68    2.64
  -4 -12   5   23.02    2.09
  16  -4   5   16.85    1.43
  -4 -12   5   16.41    2.50
  16  -4   8    0.09    1.07
  -4 -12   8    1.29    1.87
  16  -3  -8  452.52   14.75
  -3 -13  -8  450.22   14.82
  16  -3  -5  588.30   18.93
  16  -3   1  762.83   24.63
  -3 -13   4 1107.56   35.93
  16  -3   4 1163.48   37.03
  16  -3   7  187.33    6.80
  -3 -13   7  195.71    7.77
  -3 -13   7  176.60    7.42
  16  -3   7  185.07    6.79
  -2 -14  -9    6.35    1.12
  16  -2  -9    8.50    1.10
  16  -2  -6   86.73    3.88
  -2 -14  -3  137.78    6.04
  -2 -14   3   11.20    1.79
  16  -2   3   10.24    1.90
  -2 -14   6   57.05    3.64
  16  -2   6   48.74    4.33
  16  -2   6   55.44    2.91
  16  -2   6   48.98    2.94
  -2 -14   6   49.70    3.39
  -2 -14   9   16.54    2.03
  -1 -15 -10   75.58    3.21
  16  -1  -7   50.49    2.63
  16  -1  -4   39.26    2.14
  -1 -15  -4   37.05    2.66
  -1 -15  -1  432.39   15.06
  16  -1   2  279.69   10.42
  -1 -15   2  283.86   10.49
  16  -1   5    4.90    2.08
  -1 -15   5    7.09    1.58
  -1 -15   5    4.83    1.91
  16  -1   5    6.96    1.39
  16  -1   8   44.12    2.43
  -1 -15   8   39.62    2.86
  16  -1  11   26.20    1.43
   0 -16  -8  434.98   14.35
  16   0  -8  433.52   13.99
  16   0  -5  622.83   19.92
   0 -16  -2   26.15    2.47
  16   0   1  390.81   13.76
   0 -16   1  421.94   14.35
   0 -16   4  536.49   17.95
  16   0   4  509.02   17.01
  16   0   7   89.13    3.89
   0 -16   7   84.83    4.38
   0 -16   7   94.57    4.58
  16   0  10   24.50    1.81
   1 -17  -9   10.23    1.21
  16   1  -6   35.63    2.31
   1 -17  -3  170.97    7.15
   1 -17   0   79.83    4.36
   1 -17   3   16.82    2.11
  16   1   3   13.43    2.09
  16   1   6  111.59    6.64
   1 -17   6   98.32    4.81
  16   1   6   97.50    4.34
   1 -17   6  116.91    5.10
  16   1   9   60.92    2.82
   2 -18 -10   93.00    3.70
   2 -18  -7   28.58    2.18
  16   2  -4   80.16    3.34
   2 -18  -4   77.87    4.13
   2 -18  -1  371.45   13.43
   2 -18   2  211.11    8.42
  16   2   2  204.01    8.24
  16   2   5    1.13    2.37
  16   2   5    3.58    1.49
   2 -18   5    1.72    1.54
   3 -19  -8  158.20    5.95
  16   3  -5  153.03    5.64
   3 -19  -2    1.92    1.54
  16   3   1  304.76   11.09
   3 -19   1  326.22   11.83
  16   3   4  394.94   14.73
   3 -19   4  390.79   12.93
   3 -19   4  397.84   13.82
  16   3   4  382.19   12.90
   3 -19   4  385.37   13.41
  16   3   7   50.71    2.80
  16   3  10   14.68    1.42
   4 -20  -9   47.29    2.18
   4 -20  -9   46.88    2.59
   4 -20  -9   40.27    2.26
   4 -20  -3  171.33    7.26
   4 -20   0  225.90    9.15
   4 -20   3   17.20    1.89
  16   4   3   20.99    2.49
   4 -20   3   19.56    2.28
  16   4   6   35.08    2.36
   4 -20   6   40.76    2.60
  16   4   6   35.07    2.25
  16   4   9   89.54    3.55
   5 -21 -10   79.47    3.03
   5 -21  -7   26.54    2.17
  16   5  -1  591.64   18.88
   5 -21  -1  608.03   20.51
  16   5   2  333.58   12.57
   5 -21   2  359.89   12.86
  16   5   5   -0.29    2.33
  16   5   5    0.10    1.24
  16   5   5    1.70    1.20
  16   5   8  101.09    4.07
   6 -22  -8  103.19    4.10
  16   6  -5   43.71    2.31
  16   6  -2   45.12    2.23
   6 -22  -2   43.45    2.76
   6 -22  -2   42.81    3.34
   6 -22   1  269.45    9.75
   6 -22   1  291.63   10.88
   6 -22   4  150.14    5.73
   6 -22   4  150.39    6.51
  16   6   4  152.79    7.37
  16   6   4  144.07    5.74
  16   6   7    0.78    1.21
  16   6   7   -0.36    1.35
  16   6  10   28.78    1.44
   7 -23  -9   51.38    2.58
   7 -23  -9   44.78    2.21
  16   7  -3  158.97    5.72
   7 -23  -3  145.97    6.88
   7 -23  -3  155.72    6.13
  16   7   0  243.68    8.19
   7 -23   0  244.44    8.84
   7 -23   0  232.75    9.75
  16   7   3   24.29    3.01
   7 -23   3   22.45    2.62
   7 -23   3   27.98    2.32
  16   7   3   25.47    1.94
  16   7   6   66.34    3.19
   8 -24  -4   47.99    2.69
   8 -24  -1  468.10   15.86
  16   8  -1  472.86   15.25
   8 -24  -1  484.56   17.00
   8 -24   2  390.45   13.17
   8 -24   2  377.11   14.10
  16   8   5    3.00    1.24
  16   8   5    1.64    1.13
  16   8   8  113.87    4.24
   9 -25  -8   23.98    1.81
   9 -25  -5    1.74    1.29
  16   9  -2   51.45    2.45
   9 -25  -2   49.17    3.10
   9 -25  -2   48.72    3.65
   9 -25   1   71.92    4.04
   9 -25   1   63.26    4.21
   9 -25   4   13.20    1.50
  16   9   4   11.41    1.35
  16   9   7   15.34    1.38
  16   9   7   13.77    1.36
  10 -26  -6    0.65    1.09
  10 -26  -3  111.03    4.73
  10 -26  -3  113.58    4.48
  10 -26   0  198.88    8.55
  10 -26   0  195.00    7.47
  10 -26   3   53.05    2.89
  16  10   3   48.66    2.48
  16  10   6   11.17    1.34
  11 -27  -7   56.27    2.52
  11 -27  -7   56.50    2.79
  11 -27  -7   57.32    2.87
  11 -27  -4   11.15    1.36
  11 -27  -4   14.48    1.60
  11 -27  -1  252.64    9.13
  11 -27   2  257.80    9.21
  16  11   5    7.12    1.28
  16  11   8   56.27    2.27
  12 -28  -8    0.41    0.80
  12 -28  -8    0.51    0.76
  12 -28  -5   42.11    2.18
  12 -28  -5   37.98    2.40
  12 -28  -2  117.70    4.89
  12 -28  -2  112.99    4.31
  12 -28   1   36.21    2.62
  16  12   4   12.40    1.30
  12 -28   4   10.33    1.38
  16  12   7   70.12    2.76
  13 -29  -6   23.85    1.71
  13 -29  -6   27.69    1.92
  13 -29  -3   25.34    1.59
  13 -29  -3   30.91    2.12
  13 -29   0  149.09    5.97
  13 -29   3   69.29    3.27
  16  13   6    4.48    0.93
  16  13   6    3.56    0.79
  14 -30  -7   46.24    1.96
  14 -30  -4   10.76    1.12
  14 -30  -4   11.28    1.25
  14 -30  -4   11.24    1.49
  14 -30  -1  232.55    8.34
  14 -30   2  213.52    7.69
  16  14   5   10.09    0.98
  15 -31  -5  114.71    4.36
  15 -31  -2  151.75    5.74
  15 -31   1   11.32    1.78
  16  15   4   73.29    2.85
  16 -32  -6   11.58    1.03
  16 -32  -3   30.48    1.84
  16 -32   0  142.85    5.50
  16 -32   3   69.98    2.96
  17 -33  -1   82.79    3.52
  17 -33   2   96.50    3.81
  17 -32  -5  142.30    5.01
  17 -32  -2    3.46    1.27
  17 -32   1  140.37    5.34
  17 -31  -6   44.28    2.17
  17 -31  -3   31.88    2.00
  17 -31  -3   34.32    1.97
  17 -31   0    8.53    1.77
  17 -31   3   90.80    3.69
  17 -30  -4   33.14    1.85
  17 -30  -4   30.88    2.05
  17 -30  -1  214.79    7.74
  17 -30   2  158.13    5.91
  13  17   5    0.34    0.67
  17 -29  -8   58.13    2.22
  17 -29  -5  144.49    5.46
  17 -29  -2   12.70    1.61
  17 -29  -2   11.49    1.33
  17 -29   1   89.20    3.98
  17 -29   4  145.74    5.27
  17 -28  -6   31.51    1.94
  17 -28  -6   32.97    2.09
  17 -28  -3   91.83    3.84
  17 -28  -3   89.29    3.95
  17 -28   0   28.71    2.28
  17 -28   3   12.84    1.54
  11  17   6   65.85    2.59
  17 -27  -7   63.79    2.89
  17 -27  -7   67.85    2.98
  17 -27  -4   45.19    2.35
  17 -27  -4   43.44    2.42
  17 -27  -4   45.82    2.72
  17 -27  -1  448.23   14.84
  17 -27   2  345.87   11.67
  10  17   5    2.13    0.88
  17 -26  -8   41.10    2.02
  17 -26  -8   39.66    2.09
  17 -26  -5   82.00    3.73
  17 -26  -5   82.84    3.92
  17 -26  -2   15.55    1.76
  17 -26  -2   14.12    1.64
  17 -26   1    1.00    1.68
  17 -26   1    2.91    1.53
  17 -26   4   19.67    1.61
  17 -25  -6   17.26    1.96
  17 -25  -3  144.38    5.46
  17 -25  -3  140.06    5.17
  17 -25  -3  141.95    5.46
  17 -25  -3  152.58    5.75
  17 -25   0  207.13    8.50
  17 -25   0  204.71    7.58
  17 -25   3   12.68    1.52
   8  17   6   24.22    1.51
  17 -24  -7  160.34    5.97
  17 -24  -7  151.97    5.89
  17 -24  -4   16.02    1.37
  17 -24  -4   16.16    1.76
  17 -24  -4   14.47    1.50
  17 -24  -4   13.97    1.87
  17 -24  -1  454.93   14.92
  17 -24  -1  430.18   13.71
  17 -24   2  386.87   12.90
  17 -23  -8    8.90    1.39
  17 -23  -8    5.80    1.20
  17 -23  -5   17.62    1.89
  17 -23  -5   20.39    2.03
  17 -23  -2    1.31    1.81
  17 -23  -2    2.14    1.59
  17 -23   1   31.34    3.28
  17 -23   1   29.28    2.79
  17 -23   4   22.79    1.75
  17 -22  -9    1.28    0.96
  17 -22  -9    0.32    0.88
  17 -22  -6   23.94    2.15
  17 -22  -6   27.67    2.28
  17 -22  -3   69.74    3.56
  17 -22  -3   68.32    2.98
  17 -22  -3   70.53    3.33
  17 -22  -3   72.79    3.59
  17 -22   0   30.69    2.54
  17 -22   0   26.00    1.91
  17 -22   3   39.92    2.57
  17 -21  -7  137.52    5.44
  17 -21  -7  126.69    5.25
  17 -21  -4   87.18    3.57
  17 -21  -4   81.61    3.92
  17 -21  -4   86.44    4.26
  17 -21  -1  847.00   26.63
  17 -21   2  663.45   21.09
  17 -20  -8    7.16    1.35
  17 -20  -5   16.52    1.97
  17 -20  -2  150.21    5.52
  17 -20  -2  153.20    5.69
  17 -20   1   86.30    3.62
  17 -20   4    2.48    1.06
  17 -19  -9   45.32    2.35
  17 -19  -6   28.53    2.30
  17 -19  -6   28.82    2.26
  17 -19  -3   39.31    2.24
  17 -19  -3   38.60    2.00
  17 -19  -3   34.81    2.26
  17 -19   3   74.70    3.14
 -19   2   6   10.90    1.76
  17 -18  -7   58.14    3.05
  17 -18  -4  117.26    4.85
  17 -18  -4  121.24    4.90
 -18   1   5   36.84    2.89
  17 -18   8  145.57    5.48
  17 -17  -8    1.98    1.50
  17 -17  -8    1.15    1.33
  17 -17  -5  161.38    6.36
  17 -17  -5  161.40    6.22
  17 -17   4  101.49    3.86
 -17   0   4   98.62    4.87
 -17   0   7  211.44    7.94
  17 -17   7  205.96    7.54
 -17   0   7  216.91    8.18
  17 -16  -9   71.29    3.13
  17 -16  -6  102.62    4.42
 -16  -1   6   31.13    2.84
 -16  -1   6   31.20    2.77
  17 -16   9    8.15    1.26
  17 -15  -7  104.83    4.57
  17 -15  -7  104.30    4.42
  17 -15  -4   33.99    2.13
 -15  -2   5    1.04    2.00
 -15  -2   5    1.53    1.52
  17 -15   8  196.49    7.22
 -15  -2   8  199.65    7.57
  17 -14  -8   11.87    1.62
  17 -14  -8    7.03    1.37
  17 -14  -5  231.28    8.55
  17 -14  -5  248.74    8.52
 -14  -3   7  291.02   10.65
 -14  -3   7  303.00   10.98
  17 -14   7  287.81   10.13
  17 -14  10   65.09    2.82
  17 -13  -9   41.24    2.22
  17 -13  -6  115.63    4.94
  17 -13  -6  120.71    5.23
 -13  -4   6   45.83    3.43
  17 -13   6   44.46    2.56
 -13  -4   6   48.56    3.51
  17 -13   9    5.67    1.29
 -13  -4   9    9.28    1.77
  17 -12 -10   78.88    3.22
  17 -12  -7   42.52    2.55
  17 -12  -7   37.16    2.36
  17 -12  -4   16.47    1.50
 -12  -5   5    1.20    1.48
 -12  -5   5   -0.19    2.04
 -12  -5   8   75.55    4.07
  17 -12   8   76.78    3.67
  17 -11  -8   19.19    1.74
  17 -11  -5  413.26   13.61
  17 -11   7  465.15   14.86
 -11  -6   7  441.96   15.49
 -11  -6   7  430.31   15.79
  17 -11  10   69.22    3.09
  17 -10  -6   18.75    1.93
  17 -10  -6   19.04    1.94
 -10  -7   6   50.61    3.82
  17 -10   6   50.02    2.52
  17 -10   6   52.07    2.40
 -10  -7   9    5.30    1.79
  17 -10   9    8.31    1.51
  17  -9 -10   29.30    1.67
  17  -9  -7    3.22    1.26
  -9  -8   5    2.86    2.18
  17  -9   5    2.87    0.76
  17  -9   5    2.10    0.71
  17  -9   5    0.24    0.93
  -9  -8   5    1.74    1.52
  -9  -8   8   17.17    2.39
  17  -9   8   21.32    1.89
  17  -9  11    8.02    0.92
  17  -8  -5  893.02   28.11
  -8  -9   7  744.15   24.04
  -8  -9   7  712.51   24.34
  17  -8   7  731.11   23.06
  17  -8  10  168.39    6.12
  17  -7  -9    1.35    1.12
  17  -7  -6   37.04    2.35
  17  -7   6   72.18    3.20
  -7 -10   6   64.45    3.90
  17  -7   6   63.35    3.09
  17  -7   9   18.78    1.89
  -7 -10   9   14.90    2.20
  17  -6 -10   -0.83    0.72
  17  -6   5   59.10    2.67
  -6 -11   5   56.47    3.98
  17  -6   5   58.97    2.83
  17  -6   8   40.65    2.28
  17  -6  11    6.75    0.97
  -5 -12  -8   38.94    2.28
  17  -5  -8   37.64    2.31
  -5 -12   4  426.15   14.81
  17  -5   4  429.16   15.65
  17  -5   7  694.82   22.31
  -5 -12   7  703.19   23.09
  17  -5   7  713.55   22.32
  -5 -12   7  687.32   23.40
  17  -5  10  133.47    5.09
  17  -4  -9   14.99    1.34
  17  -4  -6    1.43    1.71
  17  -4   3    9.22    1.88
  -4 -13   3    8.76    1.74
  -4 -13   6   15.13    2.54
  -4 -13   6   13.99    2.87
  17  -4   6   13.96    1.82
  17  -4   6   12.59    1.51
  17  -4   9   17.01    1.74
  -4 -13   9   16.91    2.09
  -3 -14 -10   14.59    1.33
  17  -3  -7   90.90    3.95
  17  -3  -4   94.57    3.85
  -3 -14  -4   88.18    4.52
  17  -3   2  107.85    5.09
  -3 -14   5   49.27    3.09
  17  -3   5   46.15    2.47
  17  -3   5   55.51    4.22
  -3 -14   5   50.52    3.71
  17  -3   5   45.97    2.70
  -3 -14   8    0.14    1.69
  17  -3   8    0.35    1.15
  17  -3  11    2.40    0.79
  -2 -15  -8   26.44    2.04
  17  -2  -8   26.35    1.82
  17  -2  -5  632.28   20.32
  -2 -15  -2 1005.84   32.57
  -2 -15   1   72.49    3.99
  17  -2   1   66.98    3.48
  17  -2   4  306.37   11.92
  -2 -15   4  302.98   11.00
  17  -2   4  295.05   10.13
  -2 -15   7  478.96   16.56
  17  -2   7  472.89   15.71
  -2 -15   7  488.26   16.32
  17  -2   7  482.12   15.70
  -1 -16  -9   26.85    1.68
  17  -1  -6   22.57    1.92
  -1 -16  -3   14.94    1.93
  -1 -16   0  127.08    5.91
  17  -1   3  104.11    5.36
  -1 -16   3  106.46    5.15
  -1 -16   6    1.14    1.76
  17  -1   6    2.17    2.64
  17  -1   6    0.69    1.22
  -1 -16   6    2.62    1.86
  17  -1   6   -0.20    1.38
  17  -1   9   34.86    2.00
   0 -17 -10   57.35    2.63
   0 -17  -7  222.29    7.97
  17   0  -7  217.03    7.65
   0 -17  -4  114.77    5.31
  17   0  -4  112.42    4.45
   0 -17  -1   34.32    2.84
   0 -17   2  318.31   11.83
  17   0   2  322.34   11.74
  17   0   5  174.55    8.28
   0 -17   5  184.33    7.04
  17   0   8    2.47    1.30
   1 -18  -8   18.53    1.85
  17   1  -5  465.73   15.17
   1 -18  -2  607.62   20.70
   1 -18   1   25.79    2.59
  17   1   1   28.32    2.12
   1 -18   4  214.43    8.38
  17   1   4  226.47    9.31
   1 -18   4  211.98    8.48
  17   1   4  211.17    7.64
  17   1   7  309.85   10.58
  17   1  10   62.02    2.79
   2 -19  -9   74.57    3.04
  17   2  -6   79.40    3.40
  17   2  -3    5.55    1.11
  17   2  -3    6.58    1.14
   2 -19   0  190.16    8.05
  17   2   3  159.07    7.16
   2 -19   3  161.48    7.00
   2 -19   6    7.59    1.78
  17   2   6    7.47    1.42
  17   2   6    7.55    1.49
   3 -20 -10   31.40    1.66
   3 -20  -7  126.98    5.13
   3 -20  -1  117.91    5.63
  17   3  -1  106.61    4.18
  17   3   2  424.14   15.46
   3 -20   2  463.73   15.89
  17   3   5  225.36   10.12
   3 -20   5  233.68    8.46
  17   3   5  221.06    8.09
   4 -21  -8   24.58    1.79
   4 -21  -2  250.63    9.69
  17   4  -2  233.10    8.12
   4 -21   1    8.28    2.01
  17   4   4   96.90    5.75
   4 -21   4  110.66    4.54
   4 -21   4   97.95    5.12
  17   4   4  107.51    4.51
  17   4   7  128.10    5.10
  17   4   7  129.28    5.07
  17   4  10   15.01    1.12
   5 -22  -9   74.77    3.16
   5 -22  -9   62.64    2.80
  17   5  -6  141.05    5.27
   5 -22  -6  145.38    5.64
   5 -22  -3    5.89    2.78
   5 -22  -3   10.19    3.00
  17   5  -3    6.39    2.14
  17   5   0  199.46    6.91
   5 -22   0  196.92    8.43
  17   5   3  354.35   13.86
   5 -22   3  386.11   12.85
   5 -22   3  374.71   13.75
  17   5   6   95.88    4.17
   6 -23  -7  191.74    6.95
   6 -23  -4  112.10    4.66
  17   6  -4  109.24    4.32
  17   6  -1   44.24    2.39
   6 -23  -1   43.96    3.99
   6 -23  -1   49.84    4.29
   6 -23   2  398.44   13.46
   6 -23   2  383.06   14.43
  17   6   5  284.30    9.67
  17   6   5  276.24    9.59
  17   6   8   17.43    1.43
   7 -24  -8   42.89    2.15
   7 -24  -5  116.76    4.77
   7 -24  -2   21.97    2.67
  17   7  -2   18.72    1.65
   7 -24  -2   22.38    2.71
   7 -24   1   44.35    3.08
   7 -24   1   48.04    3.71
   7 -24   4  134.12    5.13
  17   7   4  124.75    4.98
  17   7   7   54.60    2.73
  17   7   7   60.29    2.74
   8 -25  -9   98.75    3.34
   8 -25  -9   78.91    3.08
   8 -25  -6  192.31    7.00
  17   8  -3   25.31    1.67
   8 -25  -3   27.09    2.27
   8 -25   0  101.81    4.92
   8 -25   0  101.29    5.45
   8 -25   3  183.26    7.00
  17   8   3  189.65    6.73
  17   8   6   26.72    1.95
   9 -26  -7  164.02    6.13
   9 -26  -4  152.80    5.86
   9 -26  -4  158.72    5.88
   9 -26  -1    0.22    1.79
   9 -26  -1    0.98    1.71
   9 -26   2  149.44    6.02
  17   9   5  147.71    5.53
  17   9   8    2.65    0.86
  10 -27  -8   43.15    2.18
  10 -27  -8   44.76    2.19
  10 -27  -5   18.16    1.72
  10 -27  -2    9.47    1.78
  10 -27  -2    7.42    1.14
  10 -27   1   62.93    3.45
  10 -27   4   28.62    1.95
  17  10   4   27.05    1.73
  17  10   7    0.82    0.83
  11 -28  -6  115.52    4.28
  11 -28  -6  110.66    4.50
  11 -28  -3   33.12    2.32
  11 -28  -3   35.80    2.05
  11 -28   0   64.96    3.47
  11 -28   3  234.55    8.33
  17  11   6  113.61    4.23
  17  11   6  116.93    4.33
  12 -29  -7   90.65    3.50
  12 -29  -4   76.16    3.13
  12 -29  -4   66.51    3.00
  12 -29  -4   67.47    3.07
  12 -29  -1    5.65    1.60
  12 -29   2  164.38    6.31
  17  12   5  196.30    6.75
  13 -30  -5    2.00    0.82
  13 -30  -5    3.87    1.30
  13 -30  -2   95.31    4.18
  13 -30   1  188.30    7.02
  17  13   4   26.25    1.57
  13 -30   4   21.68    1.56
  17  13   7   17.25    0.99
  14 -31  -6  158.47    5.56
  14 -31  -3   51.22    2.59
  14 -31  -3   53.63    2.64
  14 -31   0   31.73    2.48
  17  14   3  142.85    5.02
  14 -31   3  138.31    5.21
  17  14   6   58.26    2.28
  15 -32  -4   89.51    3.28
  15 -32  -4   82.97    3.43
  15 -32  -1    1.37    1.34
  15 -32   2   73.57    3.28
  17  15   5  103.31    3.65
  16 -33  -5    2.01    0.86
  16 -33  -2  155.33    5.60
  16 -33   1  189.57    6.72
  17 -34  -3   21.48    1.38
  17 -34   0   14.25    1.49
  17 -34   3   72.37    2.84
  18 -35  -1   10.14    1.20
  18 -35   2   10.13    1.11
  18 -34  -2  188.37    6.47
  18 -34   1   15.05    1.39
  18 -33  -3   55.91    2.48
  18 -33   0   62.10    2.93
  18 -33   3    1.22    0.92
  18 -32  -4   22.71    1.36
  18 -32  -4   20.41    1.43
  18 -32  -1   17.76    1.76
  18 -32   2  114.43    4.44
  18 -31  -5  152.85    5.44
  18 -31  -2  253.29    8.72
  18 -31   1   35.66    2.38
  18 -30  -6   -0.06    0.96
  18 -30  -3   22.00    1.80
  18 -30  -3   20.44    1.66
  18 -30   0   48.36    2.75
  18 -30   3    7.73    1.42
  18 -29  -7  135.63    4.68
  18 -29  -4   76.43    3.18
  18 -29  -4   71.87    3.38
  18 -29  -1   32.97    2.26
  18 -29   2  304.28   10.36
  18 -28  -8    0.31    0.57
  18 -28  -8    0.90    0.69
  18 -28  -5   65.98    3.02
  18 -28  -5   67.55    3.23
  18 -28  -2  136.29    5.15
  18 -28  -2  125.09    4.95
  18 -28   1   14.62    1.73
  18 -28   4   36.21    2.05
  18 -27  -6   40.51    2.25
  18 -27  -6   41.59    2.40
  18 -27  -3    0.84    1.19
  18 -27  -3    2.39    1.30
  18 -27   0   98.37    4.28
  18 -27   3  129.91    5.03
  18 -26  -7  245.33    8.41
  18 -26  -7  248.84    8.45
  18 -26  -4  167.02    6.05
  18 -26  -4  166.45    6.22
  18 -26  -4  172.71    6.44
  18 -26  -1   10.48    1.63
  18 -26   2  352.55   11.86
  18 -25  -8    3.63    1.01
  18 -25  -8    1.60    1.00
  18 -25  -5    9.24    1.55
  18 -25  -5   11.94    1.72
  18 -25  -2   73.22    3.44
  18 -25  -2   73.81    3.44
  18 -25   1   43.64    2.66
  18 -25   4    3.58    1.16
  18 -24  -6   14.50    1.81
  18 -24  -3   18.75    1.73
  18 -24  -3   16.28    1.84
  18 -24  -3   21.53    1.94
  18 -24   0   69.02    3.43
  18 -24   3   98.14    4.06
  18 -23  -7  316.44   10.70
  18 -23  -7  309.95   10.63
  18 -23  -4  231.84    8.18
  18 -23  -4  238.76    8.55
  18 -23  -4  253.61    8.71
  18 -23  -1    8.98    2.24
  18 -23  -1    7.35    1.14
  18 -23   2  421.36   13.90
  18 -22  -8   26.10    1.81
  18 -22  -5   49.52    2.86
  18 -22  -2   27.49    2.70
  18 -22  -2   29.71    2.03
  18 -22   1   22.62    1.89
  18 -22   4   82.06    3.58
  18 -21  -9   23.86    1.59
  18 -21  -6   21.85    2.08
  18 -21  -6   21.11    2.03
  18 -21  -3    6.96    1.24
  18 -21  -3    8.22    1.93
  18 -21  -3   10.51    2.41
  18 -21   0  116.10    4.57
  18 -21   3  164.26    6.07
  18 -20  -7  288.80   10.21
  18 -20  -7  296.36   10.12
  18 -20  -4  230.33    8.49
  18 -20  -4  246.06    8.62
  18 -20  -1    8.54    1.23
  18 -20   2  495.90   15.99
 -20   2   5  516.05   17.27
  18 -19  -8  109.35    4.51
  18 -19  -8  112.64    4.44
  18 -19  -5    4.58    1.53
  18 -19  -2  132.28    4.87
  18 -19  -2  128.39    4.98
  18 -19   1  361.48   11.90
  18 -19   4  134.68    4.95
 -19   1   4  130.14    5.84
  18 -18  -9   29.61    1.81
  18 -18  -6  149.69    6.06
  18 -18  -6  156.17    6.02
  18 -18  -3  149.28    5.38
  18 -18  -3  144.31    5.58
  18 -18  -3  155.14    5.69
  18 -18   3  108.43    4.18
 -18   0   6   76.29    4.03
  18 -17  -7  308.81   10.61
  18 -17  -4  211.67    7.66
 -17  -1   5  457.80   15.95
  18 -17   8   18.23    1.65
  18 -16  -8  123.76    4.95
  18 -16  -8  118.58    4.78
  18 -16  -5    2.99    1.62
  18 -16  -5    0.61    1.53
  18 -16   4   78.83    3.20
 -16  -2   7   31.35    2.69
  18 -16   7   29.90    2.03
 -16  -2   7   26.24    2.53
  18 -15  -9    5.22    1.12
  18 -15  -6   83.65    3.84
 -15  -3   6  177.66    7.23
 -15  -3   6  160.42    6.74
  18 -15   6  162.54    6.13
  18 -15   9   24.55    1.75
  18 -14 -10   22.34    1.54
  18 -14  -7  170.90    6.31
  18 -14  -7  155.81    6.13
  18 -14  -4  141.09    5.44
 -14  -4   5  221.24    9.07
 -14  -4   5  225.72    8.73
 -14  -4   8   33.10    2.68
  18 -14   8   32.20    2.15
  18 -13  -8  173.60    6.42
  18 -13  -5    0.10    2.11
 -13  -5   7  101.69    5.09
 -13  -5   7  100.29    4.78
  18 -13   7   93.39    4.18
  18 -13  10  174.89    6.09
  18 -12  -6   25.71    2.14
  18 -12  -6   26.59    2.22
 -12  -6   6   37.23    3.22
 -12  -6   6   30.71    3.22
 -12  -6   9   15.22    1.94
  18 -12   9   14.33    1.59
  18 -11 -10   30.60    1.68
  18 -11  -7  121.46    4.93
  18 -11  -4   76.21    3.42
  18 -11  -4   83.78    3.51
 -11  -7   5   94.35    4.50
 -11  -7   5   84.87    5.01
  18 -11   5   90.34    3.72
 -11  -7   8   16.04    2.22
  18 -11   8   14.02    1.69
  18 -10  -5   33.62    2.17
  18 -10  -5   34.03    2.17
 -10  -8   4   51.28    3.02
 -10  -8   7  160.89    7.18
 -10  -8   7  164.12    6.86
  18 -10   7  163.25    5.81
  18 -10  10  278.65    9.32
  18  -9  -9    4.32    1.19
  18  -9  -6   -0.78    1.65
  -9  -9   6    7.54    2.57
  18  -9   6    8.43    1.23
  -9  -9   6    6.58    2.76
  18  -9   6    6.32    1.05
  -9  -9   9   18.74    2.21
  18  -9   9   20.83    1.91
  18  -8 -10    3.46    0.82
  -8 -10   5    0.69    1.66
  18  -8   5    0.07    0.76
  18  -8   5    1.23    1.07
  -8 -10   8    2.25    1.96
  18  -8   8    0.99    1.21
  18  -7  -8  331.66   11.24
  18  -7  -5   14.52    1.65
  -7 -11   4  151.19    5.85
  18  -7   4  134.10    5.21
  18  -7   7  169.54    6.17
  18  -7   7  168.53    6.13
  18  -7  10  331.64   10.95
  18  -6  -9    5.07    1.10
  18  -6   6    1.33    1.27
  18  -6   6   -1.14    1.47
  -6 -12   6    0.39    2.14
  18  -6   6    1.78    1.52
  18  -6   9    8.98    1.42
  18  -5  -7   10.01    1.60
  -5 -13  -4   46.15    3.11
  18  -5  -4   44.44    2.47
  -5 -13   5   12.01    2.75
  18  -5   5   10.28    1.33
  -5 -13   5    9.96    2.52
  18  -5   5   10.78    2.15
  18  -5   8   13.04    1.43
  -5 -13   8   12.27    2.24
  -4 -14  -8  254.26    8.96
  18  -4  -8  262.97    8.89
  18  -4  -5    6.63    2.85
  18  -4   4  178.57    7.74
  -4 -14   4  156.68    6.83
  18  -4   7  175.92    6.37
  18  -4   7  178.96    6.42
  -4 -14   7  160.13    7.01
  -4 -14   7  169.28    7.34
  18  -4  10  302.93   10.08
  -3 -15  -9    7.15    1.01
  18  -3  -9    6.37    0.91
  18  -3  -6   65.44    3.25
  18  -3  -3   65.42    3.01
  -3 -15  -3   71.64    4.02
  18  -3   3   69.67    4.20
  -3 -15   3   70.10    3.99
  18  -3   6   31.77    3.68
  18  -3   6   34.56    2.21
  -3 -15   6   36.16    3.10
  -3 -15   6   32.91    2.85
  18  -3   6   29.52    2.23
  18  -3   9    1.03    1.21
  -2 -16 -10    0.80    1.04
  18  -2  -7   78.83    3.52
  -2 -16  -4  252.28    9.82
  18  -2  -4  257.41    8.85
  -2 -16  -1  125.56    5.94
  18  -2   2    7.46    1.51
  -2 -16   2    5.51    1.74
  18  -2   5  118.02    4.58
  18  -2   5  102.07    6.31
  18  -2   5  103.21    4.66
  -2 -16   5  117.30    5.59
  18  -2   8   41.59    2.40
  -1 -17  -8  164.93    6.18
  18  -1  -8  163.55    5.80
  18  -1  -5   37.96    2.43
  -1 -17  -2  747.82   24.97
  -1 -17   1  901.28   29.61
  18  -1   4  126.29    6.34
  -1 -17   4  123.51    5.67
  18  -1   4  118.68    4.86
  18  -1   7   52.47    2.82
  -1 -17   7   55.70    3.46
  18  -1   7   54.42    2.89
   0 -18  -9    0.59    0.83
  18   0  -6   76.95    3.41
   0 -18  -3  105.92    5.34
  18   0  -3  110.90    4.28
  18   0  -3  108.17    4.33
   0 -18   0    2.79    1.65
  18   0   3  159.80    7.24
   0 -18   3  162.93    7.09
  18   0   6  146.89    5.85
   0 -18   6  159.62    6.49
  18   0   9   27.37    1.67
   1 -19 -10    1.75    0.86
  18   1  -7   71.01    3.08
   1 -19  -7   73.14    3.50
  18   1  -4  247.48    8.51
  18   1  -4  230.85    8.34
  18   1  -1   99.34    3.94
   1 -19  -1   99.77    5.21
  18   1   2   34.51    2.70
   1 -19   2   38.25    3.04
  18   1   5  283.23   10.17
   1 -19   5  306.26   10.82
  18   1   5  301.35   12.27
  18   1   8  177.58    6.42
   2 -20  -8   90.18    3.82
  18   2  -5    0.60    1.15
   2 -20  -2  309.37   11.54
  18   2  -2  294.42   10.01
  18   2  -2  295.92    9.94
  18   2   1  464.26   14.95
   2 -20   1  464.59   16.63
  18   2   4   52.10    4.26
   2 -20   4   58.30    3.25
  18   2   4   53.54    2.96
   2 -20   4   60.55    3.70
   2 -20   4   52.51    3.33
  18   2   7   57.24    2.98
  18   2  10   94.90    3.51
   3 -21  -9    1.75    1.30
   3 -21  -9    1.42    0.97
  18   3  -3  247.50    8.88
   3 -21  -3  247.47   10.10
   3 -21   0   38.97    3.27
  18   3   0   38.64    2.09
  18   3   3   78.27    4.62
   3 -21   3   78.86    4.57
   3 -21   3   75.54    3.92
   3 -21   6  183.64    7.08
  18   3   6  188.64    6.93
  18   3   6  187.93    6.88
  18   4  -7   44.27    2.16
   4 -22  -7   42.02    2.65
  18   4  -4  250.40    8.52
   4 -22  -4  237.81    8.84
   4 -22  -1  158.16    7.43
  18   4  -1  163.27    5.88
   4 -22   2    5.43    2.55
  18   4   5  127.38    5.17
  18   4   5  136.16    5.23
  18   4   8   92.66    3.74
   5 -23  -8   12.94    1.32
  18   5  -5   32.32    1.97
  18   5  -2  171.90    6.17
   5 -23  -2  164.40    6.65
   5 -23  -2  161.06    7.50
   5 -23   1   86.60    5.40
   5 -23   4    8.54    1.50
  18   5   4    3.90    2.14
  18   5   4    7.82    1.46
  18   5   7   91.06    3.77
  18   5   7   86.69    3.73
   6 -24  -9    0.62    0.98
   6 -24  -9    1.45    0.81
  18   6  -3  352.82   11.61
   6 -24  -3  354.13   12.09
   6 -24  -3  342.69   13.08
   6 -24   0   76.83    3.96
   6 -24   0   64.72    4.44
   6 -24   3   92.48    4.16
  18   6   3   87.23    3.74
  18   6   6  210.43    7.54
  18   7  -4  196.62    6.79
   7 -25  -4  192.50    7.11
  18   7  -1  143.95    5.38
   7 -25  -1  145.60    6.00
   7 -25  -1  138.30    6.88
   7 -25   2    8.51    1.92
   7 -25   2    6.17    2.07
  18   7   5  158.63    5.88
  18   7   5  156.21    5.77
  18   7   8  122.34    4.40
   8 -26  -8    7.55    1.39
   8 -26  -8    6.72    1.36
   8 -26  -5   86.67    3.84
  18   8  -2  113.57    4.30
   8 -26  -2  109.17    4.89
   8 -26   1   20.77    2.22
   8 -26   1   18.19    2.58
   8 -26   4   10.35    1.53
  18   8   4   15.36    1.48
  18   8   7   29.48    1.69
  18   8   7   26.53    1.67
   9 -27  -6   85.37    3.57
   9 -27  -3  261.33    9.18
   9 -27  -3  280.15    9.52
   9 -27   0  100.97    4.71
   9 -27   3   30.44    2.31
  18   9   3   30.50    1.93
  18   9   6  200.45    6.99
  18   9   6  200.03    6.94
  10 -28  -7   13.28    1.13
  10 -28  -7   14.73    1.43
  10 -28  -7   14.75    1.54
  10 -28  -4  119.34    4.66
  10 -28  -4  119.00    4.63
  10 -28  -1  127.30    5.38
  10 -28   2   -1.10    1.50
  18  10   2    0.60    0.95
  18  10   5   66.59    2.96
  18  10   8   56.65    2.13
  11 -29  -8   31.94    1.48
  11 -29  -5  103.98    3.89
  11 -29  -5   94.53    3.99
  11 -29  -2   29.73    2.30
  11 -29  -2   27.14    1.63
  11 -29   1   25.78    2.29
  18  11   4  100.57    3.96
  11 -29   4   99.26    3.96
  18  11   7   25.11    1.41
  12 -30  -6   73.73    3.17
  12 -30  -3  276.74    9.25
  12 -30  -3  262.47    8.87
  12 -30   0  169.76    6.57
  12 -30   3    1.67    1.35
  18  12   6  134.30    4.61
  18  12   6  128.64    4.51
  13 -31  -4  115.95    4.31
  13 -31  -4  122.78    4.64
  13 -31  -1  129.52    5.23
  13 -31   2    7.86    1.56
  18  13   5   38.22    1.89
  18  13   5   41.44    1.82
  14 -32  -5   87.46    3.42
  14 -32  -2    3.87    1.32
  14 -32   1  107.78    4.44
  18  14   4  162.75    5.50
  15 -33  -6   35.04    1.51
  15 -33  -3  144.67    5.13
  15 -33   0   53.15    2.71
  18  15   3   15.27    1.04
  15 -33   3   16.15    1.30
  16 -34  -1   73.36    3.13
  16 -34   2   13.65    1.29
  17 -35  -2    7.07    1.05
  17 -35   1   77.65    3.13
  18 -36   0   17.61    1.44
  19 -37  -1   18.26    1.17
  19 -37   2   12.30    0.85
  19 -36  -2  151.73    5.15
  19 -36   1  208.06    6.93
  19 -35  -3    0.89    0.81
  19 -35   0   21.09    1.55
  19 -35   3   19.96    1.25
  19 -34  -1   50.48    2.43
  19 -34   2    2.25    1.02
  19 -33  -5   -0.04    0.79
  19 -33  -2  211.84    7.27
  19 -33   1  311.27   10.33
  19 -32  -6   12.43    1.00
  19 -32  -3    0.63    0.97
  19 -32   0   20.39    1.84
  19 -32   3   48.45    2.34
  19 -31  -7   49.93    1.99
  19 -31  -4  171.04    5.98
  19 -31  -4  180.47    6.18
  19 -31  -1   97.01    4.11
  19 -31   2    2.51    1.28
  19 -30  -5    0.14    1.05
  19 -30  -2  146.54    5.50
  19 -30  -2  141.66    5.18
  19 -30   1  234.76    8.28
  19 -30   4   29.30    1.74
  19 -29  -6   23.99    1.66
  19 -29  -3   24.70    1.81
  19 -29  -3   21.52    1.74
  19 -29   0    2.09    1.41
  19 -29   3   55.06    2.74
  19 -28  -7   79.64    3.08
  19 -28  -4  298.04    9.89
  19 -28  -4  296.41   10.16
  19 -28  -1  161.03    6.11
  19 -28   2    6.58    1.42
  19 -27  -8   35.50    1.68
  19 -27  -8   38.16    1.82
  19 -27  -5    8.31    1.36
  19 -27  -5   10.64    1.64
  19 -27  -2    7.40    1.47
  19 -27  -2    8.76    1.35
  19 -27   1   84.32    3.78
  19 -27   4   54.03    2.63
  19 -26  -6   79.35    3.47
  19 -26  -3  132.11    5.11
  19 -26  -3  134.35    5.27
  19 -26   0    5.24    1.52
  19 -26   3   68.04    3.16
  19 -25  -7   75.04    3.27
  19 -25  -7   74.90    3.31
  19 -25  -4  264.75    9.11
  19 -25  -4  268.31    9.34
  19 -25  -4  280.18    9.52
  19 -25  -1  166.49    6.28
  19 -25   2    0.64    1.26
  19 -24  -8    4.98    1.05
  19 -24  -8    2.87    1.03
  19 -24  -5    6.72    1.44
  19 -24  -5    8.01    1.65
  19 -24  -2   29.82    2.18
  19 -24  -2   29.57    2.32
  19 -24   1   35.31    2.68
  19 -24   4    2.82    1.19
  19 -23  -6   27.03    2.12
  19 -23  -3   17.43    1.73
  19 -23  -3   16.44    1.65
  19 -23  -3   17.38    1.85
  19 -23   0   14.59    1.89
  19 -23   3   51.49    2.76
  19 -22  -7   77.66    3.69
  19 -22  -7   84.22    3.67
  19 -22  -4  323.31   10.78
  19 -22  -4  317.64   11.10
  19 -22  -4  335.22   11.21
  19 -22  -1  196.92    7.43
  19 -22  -1  206.54    7.10
  19 -22   2    0.60    1.69
  19 -21  -8   40.86    2.23
  19 -21  -5  149.10    5.88
  19 -21  -2   56.48    2.95
  19 -21  -2   61.27    2.89
  19 -21   1    5.08    1.25
  19 -21   4   96.74    3.97
  19 -20  -9    1.11    0.92
  19 -20  -6   98.66    4.39
  19 -20  -6  101.91    4.36
  19 -20  -3  241.25    8.60
  19 -20  -3  249.81    8.73
  19 -20  -3  270.70    9.08
  19 -20   0   40.65    2.24
  19 -20   3   35.54    2.15
 -20   1   6  119.97    5.20
  19 -19 -10   12.88    1.00
  19 -19  -7   57.38    3.04
  19 -19  -4  419.88   14.08
  19 -19  -4  425.04   14.10
  19 -19  -1  378.96   12.43
  19 -19   2   12.31    1.41
 -19   0   5  242.17    9.22
  19 -18  -8  185.37    6.71
  19 -18  -8  185.12    6.65
  19 -18  -5  272.97    9.89
  19 -18  -5  290.83    9.91
  19 -18  -2   31.80    1.89
  19 -18  -2   33.07    1.96
  19 -18   1   99.21    3.96
  19 -18   4  234.05    7.91
 -18  -1   4  225.45    9.04
 -18  -1   7   71.34    3.81
  19 -17  -9   30.40    1.81
  19 -17  -6    7.68    1.63
  19 -17  -6    7.02    1.53
  19 -17  -3  147.20    5.31
  19 -17  -3  144.43    5.48
  19 -17  -3  147.85    5.56
  19 -17   3    9.42    1.19
 -17  -2   6   82.92    4.43
  19 -16 -10   17.06    1.33
  19 -16  -7   53.80    2.93
  19 -16  -7   54.32    2.89
  19 -16  -4  381.62   12.76
 -16  -3   5  148.89    6.72
  19 -16   8  140.03    5.28
  19 -15  -8  184.61    6.77
  19 -15  -5  293.40   10.06
  19 -15  -5  282.74   10.04
  19 -15   7  102.43    4.33
 -15  -4   7  113.85    5.23
  19 -14  -6    5.49    1.47
  19 -14  -3  109.98    4.38
 -14  -5   6   41.34    3.38
  19 -14   6   36.41    2.31
  19 -14   9   46.97    2.39
  19 -13 -10   13.87    1.27
  19 -13  -7    3.89    1.26
  19 -13  -4  110.41    4.35
  19 -13  -4  100.95    4.30
 -13  -6   5   24.13    3.02
  19 -13   8   96.16    4.11
  19 -12  -8  331.37   11.15
  19 -12  -5  425.87   14.19
  19 -12   4  622.24   19.72
 -12  -7   7   65.00    3.87
  19 -12   7   60.37    3.07
 -12  -7   7   65.28    4.03
  19 -12  10   41.81    2.07
  19 -11  -9    8.26    1.37
  19 -11  -6    0.10    1.29
  19 -11   6    2.02    1.04
 -11  -8   6    4.52    2.00
 -11  -8   6    4.80    2.39
  19 -11   9   16.66    1.61
  19 -10 -10    0.52    0.78
  19 -10  -7   25.81    2.00
  19 -10  -4  113.18    4.47
 -10  -9   5    3.52    2.48
 -10  -9   5    2.01    3.62
  19 -10   5    5.54    0.96
  19 -10   5    4.06    1.58
 -10  -9   8    7.35    2.13
  19 -10   8    7.43    1.43
 -10  -9   8   11.61    2.18
  19  -9  -8  448.61   14.78
  19  -9  -5  532.17   17.39
  19  -9   4  896.10   28.11
  -9 -10   7  155.07    6.48
  -9 -10   7  135.71    6.65
  19  -9   7  151.92    5.44
  19  -9  10   25.95    1.71
  19  -8  -9    0.64    1.02
  19  -8   6    6.30    1.35
  19  -8   6    6.98    1.26
  -8 -11   6    5.60    2.10
  19  -8   9    1.27    1.22
  19  -7 -10   -0.25    0.60
  19  -7 -10   -0.08    0.65
  19  -7  -7    0.73    1.38
  19  -7  -4    8.86    1.39
  19  -7   5    1.05    1.39
  19  -7   5    1.72    2.03
  -7 -12   5    2.07    2.44
  19  -7   8    5.30    1.11
  -6 -13  -8  539.02   17.74
  19  -6  -8  567.82   17.83
  19  -6  -5  820.19   26.11
  -6 -13   4 1001.54   32.53
  19  -6   4 1004.14   31.45
  -6 -13   7  143.71    6.48
  19  -6   7  141.57    5.35
  19  -6   7  138.36    5.29
  19  -6  10   54.19    2.55
  19  -5  -9    3.71    0.93
  19  -5  -6    1.87    1.38
  -5 -14  -3   25.10    2.60
  19  -5  -3   28.14    1.84
  -5 -14   3   -0.37    1.43
  -5 -14   6   10.32    2.48
  19  -5   6    9.38    1.39
  19  -5   6   10.19    1.34
  19  -5   9    4.82    1.23
  -4 -15 -10   22.10    1.44
  19  -4  -7    7.99    1.48
  19  -4  -4   33.27    2.14
  -4 -15  -4   33.82    2.79
  -4 -15   2   23.96    2.46
  -4 -15   5    1.58    2.30
  19  -4   5    2.48    1.28
  19  -4   8   14.87    1.52
  -3 -16  -8  424.63   14.42
  19  -3  -8  453.72   14.25
  19  -3  -5  509.81   16.69
  19  -3  -2    2.49    0.93
  -3 -16  -2    1.22    1.67
  -3 -16   1  729.40   24.47
  19  -3   4  827.80   28.09
  -3 -16   4  872.29   27.44
  19  -3   4  808.82   26.26
  19  -3   7  162.49    6.02
  19  -3   7  161.20    6.05
  -3 -16   7  161.82    6.88
  19  -3  10   17.01    1.51
  -2 -17  -9   35.83    1.82
  19  -2  -6   10.34    1.51
  19  -2  -3   72.07    3.14
  -2 -17  -3   67.58    4.13
  19  -2  -3   68.20    3.20
  -2 -17   0  277.89   10.83
  19  -2   3   41.53    3.11
  -2 -17   3   40.73    3.04
  19  -2   6   28.56    2.02
  19  -2   6   20.96    2.03
  -2 -17   6   22.84    2.64
  19  -2   9   48.58    2.46
  -1 -18 -10   34.78    1.71
  19  -1  -7    0.55    1.01
  19  -1  -4  133.36    5.46
  19  -1  -4  140.21    5.84
  19  -1  -1  386.62   12.49
  19  -1  -1  375.71   12.51
  -1 -18  -1  375.02   13.95
  19  -1   2  132.99    6.00
  -1 -18   2  135.72    6.30
  -1 -18   5    5.24    1.99
  19  -1   5    8.81    2.58
  19  -1   5    5.21    1.57
  19  -1   8  105.63    4.21
   0 -19  -8  258.89    8.89
  19   0  -5  242.88    8.19
  19   0  -5  222.76    8.15
   0 -19  -2    9.77    2.04
  19   0  -2   10.27    1.29
  19   0  -2    8.15    1.27
  19   0   1  397.48   13.04
   0 -19   1  410.72   14.71
   0 -19   4  416.68   15.14
  19   0   4  418.32   15.92
  19   0   4  431.74   14.19
   0 -19   4  433.05   15.00
  19   0   7   66.60    3.16
   1 -20  -9   50.23    2.20
  19   1  -6    1.33    1.05
   1 -20  -3   98.20    5.50
  19   1  -3   99.82    4.16
  19   1   0  235.95    8.00
   1 -20   0  222.39    9.49
  19   1   3   35.09    2.95
   1 -20   3   43.15    3.25
   1 -20   6   29.46    2.48
  19   1   6   28.46    2.18
   2 -21  -7   25.86    2.18
   2 -21  -4   35.73    2.81
   2 -21  -1  237.80    9.55
  19   2  -1  229.23    7.89
  19   2  -1  221.94    7.82
   2 -21   2  144.34    6.90
   2 -21   5   -0.14    1.41
  19   2   5   -0.10    1.24
  19   2   5    0.92    1.29
  19   2   8   73.50    3.17
   3 -22  -8  106.76    4.15
  19   3  -2    3.74    1.91
  19   3  -2    5.45    1.64
   3 -22  -2    2.75    2.93
   3 -22   1  182.41    8.46
   3 -22   4  221.70    8.10
  19   3   4  209.35    9.56
  19   3   4  232.99    8.09
  19   3   7   19.13    1.77
   4 -23  -9   62.32    2.59
   4 -23  -9   46.59    2.26
  19   4  -6    2.52    1.01
  19   4  -3  217.27    7.58
   4 -23  -3  218.03    8.05
   4 -23  -3  202.04    8.84
  19   4   0  485.76   15.66
   4 -23   0  478.99   17.51
   4 -23   3  122.53    5.24
   4 -23   3  122.48    6.03
  19   4   6   33.37    2.26
   5 -24  -7   27.38    1.91
  19   5  -4   27.21    1.82
   5 -24  -4   26.47    2.15
  19   5  -1  188.66    6.77
   5 -24  -1  185.98    7.59
   5 -24  -1  191.42    8.34
   5 -24   2  159.14    6.38
   5 -24   2  157.87    7.30
  19   5   5    3.34    1.29
  19   5   5    3.21    1.21
  19   5   8   40.75    2.01
   6 -25  -8   42.77    2.07
  19   6  -5    0.20    0.83
   6 -25  -5   -0.10    1.29
  19   6  -2   99.75    3.96
   6 -25  -2  104.00    4.67
   6 -25   1  166.91    6.79
   6 -25   1  174.59    7.81
   6 -25   4   58.70    2.98
  19   6   4   59.52    2.94
  19   6   7    4.93    1.06
  19   6   7    5.64    1.12
   7 -26  -6   21.22    1.76
  19   7  -3   98.95    3.88
   7 -26  -3   96.75    4.41
   7 -26   0  286.20   10.25
   7 -26   0  281.40   11.24
   7 -26   3   80.70    3.95
  19   7   3   92.00    3.78
  19   7   6   19.67    1.64
   8 -27  -7   21.12    1.73
   8 -27  -4   14.24    1.60
   8 -27  -4   14.11    1.51
   8 -27  -1  119.44    5.22
   8 -27   2   86.08    4.10
  19   8   5    1.20    1.20
  19   8   8   58.45    2.29
   9 -28  -8    7.48    0.83
   9 -28  -8    6.96    0.90
   9 -28  -5    8.29    1.23
   9 -28  -2   75.93    3.74
   9 -28   1   75.48    3.79
  19   9   4    6.51    1.12
   9 -28   4    8.33    1.35
  19   9   7   14.69    1.19
  10 -29  -6   25.85    1.57
  10 -29  -6   29.14    1.79
  10 -29  -3   81.93    3.72
  10 -29  -3   80.90    3.40
  10 -29   0  403.03   13.67
  10 -29   3  259.92    8.89
  19  10   3  249.39    8.52
  19  10   6    1.84    0.79
  19  10   6    1.38    0.80
  11 -30  -7    5.70    0.81
  11 -30  -4   16.45    1.41
  11 -30  -4   16.25    1.29
  11 -30  -1  129.61    5.34
  11 -30   2  127.77    5.13
  19  11   5    8.53    1.06
  12 -31  -5   75.60    2.93
  12 -31  -5   79.07    3.31
  12 -31  -2  153.64    5.86
  12 -31   1   24.18    2.20
  19  12   4   32.21    1.72
  13 -32  -6   17.85    1.18
  13 -32  -3   58.75    2.70
  13 -32   0  233.07    8.25
  19  13   3  107.73    3.97
  13 -32   3  108.92    4.14
  19  13   6    0.69    0.53
  14 -33  -1   53.40    2.69
  14 -33   2   82.92    3.41
  19  14   5   16.59    1.07
  15 -34  -2  123.07    4.51
  15 -34   1    6.59    1.24
  19  15   4   42.91    1.79
  16 -35  -3   36.93    1.74
  16 -35   0  105.50    3.99
  16 -35   3   34.29    1.61
  17 -36  -1    2.28    1.06
  17 -36   2   26.52    1.46
  18 -37  -2  141.72    4.67
  18 -37   1   11.27    0.95
  19 -38   0   23.03    1.16
  20 -37   0    1.49    0.78
  20 -36  -1   20.62    1.50
  20 -36   2   28.06    1.50
  20 -35  -2    1.94    0.98
  20 -35   1  157.35    5.49
  20 -34  -3   27.02    1.53
  20 -34   0    4.10    1.16
  20 -34   3    6.78    0.96
  20 -33  -1   73.73    3.23
  20 -33   2   51.17    2.46
  20 -32  -5  155.93    5.36
  20 -32  -2    6.87    1.34
  20 -32   1  168.84    6.14
  20 -31  -6    8.38    1.16
  20 -31  -3   34.42    2.01
  20 -31  -3   33.64    1.87
  20 -31   0   26.85    2.10
  20 -31   3    1.22    1.05
  20 -30  -7    7.81    0.93
  20 -30  -4   76.71    3.36
  20 -30  -4   83.49    3.25
  20 -30  -1  317.15   10.74
  20 -30   2  195.40    7.01
  20 -29  -5   82.01    3.46
  20 -29  -2    1.20    1.33
  20 -29  -2    0.90    0.95
  20 -29   1   88.22    3.90
  20 -29   4  148.60    5.34
  20 -28  -6    0.84    0.80
  20 -28  -6    2.12    1.13
  20 -28  -3   56.35    2.82
  20 -28  -3   58.39    2.85
  20 -28   0   92.84    4.09
  20 -28   3    1.63    1.12
  20 -27  -7   11.34    1.11
  20 -27  -4  100.45    4.04
  20 -27  -4  105.22    4.08
  20 -27  -4  105.61    4.36
  20 -27  -1  338.06   11.42
  20 -27   2  152.96    5.81
  20 -26  -8   28.63    1.58
  20 -26  -5   41.48    2.37
  20 -26  -5   46.34    2.64
  20 -26  -2   14.27    1.65
  20 -26  -2   10.92    1.38
  20 -26   1    6.62    1.51
  20 -26   4   40.78    2.27
  20 -25  -6   -0.68    1.11
  20 -25  -3   34.22    2.12
  20 -25  -3   32.91    2.20
  20 -25   0  114.08    4.72
  20 -25   3   24.92    1.93
  20 -24  -7   12.34    1.37
  20 -24  -7    9.51    1.42
  20 -24  -4  126.29    4.87
  20 -24  -4  131.78    5.09
  20 -24  -4  129.58    5.20
  20 -24  -1  352.72   11.70
  20 -24  -1  343.22   11.48
  20 -24   2  111.96    4.56
  20 -23  -8   40.03    2.04
  20 -23  -8   38.09    2.03
  20 -23  -5    0.71    1.22
  20 -23  -5   -0.11    1.39
  20 -23  -2  146.88    5.68
  20 -23  -2  146.69    5.59
  20 -23   1  130.94    5.19
  20 -23   4    1.56    1.14
  20 -22  -6    0.80    1.27
  20 -22  -6    2.82    1.51
  20 -22  -3   97.89    4.11
  20 -22  -3   89.62    3.90
  20 -22  -3   93.53    4.15
  20 -22   0  172.70    6.57
  20 -22   3   23.47    2.14
  20 -21  -7   71.51    3.37
  20 -21  -7   68.25    3.32
  20 -21  -4   32.52    2.23
  20 -21  -4   31.50    2.29
  20 -21  -4   33.10    2.06
  20 -21  -1  324.59   10.88
  20 -21  -1  319.34   10.70
  20 -21   2  232.09    8.31
 -21   1   5   15.69    1.91
  20 -20  -5  145.39    5.73
  20 -20  -2  330.72   11.18
  20 -20  -2  341.22   11.28
  20 -20   1   82.58    3.57
 -20   0   4   19.41    2.34
  20 -20   4   12.81    1.56
  20 -19  -6   34.05    2.35
  20 -19  -6   32.17    2.36
  20 -19  -3   37.13    2.14
  20 -19  -3   35.86    2.30
  20 -19  -3   36.62    2.96
  20 -19   0  228.72    7.95
  20 -19   3   98.03    4.03
 -19  -1   6    2.37    1.57
  20 -18 -10   97.70    3.47
  20 -18  -7   57.24    3.02
  20 -18  -4   53.11    2.93
  20 -18  -4   57.17    3.15
  20 -18  -1  459.99   14.90
  20 -18   2  291.33    9.82
 -18  -2   5    1.94    1.85
  20 -17  -8    2.06    1.16
  20 -17  -5  222.73    7.99
  20 -17  -5  217.33    7.96
  20 -17  -2  432.79   13.72
  20 -17  -2  410.63   13.79
  20 -17   1  109.77    4.31
 -17  -3   7  121.95    5.47
  20 -16  -6   41.43    2.56
  20 -16  -3   18.36    1.54
  20 -16  -3   20.15    1.71
  20 -16  -3   20.23    1.54
  20 -16   3  173.46    6.18
 -16  -4   6    2.30    1.97
  20 -15 -10   51.40    2.19
  20 -15  -7   53.71    2.91
  20 -15  -4    5.93    1.70
  20 -15   2  401.45   13.07
 -15  -5   5   83.14    4.88
  20 -15   8    4.98    1.28
  20 -14  -8    6.56    1.38
  20 -14  -5  351.90   11.79
  20 -14  -5  337.60   11.77
  20 -14   4  233.50    7.92
  20 -14   7  351.17   11.95
 -14  -6   7  373.86   13.02
  20 -13  -9   50.49    2.52
  20 -13  -6   35.97    2.36
  20 -13  -3    3.47    0.94
  20 -13  -3    1.62    1.01
 -13  -7   6   12.43    2.57
  20 -13   6   10.82    1.26
  20 -13   9    5.32    1.11
  20 -12 -10   29.82    1.62
  20 -12  -7   33.54    2.22
  20 -12  -4    1.74    1.09
  20 -12  -4    0.96    1.19
 -12  -8   5   22.39    3.10
  20 -12   5   20.06    1.80
  20 -12   8    6.90    1.38
  20 -11   4  306.90   10.32
 -11  -9   7  441.25   16.32
  20 -11   7  458.36   14.94
  20 -11  10   79.77    3.11
  20 -10  -9   29.92    1.86
  20 -10  -3    0.92    1.05
  20 -10   3   10.27    1.22
  20 -10   6    0.42    0.86
 -10 -10   6    0.82    2.30
  20 -10   6    1.19    0.87
  20 -10   9   -0.72    1.05
  20  -9 -10    2.58    0.80
  20  -9  -7    7.42    1.61
  20  -9   5    3.94    1.19
  20  -9   5    4.02    1.38
  20  -9   5    3.71    1.35
  20  -9   8    4.19    1.41
  20  -8  -8   15.54    1.74
  20  -8  -5  625.54   20.29
  20  -8   4  347.81   11.64
  20  -8   7  587.67   18.75
  20  -8   7  587.15   18.71
  20  -8  10  128.09    4.61
  20  -7  -9    1.09    0.91
  20  -7  -6    0.11    1.37
  -7 -13   6    4.20    2.33
  20  -7   6    5.31    1.10
  20  -7   6    6.11    1.25
  20  -7   9    1.24    1.12
  20  -6  -7    7.43    1.49
  -6 -14  -4    0.81    1.47
  20  -6  -4    1.98    1.81
  20  -6   5   18.64    1.74
  -6 -14   5   12.12    2.70
  20  -6   5   17.62    2.34
  20  -6   8    2.17    1.05
  -5 -15  -8   35.88    2.18
  20  -5  -8   36.97    2.16
  20  -5  -5  816.51   26.00
  20  -5  -2 1244.69   38.74
  -5 -15   4  509.65   17.50
  20  -5   4  498.59   16.52
  -5 -15   7  591.96   20.40
  20  -5   7  616.06   19.46
  20  -5   7  606.72   19.42
  20  -5  10   93.77    3.56
  -4 -16  -9    7.31    0.90
  20  -4  -9    7.98    0.88
  20  -4  -6   54.86    2.91
  20  -4  -3   63.39    3.01
  -4 -16  -3   63.11    4.04
  -4 -16   0    8.74    1.96
  -4 -16   3   36.51    3.00
  -4 -16   6   16.43    2.45
  20  -4   6   17.94    1.69
  20  -4   6   16.57    1.53
  20  -4   9   -0.29    1.01
  20  -3  -7   49.40    2.61
  20  -3  -4    2.58    1.53
  -3 -17  -1   94.19    5.02
  20  -3  -1   83.63    3.66
  -3 -17   2  163.56    7.31
  20  -3   5   22.11    1.79
  -3 -17   5   25.16    2.87
  20  -3   5   19.65    1.94
  20  -3   8    4.16    1.05
  -2 -18  -8   81.65    3.54
  20  -2  -8   83.42    3.28
  20  -2  -5  528.01   16.92
  20  -2  -5  511.22   16.93
  20  -2  -2  573.27   17.83
  20  -2  -2  534.53   17.78
  -2 -18  -2  542.79   19.28
  -2 -18   1    8.77    1.97
  -2 -18   4  251.73    9.74
  20  -2   4  253.22    8.76
  20  -2   7  306.56   10.19
  -2 -18   7  286.83   10.81
  20  -2   7  301.19   10.22
  20  -2  10   58.07    2.38
  -1 -19  -9   40.44    1.87
  20  -1  -6  124.32    4.75
  20  -1  -6  116.69    4.74
  -1 -19  -3   39.13    3.67
  20  -1  -3   34.56    3.02
  20  -1  -3   37.48    2.80
  20  -1   0   41.77    2.27
  20  -1   0   45.03    2.35
  -1 -19   0   44.86    3.40
  20  -1   3  234.15    9.95
  -1 -19   3  268.54   10.18
  -1 -19   6  103.58    4.93
  20  -1   6  106.76    4.39
  20  -1   6   97.38    4.37
  20  -1   9    0.13    0.92
   0 -20  -7   82.16    3.81
  20   0  -4   16.14    1.84
  20   0  -4   18.55    2.23
  20   0  -1   88.61    3.68
   0 -20  -1   85.30    4.96
  20   0  -1   86.68    3.67
   0 -20   2  358.54   13.50
   0 -20   5  155.07    6.58
  20   0   5  154.62    6.01
  20   0   8    1.13    0.92
  20   1  -8   11.18    1.08
   1 -21  -8   12.34    1.36
   1 -21  -2  428.63   15.72
  20   1  -2  422.34   13.88
  20   1  -2  413.27   13.84
   1 -21   1   22.35    3.25
  20   1   1   23.07    2.13
  20   1   4  146.21    7.36
   1 -21   4  166.02    6.69
   1 -21   4  150.93    6.11
  20   1   4  159.81    6.04
  20   1   7  215.90    7.60
   2 -22  -9   62.99    2.62
   2 -22  -9   44.89    2.23
  20   2  -3   32.44    2.21
  20   2  -3   27.20    2.11
   2 -22  -3   28.79    2.94
   2 -22   0   75.51    5.30
  20   2   0   83.55    3.97
   2 -22   3  272.91   10.72
   2 -22   3  273.23   10.05
  20   3  -7  138.82    4.89
   3 -23  -7  136.76    5.32
  20   3  -4  116.40    4.52
   3 -23  -4  105.52    4.71
  20   3  -1    4.08    1.38
   3 -23  -1    1.22    1.99
   3 -23   2   37.47    3.36
  20   3   5   32.64    2.15
  20   3   5   30.00    2.15
   4 -24  -8   20.19    1.44
  20   4  -5   94.98    3.83
  20   4  -2   40.83    2.26
   4 -24  -2   37.62    2.86
   4 -24   1   28.28    3.25
   4 -24   4  169.37    6.43
  20   4   4  172.06    6.39
  20   4   7  131.76    4.90
   5 -25  -9   70.00    2.68
  20   5  -6  173.63    5.97
   5 -25  -3   13.64    2.00
  20   5  -3   17.29    1.50
   5 -25   0  177.64    7.10
   5 -25   0  182.15    8.12
   5 -25   3  358.65   12.37
  20   5   3  363.92   12.10
  20   5   6   70.64    3.25
   6 -26  -4   10.56    1.56
  20   6  -4   11.52    1.25
  20   6  -1   35.79    2.05
   6 -26  -1   36.89    2.79
   6 -26   2  114.38    5.03
  20   6   5   88.75    3.83
  20   6   5   91.30    3.75
  20   6   8    4.37    0.90
   7 -27  -8   53.37    2.29
   7 -27  -8   48.55    2.22
   7 -27  -5   90.41    3.88
   7 -27  -2    5.68    1.81
  20   7  -2    7.28    1.16
   7 -27   1   35.80    2.71
   7 -27   4   64.16    3.08
  20   7   4   68.64    3.08
  20   7   7   25.07    1.46
  20   7   7   21.09    1.42
   8 -28  -6  208.95    7.16
  20   8  -3   70.49    2.97
   8 -28  -3   76.70    3.56
   8 -28  -3   74.25    3.26
   8 -28   0   85.83    4.18
   8 -28   3  369.82   12.46
  20   8   3  371.55   12.20
  20   8   6  195.15    6.72
  20   8   6  197.29    6.75
   9 -29  -7   37.14    1.95
   9 -29  -7   36.19    2.07
   9 -29  -4   17.13    1.50
   9 -29  -4   13.37    1.52
   9 -29  -1   22.84    2.23
   9 -29   2  102.12    4.51
  20   9   2  104.86    4.07
  20   9   5   85.47    3.45
  10 -30  -5    3.84    0.93
  10 -30  -2   35.17    2.52
  10 -30   1  104.95    4.60
  20  10   4   35.94    1.90
  10 -30   4   28.73    1.76
  20  10   7    0.42    0.55
  11 -31  -6  210.80    7.14
  11 -31  -3   93.60    3.87
  11 -31   0   38.77    2.66
  11 -31   3  264.52    8.96
  20  11   6  146.39    4.90
  20  11   6  146.75    4.98
  12 -32  -4   30.99    1.57
  12 -32  -4   27.98    1.78
  12 -32  -1   -0.45    1.42
  12 -32   2   29.07    1.98
  20  12   5   50.26    2.11
  20  12   5   48.47    2.00
  13 -33  -5    2.87    0.90
  13 -33  -2  104.68    4.10
  13 -33   1  157.99    5.81
  20  13   4   25.87    1.31
  14 -34  -3   21.79    1.36
  14 -34   0   36.25    2.11
  20  14   3  118.72    4.11
  14 -34   3  123.00    4.26
  15 -35  -1    5.78    1.09
  15 -35   2    4.89    0.95
  16 -36  -2   86.67    3.19
  16 -36   1  118.69    4.24
  17 -37   0   23.76    1.33
  21 -37  -2  143.62    4.70
  21 -37   1    7.61    0.86
  21 -36   0    6.31    1.20
  21 -35  -1    3.08    1.05
  21 -35   2   22.72    1.46
  21 -34  -2  258.27    8.54
  21 -34   1   18.31    1.51
  21 -33  -3   11.20    1.18
  21 -33   0   41.77    2.29
  21 -33   3   26.47    1.58
  21 -32  -4   23.63    1.38
  21 -32  -1   18.93    1.67
  21 -32   2   98.46    3.91
  21 -31  -5  171.30    5.91
  21 -31  -2  211.45    7.40
  21 -31   1   11.20    1.61
  21 -30  -6   11.51    1.23
  21 -30  -3    0.93    1.14
  21 -30  -3    3.99    1.08
  21 -30   0   51.16    2.82
  21 -30   3   75.73    3.31
  21 -29  -4   44.26    2.19
  21 -29  -4   40.16    2.29
  21 -29  -1   63.87    3.16
  21 -29   2  288.30    9.83
  21 -28  -5   75.60    3.34
  21 -28  -2  168.40    6.24
  21 -28  -2  169.48    6.08
  21 -28   1   41.17    2.46
  21 -28   4   20.29    1.62
  21 -27  -6   87.05    3.50
  21 -27  -6   90.10    3.68
  21 -27  -3    9.88    1.49
  21 -27  -3    4.95    1.28
  21 -27   0   47.21    2.74
  21 -27   3  113.93    4.56
  21 -26  -7  122.93    4.44
  21 -26  -7  119.63    4.55
  21 -26  -4   20.19    1.59
  21 -26  -4   18.29    1.53
  21 -26  -4   19.59    1.87
  21 -26  -1  130.36    5.16
  21 -26   2  399.53   13.26
  21 -25  -8   28.72    1.60
  21 -25  -8   22.71    1.46
  21 -25  -5   46.57    2.51
  21 -25  -5   52.21    2.80
  21 -25  -2   14.28    1.64
  21 -25  -2   10.56    1.40
  21 -25   1   38.05    2.40
  21 -25   4   84.55    3.55
  21 -24  -6   76.79    3.41
  21 -24  -3   28.80    2.02
  21 -24  -3   23.20    1.71
  21 -24  -3   28.50    2.04
  21 -24   0    4.12    1.48
  21 -24   3   85.89    3.73
  21 -23  -7  164.21    5.89
  21 -23  -7  157.75    5.91
  21 -23  -4   47.15    2.47
  21 -23  -4   47.65    2.58
  21 -23  -4   48.48    2.77
  21 -23  -1   47.18    2.82
  21 -23  -1   45.13    2.38
  21 -23   2  251.59    8.79
  21 -22  -8   99.12    3.83
  21 -22  -5   58.69    2.99
  21 -22  -5   54.15    3.05
  21 -22  -2   15.36    2.06
  21 -22  -2   15.02    1.64
  21 -22   1  218.91    7.82
  21 -22   4  143.35    5.33
  21 -21  -9   65.84    2.72
  21 -21  -6  127.46    5.15
  21 -21  -6  135.34    5.32
  21 -21  -3    5.78    1.29
  21 -21  -3    7.74    1.87
  21 -21  -3    5.90    1.67
  21 -21   0   97.14    4.51
  21 -21   3  224.84    7.95
 -21   0   6   72.06    3.66
  21 -20  -7  220.02    7.66
  21 -20  -7  208.82    7.62
  21 -20  -4  153.76    5.68
  21 -20  -4  162.51    5.97
  21 -20  -4  153.36    6.07
  21 -20  -1   23.52    2.20
  21 -20  -1   19.62    1.56
  21 -20   2  411.06   13.65
 -20  -1   5  251.72    9.54
  21 -19  -5    1.33    1.25
  21 -19  -2  132.72    5.15
  21 -19  -2  131.71    4.89
  21 -19  -2  134.78    5.14
  21 -19   1  227.81    7.98
 -19  -2   4   36.74    3.14
 -19  -2   7   24.51    2.29
  21 -18  -6  192.63    7.11
  21 -18  -6  191.87    7.12
  21 -18  -3   72.46    3.61
  21 -18  -3   75.68    3.40
  21 -18  -3   77.94    3.86
  21 -18   0   31.19    2.04
  21 -18   3  268.05    9.17
 -18  -3   6  123.50    5.62
  21 -17 -10   13.68    1.00
  21 -17  -4  107.23    4.43
  21 -17  -4  101.40    4.71
  21 -17  -1    7.30    1.26
  21 -17  -1    9.31    1.19
  21 -17   2  244.20    8.41
 -17  -4   5  196.17    8.25
  21 -16  -5   -0.61    1.24
  21 -16  -5   -0.21    1.30
  21 -16  -2  330.99   10.92
  21 -16  -2  322.56   10.97
  21 -16  -2  323.68   10.95
  21 -16  -2  349.76   11.15
  21 -16   1  605.62   19.30
 -16  -5   7   23.91    2.46
  21 -15  -9   49.44    2.40
  21 -15  -3  137.92    5.18
  21 -15  -3  137.27    5.35
  21 -15   0    2.24    1.07
 -15  -6   6   65.94    4.20
  21 -14 -10    0.92    0.71
  21 -14  -7   75.01    3.49
  21 -14  -4  168.57    6.42
  21 -14  -1   41.74    2.24
 -14  -7   5  178.53    7.96
  21 -13  -8  156.81    5.94
  21 -13  -5    5.57    1.37
  21 -13  -2  589.81   18.85
  21 -13   4   56.09    2.61
 -13  -8   7  138.22    6.07
  21 -13   7  122.54    4.94
  21 -12  -9   12.13    1.28
  21 -12  -6   72.45    3.47
  21 -12  -3   32.65    2.08
  21 -12   3  110.11    4.25
 -12  -9   6   69.25    4.54
  21 -12   9    8.51    1.12
  21 -11 -10    1.15    0.64
  21 -11  -7   17.03    1.93
  21 -11  -4   28.86    3.13
  21 -11   5   50.35    2.34
  21 -11   5   49.14    2.88
  21 -11   8   21.72    1.84
  21 -10  -8  188.57    6.83
  21 -10  -5    2.87    1.59
  21 -10  -2  613.37   19.57
  21 -10   4  168.57    5.89
  21 -10   4  165.27    6.24
 -10 -11   7   94.10    4.99
  21 -10   7   94.38    3.66
  21  -9  -9   11.87    1.23
  21  -9  -6   32.03    2.41
  21  -9  -3   12.82    1.50
  21  -9   3    1.43    1.00
  21  -9   6    3.58    0.92
  21  -9   6    4.77    1.03
  21  -9   9    6.48    1.16
  21  -8  -7    9.32    1.59
  -8 -13  -4    0.21    1.66
  21  -8  -4    2.66    2.01
  21  -8   2    3.05    0.86
  -8 -13   5    3.25    2.68
  21  -8   5    5.61    1.50
  21  -8   5    5.34    1.42
  21  -8   8   -0.17    1.10
  -7 -14  -8  250.38    8.82
  21  -7  -8  272.99    8.94
  21  -7  -5    1.17    1.47
  21  -7  -2  700.78   22.26
  21  -7  -2  702.01   22.41
  21  -7   1 1202.43   37.38
  -7 -14   4  133.20    6.17
  21  -7   4  130.55    5.29
  -7 -14   7  155.93    6.90
  21  -7   7  162.35    5.87
  21  -7   7  159.34    5.79
  21  -7  10  239.29    7.79
  21  -6  -9    9.27    0.96
  21  -6  -9    7.72    0.99
  21  -6  -6    6.28    1.57
  -6 -15  -3    2.87    1.71
  21  -6  -3    5.35    1.26
  21  -6   0   18.04    1.47
  21  -6   0   17.54    1.57
  -6 -15   3   17.90    2.27
  -6 -15   6    6.16    2.25
  21  -6   6    4.62    1.10
  21  -6   6    5.15    1.27
  21  -6   6    5.84    1.46
  21  -6   9   16.47    1.49
  21  -5  -7   46.44    2.55
  21  -5  -4   15.94    1.92
  21  -5  -1    4.99    1.13
  21  -5  -1    5.88    1.28
  -5 -16   2   19.72    2.54
  -5 -16   5   13.55    2.76
  21  -5   5   15.80    1.60
  21  -5   8    2.24    0.91
  -4 -17  -8  135.17    5.14
  21  -4  -8  140.09    4.96
  21  -4  -8  134.54    4.95
  21  -4  -5   32.82    2.30
  21  -4  -2  723.49   22.26
  -4 -17  -2  670.11   23.84
  21  -4  -2  688.06   22.37
  -4 -17   1  883.98   30.48
  21  -4   1  932.03   28.76
  -4 -17   4   86.37    4.86
  -4 -17   7  135.11    5.86
  21  -4   7  134.69    5.10
  21  -4   7  130.12    5.09
  21  -4  10  170.88    5.67
  -3 -18  -9    8.36    0.87
  21  -3  -6   21.41    1.84
  21  -3  -6   21.99    1.87
  21  -3  -3  182.27    6.76
  -3 -18  -3  181.70    8.26
  21  -3  -3  177.51    7.15
  21  -3   0  117.50    4.71
  -3 -18   0  130.71    6.24
  -3 -18   3    6.36    2.30
  -3 -18   6   19.80    2.47
  21  -3   6   22.62    1.91
  21  -3   6   20.20    1.94
  21  -3   9   22.49    1.57
  21  -2  -7   85.62    3.52
  -2 -19  -7   85.22    3.80
  21  -2  -7   78.12    3.42
  21  -2  -4  101.45    4.30
  21  -2  -4  103.99    4.47
  21  -2  -1    7.01    1.24
  -2 -19  -1    7.52    2.21
  21  -2  -1    6.42    1.28
  -2 -19   2   69.56    4.51
  21  -2   5  156.23    5.86
  -2 -19   5  151.54    6.71
  21  -2   5  149.07    5.93
  21  -2   8   39.97    2.09
  -1 -20  -8   57.61    2.71
  21  -1  -5   14.09    1.60
  21  -1  -5   12.46    1.64
  21  -1  -2  237.15    8.58
  -1 -20  -2  233.34   10.35
  21  -1  -2  250.85    8.85
  -1 -20   1  342.95   13.25
  21  -1   4   34.51    2.41
  -1 -20   4   38.91    3.17
  21  -1   7   77.36    3.43
  21  -1   7   76.63    3.39
   0 -21  -9    1.49    1.26
   0 -21  -9   -0.14    0.91
   0 -21  -3  223.50    9.68
  21   0  -3  245.37    8.43
  21   0  -3  234.73    8.44
  21   0   0  104.57    4.56
   0 -21   0   96.60    6.15
   0 -21   3    8.02    2.06
   0 -21   6  134.57    5.54
  21   0   6  127.63    5.18
  21   0   6  133.70    5.23
  21   0   9   68.95    2.80
  21   1  -7   50.35    2.41
   1 -22  -7   50.67    2.69
  21   1  -4  116.30    4.69
   1 -22  -4  108.04    4.82
  21   1  -4  115.18    4.53
   1 -22  -1   35.32    3.39
  21   1  -1   35.49    2.26
   1 -22   2   12.07    2.41
   1 -22   5   66.60    3.67
  21   1   5   78.04    3.52
  21   1   8   21.69    1.45
   2 -23  -8   54.67    2.45
  21   2  -5   10.92    1.43
   2 -23  -2  306.64   12.44
  21   2  -2  321.47   10.73
   2 -23   1  371.29   14.16
   2 -23   4   39.19    2.48
  21   2   4   39.74    2.46
  21   2   7   55.62    2.66
   3 -24  -9    1.11    0.89
  21   3  -6  133.35    4.89
  21   3  -3  270.06    9.16
   3 -24  -3  261.85    9.59
  21   3   0   24.48    1.89
   3 -24   0   32.04    3.57
   3 -24   3  136.64    5.79
  21   3   3  148.28    5.60
  21   3   6  311.85   10.53
  21   3   9   73.03    2.71
   4 -25  -7   36.35    2.05
  21   4  -4   98.35    3.94
   4 -25  -4   93.40    4.20
  21   4  -1   43.09    2.34
   4 -25  -1   42.12    2.99
   4 -25   2    3.18    1.83
  21   4   5   32.24    2.12
  21   4   5   28.98    2.03
   5 -26  -8    0.42    0.76
   5 -26  -8    0.30    1.02
   5 -26  -8    2.23    1.10
  21   5  -5   46.25    2.29
   5 -26  -5   53.19    2.71
  21   5  -2  110.77    4.37
   5 -26  -2  111.70    4.99
   5 -26   1   20.77    2.29
   5 -26   4   19.75    1.76
  21   5   4   18.78    1.67
  21   5   7   60.35    2.57
  21   5   7   57.63    2.58
   6 -27  -6  139.69    5.19
  21   6  -3  335.36   11.03
   6 -27  -3  334.51   11.50
   6 -27   0   90.37    4.40
   6 -27   3   69.88    3.51
  21   6   3   71.88    3.25
  21   6   6  291.30    9.55
  21   6   6  282.77    9.52
   7 -28  -7   22.68    1.68
  21   7  -4   70.88    2.84
   7 -28  -4   68.40    3.16
   7 -28  -4   65.80    3.15
   7 -28  -1   14.88    2.10
   7 -28   2   28.89    2.41
  21   7   5   80.09    3.36
   8 -29  -5   34.90    1.94
   8 -29  -2   58.44    2.64
   8 -29  -2   57.59    3.19
   8 -29   1    3.90    1.79
  21   8   4   34.39    1.97
   8 -29   4   30.97    1.94
  21   8   4   32.56    1.84
  21   8   7   38.60    1.73
   9 -30  -6  140.20    4.76
   9 -30  -6  133.21    4.82
   9 -30  -3  449.35   14.31
   9 -30  -3  426.85   14.03
   9 -30   0  234.23    8.56
  21   9   3   10.86    1.26
   9 -30   3   10.10    1.54
  21   9   6  209.86    7.04
  21   9   6  214.51    6.99
  10 -31  -4   53.67    2.36
  10 -31  -4   53.17    2.29
  10 -31  -1   41.97    2.62
  21  10   2    1.32    0.92
  10 -31   2    0.09    1.33
  21  10   5   31.99    1.62
  11 -32  -5   48.57    2.27
  11 -32  -2    1.69    1.31
  11 -32   1   47.07    2.69
  21  11   4   95.52    3.54
  12 -33  -3  197.46    6.70
  12 -33   0   73.60    3.34
  21  12   3   21.48    1.27
  12 -33   3   18.52    1.35
  13 -34  -1   29.88    1.90
  21  13   2    4.39    0.74
  13 -34   2    6.19    1.09
  21  13   5    5.58    0.57
  14 -35  -2    1.40    0.89
  14 -35   1   62.60    2.68
  21  14   4   67.57    2.38
  15 -36   0   31.25    1.80
  16 -37  -1   17.48    1.11
  16 -37   2   18.99    1.02
  22 -37  -1    3.07    0.77
  22 -36  -2  212.41    6.91
  22 -36   1  244.90    7.99
  22 -35  -3    3.35    0.89
  22 -35   0    2.18    1.01
  22 -34  -1   10.59    1.33
  22 -34   2    8.90    1.18
  22 -33  -2  250.92    8.40
  22 -33   1  338.97   11.13
  22 -32  -3   30.81    1.77
  22 -32   0    0.23    1.25
  22 -32   3   31.42    1.81
  22 -31  -4  163.22    5.56
  22 -31  -4  153.69    5.38
  22 -31  -1   88.53    3.80
  22 -31   2    3.36    1.31
  22 -30  -5    3.00    0.97
  22 -30  -2  156.49    5.81
  22 -30   1  215.59    7.69
  22 -29  -6   56.13    2.53
  22 -29  -3   81.28    3.53
  22 -29  -3   83.35    3.47
  22 -29   0   -0.72    1.43
  22 -29   3   54.89    2.74
  22 -28  -4  187.65    6.39
  22 -28  -4  176.76    6.58
  22 -28  -1   70.84    3.37
  22 -28   2   28.27    2.03
  22 -27  -5    2.23    0.94
  22 -27  -5    2.51    1.19
  22 -27  -2   79.81    3.47
  22 -27  -2   73.18    3.28
  22 -27   1  135.21    5.33
  22 -27   4   13.18    1.45
  22 -26  -6   79.50    3.17
  22 -26  -6   70.51    3.32
  22 -26  -3  210.20    7.60
  22 -26  -3  224.48    7.74
  22 -26   0   84.62    3.82
  22 -26   3    7.26    1.46
  22 -25  -7   82.35    3.10
  22 -25  -7   64.95    3.09
  22 -25  -4  153.43    5.73
  22 -25  -4  155.77    6.01
  22 -25  -4  164.08    5.75
  22 -25  -1   26.25    2.07
  22 -25   2   81.25    3.72
  22 -24  -8    6.63    1.03
  22 -24  -5  148.78    5.73
  22 -24  -5  162.17    5.96
  22 -24  -2  144.11    5.58
  22 -24  -2  146.75    5.56
  22 -24   1    5.90    1.55
  22 -24   4   60.51    2.85
  22 -23  -9    0.87    0.64
  22 -23  -6   90.97    3.83
  22 -23  -3  190.70    7.02
  22 -23  -3  202.61    6.95
  22 -23  -3  198.64    7.23
  22 -23   0   33.84    2.36
  22 -23   3   40.77    2.39
  22 -22  -7   54.85    2.69
  22 -22  -7   55.81    2.80
  22 -22  -4  291.45   10.08
  22 -22  -4  305.21   10.31
  22 -22  -4  295.40    9.91
  22 -22  -1  188.13    6.98
  22 -22  -1  186.98    6.71
  22 -22   2    1.55    1.43
  22 -21  -5   71.61    3.34
  22 -21  -2   15.27    2.08
  22 -21  -2   16.22    1.74
  22 -21   1   33.69    2.36
 -21  -1   4  110.81    5.31
  22 -20  -6   96.34    4.17
  22 -20  -6   99.90    4.27
  22 -20  -3  278.47    9.82
  22 -20  -3  288.34    9.81
  22 -20  -3  303.79   10.10
  22 -20   0   82.13    4.05
  22 -20   3   26.82    2.26
 -20  -2   6  135.34    5.76
  22 -19  -7   16.85    1.65
  22 -19  -4  220.21    8.02
  22 -19  -4  234.50    8.22
  22 -19  -1  162.19    6.34
  22 -19  -1  166.16    6.04
  22 -19   2    1.56    1.76
 -19  -3   5  165.86    7.10
  22 -18  -5  137.65    5.40
  22 -18  -2    4.73    0.92
  22 -18  -2    4.48    1.02
  22 -18  -2    5.21    2.18
  22 -18  -2    4.32    1.44
  22 -18   1  168.59    6.21
 -18  -4   7   41.71    2.85
  22 -17  -9    6.31    1.10
  22 -17  -6   89.28    3.92
  22 -17  -3  384.12   12.83
  22 -17  -3  390.53   12.99
  22 -17   0  196.33    6.98
  22 -17   0  194.52    6.93
 -17  -5   6  141.83    6.38
  22 -16 -10   31.05    1.40
  22 -16  -4  154.66    5.96
  22 -16  -1  259.78    9.05
  22 -16  -1  275.86    9.34
  22 -16  -1  281.85    9.26
 -16  -6   5   49.64    3.92
  22 -15  -8  203.52    7.25
  22 -15  -5  287.84    9.94
  22 -15  -2    1.02    0.87
  22 -15   1  407.40   13.31
  22 -15   4  526.54   16.84
 -15  -7   7   94.82    4.78
  22 -14  -9    9.61    1.19
  22 -14  -3  213.12    7.66
  22 -14   0  176.30    6.43
  22 -14   3    2.25    0.87
 -14  -8   6   48.45    3.72
  22 -13 -10   17.31    1.02
  22 -13 -10   19.84    1.11
  22 -13  -7    6.23    1.69
  22 -13  -4   25.59    2.31
  22 -13  -1  119.48    4.51
  22 -13  -1  118.36    4.74
 -13  -9   5    3.92    2.57
  22 -12  -8  346.22   11.52
  22 -12  -2    4.86    1.13
  22 -12   1  488.66   15.84
  22 -12   4  691.25   21.99
 -12 -10   7  117.91    5.67
  22 -12   7  115.79    4.56
  22 -11  -9    2.30    0.98
  22 -11  -6   22.55    2.10
  22 -11  -3   73.94    3.48
  22 -11   0   22.24    1.81
  22 -11   3    7.02    1.12
 -11 -11   6   25.95    3.13
  22 -11   6   26.13    1.60
  22 -10  -7   12.00    1.74
  22 -10  -1   29.06    1.81
  22 -10  -1   31.31    2.10
  22 -10   2   62.37    2.70
  22 -10   5   14.39    1.36
  22 -10   5   10.73    1.51
  22 -10   8    0.57    1.07
  22  -9  -8  319.45   10.65
  22  -9  -5  449.42   14.97
  22  -9  -2   16.29    1.52
  22  -9  -2   15.04    1.68
  22  -9   1  455.98   14.85
  22  -9   1  469.33   15.07
  -9 -13   4  745.60   25.85
  22  -9   4  788.43   24.63
  22  -9   7  177.09    6.17
  22  -8  -9    0.78    0.73
  22  -8  -9    0.77    0.83
  22  -8  -6    3.88    1.46
  22  -8   0    3.91    1.00
  -8 -14   6    2.76    2.18
  22  -8   6    2.60    0.95
  22  -8   6    3.21    1.10
  22  -8   9    3.24    0.97
  22  -7  -7   34.05    2.29
  22  -7  -4   73.46    3.77
  22  -7  -1   14.90    1.48
  22  -7  -1   18.11    1.50
  22  -7  -1   15.27    1.66
  -7 -15   5   -0.86    2.30
  22  -7   5    0.17    1.06
  22  -7   5    1.95    1.32
  22  -7   8    1.78    0.82
  22  -7   8    0.91    1.02
  -6 -16  -8  362.58   12.08
  22  -6  -8  381.45   12.03
  22  -6  -8  364.11   12.03
  22  -6  -5  467.55   15.46
  -6 -16  -2    4.69    2.04
  22  -6  -2    4.89    1.51
  22  -6   1  680.99   21.56
  -6 -16   4  653.44   22.54
  22  -6   4  669.69   21.38
  -6 -16   7   75.02    4.08
  22  -6   7   73.23    3.25
  22  -6   7   72.29    3.17
  22  -5  -6   86.08    3.83
  22  -5  -3   37.74    2.50
  22  -5  -3   38.25    2.70
  -5 -17  -3   33.94    4.11
  -5 -17   0   28.43    3.04
  22  -5   0   24.35    1.76
  22  -5   0   30.25    1.96
  -5 -17   3   71.54    4.74
  22  -5   6   27.15    1.81
  -5 -17   6   27.49    2.90
  22  -5   6   28.92    2.00
  22  -5   9    2.06    1.01
  22  -4  -7    7.94    1.38
  22  -4  -7    6.94    1.40
  22  -4  -4   78.92    3.67
  22  -4  -4   81.76    3.84
  -4 -18  -1   25.70    3.08
  22  -4  -1   27.83    2.13
  -4 -18   2   36.81    3.81
  22  -4   5   47.44    2.64
  -4 -18   5   51.29    3.71
  22  -4   8   26.29    1.60
  -3 -19  -8  159.17    5.72
  22  -3  -5  176.68    6.35
  22  -3  -5  160.82    6.33
  22  -3  -2    3.11    1.58
  -3 -19  -2    1.70    2.96
  22  -3  -2    1.20    2.00
  22  -3   1  212.57    7.78
  -3 -19   1  228.46    9.64
  22  -3   4  338.34   11.57
  -3 -19   7   78.98    4.01
  22  -3   7   83.53    3.50
  22  -3   7   80.90    3.46
  22  -2  -9   40.41    1.78
  -2 -20  -9   50.36    1.90
  22  -2  -6   18.35    1.69
  22  -2  -6   18.39    1.68
  -2 -20  -3   23.25    2.90
  22  -2  -3   26.73    2.36
  22  -2   0  180.47    6.74
  -2 -20   0  174.98    8.44
  -2 -20   3   99.98    5.42
  -2 -20   6    2.04    1.59
  22  -2   6    2.67    1.33
  22  -2   6    3.00    1.35
  22  -2   9   22.44    1.49
  -1 -21  -7    3.55    1.34
  22  -1  -4  139.40    5.42
  22  -1  -1  227.46    7.88
  -1 -21  -1  203.75    9.39
  22  -1  -1  223.06    7.88
  -1 -21   2   10.54    2.41
  -1 -21   5   54.56    3.49
  22  -1   5   57.20    2.89
  22  -1   5   56.07    3.05
  22  -1   8   87.05    3.37
  22   0  -8  141.26    4.87
   0 -22  -8  148.36    5.17
  22   0  -5  216.79    7.72
  22   0  -5  214.21    7.54
  22   0  -2    4.00    1.38
  22   0  -2    3.87    1.53
   0 -22  -2   -0.25    2.32
   0 -22   1  188.80    8.51
   0 -22   4  297.89   10.47
  22   0   4  311.28   10.46
   0 -22   4  291.71   10.96
  22   0   7   58.30    2.71
  22   0   7   58.83    2.75
   1 -23  -9   86.64    3.27
  22   1  -6    9.12    1.34
  22   1  -3  131.69    5.07
  22   1  -3  126.44    4.94
   1 -23   0  363.77   14.27
  22   1   0  373.79   12.33
   1 -23   3  120.63    5.42
  22   1   9   76.35    2.82
  22   2  -7    1.29    0.75
   2 -24  -7    1.44    1.12
  22   2  -4   50.33    2.60
   2 -24  -4   48.84    2.86
   2 -24  -1   70.22    4.74
  22   2  -1   83.52    3.55
  22   2   5   14.50    1.65
  22   2   8   30.71    1.63
   3 -25  -8   72.60    2.83
  22   3  -5   44.72    2.34
   3 -25  -2   13.34    2.19
  22   3  -2   15.63    1.59
   3 -25   1  167.11    6.80
   3 -25   4  147.63    5.71
  22   3   4  150.08    5.72
  22   3   7   16.52    1.36
  22   4  -6    1.83    0.78
  22   4  -3  212.07    7.32
   4 -26  -3  202.53    7.75
   4 -26   0  351.14   12.35
   4 -26   3   81.93    3.88
  22   4   3   83.22    3.69
  22   4   6   34.34    2.01
  22   5  -4   40.12    2.11
   5 -27  -4   41.01    2.42
   5 -27  -1   96.25    4.62
   5 -27   2   41.20    2.85
  22   5   5    4.32    1.24
  22   5   5    2.98    1.07
   6 -28  -5    8.00    1.24
   6 -28  -2   16.03    2.14
   6 -28   1   60.82    3.48
   6 -28   4   18.98    1.63
  22   6   4   16.18    1.53
  22   6   7    5.53    0.97
   7 -29  -6   14.39    1.23
   7 -29  -6   15.16    1.35
   7 -29  -3  183.67    6.90
   7 -29  -3  192.18    6.66
   7 -29   0  586.65   19.25
   7 -29   3  262.99    8.99
  22   7   3  253.06    8.73
  22   7   6    3.47    0.87
  22   7   6    2.03    0.81
   8 -30  -4   16.47    1.38
   8 -30  -4   17.10    1.37
   8 -30  -1   86.59    4.09
   8 -30   2   47.31    2.75
  22   8   2   44.79    2.34
  22   8   5    2.18    0.92
   9 -31  -5    6.24    0.85
   9 -31  -2   38.94    2.43
   9 -31   1   18.58    1.98
  22   9   1   18.73    1.45
  22   9   4    1.58    0.83
  10 -32  -6   15.77    1.11
  10 -32  -3   93.16    3.69
  10 -32   0  325.88   11.05
  22  10   3  138.05    4.83
  10 -32   3  130.84    4.87
  22  10   6    2.04    0.56
  11 -33  -1   11.96    1.55
  11 -33   2   33.02    1.94
  22  11   5    5.43    0.72
  22  11   5    3.24    0.61
  12 -34  -2  103.03    3.91
  12 -34   1   10.20    1.34
  22  12   4   20.20    1.13
  13 -35  -3   55.29    2.21
  13 -35   0  188.30    6.46
  22  13   3   58.24    2.17
  14 -36  -1    2.21    0.96
  14 -36   2   10.90    0.94
  15 -37   1    2.26    0.70
  23 -37   0    1.00    0.72
  23 -36  -1   29.96    1.61
  23 -36   2    9.91    0.93
  23 -35  -2    4.30    1.02
  23 -35   1  197.92    6.66
  23 -34  -3   23.26    1.39
  23 -34   0   19.07    1.55
  23 -34   3    3.23    0.83
  23 -33  -1   55.02    2.62
  23 -33   2   20.50    1.55
  23 -32  -2    2.57    1.19
  23 -32   1  137.79    5.16
  23 -31  -3   84.27    3.39
  23 -31   0  104.62    4.29
  23 -31   3    7.65    1.19
  23 -30  -4   33.47    1.87
  23 -30  -1  153.69    5.78
  23 -30   2   86.88    3.72
  23 -29  -5  100.16    3.89
  23 -29  -2    1.30    1.39
  23 -29   1  124.26    4.99
  23 -28  -6    2.97    1.00
  23 -28  -3  103.05    4.17
  23 -28  -3  103.52    4.13
  23 -28   0  240.14    8.48
  23 -28   3   64.59    3.06
  23 -27  -4   77.12    3.66
  23 -27  -4   92.46    3.53
  23 -27  -1  234.92    8.33
  23 -27   2   54.67    2.90
  23 -26  -5    6.86    1.12
  23 -26  -5    5.99    1.32
  23 -26  -2   41.15    2.52
  23 -26  -2   38.84    2.23
  23 -26   1  133.99    5.36
  23 -25  -6   31.31    1.80
  23 -25  -6   26.91    1.73
  23 -25  -3   70.97    3.26
  23 -25  -3   72.22    3.33
  23 -25   0  399.36   13.33
  23 -25   3  153.42    5.76
  23 -24  -7   17.71    1.39
  23 -24  -7   18.91    1.39
  23 -24  -4   50.36    2.43
  23 -24  -4   45.02    2.36
  23 -24  -4   47.90    2.67
  23 -24  -1  206.80    7.47
  23 -24   2   88.25    3.93
  23 -23  -8   33.18    1.76
  23 -23  -5    6.16    1.20
  23 -23  -5    5.07    1.47
  23 -23  -2  169.80    6.31
  23 -23  -2  170.88    6.28
  23 -23   1  173.82    6.50
  23 -22  -9   78.23    2.80
  23 -22  -6   10.40    1.48
  23 -22  -3  128.37    4.72
  23 -22  -3  117.42    4.67
  23 -22  -3  126.60    4.99
  23 -22  -3  122.40    4.82
  23 -22   0  370.24   12.42
  23 -22   3  123.45    4.87
  23 -21  -7   52.05    2.57
  23 -21  -4   32.59    2.15
  23 -21  -4   39.52    2.42
  23 -21  -1  398.80   13.26
  23 -21   2  340.08   11.45
 -21  -2   5   14.21    2.08
  23 -20  -8    1.39    1.03
  23 -20  -5   29.99    2.06
  23 -20  -2   34.77    2.47
  23 -20  -2   28.13    2.28
  23 -20   1    3.65    1.72
 -20  -3   4   99.76    5.09
  23 -19  -6   28.75    2.05
  23 -19  -3  116.24    4.63
  23 -19  -3  109.79    4.68
  23 -19  -3  118.56    4.80
  23 -19   0  475.87   15.56
 -19  -4   6    3.29    1.78
  23 -18  -4    8.78    1.38
  23 -18  -4    8.79    1.62
  23 -18  -1   82.41    3.61
  23 -18  -1   79.95    3.95
  23 -18   2  179.41    6.59
 -18  -5   5   27.34    2.90
  23 -17  -5  299.45   10.28
  23 -17  -2  364.67   12.07
  23 -17   1   43.70    2.32
  23 -17   1   50.40    3.09
 -17  -6   7  205.94    7.97
  23 -16  -9  109.82    4.05
  23 -16  -3   22.18    1.95
  23 -16   0  250.63    8.69
 -16  -7   6    0.89    1.86
  23 -15  -4   51.90    2.98
  23 -15  -1   22.12    1.55
  23 -15  -1   22.15    1.85
 -15  -8   5   40.89    3.66
  23 -14  -8   32.89    2.06
  23 -14  -5  457.32   15.22
  23 -14  -2  511.89   16.57
  23 -14   1   18.67    1.58
  23 -14   4  256.13    8.79
 -14  -9   7  375.62   13.33
  23 -13  -9   17.47    1.35
  23 -13  -3   53.95    3.00
  23 -13   0  220.76    7.51
  23 -13   0  217.11    7.81
  23 -13   3  106.82    4.34
 -13 -10   6    1.76    2.21
  23 -12  -7   19.26    1.92
  23 -12  -4   25.85    2.14
  23 -12  -1   -0.55    0.91
  23 -12  -1    0.90    1.16
  23 -12   5   71.48    3.28
 -12 -11   5   69.03    4.72
  23 -11  -8   26.41    1.81
  23 -11  -2  707.43   22.52
  23 -11   1   83.01    3.40
  23 -11   1   86.55    3.68
  23 -11   4  210.35    7.18
  23 -11   4  207.16    7.57
 -11 -12   7  456.17   15.62
  23 -11   7  444.76   14.50
  23 -10  -9    2.90    0.80
  23 -10  -9    4.12    0.96
  23 -10  -6    0.31    1.50
  23 -10  -3   12.10    1.78
  23 -10   0   26.44    1.73
  23 -10   0   26.14    1.98
  23 -10   3    1.35    1.55
  23 -10   6    6.11    0.96
  23 -10   6    7.52    1.10
  23  -9  -7    8.96    1.65
  23  -9  -1   31.72    2.07
  23  -9  -1   33.61    1.97
  23  -9   5   23.92    1.56
  -9 -14   5   23.13    3.17
  23  -9   5   22.82    1.70
  23  -9   5   23.39    1.88
  23  -9   8   17.45    1.45
  -8 -15  -8   14.92    1.28
  23  -8  -8   15.87    1.39
  23  -8  -8   15.43    1.51
  23  -8  -5  523.77   17.17
  23  -8  -2  768.47   24.26
  23  -8  -2  756.96   24.53
  23  -8   1   27.07    1.74
  23  -8   1   29.13    2.04
  -8 -15   4  347.49   12.94
  23  -8   4  344.41   11.72
  -8 -15   7  452.03   15.83
  23  -8   7  461.86   14.69
  23  -7  -9    1.07    0.72
  23  -7  -6   16.04    1.77
  -7 -16  -3   46.55    3.89
  23  -7  -3   55.56    3.34
  23  -7   0   48.30    2.47
  -7 -16   3   14.35    2.52
  -7 -16   6   64.17    4.24
  23  -7   6   71.13    3.04
  23  -7   6   68.55    3.12
  23  -7   9   15.09    1.27
  23  -6  -7    1.57    1.15
  23  -6  -7    2.34    1.33
  23  -6  -4   26.52    2.06
  23  -6  -4   21.66    2.09
  23  -6  -1   43.32    2.93
  -6 -17  -1   37.81    4.33
  23  -6  -1   35.19    3.39
  -6 -17   2    2.20    2.60
  -6 -17   5   19.68    2.84
  23  -6   5   18.45    1.64
  23  -6   5   15.36    1.84
  23  -6   8    5.68    0.87
  23  -6   8    7.58    1.13
  -5 -18  -8   14.70    1.32
  23  -5  -8   13.82    1.22
  23  -5  -8   10.86    1.14
  23  -5  -5  327.31   11.12
  23  -5  -5  327.18   11.23
  23  -5  -2  458.70   15.23
  -5 -18  -2  461.22   16.91
  -5 -18   1    9.56    3.36
  23  -5   1    7.84    2.06
  -5 -18   7  333.54   11.41
  23  -5   7  314.87   10.57
  23  -5   7  316.25   10.53
  23  -4  -9   14.13    1.00
  23  -4  -6   76.45    3.39
  23  -4  -6   69.85    3.35
  23  -4  -3   60.70    3.08
  -4 -19  -3   50.59    4.06
  23  -4  -3   54.02    3.07
  -4 -19   0   18.07    3.31
  23  -4   0   18.42    1.94
  23  -4   0   17.04    2.08
  -4 -19   3   12.71    2.35
  23  -4   6   28.95    1.95
  23  -4   6   29.73    2.08
  23  -4   6   31.28    2.20
  -4 -19   6   31.97    2.70
  23  -4   9    5.57    0.97
  -3 -20  -7   22.90    1.85
  23  -3  -7   24.13    1.59
  23  -3  -4    4.58    1.45
  23  -3  -4    3.80    1.41
  23  -3  -1  131.31    5.23
  -3 -20  -1  141.23    6.83
  23  -3  -1  128.83    5.27
  -3 -20   2  150.18    7.20
  -3 -20   5   -1.04    1.91
  23  -3   5    1.28    1.16
  23  -3   5    1.13    1.29
  23  -3   8   37.55    1.83
  23  -2  -8    1.86    0.77
  -2 -21  -8    1.59    0.90
  23  -2  -5   86.97    3.78
  23  -2  -2  254.19    8.73
  -2 -21  -2  245.89   10.51
  23  -2  -2  243.29    8.74
  -2 -21   1   47.69    3.97
  23  -2   4   49.91    2.84
  -2 -21   4   51.70    3.55
  23  -2   7  168.07    6.01
  23  -2   7  169.27    5.99
  -1 -22  -9   60.50    2.46
  23  -1  -6  173.75    6.33
  23  -1  -3   46.80    2.66
  23  -1  -3   48.96    2.68
  23  -1   0   32.76    2.13
  -1 -22   0   41.03    4.06
  -1 -22   6   87.29    4.11
  23  -1   6   85.00    3.73
  23  -1   6   98.31    3.92
  23  -1   9   -0.33    0.65
  23   0  -7   18.80    1.32
   0 -23  -7   20.84    1.71
   0 -23  -4    9.97    1.74
  23   0  -4    6.93    1.40
  23   0  -4    7.98    1.28
   0 -23  -1  155.42    7.66
  23   0  -1  169.61    6.19
   0 -23   5    7.19    1.56
  23   0   5    6.05    1.38
  23   0   5    7.41    1.51
  23   0   8   31.54    1.64
   1 -24  -8   11.52    1.12
  23   1  -5  261.94    8.93
  23   1  -2  301.90   10.27
   1 -24   4   76.87    3.63
  23   1   4   79.56    3.61
  23   1   7  134.08    4.86
  23   2  -6  249.48    8.28
   2 -25  -3   21.52    2.29
  23   2  -3   22.49    1.79
   2 -25   3  392.63   13.73
  23   2   3  420.03   13.56
  23   2   6  130.96    4.89
   3 -26  -7   30.03    1.75
   3 -26  -4    1.23    1.34
  23   3  -4    1.87    1.08
  23   3  -1   50.30    2.61
   3 -26  -1   52.02    3.34
   3 -26   2  100.67    4.65
  23   3   5   28.65    1.95
  23   3   5   27.26    1.87
  23   3   8    1.22    0.58
   4 -27  -8   13.08    1.03
   4 -27  -8   11.09    0.99
  23   4  -5   57.93    2.49
   4 -27  -5   57.61    2.83
  23   4  -2   24.39    1.76
   4 -27  -2   25.08    2.44
   4 -27   1    1.28    1.88
   4 -27   4   23.44    1.89
  23   4   4   26.81    1.96
  23   4   7   25.18    1.50
   5 -28  -6  314.07   10.27
  23   5  -3   57.01    2.63
   5 -28  -3   56.80    3.14
   5 -28   0  154.26    6.34
   5 -28   3  456.00   14.96
  23   5   3  451.29   14.75
  23   5   6  202.35    6.84
   6 -29  -7   29.56    1.35
   6 -29  -7   26.33    1.41
   6 -29  -4   11.66    1.27
   6 -29  -4    8.87    1.26
   6 -29  -1   11.48    2.07
   6 -29   2   45.34    2.83
  23   6   2   43.93    2.40
  23   6   5   17.90    1.37
   7 -30  -5   20.97    1.39
   7 -30  -2    2.36    1.50
   7 -30  -2    1.26    0.88
   7 -30   1   25.50    2.29
  23   7   4   30.55    1.76
  23   7   4   28.62    1.65
  23   7   7    4.40    0.61
   8 -31  -6  275.32    8.14
   8 -31  -6  226.68    8.27
   8 -31  -3   89.30    3.69
   8 -31   0   96.05    4.25
   8 -31   3  348.12   11.57
  23   8   3  356.32   11.38
  23   8   6  144.74    4.84
  23   8   6  146.87    4.89
   9 -32  -1    6.20    1.51
   9 -32   2   12.39    1.50
  23   9   2   13.79    1.14
  23   9   5   21.93    1.35
  23   9   5   20.62    1.27
  10 -33  -5    0.28    0.69
  10 -33  -2   23.17    1.72
  10 -33   1   51.68    2.55
  23  10   1   46.07    2.04
  23  10   4   11.73    1.00
  11 -34  -3   23.19    1.35
  11 -34   0   72.49    3.16
  23  11   3  230.79    7.44
  11 -34   3  226.76    7.43
  12 -35  -1   17.36    1.41
  23  12   2    1.11    0.65
  12 -35   2    0.22    0.90
  13 -36  -2   50.47    2.03
  23  13   1   55.89    2.16
  13 -36   1   65.70    2.46
  14 -37   0   26.65    1.34
  24 -36   0    9.57    1.11
  24 -35  -1   10.68    1.25
  24 -35   2   40.20    1.91
  24 -34  -2  262.97    8.60
  24 -34   1   26.60    1.70
  24 -33   0   63.62    2.90
  24 -32  -1    6.97    1.36
  24 -32   2   52.81    2.50
  24 -31  -2  128.53    4.84
  24 -31   1    3.95    1.36
  24 -30  -3    8.12    1.29
  24 -30   0   76.85    3.56
  24 -30   3  137.47    5.04
  24 -29  -4   14.25    1.38
  24 -29  -1   33.28    2.35
  24 -29   2  133.42    5.10
  24 -28  -5   62.52    2.84
  24 -28  -2  106.18    4.38
  24 -28   1    1.07    1.50
  24 -27  -3   68.09    3.18
  24 -27  -3   73.36    3.21
  24 -27   0   71.14    3.47
  24 -27   3  346.75   11.49
  24 -26  -4   17.77    1.76
  24 -26  -1   39.81    2.53
  24 -26   2  182.91    6.71
  24 -25  -8   38.07    1.56
  24 -25  -5   70.28    2.94
  24 -25  -5   63.45    2.88
  24 -25  -5   69.27    3.22
  24 -25  -2   10.04    1.58
  24 -25   1   33.21    2.33
  24 -24  -6  199.81    6.70
  24 -24  -6  183.94    6.64
  24 -24  -3   41.39    2.42
  24 -24  -3   40.37    2.36
  24 -24   0  119.94    4.93
  24 -24   3  526.57   17.00
  24 -23  -7  126.62    4.64
  24 -23  -4   77.51    3.33
  24 -23  -4   75.46    3.31
  24 -23  -4   80.68    3.61
  24 -23  -1   15.28    1.86
  24 -23   2  304.46   10.41
  24 -22  -8   27.18    1.60
  24 -22  -5   12.64    1.41
  24 -22  -5   12.22    1.52
  24 -22  -5   13.27    1.73
  24 -22  -2   12.04    1.65
  24 -22  -2    7.29    1.37
  24 -22   1   83.32    3.79
 -22  -2   4   45.70    3.17
  24 -21  -9   74.08    2.77
  24 -21  -9   83.58    2.88
  24 -21  -6  312.36   10.36
  24 -21  -6  301.36   10.38
  24 -21  -3  129.95    5.02
  24 -21  -3  137.05    5.35
  24 -21   0   28.05    2.20
 -21  -3   6  131.93    5.47
  24 -20  -7  128.57    4.91
  24 -20  -4  181.50    6.47
  24 -20  -4  171.06    6.47
  24 -20  -1   30.79    2.10
  24 -20  -1   32.34    2.38
  24 -20   2   43.39    2.58
 -20  -4   5   95.13    4.82
  24 -19  -8   40.60    2.10
  24 -19  -5    3.86    1.24
  24 -19  -5    3.79    1.41
  24 -19  -2  147.52    5.45
  24 -19   1  193.85    7.17
 -19  -5   4   33.98    3.20
 -19  -5   7   24.92    2.12
  24 -18  -6  207.41    7.55
  24 -18  -3   81.62    3.63
  24 -18   0   64.91    3.34
 -18  -6   6  168.17    7.01
  24 -17  -7   52.89    2.77
  24 -17  -4  126.82    5.12
  24 -17  -1   40.45    2.16
  24 -17  -1   46.78    2.97
 -17  -7   5  107.12    5.53
  24 -16  -5    3.93    1.45
  24 -16  -2  395.60   13.06
  24 -16   1  461.22   15.02
  24 -16   4   46.82    2.29
 -16  -8   7   87.26    4.32
  24 -15  -9   17.18    1.32
  24 -15  -6  116.74    4.84
  24 -15  -3   80.06    3.83
  24 -15   0   12.87    1.82
  24 -15   3  161.90    5.85
 -15  -9   6  129.45    6.10
  24 -14  -7   13.08    1.75
  24 -14  -4   74.83    3.58
  24 -14  -1   76.09    3.37
  24 -14  -1   83.45    3.38
  24 -14  -1   80.66    4.26
  24 -14   2    1.43    1.05
 -14 -10   5   34.34    3.47
  24 -13  -8  140.55    5.16
  24 -13  -5   11.06    1.75
  24 -13  -2  489.72   16.17
  24 -13  -2  504.55   16.40
  24 -13   1  590.67   19.36
  24 -13   1  647.87   19.75
  24 -13   4   78.82    3.44
 -13 -11   7   83.92    4.39
  24 -12  -9   17.81    1.31
  24 -12  -9   17.64    1.40
  24 -12  -6   15.31    1.83
  24 -12  -3    1.70    1.84
  24 -12   0   48.05    2.35
  24 -12   0   43.62    2.88
  24 -12   3   91.34    3.92
 -12 -12   6   35.52    3.24
  24 -11  -7   -0.26    1.23
  24 -11  -4   50.22    2.85
  24 -11  -1  131.63    5.23
  24 -11  -1  141.47    5.24
  24 -11  -1  129.22    5.84
  24 -11   5    1.72    0.88
  24 -11   5    1.30    1.20
  24 -10  -8  151.90    5.29
  24 -10  -8  142.21    5.34
  24 -10  -5   14.76    1.77
  24 -10  -2  641.43   20.53
  24 -10   1  958.21   30.36
  24 -10   1  992.37   30.66
  24 -10   4  178.31    6.27
  24 -10   4  173.78    6.57
  24 -10   7   82.34    3.37
  24  -9  -9    3.21    0.90
  24  -9  -6    1.86    1.33
  -9 -15  -3   34.69    3.24
  24  -9  -3   29.88    2.23
  24  -9  -3   33.39    2.55
  24  -9   0   46.46    2.73
  24  -9   0   46.65    3.46
  -9 -15   3   23.80    2.83
  24  -9   3   25.07    2.05
  24  -9   6    0.33    0.79
  -9 -15   6    0.18    2.03
  24  -9   6   -0.07    0.92
  24  -8  -7    5.36    1.30
  24  -8  -7    6.19    1.42
  24  -8  -4    2.76    1.44
  24  -8  -4    3.75    1.71
  24  -8  -1   19.11    2.02
  24  -8  -1   16.81    2.13
  -8 -16   2   -0.49    2.08
  -8 -16   5    4.61    2.35
  24  -8   5    5.80    1.15
  24  -8   5    6.24    1.43
  24  -8   8   31.47    1.76
  -7 -17  -8  163.17    5.89
  24  -7  -8  183.34    5.94
  24  -7  -8  168.98    5.91
  24  -7  -5    9.51    1.57
  24  -7  -5    8.56    1.75
  -7 -17  -2  388.51   15.39
  24  -7  -2  402.92   13.87
  24  -7  -2  435.18   13.95
  24  -7  -2  422.56   14.08
  -7 -17   1  458.89   17.20
  24  -7   1  476.42   15.32
  24  -7   4   18.64    1.88
  -7 -17   7  159.92    6.51
  24  -7   7  162.60    5.64
  24  -7   7  153.15    5.53
  24  -6  -9    7.44    0.79
  24  -6  -6   14.03    1.67
  24  -6  -6   13.37    1.77
  24  -6  -3  101.69    4.27
  -6 -18  -3   88.14    5.57
  24  -6  -3  101.04    4.43
  -6 -18   0   73.58    4.97
  24  -6   0   76.13    3.44
  24  -6   0   74.96    3.61
  -6 -18   3   19.90    2.89
  24  -6   3   20.23    1.90
  -6 -18   6   11.43    2.09
  24  -6   6   12.32    1.27
  24  -6   6   12.53    1.40
  24  -5  -7    9.79    1.28
  24  -5  -7    7.84    1.24
  24  -5  -4    3.47    1.40
  24  -5  -4    4.42    1.62
  24  -5  -1   41.28    2.89
  -5 -19  -1   32.83    3.51
  -5 -19   2   26.73    3.25
  -5 -19   5    8.29    2.17
  24  -5   5    8.41    1.32
  24  -5   8    3.34    0.74
  24  -5   8    3.53    0.88
  24  -4  -8   90.11    3.30
  -4 -20  -8   82.69    3.32
  24  -4  -5    5.22    1.48
  24  -4  -5    5.91    1.50
  24  -4  -2  109.28    4.62
  -4 -20  -2  105.58    6.11
  24  -4  -2  117.86    4.77
  24  -4   1  374.11   12.31
  -4 -20   1  362.80   14.21
  -4 -20   4  139.76    6.56
  24  -4   7   10.12    1.10
  -4 -20   7    8.32    1.58
  24  -4   7    9.02    1.13
  -3 -21  -9    3.16    0.85
  24  -3  -6   41.65    2.33
  24  -3  -3   98.43    4.21
  24  -3  -3   93.27    4.19
  -3 -21   0    4.75    2.64
  24  -3   3   32.62    2.33
  -3 -21   6   78.35    3.94
  24  -3   6   80.49    3.42
  24  -3   6   82.50    3.52
  24  -2  -7   79.03    3.16
  -2 -22  -7   77.73    3.38
  24  -2  -4   58.91    3.04
  24  -2  -4   61.99    3.01
  -2 -22  -1    4.01    2.09
  24  -2  -1    4.76    1.30
  -2 -22   5  157.81    6.43
  24  -2   5  161.40    5.91
  24  -2   5  153.23    5.97
  24  -2   8    6.52    0.87
  24  -1  -8   96.55    3.49
  -1 -23  -8  114.73    3.79
  24  -1  -5   11.88    1.64
  24  -1  -5    9.15    1.32
  24  -1  -2   95.31    4.07
  24  -1  -2   95.65    4.04
  -1 -23   4   50.37    2.86
  24  -1   4   47.97    2.81
  -1 -23   4   53.16    3.25
  24  -1   7   14.57    1.32
  24  -1   7   17.54    1.29
  24   0  -6  247.79    8.35
   0 -24  -6  252.00    8.63
  24   0  -3  549.04   17.46
   0 -24  -3  526.97   17.82
  24   0   0  136.56    5.24
   0 -24   3   40.05    2.75
  24   0   3   43.51    2.52
  24   0   6  201.88    6.96
  24   0   6  198.50    7.00
  24   1  -7   30.73    1.50
   1 -25  -7   37.06    1.92
  24   1  -4   28.60    1.93
   1 -25  -4   23.37    2.03
  24   1  -1    6.25    1.33
   1 -25   2   87.39    4.31
  24   1   5   98.79    4.05
  24   1   8   10.78    0.82
   2 -26  -8   13.91    0.87
   2 -26  -8    7.05    0.90
  24   2  -5    8.74    1.18
  24   2  -2  114.07    4.56
   2 -26  -2  118.54    5.20
   2 -26   1  102.62    4.86
   2 -26   4    5.97    1.38
  24   2   4    7.83    1.56
  24   2   7   10.46    1.09
  24   3  -6  189.66    6.23
  24   3  -3  488.72   15.54
   3 -27  -3  474.05   15.94
   3 -27   0  155.08    6.39
   3 -27   3   32.74    2.44
  24   3   3   36.07    2.23
  24   3   6  229.45    7.73
  24   3   6  233.10    7.76
   4 -28  -7   15.70    1.24
  24   4  -4   46.28    2.20
   4 -28  -4   47.35    2.42
   4 -28  -1   12.68    2.20
   4 -28   2   10.17    1.92
  24   4   2   10.20    1.50
  24   4   5   39.25    2.09
   5 -29  -5   13.24    1.28
   5 -29  -2   42.02    2.78
   5 -29   1   13.71    2.19
  24   5   4    2.20    1.04
  24   5   4    1.16    0.90
   6 -30  -6  166.87    5.58
   6 -30  -3  475.36   15.02
   6 -30  -3  451.61   14.75
   6 -30   0  135.72    5.54
   6 -30   3   75.75    3.33
  24   6   3   76.67    3.17
  24   6   6  319.53   10.29
  24   6   6  326.53   10.28
   7 -31  -4   12.17    1.12
   7 -31  -4   12.64    1.10
   7 -31  -1   11.60    1.76
   7 -31   2    0.34    1.27
  24   7   2    1.27    0.91
  24   7   5   11.76    1.12
  24   7   5   11.37    1.08
   8 -32  -5   11.11    0.91
   8 -32  -2   13.56    1.54
   8 -32   1    1.09    1.32
  24   8   1    1.15    0.83
  24   8   4   17.15    1.23
   9 -33  -3  275.24    8.97
   9 -33   0   91.09    3.85
  24   9   0   92.61    3.42
  24   9   3   32.26    1.59
   9 -33   3   28.33    1.58
  10 -34  -1   37.59    2.02
  24  10  -1   34.71    1.58
  10 -34   2   29.89    1.72
  11 -35  -2    0.92    0.98
  11 -35   1   33.81    1.87
  24  11   4   31.25    1.30
  12 -36   0   45.31    2.05
  13 -37  -1   11.17    0.88
  25 -35   0    7.30    1.22
  25 -34  -1   10.12    1.24
  25 -33  -2  158.01    5.50
  25 -33   1  207.64    7.08
  25 -32   0   11.99    1.53
  25 -31  -1   20.83    1.80
  25 -31   2   11.29    1.39
  25 -30  -2  105.91    4.19
  25 -30   1  119.85    4.68
  25 -29   0   77.84    3.56
  25 -28  -1   25.18    2.14
  25 -28   2   24.63    2.06
  25 -27  -2   46.23    2.64
  25 -27   1   52.33    2.86
  25 -26   0  144.98    5.65
  25 -25  -4   98.22    3.93
  25 -25  -1   81.80    3.77
  25 -25   2    2.85    1.43
  25 -24  -8    9.41    0.79
  25 -24  -8    8.53    0.86
  25 -24  -5   91.08    3.67
  25 -24  -2   94.38    4.06
  25 -24   1    6.23    1.65
  25 -23  -6  120.97    4.56
  25 -23  -3  371.95   12.35
  25 -23   0  173.05    6.52
 -23  -2   3   18.94    2.29
  25 -22  -7   15.73    1.35
  25 -22  -4  136.77    5.17
  25 -22  -1  165.17    6.27
 -22  -3   5   36.09    2.63
  25 -21  -8   24.42    1.55
  25 -21  -5   28.62    1.96
  25 -21  -2    3.40    1.30
  25 -21   1   41.12    2.61
 -21  -4   4   96.09    4.88
  25 -20  -9    9.89    0.76
  25 -20  -6   71.71    3.27
  25 -20  -3  329.98   11.04
  25 -20   0  173.60    6.31
 -20  -5   6  173.92    6.85
  25 -19  -7    5.39    1.25
  25 -19  -4   58.24    2.93
  25 -19  -1  170.89    6.47
 -19  -6   5    0.70    1.84
  25 -18  -5  160.32    6.07
  25 -18  -2    9.33    1.49
  25 -18  -2    8.08    1.66
 -18  -7   7   40.77    2.67
  25 -17  -9   11.61    0.92
  25 -17  -9   15.14    1.10
  25 -17  -6   25.71    2.17
  25 -17  -3  181.66    6.66
  25 -17   0  103.49    4.33
 -17  -8   6  197.05    7.93
  25 -16  -4   11.25    1.60
  25 -16  -1   76.73    3.24
  25 -16  -1   71.66    3.23
  25 -16  -1   75.06    3.76
 -16  -9   5   -1.00    2.28
  25 -15  -8  193.97    6.68
  25 -15  -5  209.40    7.64
  25 -15  -2   -2.03    1.50
  25 -15  -2    0.11    1.64
  25 -15   1  326.14   10.99
  25 -15   4  375.32   12.31
 -15 -10   7   69.14    3.78
  25 -14  -9    6.48    0.80
  25 -14  -9    5.17    0.90
  25 -14  -3  121.50    4.91
  25 -14   0   57.22    2.84
  25 -14   0   55.63    3.07
  25 -14   3    3.42    1.19
 -14 -11   6   49.63    3.63
  25 -13  -7   32.71    2.09
  25 -13  -4    1.36    1.35
  25 -13  -1   74.83    3.40
  25 -13  -1   79.17    3.49
  25 -13  -1   73.55    3.75
  25 -13   2  144.48    5.42
 -13 -12   5   47.59    3.93
  25 -12  -8  263.82    8.72
  25 -12  -8  262.28    8.79
  25 -12  -2    1.90    1.69
  25 -12  -2    0.78    1.70
  25 -12   1  392.56   12.80
  25 -12   4  520.82   16.89
 -12 -13   7  107.06    5.01
  25 -11  -9   20.41    1.17
  25 -11  -6   40.06    2.53
  25 -11  -3   11.39    1.59
  25 -11  -3   11.24    1.84
  25 -11   0   13.58    1.60
  25 -11   0   15.38    1.91
  25 -11   3   62.75    3.04
  25 -11   6   66.85    2.78
  25 -10  -7   32.64    2.07
  25 -10  -7   32.72    2.11
  25 -10  -4   14.06    2.01
  25 -10  -1    9.35    1.61
  25 -10   5   58.37    2.68
  25 -10   5   56.21    2.94
 -10 -15   5   61.85    4.22
  25  -9  -8  297.57    9.19
  25  -9  -8  290.18    9.22
  25  -9  -5  351.87   11.93
  25  -9  -5  353.76   12.07
  -9 -16  -2    3.13    2.64
  25  -9  -2    2.05    1.32
  25  -9  -2    4.90    1.38
  25  -9  -2    6.60    1.80
  25  -9   1  487.30   15.77
  25  -9   4  574.11   17.99
  25  -9   4  547.74   18.24
  -9 -16   7   90.81    4.41
  25  -8  -9   23.01    1.18
  25  -8  -6   28.20    2.10
  25  -8  -6   31.45    2.37
  25  -8  -3   11.25    1.83
  -8 -17   0  199.11    8.98
  25  -8   0  201.28    7.29
  25  -8   3  158.17    6.04
  -8 -17   6   15.71    2.37
  25  -8   6   15.52    1.40
  25  -8   6   16.24    1.31
  25  -7  -7    6.53    1.19
  25  -7  -7    4.81    1.18
  25  -7  -4    2.25    1.32
  25  -7  -4    2.99    1.57
  -7 -18  -1   46.36    4.20
  25  -7  -1   50.20    2.69
  25  -7  -1   48.76    2.87
  -7 -18   2   81.14    5.17
  -7 -18   5   11.89    2.44
  25  -7   5    9.27    1.26
  25  -7   5   11.53    1.62
  25  -6  -8  145.00    4.92
  -6 -19  -8  142.02    4.86
  25  -6  -8  134.54    4.70
  25  -6  -5  255.12    8.63
  25  -6  -5  233.45    8.63
  -6 -19  -2    0.26    1.95
  25  -6  -2    3.12    1.59
  25  -6   1  177.86    6.41
  -6 -19   1  172.42    8.35
  25  -6   4  294.60   10.23
  -6 -19   7   74.79    3.70
  25  -6   7   75.70    2.97
  25  -5  -6   11.90    1.52
  25  -5  -3   29.14    2.16
  25  -5  -3   30.73    2.29
  25  -5   0  128.41    4.99
  -5 -20   0  123.29    6.62
  -5 -20   6    2.06    1.59
  25  -5   6    0.83    0.90
  25  -5   6    1.28    1.06
  25  -4  -7   37.39    1.91
  -4 -21  -7   37.01    2.05
  25  -4  -4   95.51    4.13
  25  -4  -4   90.88    4.08
  25  -4  -1   35.07    2.33
  -4 -21   5   52.02    3.35
  25  -4   5   49.89    2.62
  25  -4   8   23.03    1.34
  25  -3  -8   53.25    2.20
  -3 -22  -8   62.07    2.39
  25  -3  -5  229.20    8.07
  25  -3  -5  228.82    7.97
  25  -3  -2   88.24    3.92
  25  -3  -2   91.67    3.97
  25  -3   4  173.80    6.43
  -3 -22   4  160.44    7.02
  25  -3   7   77.17    3.07
  25  -3   7   76.35    3.01
  25  -2  -6    9.63    1.24
  25  -2  -6    7.34    1.02
  25  -2  -3  161.60    6.01
  25  -2  -3  155.65    5.94
  25  -2   0  387.72   12.84
  25  -2   3   78.23    3.67
  25  -2   6   32.50    1.83
  -2 -23   6   28.26    2.03
  25  -2   6   29.25    1.87
  25  -1  -7   24.44    1.35
  -1 -24  -7   24.97    1.65
  25  -1  -4   85.36    3.56
  25  -1  -4   78.64    3.35
  25  -1  -1   32.29    2.11
  25  -1   5   73.56    3.25
  25  -1   5   70.09    3.27
  25  -1   8   38.97    1.63
   0 -25  -8   64.25    2.36
  25   0  -5   95.80    3.81
  25   0  -2    1.21    1.20
   0 -25   4  105.64    4.42
  25   0   4  109.99    4.54
  25   0   7   21.87    1.36
  25   0   7   19.03    1.27
  25   1  -6    3.48    0.80
  25   1  -3  239.05    8.26
   1 -26  -3  240.29    8.69
   1 -26   3  212.50    7.93
  25   1   3  222.08    7.79
  25   1   6    4.35    0.94
   2 -27  -7    5.85    0.87
  25   2  -4   33.90    1.92
   2 -27  -4   30.97    2.09
   2 -27  -1   34.09    2.80
   2 -27   2    2.23    1.73
  25   2   5   24.06    1.64
  25   3  -5    4.57    0.80
   3 -28  -5    3.64    1.09
   3 -28  -2    3.48    1.83
   3 -28   1   44.67    3.03
  25   3   4   35.69    2.00
  25   3   4   35.81    2.03
  25   3   7    2.70    0.61
   4 -29  -6   19.00    1.36
   4 -29  -3  174.54    6.42
   4 -29   0  529.80   17.51
   4 -29   3  213.21    7.57
  25   4   3  215.81    7.44
  25   4   6    9.14    1.05
   5 -30  -4    3.40    0.93
   5 -30  -4    2.89    0.98
   5 -30  -1    9.91    1.91
   5 -30   2    7.61    1.54
  25   5   2    7.43    1.22
  25   5   5   -0.26    0.78
   6 -31  -5    0.08    0.77
   6 -31  -2    8.23    1.47
   6 -31   1   14.14    1.76
  25   6   1   15.48    1.35
  25   6   4    1.78    0.88
  25   6   4    2.10    0.77
   7 -32  -3  119.61    4.39
   7 -32   0  372.41   12.36
  25   7   3  123.00    4.32
   7 -32   3  116.01    4.31
  25   7   3  117.30    4.16
   8 -33  -1    1.87    1.25
  25   8   2   10.28    0.95
   8 -33   2   10.42    1.27
  25   8   5    8.17    0.74
  25   8   5    8.27    0.68
   9 -34  -2   27.39    1.65
  25   9   1    3.23    0.67
   9 -34   1    4.65    1.14
  25   9   4    4.52    0.66
  25   9   4    6.86    0.64
  10 -35   0  261.37    8.61
  25  10   3   74.92    2.65
  11 -36  -1    3.41    0.79
  11 -36   2    9.08    0.77
  12 -37   1    1.33    0.60
  26 -34   0   81.87    3.25
  26 -33  -1   37.79    2.03
  26 -32   1  103.03    4.00
  26 -31   0  202.84    7.11
  26 -30  -1   72.23    3.20
  26 -30   2   28.16    1.94
  26 -29  -2    3.04    1.31
  26 -29   1   73.83    3.40
  26 -28   0  406.27   13.44
  26 -27  -1  100.67    4.32
  26 -27   2   54.39    2.85
  26 -26  -2   13.48    1.67
  26 -26   1   43.04    2.65
  26 -25  -6    3.23    0.96
  26 -25   0  566.95   18.36
  26 -24  -7   13.20    1.06
  26 -24  -7   10.93    1.16
  26 -24  -4    5.88    1.28
  26 -24  -1  104.23    4.44
  26 -23  -8    1.56    0.58
  26 -23  -8    2.49    0.73
  26 -23  -5   29.71    1.86
  26 -23  -2   87.45    3.66
 -23  -3   4    1.70    1.59
  26 -22  -6   35.98    2.01
  26 -22  -3   74.96    3.12
  26 -22  -3   69.94    3.38
 -22  -4   6    1.33    1.16
  26 -21  -7   63.20    2.72
  26 -21  -4   17.49    1.57
  26 -21  -1   20.66    1.73
 -21  -5   5   45.02    3.02
  26 -20  -8    5.72    1.02
  26 -20  -8    5.93    1.13
  26 -20  -5   84.24    3.68
  26 -20  -2  121.83    4.54
  26 -20  -2  118.69    4.86
 -20  -6   4    9.32    2.24
  26 -19  -6   20.18    1.77
  26 -19  -3   83.04    3.62
  26 -19  -3   86.33    3.92
  26 -19   0  263.14    9.03
 -19  -7   6   18.71    2.11
  26 -18  -7   29.59    1.86
  26 -18  -4   14.76    1.64
  26 -18  -1   16.08    1.82
 -18  -8   5   78.35    4.48
  26 -17  -8    1.11    1.17
  26 -17  -5  144.21    5.57
  26 -17  -2  149.44    5.55
  26 -17  -2  150.27    5.89
 -17  -9   7  172.20    6.65
  26 -16  -9   60.87    2.28
  26 -16  -9   62.81    2.35
  26 -16  -6   11.25    1.57
  26 -16  -3   49.33    2.67
  26 -16  -3   50.28    2.93
  26 -16   0  199.95    7.28
  26 -16   3  105.87    4.10
 -16 -10   6    3.00    1.81
  26 -15  -4   69.64    3.37
  26 -15  -1    5.86    1.43
  26 -15  -1    5.30    1.64
  26 -15   2   31.06    1.94
 -15 -11   5   74.81    4.58
  26 -14  -8   11.75    1.20
  26 -14  -8   11.21    1.30
  26 -14  -5  287.54    9.95
  26 -14  -2  311.37   10.48
  26 -14  -2  308.48   10.78
  26 -14   1    8.53    1.17
  26 -14   4  163.44    5.97
 -14 -12   7  242.59    8.92
  26 -13  -9    6.42    0.75
  26 -13  -3   91.07    3.95
  26 -13   0   95.77    3.98
  26 -13   0   96.96    4.27
  26 -13   3   16.08    1.59
 -13 -13   6   10.88    2.22
  26 -12  -7   59.07    2.74
  26 -12  -7   57.69    2.85
  26 -12  -4  148.61    5.84
  26 -12  -4  154.91    6.09
  26 -12  -1   72.12    3.31
  26 -12  -1   71.42    3.62
  26 -12   5   60.16    2.90
  26 -11  -8   23.03    1.40
  26 -11  -8   22.08    1.50
  26 -11  -5  432.85   14.48
  26 -11  -2  620.71   20.09
  26 -11  -2  630.15   20.14
  26 -11   1   29.80    1.95
  26 -11   4  219.62    7.46
  26 -11   4  215.65    7.78
  26 -10  -9    0.75    0.55
  26 -10  -6   64.07    3.06
  26 -10  -6   60.60    3.19
  26 -10  -3  113.34    4.61
  26 -10  -3  109.94    4.83
  26 -10   0   16.79    1.64
  26 -10   0   15.16    1.81
  26 -10   3   36.96    2.31
 -10 -16   6   90.28    4.52
  26 -10   6   78.76    3.22
  26  -9  -7   10.44    1.23
  26  -9  -7    8.71    1.32
  26  -9  -4   24.15    2.25
  26  -9  -1    4.16    1.29
  -9 -17  -1    3.82    2.19
  26  -9   5   80.50    3.24
  26  -9   5   80.90    3.40
  26  -9   5   85.89    3.68
  -9 -17   5   85.65    4.78
  26  -8  -8    4.25    1.02
  -8 -18  -8    2.17    0.74
  26  -8  -8    2.44    0.84
  26  -8  -5  276.53    9.50
  26  -8  -5  272.72    9.62
  26  -8  -2  413.17   13.56
  26  -8  -2  401.59   13.71
  26  -8   1   15.09    1.51
  -8 -18   1   12.58    2.64
  26  -8   4  176.89    6.31
  26  -8   4  175.68    6.63
  -8 -18   7  227.94    8.31
  26  -7  -6  121.65    4.63
  26  -7  -6  111.50    4.58
  26  -7  -3   79.98    3.86
  -7 -19   0    0.83    1.96
  26  -7   0    2.30    1.19
  26  -7   3  148.58    5.73
  -7 -19   6   90.65    4.35
  26  -7   6   90.86    3.45
  26  -6  -7   19.37    1.47
  -6 -20  -7   20.15    1.51
  26  -6  -7   19.38    1.37
  26  -6  -4   41.04    2.53
  26  -6  -4   41.97    2.65
  26  -6  -1    7.12    1.40
  26  -6  -1    5.15    1.47
  26  -6   5   45.44    2.39
  26  -6   5   46.73    2.66
  -6 -20   5   39.80    3.18
  26  -5  -8    0.03    0.68
  -5 -21  -8    1.10    0.74
  26  -5  -5  130.34    5.11
  26  -5  -5  127.28    5.04
  26  -5  -2  421.40   14.02
  -5 -21   4   20.05    2.63
  26  -5   7  121.69    4.26
  26  -4  -6   87.77    3.50
  26  -4  -6   81.53    3.34
  26  -4  -3    8.09    1.48
  26  -4  -3    8.49    1.57
  26  -4   6   79.76    3.18
  -4 -22   6   78.30    3.68
  26  -4   6   78.93    3.23
  26  -3  -7    0.23    0.75
  -3 -23  -7    0.97    0.91
  26  -3  -4   74.72    3.35
  26  -3  -4   66.56    3.18
  -3 -23  -4   67.44    3.44
  26  -3  -1  137.42    5.31
  -3 -23   5    5.13    1.45
  26  -3   5    7.27    1.22
  26  -3   5    5.46    1.41
  -2 -24  -8    0.92    0.53
  26  -2  -5   70.15    2.98
  26  -2  -5   61.05    2.74
  26  -2  -2  189.38    6.89
  -2 -24   4   17.49    2.02
  -2 -24   4   20.05    1.89
  26  -2   4   22.58    2.03
  26  -2   7   73.05    2.76
  26  -1  -6  310.40   10.14
  -1 -25  -6  318.93   10.40
  26  -1  -3   61.76    3.01
  -1 -25  -3   62.08    3.40
  -1 -25   3  454.43   15.16
  26  -1   3  455.71   14.96
  26  -1   6  124.70    4.46
  26  -1   6  122.49    4.49
  26   0  -7    0.66    0.55
   0 -26  -7    0.57    0.78
  26   0  -4   27.09    1.79
   0 -26  -4   24.41    1.97
  26   0  -1   37.13    2.19
   0 -26   2   11.30    1.93
  26   0   5    5.82    1.12
  26   0   5    4.89    1.09
  26   1  -5   32.46    1.70
   1 -27  -5   33.35    1.97
  26   1  -2   37.85    2.20
   1 -27  -2   35.68    2.80
   1 -27   1    0.12    1.87
   1 -27   4   27.05    1.82
  26   1   4   31.88    1.94
  26   1   7   35.98    1.52
  26   2  -3   87.88    3.46
   2 -28  -3   79.47    3.77
   2 -28   0  105.40    4.85
   2 -28   3  432.10   14.32
  26   2   3  440.55   14.21
  26   2   6  214.10    7.05
   3 -29  -4    5.85    1.06
   3 -29  -4    5.82    1.07
   3 -29  -1   15.18    2.07
   3 -29   2   17.28    1.85
  26   3   2   12.85    1.47
  26   3   5    2.96    0.89
   4 -30  -5    6.46    1.00
   4 -30  -2    5.18    1.51
   4 -30   1    2.18    1.50
  26   4   4    7.44    1.02
  26   4   4    8.04    0.99
   5 -31  -6   98.38    3.47
   5 -31  -3   46.19    2.25
   5 -31  -3   42.05    1.97
   5 -31   0  139.13    5.47
   5 -31   3  378.41   12.33
  26   5   3  384.12   12.23
   6 -32  -1    0.32    1.25
   6 -32   2    2.20    1.15
  26   6   2    0.59    0.77
  26   6   5    1.47    0.59
   7 -33  -2    1.56    1.04
  26   7   1    6.31    0.90
   7 -33   1    5.13    1.21
  26   7   4    0.92    0.65
   8 -34  -3   37.73    1.65
   8 -34   0   58.36    2.56
  26   8   0   51.69    2.13
  26   8   3  236.03    7.61
   9 -35  -1   25.00    1.55
  26   9   2    6.08    0.71
   9 -35   2    6.65    0.85
  26  10   1   21.44    1.07
  10 -36   1   27.11    1.30
  11 -37   0   38.42    1.58
  27 -30   0   96.44    3.98
  27 -29  -1   48.37    2.56
  27 -27   0  129.39    5.19
  27 -25  -5   25.32    1.64
  27 -24  -6  213.84    7.06
  27 -24  -6  211.00    7.19
  27 -24  -3   33.26    2.00
 -24  -3   3  419.28   14.41
  27 -23  -7   21.84    1.34
  27 -23  -7   23.16    1.52
  27 -23  -4   23.77    1.61
  27 -23  -4   26.69    1.97
 -23  -4   5   51.39    2.88
  27 -22  -8   19.63    1.04
  27 -22  -8   21.57    1.19
  27 -22  -5    1.71    1.04
  27 -22  -2   39.04    2.30
 -22  -5   4   39.38    2.94
  27 -21  -6  280.91    9.35
  27 -21  -3   66.46    2.93
  27 -21  -3   66.57    3.26
  27 -21   0   86.44    3.55
 -21  -6   6  135.33    5.39
  27 -20  -7   23.92    1.51
  27 -20  -7   25.67    1.75
  27 -20  -4   65.31    3.10
  27 -20  -4   72.87    3.44
  27 -20  -1   35.28    2.22
 -20  -7   5   84.20    4.38
  27 -19  -8   59.77    2.37
  27 -19  -5    0.76    1.20
  27 -19  -2   86.96    3.53
  27 -19  -2   85.90    3.93
 -19  -8   4   11.95    2.42
  27 -18  -6  198.63    7.01
  27 -18  -3   34.06    2.17
  27 -18  -3   37.33    2.45
  27 -18   0   96.74    4.08
 -18  -9   6  100.38    4.65
  27 -17  -7    1.22    0.93
  27 -17  -4   32.49    2.12
  27 -17  -4   31.97    2.44
  27 -17  -1   59.30    2.71
  27 -17  -1   66.09    3.23
 -17 -10   5   18.25    2.56
  27 -16  -8   61.32    2.65
  27 -16  -5    7.17    1.62
  27 -16  -2  257.22    8.93
  27 -16  -2  263.25    8.97
  27 -16  -2  264.24    9.31
 -16 -11   7   54.03    3.00
  27 -15  -6  127.32    4.84
  27 -15  -6  121.30    4.98
  27 -15  -3   24.81    1.94
  27 -15  -3   28.23    2.33
  27 -15   0   18.90    1.54
  27 -15   0   22.06    1.92
  27 -15   3   76.06    3.28
 -15 -12   6   26.36    2.54
  27 -14  -7    3.46    1.24
  27 -14  -4   56.51    2.92
  27 -14  -1  156.07    5.71
  27 -14  -1  152.49    6.04
  27 -14   2   62.28    2.88
 -14 -13   5    1.33    2.04
  27 -13  -8  129.38    4.37
  27 -13  -8  115.89    4.38
  27 -13  -5    1.45    1.45
  27 -13  -5    0.52    1.70
  27 -13  -2  270.92    9.34
  27 -13  -2  276.70    9.45
  27 -13  -2  266.34    9.63
  27 -13   1  320.43   10.60
  27 -13   4   16.71    1.54
 -13 -14   7   92.97    4.26
  27 -12  -6   18.41    1.65
  27 -12  -6   18.15    1.87
  27 -12  -3   26.25    2.00
  27 -12   0  147.87    5.49
  27 -12   0  147.25    5.76
  27 -12   3  131.70    5.12
  27 -11  -7   16.24    1.36
  27 -11  -7   16.52    1.49
  27 -11  -4   23.91    2.00
  27 -11  -4   24.01    2.27
  27 -11  -1  135.78    5.23
 -11 -16   5    2.24    2.11
  27 -11   5    0.61    0.71
  27 -11   5   -0.50    1.18
  27 -10  -8  128.71    4.44
  27 -10  -8  125.14    4.38
  27 -10  -5    0.88    1.45
  27 -10  -5    2.72    1.78
  27 -10  -2  368.14   12.19
  27 -10  -2  357.07   12.39
  27 -10   1  486.52   15.71
  27 -10   4   51.59    2.45
  27 -10   4   54.68    2.85
 -10 -17   7   61.76    3.20
  27  -9  -6    3.28    1.22
  27  -9  -6    3.21    1.30
  27  -9  -3  145.68    5.57
  27  -9  -3  138.37    5.71
  27  -9   0  113.17    4.53
  27  -9   3    1.54    1.29
  -9 -18   6   43.54    2.96
  27  -9   6   45.06    2.06
  27  -8  -7    2.07    0.99
  -8 -19  -7   -0.30    0.90
  27  -8  -7    2.63    0.95
  27  -8  -4   56.66    3.09
  27  -8  -1   88.63    3.89
  27  -8  -1   89.61    4.06
  -8 -19   5   11.64    2.23
  27  -8   5   10.49    1.08
  27  -8   5   12.30    1.33
  27  -8   5    9.65    1.50
  27  -7  -8   89.10    3.15
  27  -7  -5    1.99    1.41
  27  -7  -5    1.16    1.38
  27  -7  -2  167.01    6.18
  27  -7  -2  161.34    6.32
  27  -7   4  113.96    4.41
  27  -7   4  118.34    4.75
  -7 -20   4  106.51    5.55
  27  -6  -6   21.44    1.62
  27  -6  -6   19.22    1.52
  27  -6  -3  120.46    4.95
  27  -6   0   50.64    2.62
  27  -6   3    8.06    1.49
  -6 -21   6   98.96    4.31
  27  -6   6  100.69    3.69
  27  -6   6   91.42    3.54
  27  -5  -7   35.46    1.82
  -5 -22  -7   41.06    1.97
  27  -5  -4   15.45    1.77
  27  -5  -4   12.57    1.71
  -5 -22   5    2.64    1.52
  27  -5   5    2.44    1.02
  27  -4  -5   27.75    1.85
  27  -4  -5   26.57    1.74
  27  -4  -2   60.98    3.04
  27  -4   4   90.11    3.75
  -4 -23   4   89.91    3.95
  -4 -23   4   94.10    4.52
  27  -3  -6  138.45    4.88
  -3 -24  -6  137.11    5.05
  27  -3  -3  364.62   12.13
  27  -3   3   74.84    3.49
  -3 -24   3   67.37    3.88
  27  -3   6  213.97    7.15
  27  -3   6  216.74    7.21
  27  -2  -7   27.14    1.27
  -2 -25  -7   28.36    1.48
  -2 -25  -4    0.18    1.32
  27  -2  -4    0.30    1.11
  27  -2  -1   48.96    2.60
  27  -2   5    1.46    0.96
  27  -2   5    1.21    1.05
  27  -1  -5    1.36    0.91
  27  -1  -2   51.22    2.67
  -1 -26  -2   51.33    3.31
  27  -1   4   29.59    1.83
  -1 -26   4   30.01    1.91
  27  -1   4   32.77    2.04
  27  -1   7    2.26    0.50
  27   0  -6  109.93    3.78
  27   0  -3  393.51   12.47
   0 -27  -3  368.00   12.76
   0 -27   0  134.74    5.77
   0 -27   3   59.45    3.08
  27   0   3   60.79    2.91
  27   0   6  291.01    9.65
  27   0   6  313.90    9.72
   1 -28  -4    0.63    1.00
  27   1  -4   -0.05    0.84
   1 -28  -1   35.98    2.71
   1 -28   2   60.59    3.18
  27   1   2   58.63    2.85
  27   1   5   19.45    1.30
   2 -29  -5    0.21    0.88
   2 -29  -2   10.69    1.73
   2 -29   1   22.01    2.11
  27   2   4    2.86    0.95
   3 -30  -6  108.01    3.65
   3 -30  -3  402.81   12.87
   3 -30  -3  390.09   12.68
   3 -30   0  161.50    6.22
   3 -30   3   38.71    2.16
  27   3   3   41.00    2.08
  27   3   6  216.67    6.91
   4 -31  -4    1.75    0.73
   4 -31  -1    5.17    1.43
   4 -31   2    1.79    1.20
  27   4   2    1.62    0.89
  27   4   5    0.43    0.60
  27   4   5    0.51    0.63
   5 -32  -2    0.80    1.06
   5 -32   1   -0.30    1.16
  27   5   1   -0.22    0.84
  27   5   4    0.25    0.79
   6 -33  -3  249.86    8.08
   6 -33   0   89.67    3.74
  27   6   0   96.81    3.48
  27   6   3   26.85    1.52
  27   6   3   27.50    1.34
  27   7  -1   -0.11    0.68
   7 -34  -1   -0.38    1.14
  27   7   2    4.62    0.85
  27   7   2    4.45    0.72
   7 -34   2    5.24    1.06
   8 -35  -2   -0.27    0.64
   8 -35   1   10.40    1.05
   9 -36   0   35.39    1.61
  28 -24  -5   37.83    2.03
  28 -24  -2   10.21    1.18
  28 -23  -6  169.04    5.95
  28 -23  -6  188.84    6.19
  28 -23  -3  457.86   14.87
 -23  -5   3   54.55    3.42
  28 -22  -7    6.61    0.95
  28 -22  -7    6.42    1.20
  28 -22  -4   17.90    1.45
  28 -22  -4   19.00    1.81
  28 -22  -1   54.32    2.59
 -22  -6   5    7.48    1.52
  28 -21  -8   31.07    1.43
  28 -21  -5   80.62    3.32
  28 -21  -5   80.28    3.52
  28 -21  -2   31.26    2.09
 -21  -7   4   75.89    4.19
  28 -20  -6  197.25    6.85
  28 -20  -6  204.20    7.06
  28 -20  -3  379.75   12.23
  28 -20  -3  371.73   12.31
  28 -20  -3  382.13   12.66
  28 -20   0   82.57    3.52
 -20  -8   6  216.13    7.85
  28 -19  -7   14.61    1.17
  28 -19  -4    8.53    1.29
  28 -19  -4    8.85    1.72
  28 -19  -1   76.33    3.48
 -19  -9   5    7.37    1.88
  28 -18  -8   63.60    2.28
  28 -18  -8   68.99    2.43
  28 -18  -5   69.56    3.09
  28 -18  -5   66.97    3.33
  28 -18  -2   -1.79    0.95
  28 -18  -2    0.73    1.01
  28 -18  -2    2.26    1.39
 -18 -10   4  126.36    6.03
  28 -17  -6  117.76    4.48
  28 -17  -3  236.62    8.43
  28 -17  -3  248.63    8.50
  28 -17  -3  254.36    8.84
  28 -17   0   64.28    3.13
 -17 -11   6  129.94    5.50
  28 -16  -7   69.17    3.01
  28 -16  -4   14.34    1.60
  28 -16  -4   10.95    1.80
  28 -16  -1   32.85    1.91
  28 -16  -1   33.77    2.32
  28 -16   2  105.78    4.09
 -16 -12   5   52.21    3.61
  28 -15  -8  120.27    4.14
  28 -15  -8  120.83    4.21
  28 -15  -5  139.07    5.30
  28 -15  -2    0.33    1.04
  28 -15  -2    0.87    1.46
  28 -15   4  230.62    7.87
 -15 -13   7   24.42    1.98
  28 -14  -6   73.85    3.39
  28 -14  -3  106.16    4.44
  28 -14  -3  113.07    4.50
  28 -14   0   10.65    1.23
  28 -14   0   11.71    1.57
  28 -14   3   38.04    2.15
 -14 -14   6   81.11    4.10
  28 -13  -7  125.61    4.56
  28 -13  -7  126.07    4.65
  28 -13  -4   55.44    2.86
  28 -13  -4   53.25    3.09
  28 -13  -1   14.49    1.51
  28 -13  -1   13.76    1.79
  28 -13   2  128.74    4.96
  28 -12  -8  168.53    5.57
  28 -12  -5  256.54    9.03
  28 -12  -2    7.08    1.34
  28 -12   4  229.43    7.99
  28 -11  -6   77.25    3.34
  28 -11  -6   79.30    3.42
  28 -11  -3   21.21    1.85
  28 -11  -3   19.21    2.01
  28 -11   0   32.48    1.98
  28 -11   3   92.30    3.95
 -11 -17   6   36.23    2.68
  28 -10  -7   66.41    2.74
 -10 -18  -7   65.80    2.65
  28 -10  -7   62.12    2.69
  28 -10  -4   39.53    2.50
  28 -10  -4   39.04    2.69
  28 -10  -1   17.08    1.64
  28 -10   2  146.14    5.61
  28 -10   5   67.81    2.80
  28 -10   5   70.08    3.10
 -10 -18   5   62.14    3.89
  28  -9  -8  147.34    4.85
  28  -9  -5  232.17    8.17
  28  -9  -2   10.22    1.47
  28  -9  -2    6.73    1.70
  28  -9   4  304.86   10.09
  28  -9   4  304.70   10.39
  -9 -19   4  308.21   11.52
  28  -8  -6   66.75    2.85
  28  -8  -6   60.93    2.81
  28  -8  -3   -0.20    1.41
  28  -8   0  100.24    4.11
  28  -8   3   62.72    3.12
  -8 -20   6    0.79    1.29
  28  -8   6   -0.05    0.67
  28  -7  -7   80.34    2.98
  -7 -21  -7   83.12    3.08
  28  -7  -4   26.65    2.07
  28  -7  -4   25.36    2.08
  28  -7  -1   42.98    2.43
  -7 -21   5   81.58    4.11
  28  -7   5   81.67    3.15
  28  -7   5   79.25    3.26
  28  -7   5   84.28    3.52
  28  -6  -5  192.68    6.64
  28  -6  -5  182.62    6.57
  28  -6  -2   33.12    2.27
  28  -6   4  194.75    6.78
  28  -6   4  203.02    7.05
  28  -5  -6    5.26    0.98
  28  -5  -3   66.31    3.15
  28  -5  -3   62.22    3.08
  28  -5   0  263.85    9.03
  28  -5   6    4.34    0.82
  28  -4  -7   92.52    3.34
  -4 -24  -7  103.43    3.51
  28  -4  -4  106.90    4.12
  -4 -24  -4   98.27    4.21
  28  -4   5   71.47    2.84
  28  -4   5   73.13    2.95
  28  -4   5   74.29    3.09
  28  -3  -5   95.38    3.67
  28  -3  -2   26.09    1.99
  28  -3   4  101.68    3.90
  28  -3   4   96.74    4.00
  28  -2  -6   17.60    1.17
  -2 -26  -6   17.32    1.47
  28  -2  -3  149.03    5.30
  -2 -26  -3  134.83    5.55
  -2 -26   3  132.35    5.23
  28  -2   3  131.15    5.06
  28  -2   6   16.83    1.20
  28  -2   6   19.11    1.14
  28  -1  -4   31.49    1.76
  -1 -27  -4   29.95    1.83
  -1 -27  -1   -0.35    1.86
  -1 -27   2   45.13    2.80
  28  -1   2   47.30    2.50
  28  -1   5   48.87    2.12
  28  -1   5   50.96    2.24
  28   0  -5   31.13    1.53
   0 -28  -5   33.19    1.79
   0 -28  -2   15.29    1.88
   0 -28   1    7.46    1.84
  28   0   4   39.83    1.97
  28   0   4   36.82    2.00
   1 -29  -6   14.64    0.94
   1 -29  -3  130.94    4.94
   1 -29   0  443.52   14.77
   1 -29   3  208.94    7.36
  28   1   3  218.64    7.34
  28   1   6    6.96    0.72
  28   1   6    6.90    0.63
   2 -30  -4    5.84    0.94
   2 -30  -1    1.65    1.41
   2 -30   2   12.03    1.52
  28   2   2   14.27    1.34
  28   2   5    7.43    0.79
   3 -31  -5    2.42    0.55
   3 -31  -2    1.65    1.17
   3 -31   1    1.28    1.30
  28   3   1    0.67    0.92
   4 -32  -3  117.74    4.18
   4 -32   0  339.97   11.24
  28   4   3  132.50    4.53
   4 -32   3  126.71    4.48
  28   4   3  128.25    4.46
   5 -33  -1   12.97    1.42
  28   5   2    7.04    0.90
   5 -33   2    6.08    1.14
   6 -34  -2    1.03    0.81
  28   6   1    1.41    0.72
   6 -34   1    1.63    1.07
   7 -35   0  253.81    8.22
   8 -36  -1    8.20    0.77
  29 -24  -4    0.87    1.00
  29 -23  -5   19.22    1.52
  29 -23  -2   40.60    2.20
 -23  -6   4    9.11    1.70
  29 -22  -6    2.44    0.75
  29 -22  -6    2.89    1.03
  29 -22  -3  251.69    8.69
  29 -21  -7   36.38    1.65
  29 -21  -7   40.11    1.87
  29 -21  -4   37.75    1.98
  29 -21  -4   37.29    2.30
  29 -21  -1    2.24    1.13
 -21  -8   5   37.08    2.59
  29 -20  -5   83.96    3.28
  29 -20  -5   82.95    3.35
  29 -20  -5   84.11    3.59
  29 -20  -2  109.25    4.49
 -20  -9   4   16.30    2.31
  29 -19  -6    1.66    0.92
  29 -19  -6    1.62    1.15
  29 -19  -3  251.49    8.60
  29 -19  -3  262.72    8.72
  29 -19  -3  259.51    9.04
 -19 -10   6   25.15    1.98
  29 -18  -7   24.28    1.42
  29 -18  -7   26.22    1.52
  29 -18  -4  107.70    4.24
  29 -18  -4  111.38    4.27
  29 -18  -4  105.60    4.54
  29 -18  -1   31.84    2.12
 -18 -11   5  108.93    5.04
  29 -17  -8   20.72    1.13
  29 -17  -5  206.20    7.20
  29 -17  -5  209.26    7.43
  29 -17  -2  170.66    6.01
  29 -17  -2  165.05    6.36
 -17 -12   4   80.77    4.60
  29 -16  -6    4.27    1.00
  29 -16  -6    4.58    1.34
  29 -16  -3   64.61    3.13
  29 -16  -3   71.34    3.57
  29 -16   0  139.98    5.03
  29 -16   3   29.50    1.71
 -16 -13   6   24.59    2.13
  29 -15  -7   39.41    1.89
  29 -15  -7   35.28    2.04
  29 -15  -4  168.95    6.29
  29 -15  -4  177.91    6.33
  29 -15  -1   77.37    3.29
  29 -15  -1   77.58    3.66
  29 -15   2    4.61    1.04
 -15 -14   5   75.15    4.19
  29 -14  -8    4.84    0.66
  29 -14  -8    3.92    0.69
  29 -14  -5  171.79    6.14
  29 -14  -5  168.49    6.35
  29 -14  -2  207.97    7.42
  29 -14  -2  216.96    7.79
  29 -14   4  100.78    4.00
 -14 -15   4  105.75    5.34
  29 -13  -6    7.94    1.19
  29 -13  -6    8.88    1.34
  29 -13  -3  120.00    4.72
  29 -13   0  134.03    4.98
  29 -13   3    9.47    1.34
 -12 -17  -7   22.03    1.24
  29 -12  -7   21.30    1.53
  29 -12  -4  168.99    6.12
  29 -12  -4  160.58    6.30
  29 -12  -1   97.87    3.98
  29 -12  -1   94.04    4.19
  29 -12   2   11.39    1.41
 -12 -17   5  140.73    6.16
  29 -11  -8    9.71    0.72
  29 -11  -5  255.65    8.61
  29 -11  -5  246.98    8.70
  29 -11  -2  335.22   11.11
  29 -11  -2  326.78   11.29
  29 -11   4   76.62    3.34
 -11 -18   4   69.80    4.39
  29 -10  -6   49.48    2.36
  29 -10  -3   59.05    3.00
  29 -10  -3   61.56    3.27
  29 -10   0    2.07    1.08
  29 -10   3   21.97    1.48
  29 -10   3   25.84    1.89
 -10 -19   6   23.61    2.00
  29  -9  -7   35.25    1.69
  -9 -20  -7   36.63    1.71
  29  -9  -7   30.74    1.63
  29  -9  -4  164.29    6.14
  29  -9  -1  102.86    4.19
  29  -9   2    0.89    1.24
  -9 -20   5   83.65    4.11
  29  -9   5   81.28    3.14
  29  -8  -5  188.24    6.45
  29  -8  -5  177.44    6.43
  29  -8  -2  304.62   10.54
  29  -8  -2  322.28   10.71
  29  -8   4   43.87    2.16
  29  -8   4   43.78    2.41
  -8 -21   4   45.00    3.20
  29  -7  -6   71.77    2.83
  29  -7  -6   67.09    2.72
  29  -7  -3   62.04    3.09
  29  -7   0    1.37    1.15
  29  -7   3   91.27    3.91
  29  -7   6   62.69    2.43
  29  -6  -7   27.41    1.25
  -6 -23  -7   24.50    1.30
  29  -6  -4  210.14    7.00
  29  -6  -4  199.55    6.95
  -6 -23  -4  185.32    7.03
  29  -6  -1  143.11    5.40
  29  -6   2    0.44    1.41
  -6 -23   5   99.50    4.25
  29  -6   5   99.55    3.71
  29  -5  -5   58.21    2.56
  -5 -24   4   12.57    1.69
  29  -5   4   15.87    1.33
  29  -4  -6  187.56    6.15
  -4 -25  -6  184.12    6.31
  29  -4  -3   36.21    2.10
  -4 -25  -3   36.30    2.48
  -4 -25   3  276.51    9.19
  -4 -25   3  245.28    9.35
  29  -4   6  115.64    4.00
  29  -3  -4   63.76    2.67
  -3 -26  -4   57.76    2.68
  -3 -26   2    0.63    1.56
  29  -3   2   -0.48    1.19
  29  -3   5   40.73    1.82
  29  -3   5   43.80    1.95
  29  -2  -5   34.15    1.65
  29  -2  -2   75.65    3.21
  -2 -27  -2   76.55    3.69
  -2 -27   1   47.09    2.87
  29  -2   4    1.47    0.87
  29  -2   4    0.74    0.95
  29  -1  -3   71.57    2.93
  -1 -28  -3   73.38    3.24
  -1 -28   0   79.49    3.85
  -1 -28   3  330.36   11.02
  29  -1   3  336.91   10.97
   0 -29  -4   52.76    2.32
   0 -29  -1   41.11    2.58
   0 -29   2    0.75    1.24
  29   0   2    0.40    0.97
  29   0   5   27.85    1.34
  29   0   5   28.12    1.41
   1 -30  -5   10.52    0.83
   1 -30  -2   20.49    1.73
   1 -30   1   10.31    1.52
  29   1   1   13.62    1.28
  29   1   4   -0.27    0.89
  29   1   4    0.79    0.94
   2 -31  -3   49.10    2.16
   2 -31  -3   45.29    1.96
   2 -31   0   94.00    3.92
   2 -31   3  310.01   10.40
  29   2   3  341.25   10.44
   3 -32  -1    3.15    1.20
   3 -32   2   12.75    1.32
  29   3   2   12.75    1.15
   4 -33  -2    0.60    0.98
   4 -33   1    1.54    1.20
  29   4   1    2.29    0.87
  29   4   4    1.10    0.48
   5 -34   0   67.64    2.66
  29   5   0   61.72    2.43
  29   5   3  220.06    7.01
   6 -35  -1    3.83    0.74
  29   6   2   11.85    0.77
  30 -24  -6  292.95    9.37
  30 -24  -3   81.86    3.28
 -24  -6   3  452.34   15.22
  30 -23  -4   28.97    1.83
  30 -22  -5    1.89    0.77
  30 -22  -5    1.87    1.03
  30 -22  -2   47.71    2.47
 -22  -8   4   15.78    1.96
  30 -21  -6  211.60    7.23
  30 -21  -6  234.06    7.44
  30 -21  -3   11.02    1.47
  30 -20  -7    0.24    0.76
  30 -20  -4   37.94    2.00
  30 -20  -4   37.16    2.24
  30 -20  -1  103.23    4.17
 -20 -10   5    5.26    1.42
  30 -19  -5    8.65    0.99
  30 -19  -5    6.55    1.10
  30 -19  -5    8.22    1.38
  30 -19  -2  129.89    5.13
 -19 -11   4   20.12    2.41
  30 -18  -6  133.38    4.76
  30 -18  -6  142.97    4.88
  30 -18  -3    6.91    1.11
  30 -18  -3    8.02    1.64
  30 -17  -7   18.26    1.10
  30 -17  -7   19.73    1.32
  30 -17  -4   31.11    1.84
  30 -17  -4   28.51    2.11
  30 -17  -1  170.22    6.07
  30 -17  -1  184.08    6.52
 -17 -13   5    2.99    1.56
  30 -16  -5   12.36    1.29
  30 -16  -5   13.46    1.40
  30 -16  -2  228.38    7.76
  30 -16  -2  224.94    8.12
  30 -16   1  221.21    7.51
 -16 -14   4   13.64    2.32
  30 -15  -6   85.46    3.42
  30 -15  -6   97.37    3.66
  30 -15  -3   10.55    1.43
  30 -15  -3   11.91    1.82
  30 -15   0   75.29    3.08
  30 -15   3  136.38    4.98
 -15 -15   6   23.14    1.96
  30 -14  -7   24.43    1.32
  30 -14  -7   25.04    1.43
  30 -14  -4   34.42    2.04
  30 -14  -1  208.18    7.29
  30 -14  -1  214.15    7.62
  30 -14   2  118.09    4.52
  30 -13  -5    1.27    1.05
  30 -13  -5    0.63    1.23
  30 -13  -2  171.80    6.21
  30 -13   4   36.30    1.99
  30 -12  -6   10.15    1.15
  30 -12  -6    9.83    1.20
  30 -12  -3    8.03    1.37
  30 -12  -3    8.65    1.75
  30 -12   0   50.41    2.46
  30 -12   3   25.16    1.84
  30 -11  -7   27.98    1.36
  30 -11  -4   34.03    1.99
  30 -11  -4   29.86    2.17
  30 -11  -1  263.49    8.96
  30 -11   2  166.29    6.08
 -11 -19   5   -0.39    1.52
  30 -10  -5    5.10    1.19
  30 -10  -2  208.94    7.41
  30 -10  -2  211.22    7.58
  30 -10   4   87.98    3.54
 -10 -20   4   77.30    4.33
  30  -9  -6   10.29    1.14
  30  -9  -6   11.04    1.09
  30  -9  -3   85.83    3.59
  30  -9  -3   80.12    3.66
  30  -9   3    2.16    0.90
  30  -9   3    1.31    1.20
  30  -8  -7   17.97    0.99
  30  -8  -4   31.66    1.97
  30  -8  -1  233.67    8.08
  30  -8   2  188.73    6.80
  -8 -22   5    4.03    1.29
  30  -7  -5    0.11    0.89
  30  -7   4   36.81    1.86
  30  -7   4   39.08    2.10
  -7 -23   4   37.80    2.59
  30  -6  -6   36.13    1.66
  -6 -24  -6   33.65    1.76
  30  -6  -3  150.82    5.49
  -6 -24   3    3.90    1.60
  30  -6   3    5.82    1.28
  -5 -25  -4    3.64    1.09
  30  -5  -4    2.79    0.96
  30  -5   5    5.21    0.79
  30  -4  -5    8.14    0.99
  30  -4  -2   26.57    1.73
  -4 -26  -2   23.12    2.19
  30  -4   4   33.82    1.72
  -3 -27  -6  118.59    4.04
  30  -3  -3  327.04   10.51
  -3 -27  -3  317.46   10.74
  -3 -27   0  101.81    4.56
  -3 -27   3   17.37    1.59
  30  -3   3   19.61    1.34
  30  -3   3   17.11    1.50
  -2 -28  -1   61.63    3.22
  -2 -28   2   68.11    3.27
  30  -2   2   70.80    3.03
  30  -2   5    0.97    0.53
  30  -2   5    0.70    0.62
  -1 -29  -5    2.42    0.68
  -1 -29  -2   15.44    1.59
  -1 -29   1   44.83    2.58
  30  -1   1   47.54    2.29
  30  -1   4   32.30    1.67
  30  -1   4   31.29    1.71
   0 -30  -3  317.17   10.26
   0 -30  -3  317.70   10.18
   0 -30   0  116.45    4.64
  30   0   3   41.54    1.90
   0 -30   3   37.00    1.90
  30   0   3   40.52    1.94
   1 -31  -4    4.77    0.63
   1 -31  -1   15.65    1.56
   1 -31   2    3.16    1.07
  30   1   2    4.90    1.00
   2 -32  -2    2.55    1.12
   2 -32   1    8.82    1.38
  30   2   1    7.04    1.05
   3 -33   0   89.79    3.41
  30   3   0   84.60    3.18
  30   4  -1    6.37    0.68
   4 -34  -1    4.91    0.87
  30   4   2    2.16    0.58
  30   5   1    0.30    0.46
  31 -24  -5   10.75    1.03
  31 -23  -6  143.90    4.83
  31 -23  -3  360.38   11.69
 -23  -8   3   83.52    4.08
  31 -22  -4    1.69    1.00
  31 -21  -5   34.45    1.90
  31 -21  -2    0.95    1.10
 -21 -10   4   60.87    3.39
  31 -20  -6  154.19    5.36
  31 -20  -3  277.77    9.41
  31 -19  -4   30.82    2.03
 -19 -12   5   81.16    3.78
  31 -18  -5   43.47    1.97
  31 -18  -5   43.58    2.28
  31 -18  -2    5.79    1.01
  31 -18  -2    5.91    1.47
 -18 -13   4  130.47    5.75
  31 -17  -6   60.78    2.42
  31 -17  -3  158.58    5.63
  31 -17  -3  162.14    5.98
  31 -16  -7  107.30    3.92
  31 -16  -7  137.42    4.11
  31 -16  -4   81.26    3.28
  31 -16  -1   10.80    1.16
  31 -16   2  150.66    5.32
 -16 -15   5  119.19    5.07
  31 -15  -5   91.55    3.58
  31 -15  -5   98.53    3.85
  31 -15  -2   -0.27    1.06
  31 -15  -2   -0.09    1.33
  31 -15   1  131.87    4.84
 -15 -16   4  182.13    7.37
  31 -14  -6   75.65    2.94
  31 -14  -6   76.86    3.10
  31 -14  -3  102.57    4.01
  31 -14   3   34.13    1.90
  31 -13  -7  123.09    4.05
  31 -13  -7  120.26    4.06
  31 -13  -4   71.63    3.05
  31 -13  -4   71.47    3.23
  31 -13  -1   39.62    2.13
  31 -13   2  242.64    8.27
 -13 -18   5  161.87    6.31
  31 -12  -5  109.73    4.05
  31 -12  -5  107.64    4.13
  31 -12  -2    4.65    1.23
  31 -12   1   99.72    4.00
  31 -12   4  176.45    6.14
 -12 -19   4  176.44    7.12
  31 -11  -6   13.82    1.24
  31 -11  -3    3.13    1.10
  31 -11  -3    2.93    1.26
  31 -11   3   37.49    2.08
  31 -10  -4  109.47    4.10
  31 -10  -4  104.43    4.15
  31 -10  -1    8.57    1.28
  31 -10   2  205.24    7.19
  31  -9  -2    3.64    1.10
  31  -9   4  178.13    6.16
  -9 -22   4  173.66    6.80
  31  -8  -6   23.12    1.22
  -8 -23  -6   21.79    1.30
  31  -8   3   89.54    3.42
  31  -8   3   93.71    3.73
  -8 -23   3   88.62    4.40
  31  -7  -4   75.75    2.96
  -7 -24  -4   66.30    2.94
  31  -7   2  123.94    4.74
  31  -6  -5   54.23    2.29
  31  -6   4   50.52    2.17
  31  -6   4   55.00    2.39
  -5 -26  -6    5.33    0.70
  31  -5  -3   67.72    2.83
  -5 -26  -3   69.68    3.13
  31  -5   3   94.41    3.54
  -5 -26   3   95.80    3.84
  31  -4  -4   41.75    1.92
  -4 -27  -1    1.15    1.53
  -4 -27   2   67.89    3.20
  31  -4   5   66.61    2.41
  -3 -28  -5   29.50    1.44
  -3 -28  -2   22.20    1.79
  -3 -28   1    3.34    1.46
  31  -3   1    2.77    1.05
  31  -3   4   34.16    1.64
  31  -3   4   34.80    1.77
  -2 -29  -3  110.52    4.06
  -2 -29   0  291.90    9.91
  31  -2   3   84.05    3.22
  -2 -29   3   86.25    3.31
  31  -2   3   92.50    3.37
  -1 -30  -4    4.47    0.66
  -1 -30  -1   12.11    1.51
  -1 -30   2   48.06    2.34
  31  -1   2   50.44    2.26
   0 -31  -2    6.88    1.26
   0 -31   1    2.45    1.23
  31   0   1    2.71    0.98
  31   0   4   15.04    0.86
   1 -32   0  300.59   10.08
  31   1   0  317.38    9.96
  31   1   3   89.71    3.13
  31   2  -1   10.12    0.84
   2 -33  -1   10.36    1.02
  31   2   2    4.27    0.64
   2 -33   2    3.03    0.68
   3 -34   1    1.75    0.71
  32 -23  -5   19.31    1.32
  32 -22  -6    2.39    0.64
  32 -22  -3  146.69    5.22
 -22 -10   3   99.24    4.50
  32 -21  -4   95.18    3.68
  32 -20  -5   51.62    2.34
  32 -20  -2   32.36    1.91
 -20 -12   4   32.67    2.39
  32 -19  -6    1.06    0.76
  32 -19  -3  120.29    4.57
  32 -18  -4  170.09    5.89
  32 -18  -4  184.17    6.24
  32 -17  -5  114.48    4.02
  32 -17  -2   82.35    3.25
  32 -17  -2   88.20    3.64
 -17 -15   4   88.55    4.28
  32 -16  -6    1.42    0.65
  32 -16  -6    1.92    0.87
  32 -16  -3   75.55    3.09
  32 -16  -3   80.12    3.39
  32 -15  -4  257.03    8.47
  32 -15  -1  149.08    5.26
  32 -15   2    2.11    0.87
  32 -14  -5   98.45    3.56
  32 -14  -5   93.67    3.69
  32 -14  -2  123.70    4.54
  32 -14   1   13.37    1.29
  32 -13  -6   16.81    1.03
 -13 -19  -6   13.48    0.96
  32 -13  -6   16.21    1.09
  32 -13  -3   52.80    2.46
  32 -13  -3   55.53    2.69
  32 -13   3    1.26    0.88
  32 -12  -4  306.35    9.89
  32 -12  -4  299.51    9.99
  32 -12  -1  179.43    6.24
  32 -12   2    6.12    1.10
  32 -11  -5   71.16    2.80
  32 -11  -2  107.19    4.09
  32 -11   1   13.96    1.36
 -11 -21   4   18.21    1.95
  32 -11   4   24.16    1.45
 -10 -22  -6   47.10    1.90
  32 -10  -3   37.23    1.97
  32 -10   3   34.52    1.88
 -10 -22   3   29.73    2.49
  -9 -23  -4  203.89    6.86
  32  -9   2    2.26    1.03
  32  -8  -5   19.13    1.21
  32  -8  -2   51.38    2.36
  32  -8   1   10.02    1.24
  32  -8   4   20.48    1.37
  -7 -25  -3   47.44    2.45
  32  -7   3   99.91    3.73
  -7 -25   3  108.66    4.10
  32  -7   3  111.31    4.01
  32  -6  -4  131.54    4.56
  -6 -26   2    2.36    1.26
  32  -6   2    0.69    0.92
  -5 -27  -2   42.32    2.38
  -5 -27   1   22.18    1.84
  32  -5   4    0.89    0.64
  -4 -28  -3   22.61    1.54
  -4 -28   0   47.44    2.63
  32  -4   3  139.01    4.68
  -4 -28   3  135.32    4.79
  -3 -29  -4   75.28    2.74
  -3 -29  -1   41.18    2.31
  -3 -29   2    4.59    1.19
  32  -3   2    5.20    0.84
  32  -3   2    5.20    1.08
  -2 -30  -2   17.07    1.49
  -2 -30   1   24.85    1.79
  32  -2   1   24.55    1.56
  -1 -31   0   97.63    3.89
  32  -1   0  104.85    3.72
  32  -1   3  183.54    6.25
  32  -1   3  209.42    6.33
   0 -32  -1    2.39    0.88
  32   0  -1    3.22    0.70
  32   0   2    2.06    0.58
  32   0   2    2.69    0.62
   0 -32   2    3.14    0.67
  32   1   1   11.23    0.81
   1 -33   1   13.36    1.00
  32   1   1   13.64    0.88
  33 -23  -4   10.81    1.00
  33 -22  -5    4.93    0.79
  33 -21  -3   21.13    1.40
 -21 -12   3  206.76    7.72
  33 -20  -4   26.83    1.59
  33 -19  -5   20.23    1.40
  33 -18  -3   20.90    1.56
 -18 -15   3  148.56    6.14
  33 -17  -4   18.62    1.17
  33 -17  -4   20.38    1.49
  33 -16  -5    4.66    0.85
  33 -16  -2   96.58    3.57
 -16 -17   4    1.59    1.37
  33 -15  -3    1.89    0.80
  33 -14  -4   53.89    2.26
  33 -14   2  213.34    7.15
  33 -13  -5    0.19    0.73
  33 -13  -2   51.55    2.28
  33 -13   1   74.00    3.00
  33 -12  -3   30.09    1.64
  33 -12   0   46.90    2.21
 -12 -21   3   14.59    1.85
  33 -12   3   12.14    1.08
  33 -11  -4   42.27    1.93
  33 -11   2  267.30    8.85
  33 -10   1   61.38    2.67
  33  -9  -3   79.33    3.02
  -9 -24  -3   75.55    3.23
  -9 -24   3    1.44    1.06
  33  -9   3    0.41    0.79
  -8 -25   2  176.41    6.10
  33  -8   2  160.29    5.77
  -7 -26  -5    4.89    0.68
  -7 -26  -2    9.30    1.44
  -7 -26   1   36.71    2.30
  33  -7   1   38.93    1.95
  -6 -27  -3   96.52    3.64
  -6 -27   0   49.38    2.69
  33  -6   0   53.82    2.35
  33  -6   3    8.21    1.07
  -5 -28  -4   11.32    0.85
  -5 -28  -1  148.00    5.44
  33  -5   2  105.13    3.73
  -5 -28   2  112.31    4.11
  -4 -29  -2    1.10    1.07
  -4 -29   1   15.97    1.63
  -3 -30   0   30.80    1.89
  33  -3   3   24.12    1.22
  -2 -31  -1   76.49    2.99
  33  -2  -1   79.05    2.86
  -2 -31   2   27.77    1.34
  33  -2   2   30.28    1.34
  33  -1  -2    4.41    0.60
  -1 -32   1    2.30    0.75
  33  -1   1    2.19    0.53
  33  -1   1    2.82    0.67
  34 -16  -4   78.14    2.83
  34 -15  -5   16.95    0.91
  34 -14  -3    9.49    0.90
  34 -13  -4  107.96    3.77
  34 -13   2  237.91    7.79
  34 -12  -5   29.98    1.30
  34 -12   1    9.67    1.02
 -11 -23  -3    0.06    1.07
  34 -11   0   17.85    1.28
 -11 -23   3   24.89    1.57
  34 -11   3   22.88    1.32
  34 -10   2  258.88    8.46
  -9 -25  -2   10.66    1.46
  34  -9   1    9.05    1.04
  -8 -26  -3   14.68    1.19
  -8 -26   0   81.18    3.63
  34  -8   0   87.05    3.25
  34  -8   3   44.13    1.89
  -7 -27  -4   50.55    1.95
  -7 -27  -1    8.20    1.53
  -7 -27   2  138.05    4.83
  34  -7   2  131.46    4.64
  -6 -28  -2   28.90    1.66
  -6 -28   1    7.22    1.35
  34  -6   1    6.06    1.00
  -5 -29   0  113.19    4.11
  34  -5   0  106.72    3.85
  -4 -30  -1   20.87    1.34
  -3 -31   1   23.58    1.27
  34  -3   1   23.60    1.20
 -13 -22  -3    9.91    1.27
  35 -12   2    1.74    0.67
 -11 -24  -2   43.65    2.31
  35 -11   1    9.70    0.96
  35 -10   0    4.67    0.85
  -9 -26  -1  146.44    5.01
  35  -9  -1  129.63    4.61
  -9 -26   2    1.59    0.89
  35  -9   2    2.93    0.67
  -8 -27  -2    8.97    1.01
  35  -8  -2    9.48    0.76
  -8 -27   1   15.06    1.34
  35  -8   1   13.05    1.02
  -7 -28   0   26.07    1.58
  35  -7   0   23.12    1.25
  -6 -29  -1   89.26    3.21
  35  -6  -1   84.28    3.02
  35  -6   2    2.57    0.57
  35  -5   1   40.93    1.62
 -13 -23  -2   10.19    1.16
 -11 -25  -1  234.45    7.80
 -11 -25   2  164.00    5.48
 -10 -26   1   19.84    1.32
  36 -10   1   15.50    0.93
  -9 -27   0    8.86    1.05
  36  -9   0    9.72    0.73
  -8 -28  -1  138.75    4.68
 -13 -24  -1    8.29    1.06
 -12 -25   1    6.50    0.91
   0   0   0    0.00    0.00


TITL 03096 in R3
REM R3 (#146 in standard setting)
CELL 1.54184  30.254130  30.254130  10.013414  90.0000  90.0000 120.0000
ZERR   18.00   0.000485   0.000485   0.000167   0.0000   0.0000   0.0000
LATT -3
SYMM -y, x-y, z
SYMM -x+y,-x, z
SFAC C H N O Pt
UNIT 342.00 234.00 54.00 36.00 18.00
TREF
HKLF 4
END
_computing_structure_solution     'SHELXT 2014/5 (Sheldrick, 2014)'
;
_shelx_hkl_checksum              16185
_olex2_submission_special_instructions 'No special instructions were received'
_oxdiff_exptl_absorpt_empirical_details
;
Empirical correction (ABSPACK) includes:
- Absorption correction using spherical harmonics
- Frame scaling
;
_oxdiff_exptl_absorpt_empirical_full_max 1.856
_oxdiff_exptl_absorpt_empirical_full_min 0.693
loop_
_space_group_symop_operation_xyz
'x, y, z'
'-y, x-y, z'
'-x+y, -x, z'
'x+2/3, y+1/3, z+1/3'
'-y+2/3, x-y+1/3, z+1/3'
'-x+y+2/3, -x+1/3, z+1/3'
'x+1/3, y+2/3, z+2/3'
'-y+1/3, x-y+2/3, z+2/3'
'-x+y+1/3, -x+2/3, z+2/3'
'-x, -y, -z'
'y, -x+y, -z'
'x-y, x, -z'
'-x+2/3, -y+1/3, -z+1/3'
'y+2/3, -x+y+1/3, -z+1/3'
'x-y+2/3, x+1/3, -z+1/3'
'-x+1/3, -y+2/3, -z+2/3'
'y+1/3, -x+y+2/3, -z+2/3'
'x-y+1/3, x+2/3, -z+2/3'
loop_
_atom_site_label
_atom_site_type_symbol
_atom_site_fract_x
_atom_site_fract_y
_atom_site_fract_z
_atom_site_U_iso_or_equiv
_atom_site_adp_type
_atom_site_occupancy
_atom_site_site_symmetry_order
_atom_site_calc_flag
_atom_site_refinement_flags_posn
_atom_site_refinement_flags_adp
_atom_site_refinement_flags_occupancy
_atom_site_disorder_assembly
_atom_site_disorder_group
Pt1 Pt 0.65297(2) 0.67494(2) 0.54721(2) 0.02065(7) Uani 1 1 d . . . . .
O1 O 0.72330(9) 0.67636(10) 0.5406(3) 0.0234(5) Uani 1 1 d . . . . .
O2 O 0.75514(10) 0.62396(10) 0.5468(3) 0.0268(6) Uani 1 1 d . . . . .
N3 N 0.62794(12) 0.59862(12) 0.5448(3) 0.0229(6) Uani 1 1 d . . . . .
N1 N 0.68317(12) 0.75064(12) 0.5384(3) 0.0235(6) Uani 1 1 d . . . . .
C1 C 0.58846(14) 0.67955(15) 0.5506(4) 0.0247(7) Uani 1 1 d . . . . .
N2 N 0.67542(13) 0.81801(13) 0.4986(3) 0.0261(6) Uani 1 1 d . . . . .
H2 H 0.661541 0.836303 0.482962 0.031 Uiso 1 1 calc R . . . .
C9 C 0.77940(14) 0.79723(15) 0.5603(4) 0.0246(7) Uani 1 1 d . . . . .
H9 H 0.782649 0.768985 0.580517 0.030 Uiso 1 1 calc R . . . .
C6 C 0.59693(15) 0.72949(16) 0.5224(4) 0.0272(8) Uani 1 1 d . . . . .
C2 C 0.53807(15) 0.64321(16) 0.5806(4) 0.0282(8) Uani 1 1 d . . . . .
H2A H 0.530568 0.610482 0.604639 0.034 Uiso 1 1 calc R . . . .
C10 C 0.82138(15) 0.84550(15) 0.5514(4) 0.0284(8) Uani 1 1 d . . . . .
H10 H 0.853647 0.849869 0.566670 0.034 Uiso 1 1 calc R . . . .
C7 C 0.65083(15) 0.76722(15) 0.5159(4) 0.0238(7) Uani 1 1 d . . . . .
C5 C 0.55802(16) 0.74087(16) 0.5171(4) 0.0310(8) Uani 1 1 d . . . . .
H5 H 0.565210 0.773850 0.497323 0.037 Uiso 1 1 calc R . . . .
C19 C 0.71922(14) 0.63255(14) 0.5490(3) 0.0223(7) Uani 1 1 d . . . . .
C17 C 0.65656(16) 0.53809(15) 0.5591(4) 0.0287(8) Uani 1 1 d . . . . .
H17 H 0.683339 0.531615 0.569828 0.034 Uiso 1 1 calc R . . . .
C14 C 0.57988(15) 0.55985(16) 0.5275(4) 0.0317(9) Uani 1 1 d . . . . .
H14 H 0.553698 0.567022 0.513929 0.038 Uiso 1 1 calc R . . . .
C8 C 0.73185(14) 0.79268(14) 0.5376(4) 0.0233(7) Uani 1 1 d . . . . .
C13 C 0.72712(15) 0.83559(15) 0.5106(4) 0.0256(7) Uani 1 1 d . . . . .
C18 C 0.66596(14) 0.58808(14) 0.5551(3) 0.0229(7) Uani 1 1 d . . . . .
C12 C 0.76964(16) 0.88409(15) 0.4986(4) 0.0302(8) Uani 1 1 d . . . . .
H12 H 0.766538 0.912340 0.477264 0.036 Uiso 1 1 calc R . . . .
C16 C 0.60709(16) 0.49827(15) 0.5469(4) 0.0316(8) Uani 1 1 d . . . . .
H16 H 0.599686 0.464529 0.550221 0.038 Uiso 1 1 calc R . . . .
C15 C 0.56883(15) 0.51016(16) 0.5294(5) 0.0345(9) Uani 1 1 d . . . . .
H15 H 0.535234 0.484061 0.518958 0.041 Uiso 1 1 calc R . . . .
C11 C 0.81680(16) 0.88827(15) 0.5200(4) 0.0302(8) Uani 1 1 d . . . . .
H11 H 0.846112 0.920128 0.513321 0.036 Uiso 1 1 calc R . . . .
C3 C 0.49858(15) 0.65433(17) 0.5759(4) 0.0323(9) Uani 1 1 d . . . . .
H3 H 0.465407 0.629049 0.595971 0.039 Uiso 1 1 calc R . . . .
C4 C 0.50845(16) 0.70291(17) 0.5413(4) 0.0326(9) Uani 1 1 d . . . . .
H4 H 0.481823 0.709806 0.534585 0.039 Uiso 1 1 calc R . . . .
C20 C 0.9589(2) 1.0116(2) 0.7541(10) 0.077(2) Uani 1 1 d . . . . .
H20A H 0.955152 1.012597 0.850084 0.092 Uiso 1 1 calc R . . . .
H20B H 0.934202 1.018759 0.712447 0.092 Uiso 1 1 calc R . . . .
C21 C 0.9471(2) 0.9591(2) 0.7150(9) 0.072(2) Uani 1 1 d . . . . .
H21A H 0.942300 0.955463 0.619017 0.086 Uiso 1 1 calc R . . . .
H21B H 0.915311 0.934412 0.756762 0.086 Uiso 1 1 calc R . . . .
loop_
_atom_site_aniso_label
_atom_site_aniso_U_11
_atom_site_aniso_U_22
_atom_site_aniso_U_33
_atom_site_aniso_U_23
_atom_site_aniso_U_13
_atom_site_aniso_U_12
Pt1 0.01799(9) 0.02154(10) 0.02244(10) 0.00070(5) 0.00005(5) 0.00990(6)
O1 0.0150(11) 0.0225(13) 0.0314(13) -0.0011(10) 0.0019(10) 0.0083(10)
O2 0.0173(12) 0.0245(13) 0.0385(15) 0.0021(11) -0.0005(10) 0.0105(11)
N3 0.0199(15) 0.0198(14) 0.0232(15) 0.0002(11) 0.0015(11) 0.0054(12)
N1 0.0232(15) 0.0234(15) 0.0253(15) 0.0001(12) 0.0005(12) 0.0126(13)
C1 0.0207(17) 0.031(2) 0.0242(18) -0.0055(14) -0.0002(13) 0.0146(16)
N2 0.0267(16) 0.0265(16) 0.0307(16) -0.0039(12) -0.0028(13) 0.0176(14)
C9 0.0232(18) 0.0227(18) 0.0287(19) 0.0011(14) 0.0029(14) 0.0121(15)
C6 0.0287(19) 0.030(2) 0.0248(18) -0.0014(15) -0.0029(14) 0.0166(17)
C2 0.0247(19) 0.031(2) 0.0264(19) -0.0021(15) 0.0010(15) 0.0126(17)
C10 0.0246(19) 0.028(2) 0.034(2) -0.0011(15) -0.0002(15) 0.0137(16)
C7 0.0273(19) 0.0292(19) 0.0204(17) -0.0023(14) 0.0005(13) 0.0182(16)
C5 0.034(2) 0.030(2) 0.033(2) -0.0063(16) -0.0065(16) 0.0190(18)
C19 0.0213(17) 0.0215(17) 0.0202(17) 0.0003(13) 0.0008(13) 0.0077(14)
C17 0.028(2) 0.029(2) 0.030(2) 0.0075(15) 0.0028(15) 0.0141(16)
C14 0.0207(18) 0.031(2) 0.038(2) -0.0016(16) -0.0013(15) 0.0082(16)
C8 0.0251(18) 0.0242(18) 0.0222(17) -0.0009(13) 0.0015(13) 0.0134(15)
C13 0.0260(19) 0.0283(19) 0.0251(18) -0.0049(14) -0.0020(14) 0.0155(16)
C18 0.0238(18) 0.0256(18) 0.0179(16) 0.0031(13) 0.0010(13) 0.0113(15)
C12 0.034(2) 0.0235(19) 0.036(2) 0.0003(15) -0.0004(16) 0.0165(17)
C16 0.032(2) 0.0210(18) 0.035(2) 0.0024(15) 0.0031(16) 0.0081(16)
C15 0.0181(18) 0.027(2) 0.046(2) -0.0009(17) 0.0007(16) 0.0015(16)
C11 0.0275(19) 0.0212(18) 0.037(2) -0.0007(15) -0.0002(16) 0.0085(16)
C3 0.0216(19) 0.038(2) 0.030(2) -0.0032(16) 0.0009(15) 0.0103(17)
C4 0.0246(19) 0.042(2) 0.035(2) -0.0066(17) -0.0027(16) 0.0202(18)
C20 0.044(3) 0.049(3) 0.141(7) 0.012(4) 0.010(4) 0.025(3)
C21 0.035(3) 0.047(3) 0.126(6) 0.011(4) 0.003(3) 0.014(3)
loop_
_atom_type_symbol
_atom_type_description
_atom_type_scat_dispersion_real
_atom_type_scat_dispersion_imag
_atom_type_scat_source
C C 0.0181 0.0091 'International Tables Vol C Tables 4.2.6.8 and 6.1.1.4'
H H 0.0000 0.0000 'International Tables Vol C Tables 4.2.6.8 and 6.1.1.4'
N N 0.0311 0.0180 'International Tables Vol C Tables 4.2.6.8 and 6.1.1.4'
O O 0.0492 0.0322 'International Tables Vol C Tables 4.2.6.8 and 6.1.1.4'
Pt Pt -4.5932 6.9264 'International Tables Vol C Tables 4.2.6.8 and 6.1.1.4'
loop_
_geom_angle_atom_site_label_1
_geom_angle_atom_site_label_2
_geom_angle_atom_site_label_3
_geom_angle
_geom_angle_site_symmetry_1
_geom_angle_site_symmetry_3
_geom_angle_publ_flag
N3 Pt1 O1 79.76(11) . . ?
N1 Pt1 O1 95.55(12) . . ?
N1 Pt1 N3 174.42(13) . . ?
N1 Pt1 C1 79.98(15) . . ?
C1 Pt1 O1 175.49(13) . . ?
C1 Pt1 N3 104.66(14) . . ?
C19 O1 Pt1 113.9(2) . . ?
C14 N3 Pt1 128.0(3) . . ?
C18 N3 Pt1 113.0(2) . . ?
C18 N3 C14 118.9(3) . . ?
C7 N1 Pt1 116.2(3) . . ?
C7 N1 C8 107.4(3) . . ?
C8 N1 Pt1 136.1(3) . . ?
C6 C1 Pt1 113.6(3) . . ?
C2 C1 Pt1 131.3(3) . . ?
C2 C1 C6 115.0(4) . . ?
C7 N2 H2 126.2 . . ?
C7 N2 C13 107.6(3) . . ?
C13 N2 H2 126.2 . . ?
C10 C9 H9 121.5 . . ?
C10 C9 C8 116.9(3) . . ?
C8 C9 H9 121.5 . . ?
C1 C6 C7 112.2(3) . . ?
C5 C6 C1 123.1(4) . . ?
C5 C6 C7 124.3(4) . . ?
C1 C2 H2A 118.9 . . ?
C3 C2 C1 122.2(4) . . ?
C3 C2 H2A 118.9 . . ?
C9 C10 H10 119.1 . . ?
C9 C10 C11 121.9(4) . . ?
C11 C10 H10 119.1 . . ?
N1 C7 N2 111.4(3) . . ?
N1 C7 C6 116.6(3) . . ?
N2 C7 C6 131.9(3) . . ?
C6 C5 H5 120.3 . . ?
C4 C5 C6 119.5(4) . . ?
C4 C5 H5 120.3 . . ?
O1 C19 C18 116.1(3) . . ?
O2 C19 O1 125.5(3) . . ?
O2 C19 C18 118.4(3) . . ?
C18 C17 H17 120.4 . . ?
C16 C17 H17 120.4 . . ?
C16 C17 C18 119.3(4) . . ?
N3 C14 H14 119.3 . . ?
N3 C14 C15 121.3(4) . . ?
C15 C14 H14 119.3 . . ?
N1 C8 C9 131.4(3) . . ?
N1 C8 C13 107.3(3) . . ?
C9 C8 C13 121.2(4) . . ?
N2 C13 C8 106.3(3) . . ?
N2 C13 C12 132.1(4) . . ?
C12 C13 C8 121.7(4) . . ?
N3 C18 C19 116.6(3) . . ?
N3 C18 C17 121.7(4) . . ?
C17 C18 C19 121.4(3) . . ?
C13 C12 H12 121.6 . . ?
C11 C12 C13 116.8(4) . . ?
C11 C12 H12 121.6 . . ?
C17 C16 H16 121.1 . . ?
C17 C16 C15 117.9(4) . . ?
C15 C16 H16 121.1 . . ?
C14 C15 C16 120.7(4) . . ?
C14 C15 H15 119.6 . . ?
C16 C15 H15 119.6 . . ?
C10 C11 H11 119.3 . . ?
C12 C11 C10 121.5(4) . . ?
C12 C11 H11 119.3 . . ?
C2 C3 H3 119.8 . . ?
C4 C3 C2 120.5(4) . . ?
C4 C3 H3 119.8 . . ?
C5 C4 C3 119.6(4) . . ?
C5 C4 H4 120.2 . . ?
C3 C4 H4 120.2 . . ?
H20A C20 H20B 107.7 . . ?
C21 C20 H20A 108.9 . . ?
C21 C20 H20A 108.9 3_675 . ?
C21 C20 H20B 108.9 3_675 . ?
C21 C20 H20B 108.9 . . ?
C21 C20 C21 113.5(7) . 3_675 ?
C20 C21 C20 113.4(7) . 2_765 ?
C20 C21 H21A 108.9 . . ?
C20 C21 H21A 108.9 2_765 . ?
C20 C21 H21B 108.9 . . ?
C20 C21 H21B 108.9 2_765 . ?
H21A C21 H21B 107.7 . . ?
loop_
_geom_bond_atom_site_label_1
_geom_bond_atom_site_label_2
_geom_bond_distance
_geom_bond_site_symmetry_2
_geom_bond_publ_flag
Pt1 O1 2.107(2) . ?
Pt1 N3 2.039(3) . ?
Pt1 N1 1.999(3) . ?
Pt1 C1 2.025(4) . ?
O1 C19 1.271(5) . ?
O2 C19 1.237(5) . ?
N3 C14 1.347(5) . ?
N3 C18 1.342(5) . ?
N1 C7 1.323(5) . ?
N1 C8 1.383(5) . ?
C1 C6 1.429(6) . ?
C1 C2 1.396(6) . ?
N2 H2 0.8600 . ?
N2 C7 1.342(5) . ?
N2 C13 1.383(5) . ?
C9 H9 0.9300 . ?
C9 C10 1.378(6) . ?
C9 C8 1.394(5) . ?
C6 C7 1.451(6) . ?
C6 C5 1.383(6) . ?
C2 H2A 0.9300 . ?
C2 C3 1.395(6) . ?
C10 H10 0.9300 . ?
C10 C11 1.404(6) . ?
C5 H5 0.9300 . ?
C5 C4 1.380(6) . ?
C19 C18 1.497(5) . ?
C17 H17 0.9300 . ?
C17 C18 1.393(6) . ?
C17 C16 1.379(6) . ?
C14 H14 0.9300 . ?
C14 C15 1.367(6) . ?
C8 C13 1.402(5) . ?
C13 C12 1.391(6) . ?
C12 H12 0.9300 . ?
C12 C11 1.385(6) . ?
C16 H16 0.9300 . ?
C16 C15 1.384(6) . ?
C15 H15 0.9300 . ?
C11 H11 0.9300 . ?
C3 H3 0.9300 . ?
C3 C4 1.389(7) . ?
C4 H4 0.9300 . ?
C20 H20A 0.9700 . ?
C20 H20B 0.9700 . ?
C20 C21 1.513(9) 3_675 ?
C20 C21 1.495(9) . ?
C21 H21A 0.9700 . ?
C21 H21B 0.9700 . ?
