#------------------------------------------------------------------------------
#$Date: 2021-01-07 06:50:47 +0200 (Thu, 07 Jan 2021) $
#$Revision: 260677 $
#$URL: file:///home/coder/svn-repositories/cod/cif/7/12/73/7127302.cif $
#------------------------------------------------------------------------------
#
# This file is available in the Crystallography Open Database (COD),
# http://www.crystallography.net/
#
# All data on this site have been placed in the public domain by the
# contributors.
#
data_7127302
loop_
_publ_author_name
'Schneider, Matthew L.'
'Linder-Patton, Oliver M'
'Bloch, Witold M.'
_publ_section_title
;
 A covalent deprotection strategy for assembling supramolecular
 coordination polymers from metal-organic cages.
;
_journal_issue                   85
_journal_name_full
'Chemical communications (Cambridge, England)'
_journal_page_first              12969
_journal_page_last               12972
_journal_paper_doi               10.1039/d0cc05349j
_journal_volume                  56
_journal_year                    2020
_chemical_formula_moiety         'C19 H13 N3 O2 Pt'
_chemical_formula_sum            'C19 H13 N3 O2 Pt'
_chemical_formula_weight         510.41
_space_group_crystal_system      trigonal
_space_group_IT_number           148
_space_group_name_Hall           '-R 3'
_space_group_name_H-M_alt        'R -3 :H'
_atom_sites_solution_hydrogens   geom
_audit_creation_date             2019-09-16
_audit_creation_method
;
Olex2 1.2
(compiled 2018.05.29 svn.r3508 for OlexSys, GUI svn.r5506)
;
_audit_update_record
;
2020-05-14 deposited with the CCDC.	2020-09-21 downloaded from the CCDC.
;
_cell_angle_alpha                90
_cell_angle_beta                 90
_cell_angle_gamma                120
_cell_formula_units_Z            18
_cell_length_a                   30.402(2)
_cell_length_b                   30.402(2)
_cell_length_c                   10.0404(8)
_cell_measurement_reflns_used    1430
_cell_measurement_temperature    150
_cell_measurement_theta_max      62.5290
_cell_measurement_theta_min      2.8500
_cell_volume                     8036.9(10)
_computing_cell_refinement       'CrysAlisPro 1.171.39.45h (Rigaku OD, 2018)'
_computing_data_collection       'CrysAlisPro 1.171.39.45h (Rigaku OD, 2018)'
_computing_data_reduction        'CrysAlisPro 1.171.39.45h (Rigaku OD, 2018)'
_computing_molecular_graphics    'Olex2 (Dolomanov et al., 2009)'
_computing_publication_material  'Olex2 (Dolomanov et al., 2009)'
_computing_structure_refinement  'ShelXL (Sheldrick, 2015)'
_computing_structure_solution    'SHELXT 2014/5 (Sheldrick, 2014)'
_diffrn_ambient_temperature      150
_diffrn_detector                 'CCD plate'
_diffrn_detector_type            HyPix
_diffrn_measured_fraction_theta_full 0.963
_diffrn_measured_fraction_theta_max 0.921
_diffrn_measurement_details
;
List of Runs (angles in degrees, time in seconds):

  # Type    Start    End  Width  t~exp~   \w     \q     \k     \f   Frames
#--------------------------------------------------------------------------
  1  \w    -63.00  24.00   0.50    2.25    --  -46.37  62.00 -36.00  174
  2  \w    -47.00 -11.00   0.50    7.18    --  -84.50  37.00-180.00   72
  3  \w    -81.00 -56.00   0.50    7.18    --  -84.50  62.00 -36.00   50
  4  \w   -113.00 -59.00   0.50    2.25    --  -46.37 -62.00-173.00  108
  5  \w   -136.00-111.00   0.50    7.18    --  -84.50 -62.00-173.00   50
  6  \w     12.00  45.00   0.50    2.25    --   46.37 -62.00-173.00   66
  7  \w     73.00 119.00   0.50    7.18    --  108.56 -62.00-173.00   92
  8  \w     38.00  72.00   0.50    7.18    --  108.56 -62.00-173.00   68
  9  \w     42.00  69.00   0.50    7.18    --  108.56 -37.00-180.00   54
 10  \w     37.00  62.00   0.50    7.18    --  108.56 -37.00-120.00   50
 11  \w     36.00  63.00   0.50    7.18    --  108.56 -37.00-150.00   54
 12  \w     36.00  69.00   0.50    7.18    --  108.56 -37.00 -30.00   66
 13  \w     38.00  69.00   0.50    7.18    --  108.56 -37.00   0.00   62
 14  \w     39.00  68.00   0.50    7.18    --  108.56 -37.00  30.00   58
 15  \w     42.00  76.00   0.50    7.18    --  108.56 -19.00  30.00   68
 16  \w     36.00  68.00   0.50    7.18    --  108.56 -19.00   0.00   64
 17  \w     37.00  67.00   0.50    7.18    --  108.56 -37.00  60.00   60
 18  \w     66.00  93.00   0.50    7.18    --  108.56 -99.00  60.00   54
 19  \w     35.00  65.00   0.50    7.18    --  108.56 -19.00 150.00   60
 20  \w    139.00 176.00   0.50    7.18    --  108.56  62.00 -36.00   74
 21  \w     78.00 118.00   0.50    2.25    --   46.37 125.00-180.00   80
;
_diffrn_measurement_device       'four-circle diffractometer'
_diffrn_measurement_device_type
'XtaLAB Synergy, Single source at home/near, HyPix'
_diffrn_measurement_method       '\w scans'
_diffrn_orient_matrix_type
'CrysAlisPro convention (1999,Acta A55,543-557)'
_diffrn_orient_matrix_UB_11      -0.0341254333
_diffrn_orient_matrix_UB_12      -0.0112811667
_diffrn_orient_matrix_UB_13      0.1234019333
_diffrn_orient_matrix_UB_21      -0.0452478333
_diffrn_orient_matrix_UB_22      -0.0418749667
_diffrn_orient_matrix_UB_23      -0.0776967667
_diffrn_orient_matrix_UB_31      0.0145125333
_diffrn_orient_matrix_UB_32      -0.0392733333
_diffrn_orient_matrix_UB_33      0.0476595667
_diffrn_radiation_monochromator  mirror
_diffrn_radiation_probe          x-ray
_diffrn_radiation_type           CuK\a
_diffrn_radiation_wavelength     1.54184
_diffrn_reflns_av_R_equivalents  0.1143
_diffrn_reflns_av_unetI/netI     0.0901
_diffrn_reflns_Laue_measured_fraction_full 0.963
_diffrn_reflns_Laue_measured_fraction_max 0.921
_diffrn_reflns_limit_h_max       38
_diffrn_reflns_limit_h_min       -29
_diffrn_reflns_limit_k_max       22
_diffrn_reflns_limit_k_min       -36
_diffrn_reflns_limit_l_max       11
_diffrn_reflns_limit_l_min       -11
_diffrn_reflns_number            12983
_diffrn_reflns_point_group_measured_fraction_full 0.963
_diffrn_reflns_point_group_measured_fraction_max 0.921
_diffrn_reflns_theta_full        67.684
_diffrn_reflns_theta_max         78.013
_diffrn_reflns_theta_min         2.907
_diffrn_source                   'micro-focus sealed X-ray tube'
_diffrn_source_type              'PhotonJet (Cu) X-ray Source'
_exptl_absorpt_coefficient_mu    14.836
_exptl_absorpt_correction_T_max  1.00000
_exptl_absorpt_correction_T_min  0.76201
_exptl_absorpt_correction_type   multi-scan
_exptl_absorpt_process_details
;
CrysAlisPro 1.171.39.45h (Rigaku Oxford Diffraction, 2018)
Empirical absorption correction using spherical harmonics,
 implemented in SCALE3 ABSPACK scaling algorithm.
;
_exptl_crystal_colour            orange
_exptl_crystal_colour_primary    orange
_exptl_crystal_density_diffrn    1.898
_exptl_crystal_description       needle
_exptl_crystal_F_000             4356
_exptl_crystal_size_max          0.1
_exptl_crystal_size_mid          0.005
_exptl_crystal_size_min          0.005
_platon_squeeze_details
;
TITL ptbimpic_para_a.res in R-3
CELL   30.4020   30.4020   10.0404     90.00     90.00    120.00
SPGR R-3
# Solvent Accessible Volume =      1409
# Electrons Found in S.A.V. =       467
# Note: Atoms in Void are Labelled as Cxxx and Qxxx for all Others
Q101 0.672 0.657 0.558 !       3.06 eA-3
C102 0.961 0.939 0.377 !       2.40 eA-3
C103 0.266 0.612 0.368 !       2.13 eA-3
C104 0.663 0.267 0.375 !       1.95 eA-3
C105 1.001 0.024 0.618 !       1.92 eA-3
Q106 0.680 0.994 0.184 !       1.86 eA-3
Q107 0.657 0.019 0.313 !       1.83 eA-3
C108 0.280 0.665 0.066 !       1.77 eA-3
C109 0.602 0.313 0.467 !       1.76 eA-3
C110 0.664 0.350 0.980 !       1.76 eA-3
C111 1.000 1.001 0.471 !       1.75 eA-3
C112 0.664 0.297 0.811 !       1.74 eA-3
C113 0.297 0.617 0.378 !       1.74 eA-3
C114 0.670 0.336 0.185 !       1.72 eA-3
Q115 0.022 0.672 0.318 !       1.69 eA-3
C116 0.243 0.602 0.292 !       1.69 eA-3
C117 0.992 0.943 0.750 !       1.68 eA-3
C118 0.008 0.971 0.091 !       1.67 eA-3
C119 0.039 0.058 0.931 !       1.67 eA-3
Q120 0.367 0.415 0.529 !       1.61 eA-3
C121 0.649 0.382 0.843 !       1.60 eA-3
C122 0.351 0.618 0.157 !       1.60 eA-3
C123 0.719 0.346 0.499 !       1.53 eA-3
C124 0.299 0.703 0.370 !       1.50 eA-3
C125 0.663 0.338 0.033 !       1.49 eA-3
C126 0.665 0.336 0.274 !       1.48 eA-3
C127 0.962 0.891 0.128 !       1.47 eA-3
C128 0.031 0.039 0.188 !       1.47 eA-3
C129 0.984 0.953-0.001 !       1.47 eA-3
C130 0.009 0.968 0.188 !       1.47 eA-3
C131 0.696 0.373 0.520 !       1.47 eA-3
C132 0.994 0.923 0.150 !       1.46 eA-3
C133 0.624 0.358 0.460 !       1.45 eA-3
C134 0.296 0.654 0.693 !       1.44 eA-3
C135 0.321 0.726 0.438 !       1.43 eA-3
C136 0.983 0.970 0.775 !       1.41 eA-3
C137 0.273 0.711 0.845 !       1.40 eA-3
C138 0.438 0.727 0.849 !       1.40 eA-3
C139 0.340 0.750 0.502 !       1.37 eA-3
Q140 0.257 0.537 0.062 !       1.37 eA-3
Q141 0.306 0.304 0.341 !       1.37 eA-3
C142 0.414 0.747 0.819 !       1.36 eA-3
Q143 1.002 0.306 0.467 !       1.34 eA-3
Q144 0.953 0.648 0.316 !       1.33 eA-3
C145 0.110 0.042 0.718 !       1.32 eA-3
C146 0.983 0.028 0.286 !       1.29 eA-3
C147 0.921 0.927 0.407 !       1.28 eA-3
C148 0.070 0.990 0.405 !       1.28 eA-3
Q149 0.018 0.882 0.407 !       1.27 eA-3
Q150 0.758 0.399 0.308 !       1.26 eA-3
C151 0.680 0.416 0.717 !       1.26 eA-3
Q152 0.475 0.774 0.937 !       1.25 eA-3
Q153 0.515 0.353 0.280 !       1.25 eA-3
C154 0.352 0.687 0.466 !       1.24 eA-3
C155 0.427 0.751 0.874 !       1.24 eA-3
C156 0.264 0.663 0.535 !       1.19 eA-3
C157 0.415 0.766 0.804 !       1.18 eA-3
C158 1.000 0.920 0.707 !       1.18 eA-3
C159 0.916 0.977 0.773 !       1.17 eA-3
C160 0.717 0.438 0.037 !       1.17 eA-3
C161 0.391 0.710 0.310 !       1.17 eA-3
Q162 0.773 0.385 0.629 !       1.16 eA-3
Q163 0.968 0.889 0.326 !       1.16 eA-3
Q164 0.389 0.096 0.470 !       1.15 eA-3
C165 0.228 0.577 0.379 !       1.14 eA-3
C166 0.254 0.632 0.875 !       1.13 eA-3
Q167 0.571 0.205 0.370 !       1.13 eA-3
C168 0.705 0.402 0.842 !       1.13 eA-3
Q169 0.148 0.397 0.219 !       1.12 eA-3
Q170 0.641 0.883 0.156 !       1.12 eA-3
Q171 0.202 0.649 0.946 !       1.11 eA-3
Q172 0.448 0.798 0.935 !       1.11 eA-3
Q173 0.633 0.805 0.130 !       1.11 eA-3
C174 0.984 0.953 0.570 !       1.09 eA-3
Q175 0.437 0.092 0.844 !       1.07 eA-3
C176 0.987 0.069 0.646 !       1.07 eA-3
Q177 0.329 0.741 0.777 !       1.05 eA-3
Q178 0.061 0.671 0.311 !       1.04 eA-3
Q179 0.939 0.329 0.689 !       1.04 eA-3
Q180 0.774 0.462 0.082 !       1.04 eA-3
Q181 0.139 0.717 0.165 !       1.03 eA-3
Q182 0.180 0.470 0.375 !       1.03 eA-3
Q183 0.711 0.029 0.254 !       1.02 eA-3
Q184 0.297 0.722 0.121 !       1.01 eA-3
Q185 0.084 0.546 0.443 !       1.01 eA-3
Q186 0.077 0.110 0.025 !       1.01 eA-3
Q187 0.609 0.539 0.193 !       0.99 eA-3
Q188 0.547 0.905 0.872 !       0.99 eA-3
Q189 0.344 0.070 0.012 !       0.99 eA-3
Q190 0.891 0.949 0.714 !       0.99 eA-3
C191 0.360 0.768-0.002 !       0.98 eA-3
Q192 0.467 0.749 0.728 !       0.97 eA-3
Q193 0.711 0.631 0.806 !       0.96 eA-3
Q194 0.111 0.476 0.088 !       0.96 eA-3
Q195 0.101 0.631 0.093 !       0.96 eA-3
Q196 0.415 0.969 0.058 !       0.95 eA-3
Q197 0.031 0.587 0.940 !       0.95 eA-3
Q198 0.272 0.750 0.383 !       0.95 eA-3
Q199 0.255 0.289 0.098 !       0.94 eA-3
;
_refine_diff_density_max         3.293
_refine_diff_density_min         -2.148
_refine_diff_density_rms         0.195
_refine_ls_extinction_method     none
_refine_ls_goodness_of_fit_ref   1.086
_refine_ls_hydrogen_treatment    constr
_refine_ls_matrix_type           full
_refine_ls_number_parameters     226
_refine_ls_number_reflns         3526
_refine_ls_number_restraints     0
_refine_ls_restrained_S_all      1.086
_refine_ls_R_factor_all          0.0959
_refine_ls_R_factor_gt           0.0719
_refine_ls_shift/su_max          0.001
_refine_ls_shift/su_mean         0.000
_refine_ls_structure_factor_coef Fsqd
_refine_ls_weighting_details
'w=1/[\s^2^(Fo^2^)+(0.0555P)^2^+160.9555P] where P=(Fo^2^+2Fc^2^)/3'
_refine_ls_weighting_scheme      calc
_refine_ls_wR_factor_gt          0.1495
_refine_ls_wR_factor_ref         0.1599
_reflns_Friedel_coverage         0.000
_reflns_number_gt                2741
_reflns_number_total             3526
_reflns_threshold_expression     'I > 2\s(I)'
_iucr_refine_instructions_details
;
TITL ptbimpic_para_a.res in R-3
    ptbimpic_para_sq.res
    created by SHELXL-2018/3 at 16:24:14 on 16-Sep-2019
REM Old TITL ptbimpic_para in R3
REM SHELXT solution in R-3
REM R1 0.114, Rweak 0.046, Alpha 0.100, Orientation as input
REM Formula found by SHELXT: C19 N2 O3 Pt
CELL 1.54184 30.4022 30.4022 10.0404 90 90 120
ZERR 18 0.0022 0.0022 0.0008 0 0 0
LATT 3
SYMM -Y,+X-Y,+Z
SYMM +Y-X,-X,+Z
SFAC C H N O Pt
UNIT 342 234 54 36 18

L.S. 20 0 29
PLAN  5
BOND $H
ABIN
fmap 2
acta
REM <olex2.extras>
REM <HklSrc "%.\\ptbimpic_para_sq.hkl">
REM </olex2.extras>

WGHT    0.055500  160.955505
FVAR       0.04243
PT1   5    0.325069    0.347135    0.539485    11.00000    0.04397    0.03938 =
         0.04147   -0.00024   -0.00262    0.02238
O1    4    0.323952    0.277666    0.533722    11.00000    0.04043    0.03232 =
         0.04867    0.00058   -0.00083    0.01541
O2    4    0.376198    0.245066    0.542044    11.00000    0.05150    0.03383 =
         0.07628   -0.00244   -0.00751    0.02454
N3    3    0.401767    0.372402    0.536925    11.00000    0.03479    0.04487 =
         0.04618    0.00136   -0.00022    0.01656
N1    3    0.250379    0.318293    0.533091    11.00000    0.03128    0.04862 =
         0.04076    0.00340    0.00437    0.02666
N2    3    0.183122    0.325935    0.496122    11.00000    0.05901    0.06791 =
         0.04845   -0.00113   -0.00023    0.04524
AFIX  43
H2    2    0.165240    0.340141    0.481114    11.00000   -1.20000
AFIX   0
C9    1    0.202774    0.222728    0.552764    11.00000    0.03658    0.05033 =
         0.05117   -0.00023    0.00295    0.01348
AFIX  43
H9    2    0.230816    0.219236    0.571746    11.00000   -1.20000
AFIX   0
C18   1    0.410857    0.334149    0.550929    11.00000    0.03588    0.04395 =
         0.03704    0.00889   -0.00256    0.02086
C7    1    0.233439    0.349797    0.512930    11.00000    0.03473    0.05819 =
         0.04334   -0.01555   -0.00519    0.02553
C13   1    0.164934    0.274355    0.507154    11.00000    0.05375    0.07352 =
         0.04831   -0.00090    0.00591    0.04250
C1    1    0.320439    0.411518    0.545451    11.00000    0.08036    0.06476 =
         0.04137    0.00060    0.00307    0.05120
C12   1    0.116589    0.233176    0.499430    11.00000    0.04224    0.06218 =
         0.07053    0.01525    0.01201    0.02941
AFIX  43
H12   2    0.088606    0.237107    0.483625    11.00000   -1.20000
AFIX   0
C17   1    0.460388    0.343458    0.555158    11.00000    0.05330    0.03864 =
         0.05316    0.00419   -0.00457    0.02151
AFIX  43
H17   2    0.466747    0.316780    0.566476    11.00000   -1.20000
AFIX   0
C14   1    0.439395    0.419405    0.519389    11.00000    0.03923    0.03133 =
         0.08026    0.00335    0.00308    0.00754
AFIX  43
H14   2    0.431967    0.445181    0.504330    11.00000   -1.20000
AFIX   0
C5    1    0.259168    0.442526    0.509718    11.00000    0.06214    0.06196 =
         0.05502    0.00597    0.00371    0.03622
AFIX  43
H5    2    0.226542    0.435954    0.489974    11.00000   -1.20000
AFIX   0
C8    1    0.208321    0.269972    0.530809    11.00000    0.03931    0.04610 =
         0.03608   -0.00304   -0.00188    0.01939
C6    1    0.271589    0.404116    0.516308    11.00000    0.06156    0.05715 =
         0.04426    0.00092   -0.00140    0.04556
C19   1    0.366336    0.280417    0.542782    11.00000    0.04398    0.03224 =
         0.02848    0.00011   -0.00064    0.01173
C16   1    0.499504    0.391783    0.542660    11.00000    0.04965    0.05856 =
         0.06188   -0.00784   -0.01081    0.02868
AFIX  43
H16   2    0.532887    0.398597    0.547258    11.00000   -1.20000
AFIX   0
C3    1    0.346619    0.501034    0.569725    11.00000    0.09407    0.04594 =
         0.05819   -0.00803    0.00536    0.02776
AFIX  43
H3    2    0.372008    0.533706    0.591812    11.00000   -1.20000
AFIX   0
C10   1    0.154259    0.180274    0.545933    11.00000    0.05974    0.06350 =
         0.07909   -0.00114   -0.00319    0.03496
AFIX  43
H10   2    0.150026    0.148203    0.561076    11.00000   -1.20000
AFIX   0
C2    1    0.356750    0.460818    0.572077    11.00000    0.07174    0.03145 =
         0.06749    0.00173    0.00183    0.02572
AFIX  43
H2A   2    0.389477    0.467871    0.592559    11.00000   -1.20000
AFIX   0
C11   1    0.111400    0.185030    0.516449    11.00000    0.05151    0.06613 =
         0.08991    0.00762    0.00020    0.02889
AFIX  43
H11   2    0.079595    0.156097    0.508288    11.00000   -1.20000
AFIX   0
C4    1    0.299858    0.492265    0.535283    11.00000    0.09131    0.05650 =
         0.06462    0.00851    0.00966    0.04763
AFIX  43
H4    2    0.294262    0.519580    0.528194    11.00000   -1.20000
AFIX   0
C15   1    0.489217    0.431009    0.522921    11.00000    0.06535    0.03590 =
         0.06959   -0.00533   -0.00413    0.01148
AFIX  43
H15   2    0.515448    0.464312    0.512359    11.00000   -1.20000
AFIX   0
HKLF 4




REM  ptbimpic_para_a.res in R-3
REM wR2 = 0.1599, GooF = S = 1.086, Restrained GooF = 1.086 for all data
REM R1 = 0.0719 for 2741 Fo > 4sig(Fo) and 0.0959 for all 3526 data
REM 226 parameters refined using 0 restraints

END  
     
WGHT      0.0554    161.9067 

REM Highest difference peak  3.293,  deepest hole -2.148,  1-sigma level  0.195
Q1    1   0.3281  0.3449  0.4408  11.00000  0.05    3.29
Q2    1   0.3263  0.3489  0.6500  11.00000  0.05    1.98
Q3    1   0.3471  0.3276  0.5446  11.00000  0.05    1.45
Q4    1   0.3109  0.3051  0.5214  11.00000  0.05    1.05
Q5    1   0.3201  0.3116  0.6478  11.00000  0.05    1.02

  REM The information below was added by Olex2.
  REM
  REM R1 = 0.0719 for 2741 Fo > 4sig(Fo) and 0.0959 for all 12983 data
  REM n/a parameters refined using n/a restraints
  REM Highest difference peak 3.29, deepest hole -2.15
  REM Mean Shift 0, Max Shift -0.001.

  REM +++ Tabular Listing of Refinement Information +++
  REM R1_all = 0.0959
  REM R1_gt = 0.0719
  REM wR_ref = 0.1599
  REM GOOF = 1.086
  REM Shift_max = -0.001
  REM Shift_mean = 0
  REM Reflections_all = 12983
  REM Reflections_gt = 2741
  REM Parameters = n/a
  REM Hole = -2.15
  REM Peak = 3.29
  REM Flack = n/a

  
;
_cod_data_source_file            d0cc05349j2.cif
_cod_data_source_block           1P-para
_cod_depositor_comments
'Adding full bibliography for 7127299--7127303.cif.'
_cod_original_cell_volume        8037.0(13)
_cod_original_sg_symbol_H-M      'R -3'
_cod_database_code               7127302
_shelx_shelxl_version_number     2018/3
_chemical_oxdiff_formula         C19H13N3O2Pt
_shelx_space_group_comment
;
The symmetry employed for this shelxl refinement is uniquely defined
by the following loop, which should always be used as a source of
symmetry information in preference to the above space-group names.
They are only intended as comments.
;
_reflns_odcompleteness_completeness 96.47
_reflns_odcompleteness_iscentric 1
_reflns_odcompleteness_theta     66.97
_olex2_refinement_description
;
1. Fixed Uiso
 At 1.2 times of:
  All C(H) groups, All N(H) groups
2.a Aromatic/amide H refined with riding coordinates:
 N2(H2), C9(H9), C12(H12), C17(H17), C14(H14), C5(H5), C16(H16), C3(H3),
 C10(H10), C2(H2A), C11(H11), C4(H4), C15(H15)
;
_shelx_fab_file
;
 0 0 3 13.69 0.00
 0 0 6 8.71 0.00
 0 0 9 -34.37 0.00
 0 1 2 -49.73 0.00
 0 1 5 -1.39 0.00
 0 1 8 28.99 0.00
 -1 1 1 14.58 0.00
 -1 1 4 7.60 0.00
 -1 1 7 16.53 0.00
 -1 2 0 413.08 0.00
 1 1 3 5.93 0.00
 1 1 6 8.01 0.00
 1 1 9 -25.46 0.00
 1 2 2 -11.89 0.00
 1 2 5 1.43 0.00
 1 2 8 18.08 0.00
 0 2 1 6.84 0.00
 0 2 7 12.60 0.00
 -1 2 3 4.98 0.00
 -1 2 6 9.18 0.00
 -1 2 9 -26.77 0.00
 -2 2 2 -27.89 0.00
 -2 2 5 0.57 0.00
 -2 2 8 21.91 0.00
 -3 2 1 20.35 0.00
 -3 2 4 8.40 0.00
 -3 2 7 7.60 0.00
 -2 4 9 -12.71 0.00
 -2 4 0 172.61 0.00
 2 2 3 -6.20 0.00
 2 2 6 5.06 0.00
 2 2 9 -6.50 0.00
 2 3 2 20.29 0.00
 2 3 5 1.39 0.00
 2 3 8 6.81 0.00
 1 3 1 11.78 0.00
 1 3 4 10.37 0.00
 1 3 7 3.96 0.00
 0 3 3 -4.20 0.00
 0 3 6 7.59 0.00
 0 3 9 -14.23 0.00
 -1 3 2 -18.12 0.00
 -1 3 5 3.45 0.00
 -1 3 8 15.10 0.00
 -2 3 1 -6.83 0.00
 -2 3 4 6.00 0.00
 -2 3 7 10.14 0.00
 0 3 0 236.16 0.00
 -3 3 3 -6.67 0.00
 -3 3 6 8.25 0.00
 -3 3 9 -13.50 0.00
 -1 4 7 7.61 0.00
 -1 4 1 -26.41 0.00
 -4 3 2 12.69 0.00
 -4 3 5 1.43 0.00
 -4 3 8 10.08 0.00
 -5 3 1 33.42 0.00
 -5 3 4 6.79 0.00
 -5 3 7 -0.29 0.00
 -3 6 9 -2.55 0.00
 -3 6 0 15.68 0.00
 3 3 3 -8.35 0.00
 3 3 6 3.35 0.00
 3 3 9 4.40 0.00
 -4 7 10 -6.51 0.00
 -4 7 7 1.99 0.00
 3 4 2 23.01 0.00
 3 4 5 0.34 0.00
 3 4 8 -1.39 0.00
 2 4 1 16.80 0.00
 2 4 4 6.53 0.00
 2 4 7 0.16 0.00
 -4 5 0 57.25 0.00
 1 4 3 -8.39 0.00
 1 4 6 4.76 0.00
 1 4 9 1.18 0.00
 0 4 2 3.28 0.00
 0 4 5 3.87 0.00
 0 4 8 6.35 0.00
 -1 4 4 7.62 0.00
 -2 4 3 -10.60 0.00
 -2 4 6 10.46 0.00
 -3 4 2 3.23 0.00
 -3 4 5 4.22 0.00
 -3 4 8 5.98 0.00
 -4 4 1 6.64 0.00
 -4 4 4 2.51 0.00
 -4 4 7 2.40 0.00
 -1 5 9 -3.28 0.00
 -1 5 0 58.53 0.00
 -5 4 3 -13.11 0.00
 -5 4 6 3.89 0.00
 -5 4 9 0.68 0.00
 -2 6 7 5.29 0.00
 -6 4 2 28.14 0.00
 -6 4 5 -0.17 0.00
 -6 4 8 1.27 0.00
 -7 4 1 26.53 0.00
 -7 4 4 1.22 0.00
 -7 4 7 0.83 0.00
 -7 4 10 6.84 0.00
 -4 8 9 2.38 0.00
 -4 8 0 -16.77 0.00
 4 4 3 -2.29 0.00
 4 4 6 5.49 0.00
 4 4 9 2.68 0.00
 -5 9 10 -7.40 0.00
 -5 9 7 -2.15 0.00
 4 5 2 13.42 0.00
 4 5 5 0.87 0.00
 4 5 8 -6.27 0.00
 3 5 1 7.19 0.00
 3 5 4 -0.20 0.00
 3 5 7 2.74 0.00
 -5 7 9 1.85 0.00
 -5 7 0 -10.81 0.00
 2 5 3 -3.71 0.00
 2 5 6 5.02 0.00
 2 5 9 6.83 0.00
 -5 6 10 -7.05 0.00
 -5 6 7 0.18 0.00
 1 5 2 11.63 0.00
 1 5 5 1.47 0.00
 1 5 8 0.94 0.00
 0 5 1 -18.07 0.00
 0 5 4 7.41 0.00
 0 5 7 3.45 0.00
 -1 5 3 -12.37 0.00
 -1 5 6 8.10 0.00
 -2 5 2 -0.36 0.00
 -2 5 5 5.08 0.00
 -2 5 8 -0.47 0.00
 -3 5 1 -34.66 0.00
 -3 5 4 2.24 0.00
 -3 5 7 5.11 0.00
 -4 5 3 -14.66 0.00
 -4 5 6 8.21 0.00
 -4 5 9 -3.07 0.00
 -5 5 2 20.62 0.00
 -5 5 5 1.22 0.00
 -5 5 8 0.15 0.00
 -1 6 8 -2.26 0.00
 -6 5 1 21.81 0.00
 -6 5 4 -1.80 0.00
 -6 5 7 -0.76 0.00
 -6 5 10 -1.14 0.00
 -2 7 9 2.82 0.00
 -2 7 0 -7.02 0.00
 -7 5 3 -8.63 0.00
 -7 5 6 0.97 0.00
 -7 5 9 2.91 0.00
 -3 8 7 2.24 0.00
 -8 5 2 18.94 0.00
 -8 5 5 -0.38 0.00
 -8 5 8 -4.08 0.00
 -4 9 8 -5.30 0.00
 -9 5 1 7.02 0.00
 -9 5 4 -3.40 0.00
 -9 5 7 5.60 0.00
 -9 5 10 3.11 0.00
 -5 10 9 4.92 0.00
 -5 10 6 14.45 0.00
 -5 10 0 -6.13 0.00
 5 5 3 2.18 0.00
 5 5 6 7.99 0.00
 5 5 9 0.45 0.00
 -6 11 10 -1.96 0.00
 -6 11 7 -6.84 0.00
 5 6 2 5.35 0.00
 5 6 5 2.70 0.00
 5 6 8 -5.00 0.00
 4 6 1 2.41 0.00
 4 6 4 -2.62 0.00
 4 6 7 4.80 0.00
 -6 9 9 4.84 0.00
 -6 9 6 8.59 0.00
 -6 9 0 -8.22 0.00
 3 6 3 1.06 0.00
 3 6 6 7.00 0.00
 3 6 9 5.15 0.00
 -6 8 10 -9.45 0.00
 -6 8 7 -1.68 0.00
 2 6 2 9.81 0.00
 2 6 5 0.39 0.00
 2 6 8 -3.94 0.00
 1 6 1 -6.20 0.00
 1 6 4 1.85 0.00
 1 6 7 2.04 0.00
 0 6 0 0.19 0.00
 0 6 3 -8.02 0.00
 0 6 6 4.30 0.00
 0 6 9 5.98 0.00
 -1 6 2 -3.47 0.00
 -1 6 5 2.10 0.00
 -2 6 1 -42.37 0.00
 -2 6 4 5.46 0.00
 -3 6 3 -12.56 0.00
 -3 6 6 10.42 0.00
 -4 6 2 6.83 0.00
 -4 6 5 2.22 0.00
 -4 6 8 -4.33 0.00
 -5 6 1 -11.60 0.00
 -5 6 4 -3.24 0.00
 -6 6 3 -10.13 0.00
 -6 6 6 1.53 0.00
 -6 6 9 3.17 0.00
 -1 7 7 3.77 0.00
 -1 7 1 -22.38 0.00
 -7 6 2 16.23 0.00
 -7 6 5 -0.95 0.00
 -7 6 8 -2.65 0.00
 -2 8 8 -4.09 0.00
 -8 6 1 14.05 0.00
 -8 6 4 -4.54 0.00
 -8 6 7 2.58 0.00
 -8 6 10 -1.62 0.00
 -3 9 9 4.67 0.00
 -3 9 6 7.83 0.00
 -3 9 0 -5.31 0.00
 -9 6 3 -0.93 0.00
 -9 6 6 3.28 0.00
 -9 6 9 -0.97 0.00
 -4 10 10 -6.38 0.00
 -4 10 7 -3.47 0.00
 -10 6 2 9.20 0.00
 -10 6 5 1.48 0.00
 -10 6 8 -3.74 0.00
 -5 11 8 -3.92 0.00
 -11 6 1 1.39 0.00
 -11 6 4 -3.88 0.00
 -11 6 7 5.19 0.00
 -11 6 10 -0.82 0.00
 -6 12 9 5.94 0.00
 -6 12 6 18.32 0.00
 -6 12 0 -2.24 0.00
 6 6 3 2.86 0.00
 6 6 6 5.25 0.00
 6 6 9 3.79 0.00
 -7 13 10 3.99 0.00
 -7 13 7 -9.91 0.00
 6 7 2 -2.15 0.00
 6 7 5 6.39 0.00
 6 7 8 -0.41 0.00
 -7 12 8 -0.59 0.00
 5 7 1 9.47 0.00
 5 7 4 -0.91 0.00
 5 7 7 2.12 0.00
 -7 11 9 7.45 0.00
 -7 11 6 13.96 0.00
 -7 11 0 0.85 0.00
 4 7 3 0.59 0.00
 4 7 6 5.48 0.00
 4 7 9 4.34 0.00
 -7 10 10 -4.85 0.00
 -7 10 7 -3.87 0.00
 3 7 2 6.41 0.00
 3 7 5 0.84 0.00
 3 7 8 -8.29 0.00
 2 7 1 -0.09 0.00
 2 7 4 -2.17 0.00
 2 7 7 2.45 0.00
 -7 8 0 -1.74 0.00
 1 7 3 -2.57 0.00
 1 7 6 2.01 0.00
 1 7 9 8.57 0.00
 -7 7 10 -7.44 0.00
 0 7 2 -2.66 0.00
 0 7 5 -0.04 0.00
 0 7 8 -1.72 0.00
 -1 7 4 4.14 0.00
 -2 7 3 -8.36 0.00
 -2 7 6 7.46 0.00
 -3 7 2 -8.10 0.00
 -3 7 5 0.20 0.00
 -3 7 8 -6.47 0.00
 -4 7 1 -32.14 0.00
 -4 7 4 1.25 0.00
 -5 7 3 -4.81 0.00
 -5 7 6 6.78 0.00
 -6 7 2 7.53 0.00
 -6 7 5 -0.77 0.00
 -6 7 8 -2.94 0.00
 -7 7 1 3.18 0.00
 -7 7 4 -5.26 0.00
 -7 7 7 -0.65 0.00
 -1 8 9 7.14 0.00
 -1 8 6 1.07 0.00
 -1 8 3 -5.73 0.00
 -1 8 0 0.90 0.00
 -8 7 3 -2.87 0.00
 -8 7 6 -1.30 0.00
 -8 7 9 2.40 0.00
 -2 9 7 1.29 0.00
 -2 9 1 -5.05 0.00
 -9 7 2 6.14 0.00
 -9 7 5 0.45 0.00
 -9 7 8 -4.39 0.00
 -3 10 8 -4.02 0.00
 -10 7 1 2.04 0.00
 -10 7 4 -4.43 0.00
 -10 7 7 5.09 0.00
 -10 7 10 -3.46 0.00
 -4 11 9 4.36 0.00
 -4 11 6 10.70 0.00
 -4 11 0 -4.17 0.00
 -11 7 3 3.69 0.00
 -11 7 6 7.43 0.00
 -11 7 9 0.27 0.00
 -5 12 10 -1.22 0.00
 -5 12 7 -9.37 0.00
 -12 7 2 3.60 0.00
 -12 7 5 4.41 0.00
 -12 7 8 2.81 0.00
 -6 13 8 -3.04 0.00
 -6 13 2 2.64 0.00
 -13 7 1 0.63 0.00
 -13 7 4 -1.66 0.00
 -13 7 7 -0.69 0.00
 -13 7 10 -2.52 0.00
 -7 14 9 4.53 0.00
 -7 14 6 15.22 0.00
 -7 14 3 -4.55 0.00
 -7 14 0 -4.64 0.00
 7 7 3 2.60 0.00
 7 7 6 -3.91 0.00
 7 7 9 6.36 0.00
 -8 15 10 2.66 0.00
 -8 15 7 -9.27 0.00
 -8 15 1 -7.20 0.00
 7 8 2 -4.10 0.00
 7 8 5 8.46 0.00
 7 8 8 -0.51 0.00
 -8 14 8 -0.14 0.00
 -8 14 5 2.82 0.00
 -8 14 2 7.10 0.00
 6 8 4 0.36 0.00
 6 8 7 -2.59 0.00
 -8 13 9 6.12 0.00
 -8 13 6 14.91 0.00
 -8 13 0 4.90 0.00
 5 8 3 -0.57 0.00
 5 8 6 -2.24 0.00
 5 8 9 3.28 0.00
 -8 12 10 2.25 0.00
 -8 12 7 -5.37 0.00
 4 8 2 -2.02 0.00
 4 8 5 3.16 0.00
 4 8 8 -8.48 0.00
 3 8 1 10.17 0.00
 3 8 4 -0.94 0.00
 3 8 7 1.96 0.00
 -8 10 9 8.91 0.00
 -8 10 6 5.60 0.00
 -8 10 0 2.86 0.00
 2 8 3 -1.45 0.00
 2 8 6 0.30 0.00
 2 8 9 6.94 0.00
 -8 9 10 -6.83 0.00
 1 8 2 4.57 0.00
 1 8 5 -0.20 0.00
 1 8 8 -4.32 0.00
 0 8 1 -4.64 0.00
 0 8 4 -0.50 0.00
 0 8 7 2.29 0.00
 0 8 10 2.19 0.00
 -2 8 2 -13.80 0.00
 -2 8 5 -1.31 0.00
 -3 8 1 -21.88 0.00
 -3 8 4 4.70 0.00
 -4 8 3 1.00 0.00
 -4 8 6 10.52 0.00
 -5 8 2 -4.43 0.00
 -5 8 5 -1.93 0.00
 -5 8 8 -4.63 0.00
 -6 8 1 -12.35 0.00
 -6 8 4 -2.42 0.00
 -7 8 3 2.73 0.00
 -7 8 6 0.90 0.00
 -7 8 9 4.90 0.00
 -8 8 2 1.44 0.00
 -8 8 5 0.60 0.00
 -8 8 8 -3.17 0.00
 -1 9 8 -1.90 0.00
 -1 9 5 -0.42 0.00
 -1 9 2 -2.63 0.00
 -9 8 1 0.39 0.00
 -9 8 4 -2.59 0.00
 -9 8 7 1.63 0.00
 -9 8 10 -5.45 0.00
 -2 10 9 4.61 0.00
 -2 10 6 -1.54 0.00
 -2 10 3 -7.42 0.00
 -2 10 0 1.21 0.00
 -10 8 3 0.87 0.00
 -10 8 6 4.34 0.00
 -10 8 9 1.84 0.00
 -3 11 10 -6.28 0.00
 -3 11 7 -2.98 0.00
 -3 11 4 -2.56 0.00
 -11 8 2 1.84 0.00
 -11 8 5 3.00 0.00
 -11 8 8 -1.10 0.00
 -4 12 8 -4.55 0.00
 -4 12 5 1.70 0.00
 -4 12 2 1.43 0.00
 -12 8 1 -1.82 0.00
 -12 8 4 -3.31 0.00
 -12 8 7 2.79 0.00
 -12 8 10 -6.86 0.00
 -5 13 9 4.22 0.00
 -5 13 6 11.56 0.00
 -5 13 0 -10.35 0.00
 -13 8 3 5.53 0.00
 -13 8 6 6.37 0.00
 -13 8 9 5.25 0.00
 -6 14 10 4.34 0.00
 -6 14 7 -12.71 0.00
 -6 14 1 -7.95 0.00
 -14 8 2 -1.46 0.00
 -14 8 5 6.69 0.00
 -14 8 8 6.50 0.00
 -7 15 8 -0.29 0.00
 -7 15 5 2.94 0.00
 -7 15 2 1.22 0.00
 -15 8 4 1.29 0.00
 -15 8 7 -6.06 0.00
 -15 8 10 -0.31 0.00
 -8 16 9 1.44 0.00
 -8 16 6 7.32 0.00
 -8 16 3 -7.85 0.00
 -8 16 0 -10.53 0.00
 8 8 3 0.61 0.00
 8 8 6 -12.58 0.00
 8 8 9 4.54 0.00
 -9 17 10 -4.65 0.00
 -9 17 7 -3.24 0.00
 -9 17 4 7.22 0.00
 -9 17 1 -0.13 0.00
 8 9 5 2.16 0.00
 8 9 8 -4.50 0.00
 -9 16 8 0.56 0.00
 -9 16 5 0.00 0.00
 -9 16 2 1.76 0.00
 7 9 4 -0.09 0.00
 7 9 7 -4.75 0.00
 -9 15 9 -0.69 0.00
 -9 15 6 8.04 0.00
 -9 15 0 5.40 0.00
 6 9 3 1.07 0.00
 6 9 6 -12.99 0.00
 6 9 9 -1.41 0.00
 -9 14 10 3.07 0.00
 -9 14 7 -5.61 0.00
 -9 14 1 -10.78 0.00
 5 9 2 -9.34 0.00
 5 9 5 7.81 0.00
 5 9 8 -5.83 0.00
 -9 13 8 0.72 0.00
 4 9 1 15.52 0.00
 4 9 4 -0.29 0.00
 4 9 7 0.45 0.00
 -9 12 9 10.44 0.00
 -9 12 6 9.82 0.00
 -9 12 0 5.12 0.00
 3 9 3 -1.53 0.00
 3 9 6 -2.74 0.00
 3 9 9 3.14 0.00
 -9 11 10 -1.57 0.00
 -9 11 7 -2.23 0.00
 2 9 2 3.85 0.00
 2 9 5 -0.10 0.00
 2 9 8 -8.22 0.00
 1 9 1 6.41 0.00
 1 9 4 -1.63 0.00
 1 9 7 1.69 0.00
 1 9 10 4.42 0.00
 -9 9 6 2.03 0.00
 0 9 0 5.38 0.00
 0 9 3 -6.15 0.00
 0 9 6 -5.59 0.00
 0 9 9 6.94 0.00
 -2 9 4 2.22 0.00
 -3 9 3 -0.01 0.00
 -4 9 2 -13.54 0.00
 -4 9 5 -2.69 0.00
 -5 9 1 -11.25 0.00
 -5 9 4 0.91 0.00
 -6 9 3 11.12 0.00
 -7 9 2 -1.10 0.00
 -7 9 5 0.32 0.00
 -7 9 8 -1.20 0.00
 -8 9 1 -7.79 0.00
 -8 9 4 -0.46 0.00
 -8 9 7 -1.70 0.00
 -9 9 3 2.45 0.00
 -9 9 9 7.05 0.00
 -1 10 7 1.61 0.00
 -1 10 4 -0.94 0.00
 -1 10 1 2.89 0.00
 -10 9 2 -2.65 0.00
 -10 9 5 3.63 0.00
 -10 9 8 -4.92 0.00
 -2 11 8 -2.46 0.00
 -2 11 5 -0.08 0.00
 -11 9 1 -1.97 0.00
 -11 9 4 -0.35 0.00
 -11 9 7 3.26 0.00
 -11 9 10 -6.10 0.00
 -3 12 9 1.28 0.00
 -3 12 6 -1.34 0.00
 -3 12 3 -14.20 0.00
 -3 12 0 -9.03 0.00
 -12 9 3 2.42 0.00
 -12 9 6 11.73 0.00
 -12 9 9 3.79 0.00
 -4 13 10 -0.25 0.00
 -4 13 7 -7.00 0.00
 -4 13 4 -6.64 0.00
 -4 13 1 -3.66 0.00
 -13 9 2 -1.61 0.00
 -13 9 5 4.63 0.00
 -13 9 8 5.60 0.00
 -5 14 8 -3.01 0.00
 -5 14 5 1.67 0.00
 -5 14 2 1.98 0.00
 -14 9 1 -11.97 0.00
 -14 9 4 -1.35 0.00
 -14 9 7 -1.26 0.00
 -14 9 10 -7.79 0.00
 -6 15 9 5.66 0.00
 -6 15 6 8.35 0.00
 -6 15 3 -16.31 0.00
 -6 15 0 -14.50 0.00
 -15 9 3 3.52 0.00
 -15 9 6 -0.97 0.00
 -15 9 9 7.68 0.00
 -7 16 10 4.01 0.00
 -7 16 7 -11.54 0.00
 -7 16 1 -0.41 0.00
 -16 9 2 -1.92 0.00
 -16 9 5 2.72 0.00
 -16 9 8 1.20 0.00
 -8 17 8 2.54 0.00
 -8 17 5 1.91 0.00
 -8 17 2 -1.47 0.00
 -17 9 4 2.27 0.00
 -17 9 7 -6.51 0.00
 -17 9 10 2.26 0.00
 -9 18 9 -1.67 0.00
 -9 18 6 1.89 0.00
 -9 18 3 -3.86 0.00
 -9 18 0 -15.69 0.00
 9 9 3 -3.44 0.00
 9 9 6 -11.50 0.00
 9 9 9 1.17 0.00
 -10 19 7 5.29 0.00
 -10 19 4 13.51 0.00
 -10 19 1 -4.11 0.00
 9 10 5 -7.89 0.00
 9 10 8 -4.22 0.00
 -10 18 8 -0.25 0.00
 -10 18 5 -1.56 0.00
 -10 18 2 -2.56 0.00
 -10 17 9 -7.08 0.00
 -10 17 6 -0.19 0.00
 -10 17 3 3.15 0.00
 -10 17 0 -0.71 0.00
 7 10 3 3.51 0.00
 7 10 6 -17.79 0.00
 7 10 9 -5.36 0.00
 -10 16 10 -5.07 0.00
 -10 16 7 -2.10 0.00
 -10 16 1 -0.72 0.00
 6 10 2 -3.33 0.00
 6 10 5 8.00 0.00
 6 10 8 -3.69 0.00
 -10 15 8 0.77 0.00
 -10 15 5 -0.49 0.00
 -10 15 2 8.01 0.00
 5 10 4 -3.57 0.00
 5 10 7 -0.26 0.00
 -10 14 9 3.25 0.00
 -10 14 6 6.31 0.00
 -10 14 0 12.01 0.00
 4 10 3 1.99 0.00
 4 10 6 -8.54 0.00
 4 10 9 -3.98 0.00
 -10 13 10 1.22 0.00
 -10 13 7 -2.66 0.00
 3 10 2 -8.53 0.00
 3 10 5 2.81 0.00
 3 10 8 -8.47 0.00
 2 10 1 12.37 0.00
 2 10 4 -1.32 0.00
 2 10 7 1.83 0.00
 2 10 10 6.89 0.00
 -10 11 6 8.28 0.00
 -10 11 0 1.26 0.00
 1 10 3 -4.97 0.00
 1 10 6 -8.89 0.00
 1 10 9 3.49 0.00
 -10 10 10 -4.32 0.00
 0 10 2 8.84 0.00
 0 10 5 -1.10 0.00
 0 10 8 -3.06 0.00
 -1 10 10 -3.90 0.00
 -3 10 2 -8.48 0.00
 -3 10 5 -0.59 0.00
 -4 10 1 -2.28 0.00
 -4 10 4 -0.09 0.00
 -5 10 3 11.08 0.00
 -6 10 2 -4.11 0.00
 -6 10 5 -0.69 0.00
 -6 10 8 -1.75 0.00
 -7 10 1 -10.34 0.00
 -7 10 4 -1.25 0.00
 -8 10 3 10.26 0.00
 -9 10 2 -0.98 0.00
 -9 10 5 4.90 0.00
 -9 10 8 -2.85 0.00
 -10 10 1 -7.82 0.00
 -10 10 4 3.88 0.00
 -10 10 7 0.64 0.00
 -1 11 9 1.54 0.00
 -1 11 6 -10.86 0.00
 -1 11 3 -11.81 0.00
 -1 11 0 -3.29 0.00
 -11 10 3 -1.74 0.00
 -11 10 6 10.91 0.00
 -11 10 9 8.50 0.00
 -2 12 7 1.44 0.00
 -2 12 4 -2.67 0.00
 -2 12 1 1.00 0.00
 -12 10 2 -5.50 0.00
 -12 10 5 4.46 0.00
 -12 10 8 -2.08 0.00
 -3 13 8 -2.84 0.00
 -3 13 5 -1.63 0.00
 -3 13 2 6.08 0.00
 -13 10 1 -6.09 0.00
 -13 10 4 -1.32 0.00
 -13 10 7 4.21 0.00
 -13 10 10 -9.04 0.00
 -4 14 9 1.95 0.00
 -4 14 6 0.05 0.00
 -4 14 0 -11.45 0.00
 -14 10 3 3.14 0.00
 -14 10 6 10.58 0.00
 -14 10 9 4.36 0.00
 -5 15 10 6.09 0.00
 -5 15 7 -10.31 0.00
 -5 15 1 1.15 0.00
 -15 10 2 -3.65 0.00
 -15 10 5 2.30 0.00
 -15 10 8 6.50 0.00
 -6 16 8 1.20 0.00
 -6 16 5 1.50 0.00
 -6 16 2 -0.82 0.00
 -16 10 4 1.04 0.00
 -16 10 7 -3.35 0.00
 -16 10 10 -4.09 0.00
 -7 17 9 6.72 0.00
 -7 17 6 5.76 0.00
 -7 17 3 -13.73 0.00
 -7 17 0 -17.54 0.00
 -17 10 3 -4.05 0.00
 -17 10 6 -5.87 0.00
 -17 10 9 6.96 0.00
 -8 18 10 0.10 0.00
 -8 18 7 -5.40 0.00
 -8 18 4 12.35 0.00
 -8 18 1 1.56 0.00
 -18 10 5 -7.70 0.00
 -18 10 8 -4.82 0.00
 -9 19 8 1.83 0.00
 -9 19 5 0.98 0.00
 -9 19 2 -1.64 0.00
 -19 10 4 -0.77 0.00
 -19 10 7 -2.57 0.00
 -19 10 10 -0.84 0.00
 -10 20 9 -5.36 0.00
 -10 20 6 0.29 0.00
 -10 20 3 0.46 0.00
 10 10 3 -5.97 0.00
 10 10 6 -2.61 0.00
 10 10 9 -2.35 0.00
 -11 21 7 8.90 0.00
 -11 21 4 5.73 0.00
 -11 21 1 -10.21 0.00
 10 11 5 -8.58 0.00
 10 11 8 -0.40 0.00
 -11 20 8 -2.87 0.00
 -11 20 5 -1.98 0.00
 -11 20 2 -4.19 0.00
 -11 19 9 -6.86 0.00
 -11 19 6 -4.12 0.00
 -11 19 3 4.75 0.00
 -11 19 0 -6.18 0.00
 8 11 6 -10.98 0.00
 8 11 9 -4.13 0.00
 -11 18 10 -12.97 0.00
 -11 18 7 6.26 0.00
 -11 18 4 7.93 0.00
 -11 18 1 -0.35 0.00
 7 11 8 -0.70 0.00
 -11 17 8 -0.07 0.00
 -11 17 5 -4.03 0.00
 -11 17 2 2.22 0.00
 6 11 4 -6.58 0.00
 6 11 7 0.54 0.00
 -11 16 9 -8.50 0.00
 -11 16 6 -1.95 0.00
 -11 16 0 12.94 0.00
 5 11 3 7.42 0.00
 5 11 6 -14.65 0.00
 5 11 9 -10.12 0.00
 -11 15 10 -3.97 0.00
 -11 15 7 -2.31 0.00
 -11 15 1 -1.80 0.00
 4 11 2 -11.67 0.00
 4 11 5 7.10 0.00
 4 11 8 -4.79 0.00
 -11 14 5 2.32 0.00
 3 11 1 6.94 0.00
 3 11 4 -5.07 0.00
 3 11 7 2.49 0.00
 3 11 10 3.24 0.00
 -11 13 9 9.33 0.00
 -11 13 6 7.80 0.00
 -11 13 0 7.63 0.00
 2 11 3 2.11 0.00
 2 11 6 -8.80 0.00
 2 11 9 -2.31 0.00
 -11 12 10 -2.36 0.00
 1 11 2 1.05 0.00
 1 11 5 -2.11 0.00
 1 11 8 -4.57 0.00
 0 11 1 5.94 0.00
 0 11 4 -1.95 0.00
 0 11 7 3.66 0.00
 0 11 10 0.02 0.00
 -2 11 2 6.11 0.00
 -3 11 1 0.33 0.00
 -4 11 3 -0.77 0.00
 -5 11 2 -4.92 0.00
 -5 11 5 0.40 0.00
 -6 11 1 -6.26 0.00
 -6 11 4 -6.04 0.00
 -7 11 3 14.40 0.00
 -8 11 2 4.33 0.00
 -8 11 5 4.17 0.00
 -8 11 8 0.31 0.00
 -9 11 1 -14.28 0.00
 -9 11 4 2.50 0.00
 -10 11 3 1.10 0.00
 -10 11 9 12.59 0.00
 -11 11 2 -4.74 0.00
 -11 11 5 6.26 0.00
 -11 11 8 -5.22 0.00
 -1 12 8 -1.39 0.00
 -1 12 5 -3.61 0.00
 -1 12 2 8.03 0.00
 -12 11 1 -4.45 0.00
 -12 11 4 2.89 0.00
 -12 11 7 4.45 0.00
 -12 11 10 -5.86 0.00
 -2 13 9 -2.21 0.00
 -2 13 6 -10.27 0.00
 -2 13 3 -15.11 0.00
 -2 13 0 -5.45 0.00
 -13 11 3 -2.32 0.00
 -13 11 6 15.96 0.00
 -13 11 9 5.31 0.00
 -3 14 10 1.23 0.00
 -3 14 7 -0.60 0.00
 -3 14 4 -2.52 0.00
 -3 14 1 2.43 0.00
 -14 11 2 -7.18 0.00
 -14 11 5 2.08 0.00
 -14 11 8 2.79 0.00
 -4 15 11 -13.98 0.00
 -4 15 8 -1.25 0.00
 -4 15 5 -2.47 0.00
 -4 15 2 -0.55 0.00
 -15 11 4 -1.93 0.00
 -15 11 7 4.80 0.00
 -15 11 10 -8.48 0.00
 -5 16 9 6.91 0.00
 -5 16 6 2.96 0.00
 -5 16 3 -17.62 0.00
 -5 16 0 -7.97 0.00
 -16 11 3 -0.61 0.00
 -16 11 6 2.28 0.00
 -16 11 9 4.18 0.00
 -6 17 10 7.47 0.00
 -6 17 7 -11.15 0.00
 -6 17 4 5.47 0.00
 -6 17 1 6.04 0.00
 -17 11 2 -0.88 0.00
 -17 11 5 -6.29 0.00
 -7 18 8 3.82 0.00
 -7 18 5 2.32 0.00
 -7 18 2 0.90 0.00
 -18 11 4 0.02 0.00
 -18 11 7 -2.90 0.00
 -18 11 10 -1.89 0.00
 -8 19 9 2.19 0.00
 -8 19 6 5.92 0.00
 -8 19 3 -6.88 0.00
 -19 11 3 -11.25 0.00
 -19 11 6 -2.29 0.00
 -19 11 9 3.17 0.00
 -9 20 7 2.11 0.00
 -9 20 4 11.14 0.00
 -9 20 1 -5.03 0.00
 -20 11 5 -12.81 0.00
 -20 11 8 -3.66 0.00
 -10 21 8 -0.87 0.00
 -10 21 5 -1.06 0.00
 -10 21 2 -4.45 0.00
 -21 11 1 1.69 0.00
 -21 11 4 -3.88 0.00
 -11 22 9 -9.73 0.00
 -11 22 6 -0.34 0.00
 -11 22 3 1.56 0.00
 -11 22 0 -2.26 0.00
 11 11 3 -6.98 0.00
 11 11 6 1.69 0.00
 11 11 9 -4.87 0.00
 -12 23 7 4.30 0.00
 -12 23 4 -4.81 0.00
 -12 23 1 -6.16 0.00
 11 12 5 -0.32 0.00
 11 12 8 -1.89 0.00
 -12 22 8 -3.99 0.00
 -12 22 5 -2.48 0.00
 -12 22 2 -7.16 0.00
 -12 21 9 -2.18 0.00
 -12 21 6 -4.21 0.00
 -12 21 3 2.68 0.00
 -12 21 0 -5.40 0.00
 9 12 6 0.44 0.00
 9 12 9 0.02 0.00
 -12 20 7 12.96 0.00
 -12 20 4 5.90 0.00
 -12 20 1 -8.98 0.00
 8 12 8 3.47 0.00
 -12 19 8 -2.10 0.00
 -12 19 5 -4.02 0.00
 -12 19 2 -0.75 0.00
 7 12 7 1.70 0.00
 -12 18 9 -12.04 0.00
 -12 18 6 -7.60 0.00
 -12 18 3 10.09 0.00
 -12 18 0 4.59 0.00
 6 12 3 11.49 0.00
 6 12 6 -13.88 0.00
 6 12 9 -8.15 0.00
 -12 17 10 -13.20 0.00
 -12 17 7 3.22 0.00
 -12 17 4 2.17 0.00
 -12 17 1 3.43 0.00
 5 12 2 1.54 0.00
 5 12 5 4.14 0.00
 5 12 8 0.35 0.00
 -12 16 8 1.28 0.00
 -12 16 5 -3.03 0.00
 4 12 1 -1.83 0.00
 4 12 4 -9.77 0.00
 4 12 7 3.98 0.00
 4 12 10 -5.26 0.00
 -12 15 9 -4.58 0.00
 -12 15 6 -0.57 0.00
 -12 15 0 15.33 0.00
 3 12 3 10.75 0.00
 3 12 6 -9.25 0.00
 3 12 9 -8.14 0.00
 -12 14 10 -4.26 0.00
 2 12 2 -12.08 0.00
 2 12 5 1.47 0.00
 2 12 8 -3.24 0.00
 -12 13 5 4.51 0.00
 1 12 1 2.65 0.00
 1 12 4 -4.76 0.00
 1 12 7 5.13 0.00
 1 12 10 0.09 0.00
 0 12 0 1.09 0.00
 0 12 3 -4.86 0.00
 0 12 6 -12.75 0.00
 0 12 9 -2.04 0.00
 -2 12 10 -3.85 0.00
 -5 12 1 -5.04 0.00
 -5 12 4 -9.39 0.00
 -6 12 3 6.05 0.00
 -7 12 2 4.94 0.00
 -7 12 5 3.02 0.00
 -8 12 1 -14.29 0.00
 -8 12 4 -6.14 0.00
 -9 12 3 7.44 0.00
 -10 12 2 4.03 0.00
 -10 12 5 6.49 0.00
 -10 12 8 -1.80 0.00
 -11 12 1 -9.34 0.00
 -11 12 4 4.89 0.00
 -11 12 7 0.74 0.00
 -12 12 3 -4.28 0.00
 -12 12 6 13.36 0.00
 -12 12 9 9.96 0.00
 -1 13 7 6.01 0.00
 -1 13 4 -3.29 0.00
 -1 13 1 1.71 0.00
 -13 12 2 -9.30 0.00
 -13 12 5 3.47 0.00
 -13 12 8 -3.12 0.00
 -2 14 8 -0.24 0.00
 -2 14 5 -5.41 0.00
 -14 12 1 -7.32 0.00
 -14 12 4 -1.65 0.00
 -14 12 7 9.08 0.00
 -14 12 10 -7.12 0.00
 -3 15 9 0.28 0.00
 -3 15 6 -4.95 0.00
 -3 15 0 3.51 0.00
 -15 12 3 -0.44 0.00
 -15 12 6 9.15 0.00
 -15 12 9 -0.29 0.00
 -4 16 10 6.41 0.00
 -4 16 7 -5.98 0.00
 -4 16 4 0.56 0.00
 -4 16 1 8.00 0.00
 -16 12 2 -2.72 0.00
 -16 12 5 -4.64 0.00
 -16 12 8 3.23 0.00
 -5 17 8 0.91 0.00
 -5 17 5 -0.23 0.00
 -5 17 2 -1.23 0.00
 -17 12 4 -1.81 0.00
 -17 12 7 3.41 0.00
 -17 12 10 -5.00 0.00
 -6 18 9 8.58 0.00
 -6 18 6 7.61 0.00
 -6 18 3 -10.26 0.00
 -6 18 0 -4.95 0.00
 -18 12 3 -7.80 0.00
 -18 12 6 -1.38 0.00
 -18 12 9 4.47 0.00
 -7 19 7 -7.19 0.00
 -7 19 4 6.83 0.00
 -7 19 1 -0.58 0.00
 -19 12 5 -13.77 0.00
 -8 20 8 2.63 0.00
 -8 20 5 1.45 0.00
 -8 20 2 1.89 0.00
 -20 12 4 -4.07 0.00
 -20 12 7 -1.44 0.00
 -9 21 9 -9.36 0.00
 -9 21 6 5.05 0.00
 -9 21 3 -1.67 0.00
 -21 12 3 -11.16 0.00
 -21 12 6 1.71 0.00
 -21 12 9 -3.77 0.00
 -10 22 7 5.29 0.00
 -10 22 4 3.49 0.00
 -10 22 1 -6.11 0.00
 -22 12 5 -5.86 0.00
 -22 12 8 -1.61 0.00
 -11 23 8 -0.91 0.00
 -11 23 5 -3.21 0.00
 -11 23 2 -10.94 0.00
 -23 12 1 3.26 0.00
 -23 12 4 -0.94 0.00
 -12 24 6 -0.24 0.00
 -12 24 3 0.35 0.00
 -12 24 0 2.95 0.00
 12 12 3 -9.43 0.00
 12 12 6 -3.44 0.00
 -13 25 7 -2.40 0.00
 -13 25 4 -7.74 0.00
 -13 25 1 3.28 0.00
 12 13 2 0.68 0.00
 12 13 5 2.92 0.00
 12 13 8 -8.98 0.00
 -13 24 5 -2.44 0.00
 -13 24 2 -10.92 0.00
 11 13 4 0.91 0.00
 -13 23 9 0.62 0.00
 -13 23 6 -2.30 0.00
 -13 23 3 -1.36 0.00
 -13 23 0 -4.01 0.00
 10 13 3 -1.73 0.00
 10 13 6 5.62 0.00
 -13 22 7 9.99 0.00
 -13 22 4 -4.55 0.00
 -13 22 1 -11.32 0.00
 9 13 2 0.96 0.00
 9 13 5 -4.16 0.00
 9 13 8 3.43 0.00
 -13 21 8 -3.42 0.00
 -13 21 5 -2.47 0.00
 -13 21 2 -1.94 0.00
 8 13 1 5.81 0.00
 8 13 4 -3.48 0.00
 -13 20 9 -2.86 0.00
 -13 20 6 -8.51 0.00
 -13 20 3 4.29 0.00
 -13 20 0 -2.32 0.00
 7 13 3 12.72 0.00
 7 13 6 -4.53 0.00
 7 13 9 0.85 0.00
 -13 19 4 4.58 0.00
 -13 19 1 -2.55 0.00
 6 13 5 -5.26 0.00
 -13 18 8 0.14 0.00
 -13 18 5 -5.07 0.00
 -13 18 2 3.91 0.00
 5 13 4 -9.23 0.00
 5 13 7 5.46 0.00
 5 13 10 -12.33 0.00
 -13 17 9 -16.17 0.00
 -13 17 6 -8.75 0.00
 -13 17 0 9.00 0.00
 4 13 3 14.33 0.00
 4 13 6 -9.52 0.00
 4 13 9 -8.26 0.00
 -13 16 10 -10.89 0.00
 -13 16 4 0.93 0.00
 -13 16 1 2.20 0.00
 3 13 2 -7.20 0.00
 3 13 5 4.43 0.00
 3 13 8 -0.30 0.00
 -13 15 5 -0.10 0.00
 2 13 1 -5.64 0.00
 2 13 4 -8.77 0.00
 2 13 7 5.70 0.00
 2 13 10 -5.46 0.00
 -13 14 9 -0.08 0.00
 -13 14 0 12.38 0.00
 1 13 3 8.55 0.00
 1 13 6 -9.38 0.00
 1 13 9 -4.52 0.00
 -13 13 10 -5.17 0.00
 0 13 2 -5.10 0.00
 0 13 5 -4.00 0.00
 0 13 8 0.03 0.00
 -1 13 10 -2.29 0.00
 -5 13 3 -10.07 0.00
 -6 13 5 3.34 0.00
 -7 13 1 -11.82 0.00
 -7 13 4 -13.44 0.00
 -8 13 3 6.47 0.00
 -9 13 2 10.38 0.00
 -9 13 5 4.13 0.00
 -10 13 1 -12.36 0.00
 -10 13 4 -0.84 0.00
 -11 13 3 0.99 0.00
 -12 13 2 -3.26 0.00
 -12 13 8 -2.90 0.00
 -13 13 1 -3.61 0.00
 -13 13 4 1.22 0.00
 -13 13 7 5.40 0.00
 -1 14 9 -3.43 0.00
 -1 14 6 -10.21 0.00
 -1 14 3 -2.06 0.00
 -1 14 0 9.42 0.00
 -14 13 3 -1.40 0.00
 -14 13 6 10.63 0.00
 -14 13 9 0.05 0.00
 -2 15 7 3.24 0.00
 -2 15 4 -2.31 0.00
 -2 15 1 4.24 0.00
 -15 13 2 -6.69 0.00
 -15 13 5 -2.46 0.00
 -15 13 8 -0.54 0.00
 -3 16 8 -0.15 0.00
 -3 16 5 -3.15 0.00
 -3 16 2 -5.00 0.00
 -16 13 1 -10.92 0.00
 -16 13 4 -3.53 0.00
 -16 13 7 10.65 0.00
 -16 13 10 -3.95 0.00
 -4 17 9 5.22 0.00
 -4 17 6 2.68 0.00
 -4 17 0 10.39 0.00
 -17 13 3 -1.55 0.00
 -17 13 6 -0.44 0.00
 -17 13 9 -1.17 0.00
 -5 18 7 -10.14 0.00
 -5 18 4 0.91 0.00
 -5 18 1 2.98 0.00
 -18 13 2 3.51 0.00
 -18 13 5 -12.15 0.00
 -18 13 8 1.28 0.00
 -6 19 8 0.84 0.00
 -6 19 5 1.10 0.00
 -6 19 2 3.06 0.00
 -19 13 4 -3.87 0.00
 -19 13 7 -0.40 0.00
 -19 13 10 -5.50 0.00
 -7 20 9 -0.91 0.00
 -7 20 6 9.49 0.00
 -7 20 3 -3.36 0.00
 -20 13 3 -9.32 0.00
 -20 13 6 2.35 0.00
 -20 13 9 1.04 0.00
 -8 21 7 -0.17 0.00
 -8 21 4 2.92 0.00
 -8 21 1 -6.97 0.00
 -21 13 2 -2.33 0.00
 -21 13 5 -9.98 0.00
 -21 13 8 -0.39 0.00
 -9 22 8 1.63 0.00
 -9 22 5 -1.30 0.00
 -9 22 2 -3.30 0.00
 -22 13 1 3.91 0.00
 -22 13 4 -3.74 0.00
 -10 23 9 -19.37 0.00
 -10 23 6 1.66 0.00
 -10 23 3 0.91 0.00
 -10 23 0 6.91 0.00
 -23 13 3 -7.47 0.00
 -23 13 6 -3.52 0.00
 -23 13 9 -8.33 0.00
 -11 24 7 2.91 0.00
 -11 24 4 -0.30 0.00
 -11 24 1 1.03 0.00
 -24 13 5 2.41 0.00
 -24 13 8 -6.40 0.00
 -12 25 5 -3.44 0.00
 -12 25 2 -13.75 0.00
 -25 13 1 1.75 0.00
 -25 13 4 6.46 0.00
 -13 26 6 2.65 0.00
 -13 26 3 -0.82 0.00
 -13 26 0 0.74 0.00
 13 13 3 -10.40 0.00
 13 13 6 -10.88 0.00
 -14 27 7 -2.51 0.00
 -14 27 4 -2.78 0.00
 -14 27 1 6.54 0.00
 13 14 2 7.12 0.00
 13 14 5 -4.07 0.00
 -14 26 8 -2.46 0.00
 -14 26 5 -0.55 0.00
 -14 26 2 -10.76 0.00
 12 14 4 5.54 0.00
 12 14 7 14.59 0.00
 -14 25 6 0.95 0.00
 -14 25 3 -4.75 0.00
 -14 25 0 -5.57 0.00
 11 14 3 -7.83 0.00
 11 14 6 3.22 0.00
 -14 24 7 -0.37 0.00
 -14 24 4 -12.22 0.00
 -14 24 1 -3.07 0.00
 10 14 2 2.03 0.00
 10 14 5 3.61 0.00
 -14 23 5 -1.23 0.00
 -14 23 2 -4.43 0.00
 9 14 4 -0.60 0.00
 -14 22 9 8.72 0.00
 -14 22 6 -6.05 0.00
 -14 22 3 -2.86 0.00
 -14 22 0 -5.15 0.00
 8 14 3 8.37 0.00
 8 14 9 9.31 0.00
 -14 21 4 0.04 0.00
 -14 21 1 -8.79 0.00
 7 14 2 5.42 0.00
 7 14 5 -8.39 0.00
 -14 20 8 -1.59 0.00
 -14 20 5 -4.31 0.00
 -14 20 2 3.64 0.00
 6 14 1 3.74 0.00
 6 14 4 -4.23 0.00
 -14 19 9 -11.65 0.00
 -14 19 6 -11.98 0.00
 -14 19 3 8.69 0.00
 -14 19 0 -2.21 0.00
 5 14 3 13.22 0.00
 5 14 6 -4.79 0.00
 5 14 9 -0.99 0.00
 -14 18 10 -15.21 0.00
 -14 18 4 4.65 0.00
 -14 18 1 0.45 0.00
 4 14 2 6.31 0.00
 4 14 5 -1.03 0.00
 4 14 8 1.40 0.00
 -14 17 8 0.34 0.00
 3 14 1 -7.08 0.00
 3 14 4 -8.02 0.00
 3 14 7 7.34 0.00
 3 14 10 -10.15 0.00
 -14 16 9 -15.21 0.00
 -14 16 0 9.30 0.00
 2 14 3 15.29 0.00
 2 14 6 -6.56 0.00
 2 14 9 -4.29 0.00
 -14 15 10 -7.02 0.00
 -14 15 4 0.24 0.00
 -14 15 1 -1.66 0.00
 1 14 2 -9.73 0.00
 1 14 5 0.93 0.00
 1 14 8 1.24 0.00
 -14 14 11 -17.91 0.00
 -14 14 5 0.05 0.00
 0 14 1 -3.15 0.00
 0 14 4 -5.58 0.00
 0 14 7 6.80 0.00
 0 14 10 -5.40 0.00
 -2 14 2 -0.64 0.00
 -4 14 3 -19.51 0.00
 -6 14 4 -10.65 0.00
 6 8 1 7.06 0.00
 -9 14 4 -8.70 0.00
 -10 14 3 5.41 0.00
 -11 14 2 6.48 0.00
 -11 14 8 0.23 0.00
 -12 14 1 -3.31 0.00
 -12 14 4 1.17 0.00
 -12 14 7 -0.36 0.00
 -13 14 3 2.52 0.00
 -13 14 6 5.56 0.00
 -14 14 2 -7.05 0.00
 -14 14 8 -2.24 0.00
 -1 15 11 -19.75 0.00
 -1 15 8 1.72 0.00
 -1 15 5 -2.73 0.00
 -15 14 1 -5.31 0.00
 -15 14 4 -2.32 0.00
 -15 14 7 10.28 0.00
 -15 14 10 -3.56 0.00
 -2 16 9 -0.56 0.00
 -2 16 6 -4.41 0.00
 -2 16 0 16.59 0.00
 -16 14 3 2.77 0.00
 -16 14 6 0.63 0.00
 -16 14 9 -6.85 0.00
 -3 17 10 2.43 0.00
 -3 17 7 -4.09 0.00
 -3 17 4 -1.15 0.00
 -3 17 1 3.97 0.00
 -17 14 2 2.01 0.00
 -17 14 5 -9.77 0.00
 -17 14 8 -0.91 0.00
 -4 18 8 -1.67 0.00
 -4 18 5 -0.77 0.00
 -4 18 2 -1.46 0.00
 -18 14 1 -1.69 0.00
 -18 14 4 -3.75 0.00
 -18 14 7 6.21 0.00
 -18 14 10 -1.56 0.00
 -5 19 9 2.83 0.00
 -5 19 6 7.70 0.00
 -5 19 3 -0.01 0.00
 -5 19 0 13.18 0.00
 -19 14 3 -2.81 0.00
 -19 14 6 -0.06 0.00
 -19 14 9 0.44 0.00
 -6 20 7 -7.55 0.00
 -6 20 4 -2.33 0.00
 -6 20 1 -8.20 0.00
 -20 14 2 2.98 0.00
 -20 14 5 -11.24 0.00
 -7 21 8 -0.05 0.00
 -7 21 5 -1.11 0.00
 -7 21 2 3.57 0.00
 -21 14 1 8.06 0.00
 -21 14 4 -4.90 0.00
 -21 14 7 -4.55 0.00
 -8 22 6 5.23 0.00
 -8 22 3 -0.02 0.00
 -8 22 0 8.24 0.00
 -22 14 3 -2.87 0.00
 -22 14 6 2.98 0.00
 -22 14 9 -5.64 0.00
 -9 23 7 4.50 0.00
 -9 23 4 1.52 0.00
 -9 23 1 -2.10 0.00
 -23 14 5 0.80 0.00
 -23 14 8 -3.71 0.00
 -10 24 8 3.27 0.00
 -10 24 5 -3.24 0.00
 -10 24 2 -8.69 0.00
 -24 14 1 -0.10 0.00
 -24 14 4 3.61 0.00
 -11 25 6 0.03 0.00
 -11 25 3 2.81 0.00
 -11 25 0 9.73 0.00
 -25 14 3 -6.72 0.00
 -25 14 6 -13.18 0.00
 -12 26 7 0.29 0.00
 -12 26 4 1.08 0.00
 -12 26 1 5.54 0.00
 -26 14 5 0.44 0.00
 -26 14 8 -12.82 0.00
 -13 27 5 -1.26 0.00
 -13 27 2 -9.31 0.00
 -27 14 1 2.97 0.00
 -27 14 4 10.92 0.00
 -14 28 3 -0.81 0.00
 -14 28 0 -6.47 0.00
 14 14 3 -6.82 0.00
 -15 29 4 4.94 0.00
 -15 29 1 2.12 0.00
 14 15 2 12.98 0.00
 14 15 5 -12.54 0.00
 -15 28 5 2.77 0.00
 -15 28 2 -7.76 0.00
 13 15 4 8.28 0.00
 -15 27 6 4.89 0.00
 -15 27 3 -5.14 0.00
 -15 27 0 -8.03 0.00
 12 15 3 -6.28 0.00
 -15 26 7 -6.84 0.00
 -15 26 4 -10.85 0.00
 -15 26 1 5.79 0.00
 11 15 2 9.05 0.00
 11 15 5 3.76 0.00
 -15 25 8 -1.73 0.00
 -15 25 5 -0.15 0.00
 -15 25 2 -6.32 0.00
 10 15 4 2.26 0.00
 -15 24 6 -1.79 0.00
 -15 24 3 -6.23 0.00
 -15 24 0 -7.71 0.00
 9 15 3 -0.39 0.00
 -15 23 7 6.28 0.00
 -15 23 4 -7.36 0.00
 -15 23 1 -7.20 0.00
 8 15 2 0.49 0.00
 8 15 5 -1.21 0.00
 -15 22 5 -3.08 0.00
 -15 22 2 1.97 0.00
 7 15 1 2.72 0.00
 7 15 4 0.56 0.00
 -15 21 9 4.99 0.00
 -15 21 6 -10.99 0.00
 -15 21 3 -1.37 0.00
 6 15 3 9.68 0.00
 6 15 6 3.02 0.00
 6 15 9 7.76 0.00
 -15 20 7 14.83 0.00
 -15 20 4 6.23 0.00
 -15 20 1 -3.55 0.00
 5 15 2 6.85 0.00
 5 15 5 -8.48 0.00
 -15 19 5 -5.75 0.00
 -15 19 2 5.56 0.00
 4 15 1 -1.61 0.00
 4 15 4 -2.18 0.00
 4 15 7 9.33 0.00
 -15 18 9 -19.63 0.00
 -15 18 3 12.82 0.00
 -15 18 0 -5.62 0.00
 3 15 3 11.57 0.00
 3 15 6 -2.88 0.00
 3 15 9 -0.51 0.00
 -15 17 10 -10.93 0.00
 -15 17 4 4.44 0.00
 -15 17 1 -2.54 0.00
 2 15 2 0.58 0.00
 2 15 5 1.69 0.00
 2 15 8 -0.19 0.00
 -15 16 8 -2.26 0.00
 1 15 1 -7.79 0.00
 1 15 4 -4.32 0.00
 1 15 7 6.60 0.00
 1 15 10 -8.69 0.00
 -15 15 9 -11.04 0.00
 0 15 0 12.74 0.00
 0 15 3 10.62 0.00
 0 15 6 -7.05 0.00
 0 15 9 -2.20 0.00
 -1 15 2 -7.73 0.00
 -15 13 11 -10.87 0.00
 -2 15 10 -0.89 0.00
 -3 15 3 -13.34 0.00
 -5 15 4 -2.42 0.00
 -8 15 4 -7.71 0.00
 -9 15 3 1.48 0.00
 5 10 1 6.50 0.00
 -11 15 4 -2.16 0.00
 -12 15 3 8.54 0.00
 -13 15 2 -0.30 0.00
 -13 15 8 0.09 0.00
 1 14 11 -11.29 0.00
 -14 15 7 3.84 0.00
 -15 15 3 7.43 0.00
 -15 15 6 -0.72 0.00
 -1 16 7 3.24 0.00
 -1 16 4 -1.86 0.00
 -1 16 1 -1.15 0.00
 -16 15 2 -2.26 0.00
 -16 15 5 -6.39 0.00
 -16 15 8 -3.59 0.00
 -2 17 8 0.01 0.00
 -2 17 5 -0.76 0.00
 -2 17 2 -4.18 0.00
 -17 15 1 -3.48 0.00
 -17 15 4 -2.43 0.00
 -17 15 7 10.70 0.00
 -17 15 10 1.30 0.00
 -3 18 9 0.13 0.00
 -3 18 6 0.55 0.00
 -3 18 3 4.73 0.00
 -3 18 0 18.58 0.00
 -18 15 3 3.14 0.00
 -18 15 6 -3.34 0.00
 -18 15 9 -4.90 0.00
 -4 19 7 -8.41 0.00
 -4 19 4 -3.22 0.00
 -4 19 1 -5.34 0.00
 -19 15 2 5.42 0.00
 -19 15 5 -11.64 0.00
 -19 15 8 -2.03 0.00
 -5 20 8 -3.91 0.00
 -5 20 5 -3.23 0.00
 -5 20 2 2.09 0.00
 -20 15 1 9.87 0.00
 -20 15 4 -4.23 0.00
 -20 15 7 -1.42 0.00
 -20 15 10 -4.58 0.00
 -6 21 6 5.52 0.00
 -6 21 3 3.27 0.00
 -6 21 0 14.24 0.00
 -21 15 3 2.25 0.00
 -21 15 6 6.63 0.00
 -21 15 9 -2.50 0.00
 -7 22 7 0.04 0.00
 -7 22 4 -3.36 0.00
 -7 22 1 -8.31 0.00
 -22 15 2 -1.32 0.00
 -22 15 5 -1.00 0.00
 -22 15 8 -2.34 0.00
 -8 23 8 1.60 0.00
 -8 23 5 -3.52 0.00
 -8 23 2 1.06 0.00
 -23 15 1 3.49 0.00
 -23 15 4 -0.10 0.00
 -9 24 6 -0.88 0.00
 -9 24 3 1.71 0.00
 -9 24 0 10.89 0.00
 -24 15 3 1.85 0.00
 -24 15 6 -3.69 0.00
 -24 15 9 -7.77 0.00
 -10 25 7 4.30 0.00
 -10 25 4 3.26 0.00
 -10 25 1 5.85 0.00
 -25 15 5 5.20 0.00
 -25 15 8 -11.32 0.00
 -11 26 5 -3.12 0.00
 -11 26 2 -6.82 0.00
 -26 15 1 -1.06 0.00
 -26 15 4 10.10 0.00
 -12 27 6 3.82 0.00
 -12 27 3 4.23 0.00
 -12 27 0 4.19 0.00
 -27 15 3 -7.08 0.00
 -27 15 6 -17.44 0.00
 -13 28 4 3.63 0.00
 -13 28 1 2.33 0.00
 -28 15 5 -8.04 0.00
 -14 29 5 1.26 0.00
 -14 29 2 -4.83 0.00
 -29 15 1 4.94 0.00
 -29 15 4 10.13 0.00
 -15 30 3 -0.63 0.00
 -15 30 0 -13.01 0.00
 15 15 3 -4.65 0.00
 -16 31 1 -0.25 0.00
 15 16 5 -14.17 0.00
 14 16 4 8.90 0.00
 -16 29 3 -2.70 0.00
 -16 29 0 -10.09 0.00
 13 16 3 -0.82 0.00
 -16 28 4 -2.04 0.00
 -16 28 1 6.47 0.00
 12 16 2 14.38 0.00
 12 16 5 -3.01 0.00
 -16 27 5 1.86 0.00
 -16 27 2 -5.04 0.00
 11 16 4 5.08 0.00
 -16 26 6 2.26 0.00
 -16 26 3 -4.84 0.00
 -16 26 0 -8.76 0.00
 10 16 3 -4.52 0.00
 -16 25 7 -5.96 0.00
 -16 25 4 -11.26 0.00
 -16 25 1 -1.83 0.00
 9 16 2 4.78 0.00
 9 16 5 6.85 0.00
 -16 24 8 -0.54 0.00
 -16 24 5 -2.67 0.00
 -16 24 2 -0.78 0.00
 8 16 1 2.40 0.00
 8 16 4 3.57 0.00
 -16 23 6 -7.07 0.00
 -16 23 3 -5.80 0.00
 7 16 3 3.07 0.00
 -16 22 7 11.37 0.00
 -16 22 4 2.87 0.00
 -16 22 1 -4.88 0.00
 6 16 2 -1.54 0.00
 6 16 5 -6.86 0.00
 -16 21 5 -6.59 0.00
 -16 21 2 6.34 0.00
 5 16 1 0.06 0.00
 5 16 4 3.28 0.00
 -16 20 9 -7.10 0.00
 -16 20 6 -13.29 0.00
 -16 20 3 3.46 0.00
 -16 20 0 -11.92 0.00
 4 16 3 4.80 0.00
 4 16 6 3.41 0.00
 4 16 9 4.27 0.00
 -16 19 7 10.77 0.00
 -16 19 4 9.93 0.00
 -16 19 1 -3.41 0.00
 3 16 2 5.84 0.00
 3 16 5 -4.57 0.00
 3 16 8 -4.53 0.00
 -16 18 2 1.95 0.00
 2 16 1 -5.03 0.00
 2 16 4 1.94 0.00
 2 16 7 8.63 0.00
 -16 17 9 -18.91 0.00
 -16 17 3 11.85 0.00
 -16 17 0 -2.44 0.00
 1 16 3 10.73 0.00
 1 16 6 -4.20 0.00
 1 16 9 0.39 0.00
 -16 16 10 -3.28 0.00
 -16 16 1 -4.92 0.00
 0 16 2 -2.89 0.00
 0 16 5 1.08 0.00
 0 16 8 1.18 0.00
 -2 16 3 1.13 0.00
 -16 12 11 0.63 0.00
 -7 16 4 1.21 0.00
 7 9 1 -5.72 0.00
 6 10 11 7.54 0.00
 -10 16 4 -0.99 0.00
 -11 16 3 9.03 0.00
 -12 16 2 5.18 0.00
 -12 16 11 -14.78 0.00
 3 13 11 -0.12 0.00
 -13 16 7 0.48 0.00
 -14 16 3 12.86 0.00
 -14 16 6 -5.39 0.00
 -15 16 2 -1.97 0.00
 -15 16 5 -3.56 0.00
 -16 16 4 1.26 0.00
 -16 16 7 8.49 0.00
 -1 17 9 -0.81 0.00
 -1 17 6 -4.75 0.00
 -1 17 3 8.57 0.00
 -1 17 0 9.73 0.00
 -17 16 3 7.60 0.00
 -17 16 6 -5.28 0.00
 -17 16 9 -12.05 0.00
 -2 18 10 -1.66 0.00
 -2 18 7 -2.47 0.00
 -2 18 4 0.54 0.00
 -2 18 1 -1.86 0.00
 -18 16 2 2.58 0.00
 -18 16 5 -11.00 0.00
 -18 16 8 -6.01 0.00
 -3 19 8 -3.35 0.00
 -3 19 5 -4.11 0.00
 -3 19 2 -1.60 0.00
 -19 16 1 4.97 0.00
 -19 16 4 -2.67 0.00
 -19 16 7 5.51 0.00
 -19 16 10 1.89 0.00
 -4 20 6 0.76 0.00
 -4 20 3 7.20 0.00
 -4 20 0 18.92 0.00
 -20 16 3 4.47 0.00
 -20 16 6 3.78 0.00
 -20 16 9 -2.33 0.00
 -5 21 7 -4.80 0.00
 -5 21 4 -5.78 0.00
 -5 21 1 -10.38 0.00
 -21 16 2 1.59 0.00
 -21 16 5 -3.95 0.00
 -6 22 8 -3.88 0.00
 -6 22 5 -6.80 0.00
 -6 22 2 3.44 0.00
 -22 16 1 8.34 0.00
 -22 16 4 -1.72 0.00
 -22 16 7 -6.88 0.00
 -7 23 6 -1.60 0.00
 -7 23 3 2.11 0.00
 -7 23 0 10.87 0.00
 -23 16 3 9.10 0.00
 -23 16 6 8.00 0.00
 -23 16 9 -6.57 0.00
 -8 24 7 5.17 0.00
 -8 24 4 -1.08 0.00
 -8 24 1 2.17 0.00
 -24 16 2 -2.48 0.00
 -24 16 5 7.35 0.00
 -24 16 8 -8.91 0.00
 -9 25 5 -3.70 0.00
 -9 25 2 2.01 0.00
 -25 16 1 -1.53 0.00
 -25 16 4 6.09 0.00
 -10 26 6 -1.81 0.00
 -10 26 3 3.79 0.00
 -10 26 0 8.38 0.00
 -26 16 3 0.01 0.00
 -26 16 6 -9.25 0.00
 -11 27 4 3.90 0.00
 -11 27 1 6.62 0.00
 -27 16 2 -0.74 0.00
 -27 16 5 -0.03 0.00
 -27 16 8 -14.25 0.00
 -12 28 5 -1.86 0.00
 -12 28 2 -2.03 0.00
 -28 16 1 2.02 0.00
 -28 16 4 9.49 0.00
 -13 29 3 3.04 0.00
 -13 29 0 -4.63 0.00
 -29 16 3 -5.82 0.00
 -14 30 4 5.06 0.00
 -14 30 1 -1.23 0.00
 -30 16 5 -12.75 0.00
 -31 16 1 5.09 0.00
 -31 16 4 8.13 0.00
 -16 32 0 -13.10 0.00
 16 16 3 -8.21 0.00
 15 17 1 -0.10 0.00
 15 17 4 7.88 0.00
 -17 31 0 -10.29 0.00
 14 17 3 -2.10 0.00
 13 17 2 13.92 0.00
 13 17 5 -9.50 0.00
 12 17 4 7.56 0.00
 -17 28 6 4.54 0.00
 -17 28 0 -6.99 0.00
 11 17 3 -0.83 0.00
 -17 27 7 -8.81 0.00
 -17 27 4 -8.59 0.00
 -17 27 1 0.55 0.00
 10 17 2 11.64 0.00
 10 17 5 8.81 0.00
 -17 26 5 -2.40 0.00
 -17 26 2 -0.26 0.00
 9 17 1 6.71 0.00
 9 17 4 5.98 0.00
 -17 25 6 -1.97 0.00
 -17 25 3 -3.02 0.00
 8 17 3 -3.20 0.00
 -17 24 7 -1.21 0.00
 -17 24 4 -3.28 0.00
 -17 24 1 -6.44 0.00
 7 17 2 -2.93 0.00
 7 17 5 2.64 0.00
 -17 23 8 -2.19 0.00
 -17 23 5 -7.31 0.00
 -17 23 2 4.93 0.00
 6 17 1 0.53 0.00
 6 17 4 5.97 0.00
 -17 22 6 -12.22 0.00
 -17 22 3 -2.77 0.00
 5 17 3 -0.43 0.00
 -17 21 7 11.22 0.00
 -17 21 4 11.19 0.00
 -17 21 1 -2.02 0.00
 4 17 2 -1.70 0.00
 4 17 5 -7.77 0.00
 -17 20 5 -8.06 0.00
 -17 20 2 4.87 0.00
 3 17 1 -1.83 0.00
 3 17 4 7.19 0.00
 3 17 7 10.29 0.00
 -17 19 9 -14.43 0.00
 -17 19 3 5.83 0.00
 -17 19 0 -14.90 0.00
 2 17 3 2.60 0.00
 2 17 6 1.49 0.00
 2 17 9 2.69 0.00
 -17 18 4 7.50 0.00
 -17 18 1 -5.54 0.00
 1 17 2 3.56 0.00
 1 17 5 -1.89 0.00
 1 17 8 -3.54 0.00
 -17 17 2 -0.46 0.00
 0 17 1 -3.17 0.00
 0 17 4 3.43 0.00
 0 17 7 4.22 0.00
 -2 17 11 -22.09 0.00
 -17 14 11 -8.99 0.00
 -4 17 3 -7.07 0.00
 -17 12 1 -17.47 0.00
 -5 17 11 -23.32 0.00
 -17 11 11 6.97 0.00
 -17 11 8 1.20 0.00
 -17 9 1 -20.14 0.00
 8 9 11 8.37 0.00
 8 9 2 1.57 0.00
 6 11 1 -1.43 0.00
 -11 17 11 -16.10 0.00
 5 12 11 7.23 0.00
 -13 17 3 14.15 0.00
 -14 17 2 2.95 0.00
 -14 17 5 -3.83 0.00
 -15 17 7 5.30 0.00
 -16 17 6 -8.05 0.00
 0 17 10 -5.91 0.00
 -17 17 5 -8.48 0.00
 -17 17 8 -6.80 0.00
 -1 18 8 -1.30 0.00
 -1 18 5 -2.67 0.00
 -1 18 2 -0.18 0.00
 -18 17 1 -2.57 0.00
 -18 17 4 1.45 0.00
 -18 17 7 9.18 0.00
 -18 17 10 0.96 0.00
 -2 19 9 -4.58 0.00
 -2 19 6 -4.16 0.00
 -2 19 3 7.27 0.00
 -2 19 0 11.10 0.00
 -19 17 3 3.73 0.00
 -19 17 6 -0.98 0.00
 -19 17 9 -5.35 0.00
 -3 20 7 -4.27 0.00
 -3 20 4 -1.43 0.00
 -3 20 1 -4.80 0.00
 -20 17 2 1.01 0.00
 -20 17 5 -7.50 0.00
 -20 17 8 -6.70 0.00
 -4 21 8 -6.02 0.00
 -4 21 5 -9.94 0.00
 -4 21 2 -2.09 0.00
 -21 17 1 7.20 0.00
 -21 17 4 -2.53 0.00
 -21 17 7 -0.95 0.00
 -21 17 10 -1.84 0.00
 -5 22 6 -3.87 0.00
 -5 22 3 5.01 0.00
 -5 22 0 14.24 0.00
 -22 17 3 9.81 0.00
 -22 17 6 11.09 0.00
 -22 17 9 -4.46 0.00
 -6 23 7 2.23 0.00
 -6 23 4 -5.85 0.00
 -6 23 1 -3.09 0.00
 -23 17 2 -0.60 0.00
 -23 17 5 5.64 0.00
 -23 17 8 -7.25 0.00
 -7 24 8 -1.53 0.00
 -7 24 5 -6.24 0.00
 -7 24 2 7.40 0.00
 -24 17 1 1.90 0.00
 -24 17 4 3.30 0.00
 -24 17 7 -7.48 0.00
 -8 25 6 -6.22 0.00
 -8 25 3 0.45 0.00
 -8 25 0 5.08 0.00
 -25 17 3 8.42 0.00
 -25 17 6 4.23 0.00
 -25 17 9 -4.91 0.00
 -9 26 7 4.63 0.00
 -9 26 4 0.46 0.00
 -9 26 1 9.50 0.00
 -26 17 2 -0.14 0.00
 -26 17 5 6.45 0.00
 -26 17 8 -12.87 0.00
 -10 27 5 -3.10 0.00
 -10 27 2 4.18 0.00
 -27 17 1 -0.10 0.00
 -27 17 4 6.04 0.00
 -11 28 6 3.15 0.00
 -11 28 3 3.56 0.00
 -11 28 0 3.59 0.00
 -28 17 3 -1.76 0.00
 -28 17 6 -9.10 0.00
 -12 29 4 2.62 0.00
 -12 29 1 3.02 0.00
 -29 17 5 -7.27 0.00
 -13 30 5 -1.15 0.00
 -13 30 2 -3.15 0.00
 -30 17 1 4.98 0.00
 -30 17 4 5.90 0.00
 -14 31 0 -7.99 0.00
 -31 17 3 -5.64 0.00
 -32 17 5 -9.84 0.00
 -33 17 1 -0.32 0.00
 -33 17 4 7.24 0.00
 17 17 3 -11.02 0.00
 15 18 3 -8.72 0.00
 14 18 2 6.78 0.00
 13 18 4 8.41 0.00
 -18 30 0 -4.50 0.00
 12 18 3 0.75 0.00
 11 18 2 13.20 0.00
 -18 28 5 -1.02 0.00
 10 18 4 8.39 0.00
 -18 27 6 2.05 0.00
 -18 27 3 3.72 0.00
 -18 27 0 -5.10 0.00
 9 18 3 -3.53 0.00
 -18 26 7 -9.92 0.00
 -18 26 4 -8.07 0.00
 -18 26 1 -10.01 0.00
 8 18 2 3.62 0.00
 8 18 5 11.98 0.00
 -18 25 8 -1.41 0.00
 -18 25 5 -8.33 0.00
 7 18 1 7.94 0.00
 7 18 4 7.85 0.00
 -18 24 6 -8.59 0.00
 -18 24 3 -1.47 0.00
 6 18 3 -4.79 0.00
 -18 23 7 2.30 0.00
 -18 23 4 6.79 0.00
 -18 23 1 -4.11 0.00
 5 18 2 -7.94 0.00
 5 18 5 -2.11 0.00
 5 18 8 -1.60 0.00
 -18 22 8 -5.27 0.00
 -18 22 5 -8.62 0.00
 -18 22 2 7.44 0.00
 4 18 1 -1.55 0.00
 4 18 4 7.99 0.00
 -18 21 6 -11.78 0.00
 -18 21 3 -0.91 0.00
 -18 21 0 -11.41 0.00
 3 18 3 -3.52 0.00
 3 18 6 7.64 0.00
 -18 20 7 9.22 0.00
 -18 20 4 11.46 0.00
 -18 20 1 -2.93 0.00
 2 18 2 -0.70 0.00
 2 18 5 -6.44 0.00
 2 18 8 -10.06 0.00
 -18 19 8 -7.88 0.00
 -18 19 5 -8.30 0.00
 -18 19 2 -0.06 0.00
 1 18 1 -0.47 0.00
 1 18 4 8.83 0.00
 1 18 7 5.89 0.00
 1 18 10 -1.41 0.00
 -18 18 9 -11.45 0.00
 -18 18 3 4.27 0.00
 0 18 0 -5.28 0.00
 0 18 3 4.60 0.00
 0 18 6 -3.30 0.00
 0 18 9 -0.26 0.00
 -4 18 11 -24.34 0.00
 -18 13 11 -0.76 0.00
 -7 18 11 -21.38 0.00
 -18 10 2 0.35 0.00
 8 10 7 -2.99 0.00
 8 10 4 -1.49 0.00
 8 10 1 -7.82 0.00
 -10 18 11 -16.98 0.00
 7 11 11 8.80 0.00
 7 11 5 -0.67 0.00
 7 11 2 7.38 0.00
 5 13 1 -0.79 0.00
 -14 18 7 7.65 0.00
 -15 18 6 -11.62 0.00
 2 16 10 -6.48 0.00
 -16 18 5 -6.40 0.00
 -16 18 8 -4.27 0.00
 -17 18 7 9.13 0.00
 -17 18 10 -5.97 0.00
 -18 18 6 -5.34 0.00
 -1 19 7 0.32 0.00
 -1 19 4 5.33 0.00
 -1 19 1 0.25 0.00
 -19 18 2 -1.35 0.00
 -19 18 5 -8.82 0.00
 -19 18 8 -8.31 0.00
 -2 20 8 -4.08 0.00
 -2 20 5 -9.76 0.00
 -2 20 2 -4.75 0.00
 -20 18 1 1.07 0.00
 -20 18 4 -1.40 0.00
 -20 18 7 5.50 0.00
 -20 18 10 0.42 0.00
 -3 21 6 -5.81 0.00
 -3 21 3 5.62 0.00
 -3 21 0 13.00 0.00
 -21 18 3 3.32 0.00
 -21 18 6 6.65 0.00
 -21 18 9 -1.86 0.00
 -4 22 7 -0.64 0.00
 -4 22 4 -4.71 0.00
 -4 22 1 -2.09 0.00
 -22 18 2 -0.81 0.00
 -22 18 5 1.07 0.00
 -22 18 8 -6.23 0.00
 -5 23 8 -6.24 0.00
 -5 23 5 -9.69 0.00
 -5 23 2 1.46 0.00
 -23 18 1 2.82 0.00
 -23 18 4 1.01 0.00
 -23 18 7 -4.72 0.00
 -6 24 6 -8.65 0.00
 -6 24 3 -0.53 0.00
 -6 24 0 4.20 0.00
 -24 18 3 11.97 0.00
 -24 18 6 10.92 0.00
 -24 18 9 -4.95 0.00
 -7 25 7 4.75 0.00
 -7 25 4 -4.87 0.00
 -7 25 1 6.72 0.00
 -25 18 2 0.98 0.00
 -25 18 5 8.19 0.00
 -25 18 8 -8.96 0.00
 -8 26 5 -3.88 0.00
 -8 26 2 11.49 0.00
 -26 18 1 2.07 0.00
 -26 18 4 4.41 0.00
 -9 27 6 -4.73 0.00
 -9 27 3 -0.25 0.00
 -9 27 0 2.36 0.00
 -27 18 3 3.38 0.00
 -27 18 6 2.22 0.00
 -10 28 4 0.30 0.00
 -10 28 1 9.03 0.00
 -28 18 2 4.55 0.00
 -28 18 5 -0.16 0.00
 -28 18 8 -9.66 0.00
 -11 29 5 -2.96 0.00
 -11 29 2 -0.92 0.00
 -29 18 1 2.56 0.00
 -29 18 4 1.68 0.00
 -29 18 7 5.98 0.00
 -12 30 3 -1.01 0.00
 -12 30 0 1.48 0.00
 -30 18 3 0.51 0.00
 -13 31 4 1.79 0.00
 -13 31 1 3.67 0.00
 -31 18 5 -10.17 0.00
 -32 18 1 4.87 0.00
 -32 18 4 5.89 0.00
 -15 33 0 -3.66 0.00
 -33 18 3 -6.37 0.00
 13 19 3 -5.34 0.00
 12 19 2 7.03 0.00
 11 19 4 9.63 0.00
 -19 29 0 -3.42 0.00
 10 19 3 -1.71 0.00
 -19 28 4 -7.53 0.00
 9 19 2 9.50 0.00
 -19 27 5 -8.05 0.00
 8 19 1 15.31 0.00
 8 19 4 9.91 0.00
 -19 26 6 -3.31 0.00
 -19 26 3 3.07 0.00
 7 19 3 -6.62 0.00
 -19 25 7 -7.32 0.00
 -19 25 4 -0.95 0.00
 6 19 2 -4.69 0.00
 -19 24 8 -3.75 0.00
 -19 24 5 -9.80 0.00
 5 19 1 4.73 0.00
 5 19 4 7.57 0.00
 -19 23 6 -12.32 0.00
 -19 23 3 -1.15 0.00
 -19 23 0 -3.44 0.00
 4 19 3 -5.98 0.00
 -19 22 7 3.35 0.00
 -19 22 4 11.11 0.00
 3 19 2 -8.05 0.00
 3 19 5 -4.16 0.00
 3 19 8 -11.13 0.00
 -19 21 8 -5.94 0.00
 -19 21 5 -5.72 0.00
 -19 21 2 3.79 0.00
 2 19 1 -0.74 0.00
 2 19 4 8.64 0.00
 -19 20 6 -5.95 0.00
 -19 20 3 -3.03 0.00
 -19 20 0 -9.42 0.00
 1 19 3 -1.58 0.00
 1 19 6 3.04 0.00
 1 19 9 1.16 0.00
 -19 19 7 8.23 0.00
 -19 19 4 4.62 0.00
 -19 19 1 -3.33 0.00
 0 19 2 -2.14 0.00
 0 19 5 -7.38 0.00
 0 19 8 -5.84 0.00
 -1 19 10 -1.74 0.00
 -4 19 10 4.95 0.00
 -19 13 1 -1.90 0.00
 -19 12 8 -1.35 0.00
 -8 19 0 -14.94 0.00
 -19 10 1 -10.29 0.00
 9 10 11 7.58 0.00
 9 10 2 3.83 0.00
 8 11 3 5.07 0.00
 7 12 10 -11.65 0.00
 7 12 4 -6.08 0.00
 7 12 1 2.07 0.00
 6 13 8 4.84 0.00
 6 13 2 10.50 0.00
 -13 19 7 12.51 0.00
 -13 19 10 -15.11 0.00
 4 15 10 -9.31 0.00
 -15 19 8 -1.72 0.00
 -16 19 10 -10.17 0.00
 -17 19 6 -10.34 0.00
 -19 19 10 -3.25 0.00
 -1 20 9 -5.19 0.00
 -1 20 6 -3.47 0.00
 -1 20 3 2.67 0.00
 -1 20 0 2.16 0.00
 -20 19 3 -3.10 0.00
 -20 19 6 0.61 0.00
 -20 19 9 -2.17 0.00
 -2 21 7 -1.72 0.00
 -2 21 4 0.79 0.00
 -2 21 1 2.61 0.00
 -21 19 2 -2.08 0.00
 -21 19 5 -2.27 0.00
 -21 19 8 -5.02 0.00
 -3 22 8 -6.50 0.00
 -3 22 5 -11.10 0.00
 -3 22 2 -7.23 0.00
 -22 19 1 0.14 0.00
 -22 19 4 -1.88 0.00
 -22 19 7 0.73 0.00
 -4 23 6 -8.23 0.00
 -4 23 3 0.06 0.00
 -4 23 0 6.92 0.00
 -23 19 3 6.75 0.00
 -23 19 6 7.98 0.00
 -23 19 9 -2.06 0.00
 -5 24 7 3.13 0.00
 -5 24 4 -6.53 0.00
 -5 24 1 3.88 0.00
 -24 19 2 0.68 0.00
 -24 19 5 5.13 0.00
 -24 19 8 -4.31 0.00
 -6 25 8 -5.88 0.00
 -6 25 5 -4.38 0.00
 -6 25 2 9.78 0.00
 -25 19 1 3.39 0.00
 -25 19 4 4.63 0.00
 -25 19 7 -5.86 0.00
 -7 26 6 -9.82 0.00
 -7 26 3 -3.89 0.00
 -7 26 0 -1.96 0.00
 -26 19 3 6.83 0.00
 -26 19 6 8.40 0.00
 -8 27 4 -3.30 0.00
 -8 27 1 9.68 0.00
 -27 19 2 2.30 0.00
 -27 19 5 4.69 0.00
 -27 19 8 -5.76 0.00
 -9 28 5 -3.81 0.00
 -9 28 2 5.88 0.00
 -28 19 1 4.59 0.00
 -28 19 4 0.43 0.00
 -10 29 6 -0.90 0.00
 -10 29 3 -3.43 0.00
 -10 29 0 3.92 0.00
 -29 19 6 1.08 0.00
 -11 30 4 0.86 0.00
 -11 30 1 7.05 0.00
 -30 19 2 8.05 0.00
 -30 19 5 -7.04 0.00
 -12 31 5 -2.78 0.00
 -31 19 1 4.06 0.00
 -31 19 4 1.47 0.00
 -13 32 0 5.97 0.00
 -32 19 3 3.45 0.00
 -33 19 5 -7.80 0.00
 -34 19 1 -0.71 0.00
 -34 19 4 8.68 0.00
 10 20 2 9.24 0.00
 9 20 1 12.11 0.00
 -20 28 6 2.34 0.00
 8 20 3 -5.47 0.00
 -20 27 7 -7.67 0.00
 -20 27 4 -7.07 0.00
 7 20 2 2.48 0.00
 -20 26 5 -11.15 0.00
 6 20 1 15.95 0.00
 6 20 4 8.53 0.00
 -20 25 6 -9.83 0.00
 -20 25 3 0.54 0.00
 5 20 3 -7.50 0.00
 -20 24 7 -4.16 0.00
 -20 24 4 6.93 0.00
 4 20 2 -8.18 0.00
 -20 23 8 -3.71 0.00
 -20 23 5 -4.05 0.00
 3 20 1 -0.18 0.00
 3 20 4 5.58 0.00
 -20 22 6 -9.31 0.00
 -20 22 3 -4.68 0.00
 2 20 3 -3.49 0.00
 2 20 6 8.59 0.00
 -20 21 7 4.17 0.00
 -20 21 4 6.51 0.00
 -20 21 1 -1.00 0.00
 1 20 2 -7.38 0.00
 1 20 5 -6.38 0.00
 1 20 8 -11.92 0.00
 -20 20 8 -4.85 0.00
 -20 20 5 -3.38 0.00
 -20 20 2 -1.13 0.00
 0 20 1 2.73 0.00
 0 20 4 6.17 0.00
 0 20 7 -0.71 0.00
 -3 20 10 2.51 0.00
 -4 20 9 -6.75 0.00
 -6 20 10 5.72 0.00
 -7 20 0 0.97 0.00
 -20 12 1 -1.68 0.00
 -20 11 2 -1.61 0.00
 -9 20 10 -1.34 0.00
 -10 20 0 -11.80 0.00
 9 11 10 -8.23 0.00
 9 11 7 1.02 0.00
 9 11 4 -3.07 0.00
 9 11 1 0.90 0.00
 8 12 5 -8.01 0.00
 8 12 2 7.04 0.00
 -12 20 10 -10.51 0.00
 6 14 10 -13.87 0.00
 6 14 7 5.83 0.00
 5 15 8 1.23 0.00
 -15 20 10 -9.59 0.00
 3 17 10 -0.65 0.00
 -17 20 8 -5.86 0.00
 -19 20 9 -4.61 0.00
 -1 21 8 -7.44 0.00
 -1 21 5 -9.50 0.00
 -1 21 2 -8.96 0.00
 -21 20 1 -1.68 0.00
 -21 20 4 -0.52 0.00
 -21 20 7 4.11 0.00
 -2 22 6 -4.13 0.00
 -2 22 3 0.44 0.00
 -2 22 0 5.66 0.00
 -22 20 3 -3.41 0.00
 -22 20 6 2.17 0.00
 -22 20 9 1.47 0.00
 -3 23 7 -0.40 0.00
 -3 23 4 -4.46 0.00
 -3 23 1 4.27 0.00
 -23 20 2 0.34 0.00
 -23 20 5 2.17 0.00
 -23 20 8 0.45 0.00
 -4 24 8 -7.89 0.00
 -4 24 5 -4.24 0.00
 -4 24 2 -0.10 0.00
 -24 20 1 1.39 0.00
 -24 20 4 2.30 0.00
 -24 20 7 -3.50 0.00
 -5 25 6 -9.84 0.00
 -5 25 3 -5.54 0.00
 -5 25 0 -1.31 0.00
 -25 20 3 6.43 0.00
 -25 20 6 5.17 0.00
 -25 20 9 -0.21 0.00
 -6 26 7 2.31 0.00
 -6 26 4 -5.21 0.00
 -6 26 1 6.02 0.00
 -26 20 2 -0.61 0.00
 -26 20 5 3.54 0.00
 -26 20 8 0.16 0.00
 -7 27 5 -2.64 0.00
 -7 27 2 11.42 0.00
 -27 20 1 7.98 0.00
 -27 20 4 3.90 0.00
 -8 28 6 -8.57 0.00
 -8 28 3 -5.03 0.00
 -8 28 0 -0.16 0.00
 -28 20 3 2.71 0.00
 -28 20 6 7.47 0.00
 -9 29 4 0.03 0.00
 -9 29 1 7.86 0.00
 -29 20 2 2.44 0.00
 -29 20 5 -1.06 0.00
 -10 30 5 -4.82 0.00
 -10 30 2 -9.19 0.00
 -30 20 1 4.89 0.00
 -30 20 4 -1.59 0.00
 -30 20 7 2.78 0.00
 -11 31 3 -8.18 0.00
 -11 31 0 9.22 0.00
 -31 20 3 9.67 0.00
 -12 32 4 3.25 0.00
 -12 32 1 7.97 0.00
 -32 20 2 2.31 0.00
 -32 20 5 -11.13 0.00
 -33 20 1 3.66 0.00
 -33 20 4 7.49 0.00
 -14 34 0 11.03 0.00
 -34 20 3 5.36 0.00
 -21 27 6 -3.85 0.00
 -21 26 7 -4.96 0.00
 -21 26 4 0.59 0.00
 5 21 2 -3.79 0.00
 -21 25 5 -6.15 0.00
 -21 24 6 -11.23 0.00
 -21 24 3 -2.48 0.00
 3 21 3 -4.21 0.00
 -21 23 7 -1.13 0.00
 -21 23 4 8.35 0.00
 2 21 2 -7.36 0.00
 2 21 5 -0.20 0.00
 -21 22 8 0.17 0.00
 -21 22 5 2.10 0.00
 -21 22 2 5.42 0.00
 1 21 4 2.44 0.00
 1 21 7 -6.37 0.00
 -21 21 6 -3.30 0.00
 -21 21 3 -8.08 0.00
 0 21 0 -0.56 0.00
 0 21 3 -0.41 0.00
 0 21 6 2.84 0.00
 -3 21 9 -12.30 0.00
 -21 16 8 -3.76 0.00
 -5 21 10 4.98 0.00
 -6 21 9 -9.90 0.00
 -21 14 10 -9.23 0.00
 -8 21 10 1.33 0.00
 -9 21 0 -3.92 0.00
 -21 11 7 2.69 0.00
 10 11 2 -1.06 0.00
 9 12 3 4.10 0.00
 8 13 10 -14.53 0.00
 8 13 7 3.53 0.00
 7 14 8 6.09 0.00
 -14 21 7 15.32 0.00
 -14 21 10 -6.45 0.00
 -15 21 0 -6.10 0.00
 5 16 10 -4.74 0.00
 5 16 7 10.29 0.00
 -16 21 8 -3.01 0.00
 4 17 8 -6.89 0.00
 3 18 9 3.80 0.00
 -18 21 9 -0.86 0.00
 2 19 7 4.04 0.00
 -21 21 9 1.44 0.00
 -1 22 7 -5.39 0.00
 -1 22 4 -1.18 0.00
 -1 22 1 3.09 0.00
 -22 21 2 1.36 0.00
 -22 21 5 2.76 0.00
 -22 21 8 2.73 0.00
 -2 23 8 -9.34 0.00
 -2 23 5 -3.91 0.00
 -2 23 2 -6.66 0.00
 -23 21 1 0.24 0.00
 -23 21 4 -0.11 0.00
 -23 21 7 0.02 0.00
 -3 24 6 -5.10 0.00
 -3 24 3 -4.85 0.00
 -3 24 0 1.59 0.00
 -24 21 3 0.42 0.00
 -24 21 6 -0.81 0.00
 -24 21 9 2.82 0.00
 -4 25 7 1.35 0.00
 -4 25 4 -5.39 0.00
 -4 25 1 3.27 0.00
 -25 21 2 -0.93 0.00
 -25 21 5 -0.81 0.00
 -25 21 8 6.06 0.00
 -5 26 8 -8.84 0.00
 -5 26 5 0.45 0.00
 -5 26 2 9.03 0.00
 -26 21 1 7.46 0.00
 -26 21 4 6.01 0.00
 -26 21 7 -7.83 0.00
 -6 27 6 -11.05 0.00
 -6 27 3 -6.05 0.00
 -6 27 0 -2.35 0.00
 -27 21 3 1.51 0.00
 -27 21 6 5.50 0.00
 -7 28 4 -0.03 0.00
 -7 28 1 4.49 0.00
 -28 21 2 -5.74 0.00
 -28 21 5 1.03 0.00
 -28 21 8 3.88 0.00
 -8 29 5 -6.00 0.00
 -8 29 2 0.25 0.00
 -29 21 1 8.99 0.00
 -29 21 4 1.09 0.00
 -9 30 6 -8.07 0.00
 -9 30 3 -8.08 0.00
 -9 30 0 4.88 0.00
 -30 21 6 4.51 0.00
 -10 31 4 3.85 0.00
 -10 31 1 6.62 0.00
 -31 21 2 -1.09 0.00
 -31 21 5 -7.87 0.00
 -11 32 5 -3.70 0.00
 -32 21 1 5.56 0.00
 -32 21 4 3.23 0.00
 -12 33 0 15.00 0.00
 -34 21 2 -10.92 0.00
 -35 21 1 0.64 0.00
 -35 21 4 12.72 0.00
 -22 26 6 -8.85 0.00
 -22 25 7 -0.76 0.00
 -22 25 4 8.49 0.00
 3 22 2 -4.72 0.00
 -22 24 5 1.58 0.00
 -22 23 6 -7.58 0.00
 -22 23 3 -6.29 0.00
 1 22 3 -0.77 0.00
 -22 22 7 0.98 0.00
 -22 22 4 3.18 0.00
 -22 22 1 1.09 0.00
 0 22 2 -7.06 0.00
 0 22 5 -2.76 0.00
 -2 22 9 -10.70 0.00
 -5 22 9 -16.99 0.00
 -22 16 10 -7.58 0.00
 -7 22 10 1.18 0.00
 -8 22 9 -16.83 0.00
 -22 13 7 -0.16 0.00
 -22 12 2 -5.35 0.00
 -10 22 10 -0.16 0.00
 10 12 10 -11.52 0.00
 10 12 7 6.32 0.00
 10 12 4 -2.71 0.00
 10 12 1 5.24 0.00
 -13 22 10 -1.45 0.00
 8 14 6 5.35 0.00
 7 15 10 -9.84 0.00
 7 15 7 7.36 0.00
 -15 22 8 -1.59 0.00
 6 16 8 1.45 0.00
 -16 22 10 1.29 0.00
 5 17 9 7.04 0.00
 5 17 6 7.43 0.00
 -17 22 0 -7.13 0.00
 -17 22 9 10.25 0.00
 4 18 7 10.08 0.00
 -19 22 1 -0.96 0.00
 2 20 9 3.99 0.00
 -20 22 0 -4.43 0.00
 1 21 1 -0.46 0.00
 0 22 8 -13.37 0.00
 -1 23 6 1.81 0.00
 -1 23 3 -1.87 0.00
 -1 23 0 1.06 0.00
 -23 22 3 -6.07 0.00
 -23 22 6 -4.19 0.00
 -23 22 9 3.43 0.00
 -2 24 7 -3.64 0.00
 -2 24 4 -5.50 0.00
 -2 24 1 0.83 0.00
 -24 22 2 1.71 0.00
 -24 22 5 -0.85 0.00
 -24 22 8 9.55 0.00
 -3 25 8 -9.95 0.00
 -3 25 5 2.01 0.00
 -3 25 2 3.59 0.00
 -25 22 1 5.66 0.00
 -25 22 4 4.36 0.00
 -25 22 7 -3.75 0.00
 -4 26 6 -7.08 0.00
 -4 26 3 -7.24 0.00
 -4 26 0 -0.56 0.00
 -26 22 3 0.77 0.00
 -26 22 6 -0.34 0.00
 -5 27 7 0.67 0.00
 -5 27 4 -0.12 0.00
 -5 27 1 1.12 0.00
 -27 22 2 -9.85 0.00
 -27 22 5 -4.74 0.00
 -27 22 8 8.90 0.00
 -6 28 5 -3.93 0.00
 -6 28 2 8.12 0.00
 -28 22 1 10.57 0.00
 -28 22 4 5.68 0.00
 -7 29 6 -12.70 0.00
 -7 29 3 -5.33 0.00
 -7 29 0 0.84 0.00
 -29 22 3 -0.70 0.00
 -29 22 6 7.63 0.00
 -8 30 4 5.01 0.00
 -8 30 1 3.72 0.00
 -30 22 2 -9.04 0.00
 -30 22 5 -2.75 0.00
 -9 31 5 -7.74 0.00
 -9 31 2 -11.21 0.00
 -31 22 1 8.73 0.00
 -31 22 4 1.05 0.00
 -10 32 0 8.76 0.00
 -32 22 3 10.53 0.00
 -11 33 1 6.13 0.00
 -33 22 2 -10.96 0.00
 -33 22 5 -12.12 0.00
 -34 22 1 6.28 0.00
 -34 22 4 10.53 0.00
 -23 25 6 -7.53 0.00
 -23 24 7 2.51 0.00
 -23 24 4 9.12 0.00
 1 23 2 -1.62 0.00
 -23 23 5 2.89 0.00
 -23 23 2 6.35 0.00
 0 23 1 -2.27 0.00
 0 23 4 -4.02 0.00
 -4 23 9 -17.10 0.00
 -7 23 9 -21.60 0.00
 -23 15 10 -8.53 0.00
 -23 15 7 -6.28 0.00
 -23 14 2 -5.18 0.00
 -9 23 10 -2.07 0.00
 -23 12 7 7.45 0.00
 11 12 2 -3.44 0.00
 10 13 9 4.03 0.00
 9 14 10 -10.69 0.00
 9 14 7 8.32 0.00
 9 14 1 4.20 0.00
 -14 23 8 -2.45 0.00
 8 15 8 3.04 0.00
 -15 23 10 2.07 0.00
 7 16 9 12.13 0.00
 7 16 6 7.71 0.00
 -16 23 0 -5.84 0.00
 -16 23 9 16.92 0.00
 6 17 7 12.01 0.00
 4 19 9 5.07 0.00
 4 19 6 9.12 0.00
 -19 23 9 9.68 0.00
 3 20 7 0.92 0.00
 -20 23 2 10.21 0.00
 2 21 8 -13.60 0.00
 -21 23 1 -0.34 0.00
 1 22 9 4.79 0.00
 1 22 6 8.08 0.00
 -22 23 0 -1.53 0.00
 0 23 7 -10.05 0.00
 -1 24 8 -13.89 0.00
 -1 24 5 0.94 0.00
 -1 24 2 0.83 0.00
 -24 23 1 5.28 0.00
 -24 23 4 5.07 0.00
 -24 23 7 1.51 0.00
 -2 25 6 -0.03 0.00
 -2 25 3 -5.98 0.00
 -2 25 0 0.66 0.00
 -25 23 3 -1.49 0.00
 -25 23 6 -2.99 0.00
 -3 26 7 0.95 0.00
 -3 26 4 -2.70 0.00
 -3 26 1 -0.59 0.00
 -26 23 2 -6.49 0.00
 -26 23 5 -10.87 0.00
 -26 23 8 12.16 0.00
 -4 27 5 -1.35 0.00
 -4 27 2 10.43 0.00
 -27 23 1 9.30 0.00
 -27 23 4 6.42 0.00
 -5 28 6 -10.27 0.00
 -5 28 3 -4.84 0.00
 -5 28 0 0.96 0.00
 -28 23 3 -2.30 0.00
 -28 23 6 5.37 0.00
 -6 29 4 6.76 0.00
 -6 29 1 1.41 0.00
 -29 23 2 -16.78 0.00
 -29 23 5 -5.66 0.00
 -7 30 5 -10.32 0.00
 -7 30 2 0.00 0.00
 -30 23 1 9.63 0.00
 -30 23 4 2.69 0.00
 -30 23 7 -12.24 0.00
 -8 31 6 -13.41 0.00
 -8 31 3 -8.20 0.00
 -8 31 0 1.61 0.00
 -31 23 3 1.05 0.00
 -31 23 6 6.45 0.00
 -9 32 4 5.24 0.00
 -9 32 1 4.80 0.00
 -32 23 2 -10.36 0.00
 -32 23 5 -8.07 0.00
 -33 23 1 11.01 0.00
 -33 23 4 4.37 0.00
 -11 34 0 8.37 0.00
 -35 23 2 -19.20 0.00
 -24 24 6 -4.14 0.00
 -24 24 3 -3.30 0.00
 0 24 3 -2.76 0.00
 -6 24 9 -19.28 0.00
 -9 24 9 -24.03 0.00
 -24 14 7 1.49 0.00
 -24 13 2 -5.45 0.00
 -12 24 9 -11.33 0.00
 11 13 7 12.22 0.00
 11 13 1 4.25 0.00
 -13 24 8 -2.43 0.00
 10 14 8 -3.05 0.00
 9 15 9 12.73 0.00
 9 15 6 9.36 0.00
 -15 24 9 11.21 0.00
 8 16 7 11.48 0.00
 7 17 8 4.45 0.00
 6 18 9 7.70 0.00
 6 18 6 7.40 0.00
 -18 24 0 -2.78 0.00
 -18 24 9 17.49 0.00
 5 19 7 10.11 0.00
 -19 24 2 9.92 0.00
 4 20 8 -2.81 0.00
 4 20 5 3.10 0.00
 -20 24 1 -6.47 0.00
 3 21 9 7.87 0.00
 3 21 6 10.72 0.00
 -21 24 0 -2.57 0.00
 -21 24 9 3.95 0.00
 2 22 7 -8.94 0.00
 2 22 4 0.00 0.00
 2 22 1 -0.67 0.00
 -22 24 2 12.42 0.00
 -22 24 8 0.69 0.00
 1 23 8 -16.66 0.00
 1 23 5 0.96 0.00
 -23 24 1 2.74 0.00
 0 24 6 6.73 0.00
 0 24 0 -1.13 0.00
 -1 25 7 -3.55 0.00
 -1 25 4 -5.16 0.00
 -1 25 1 -2.26 0.00
 -25 24 2 0.64 0.00
 -25 24 5 -8.82 0.00
 -25 24 8 10.69 0.00
 -2 26 8 -10.71 0.00
 -2 26 5 -2.33 0.00
 -2 26 2 9.45 0.00
 -26 24 1 8.28 0.00
 -26 24 4 6.35 0.00
 -3 27 6 -2.84 0.00
 -3 27 3 -6.30 0.00
 -3 27 0 2.32 0.00
 -27 24 3 -0.59 0.00
 -27 24 6 3.53 0.00
 -4 28 7 2.63 0.00
 -4 28 4 5.00 0.00
 -4 28 1 1.59 0.00
 -28 24 2 -16.02 0.00
 -28 24 5 -15.83 0.00
 -5 29 5 -10.22 0.00
 -5 29 2 7.92 0.00
 -29 24 1 7.34 0.00
 -29 24 4 3.79 0.00
 -29 24 7 -11.85 0.00
 -6 30 6 -12.74 0.00
 -6 30 3 -4.79 0.00
 -6 30 0 -0.18 0.00
 -30 24 3 -4.04 0.00
 -30 24 6 9.71 0.00
 -7 31 4 7.00 0.00
 -7 31 1 4.51 0.00
 -31 24 2 -13.64 0.00
 -31 24 5 -6.97 0.00
 -8 32 5 -9.43 0.00
 -8 32 2 -0.46 0.00
 -32 24 1 11.09 0.00
 -32 24 4 -0.21 0.00
 -9 33 0 -0.78 0.00
 -33 24 3 1.12 0.00
 -34 24 2 -11.56 0.00
 -34 24 5 -9.43 0.00
 -35 24 1 12.13 0.00
 -35 24 4 6.94 0.00
 -8 25 9 -19.96 0.00
 -25 16 7 -4.07 0.00
 -9 25 8 3.37 0.00
 -25 15 2 -4.80 0.00
 -11 25 9 -18.31 0.00
 -25 13 7 10.70 0.00
 -12 25 8 0.61 0.00
 11 14 9 7.07 0.00
 -14 25 9 -0.57 0.00
 10 15 7 13.40 0.00
 10 15 1 3.58 0.00
 9 16 8 -0.70 0.00
 8 17 9 11.40 0.00
 8 17 6 8.51 0.00
 -17 25 0 -5.91 0.00
 -17 25 9 15.05 0.00
 7 18 7 13.03 0.00
 -18 25 2 4.90 0.00
 6 19 8 9.69 0.00
 6 19 5 7.72 0.00
 -19 25 1 -12.53 0.00
 5 20 6 9.00 0.00
 -20 25 0 -2.09 0.00
 -20 25 9 11.12 0.00
 4 21 7 0.72 0.00
 4 21 4 4.70 0.00
 4 21 1 8.04 0.00
 -21 25 2 15.85 0.00
 -21 25 8 -3.83 0.00
 3 22 8 -8.42 0.00
 3 22 5 4.19 0.00
 -22 25 1 -5.19 0.00
 2 23 6 12.07 0.00
 2 23 3 -2.85 0.00
 -23 25 0 -3.62 0.00
 -23 25 3 -3.80 0.00
 1 24 7 -8.07 0.00
 1 24 4 -3.46 0.00
 1 24 1 -1.44 0.00
 -24 25 2 8.77 0.00
 -24 25 5 -3.07 0.00
 0 25 8 -15.24 0.00
 0 25 5 -4.04 0.00
 0 25 2 4.74 0.00
 -25 25 1 5.71 0.00
 -25 25 4 9.62 0.00
 -1 26 6 4.47 0.00
 -1 26 3 -5.93 0.00
 -1 26 0 1.90 0.00
 -26 25 3 0.56 0.00
 -26 25 6 3.23 0.00
 -2 27 7 4.11 0.00
 -2 27 4 -0.11 0.00
 -2 27 1 2.66 0.00
 -27 25 2 -8.08 0.00
 -27 25 5 -20.64 0.00
 -3 28 5 -11.17 0.00
 -3 28 2 11.24 0.00
 -28 25 1 5.71 0.00
 -28 25 4 3.28 0.00
 -28 25 7 -0.70 0.00
 -4 29 6 -5.64 0.00
 -4 29 3 -4.37 0.00
 -4 29 0 1.08 0.00
 -29 25 3 -2.61 0.00
 -29 25 6 9.73 0.00
 -5 30 4 8.97 0.00
 -5 30 1 5.94 0.00
 -30 25 2 -14.36 0.00
 -30 25 5 -14.37 0.00
 -6 31 5 -12.97 0.00
 -6 31 2 3.80 0.00
 -31 25 1 5.45 0.00
 -31 25 4 -1.81 0.00
 -7 32 3 -9.18 0.00
 -7 32 0 -4.55 0.00
 -32 25 3 -4.72 0.00
 -8 33 1 7.24 0.00
 -33 25 2 -5.41 0.00
 -33 25 5 -8.00 0.00
 -34 25 1 14.47 0.00
 -35 25 3 -1.08 0.00
 -36 25 2 -8.90 0.00
 -26 18 7 -4.27 0.00
 -8 26 8 -1.85 0.00
 -26 16 9 -4.04 0.00
 -10 26 9 -16.72 0.00
 -26 15 7 4.12 0.00
 -11 26 8 3.06 0.00
 -26 14 2 -2.15 0.00
 -13 26 9 -8.33 0.00
 12 14 1 4.03 0.00
 11 15 8 -8.72 0.00
 10 16 9 11.41 0.00
 10 16 6 7.55 0.00
 -16 26 9 4.37 0.00
 9 17 7 11.82 0.00
 -17 26 8 -1.60 0.00
 8 18 8 9.44 0.00
 7 19 6 6.83 0.00
 -19 26 0 -2.98 0.00
 6 20 7 8.05 0.00
 -20 26 2 13.86 0.00
 -20 26 8 -3.47 0.00
 5 21 8 8.62 0.00
 5 21 5 9.67 0.00
 -21 26 1 -15.27 0.00
 4 22 6 13.76 0.00
 4 22 3 -6.32 0.00
 -22 26 0 -4.96 0.00
 -22 26 3 -3.85 0.00
 3 23 7 -5.42 0.00
 3 23 4 0.88 0.00
 3 23 1 5.46 0.00
 -23 26 2 15.80 0.00
 -23 26 5 -3.04 0.00
 -23 26 8 -3.18 0.00
 2 24 8 -14.08 0.00
 2 24 5 -1.42 0.00
 2 24 2 -2.74 0.00
 -24 26 1 -0.86 0.00
 -24 26 4 10.76 0.00
 -24 26 7 9.52 0.00
 1 25 6 10.77 0.00
 1 25 3 -5.13 0.00
 -25 26 0 -0.44 0.00
 -25 26 3 -0.90 0.00
 -25 26 6 0.05 0.00
 0 26 7 0.85 0.00
 0 26 4 -2.45 0.00
 0 26 1 3.31 0.00
 -26 26 2 1.41 0.00
 -26 26 5 -14.32 0.00
 -1 27 5 -13.20 0.00
 -1 27 2 8.43 0.00
 -27 26 1 3.96 0.00
 -27 26 4 4.64 0.00
 -27 26 7 12.04 0.00
 -2 28 6 2.13 0.00
 -2 28 3 -5.27 0.00
 -2 28 0 2.28 0.00
 -28 26 3 0.55 0.00
 -28 26 6 9.80 0.00
 -3 29 7 4.98 0.00
 -3 29 4 6.29 0.00
 -3 29 1 8.56 0.00
 -29 26 2 -8.78 0.00
 -29 26 5 -22.01 0.00
 -4 30 5 -15.32 0.00
 -4 30 2 6.11 0.00
 -30 26 1 0.89 0.00
 -30 26 4 -2.52 0.00
 -5 31 6 -6.74 0.00
 -5 31 3 -6.38 0.00
 -5 31 0 -4.05 0.00
 -31 26 3 -4.05 0.00
 -31 26 6 10.40 0.00
 -6 32 4 3.69 0.00
 -6 32 1 9.07 0.00
 -32 26 2 -2.80 0.00
 -32 26 5 -11.12 0.00
 -33 26 1 7.63 0.00
 -33 26 4 -6.15 0.00
 -8 34 0 -7.83 0.00
 -34 26 3 -6.24 0.00
 -35 26 2 1.26 0.00
 -27 20 7 -6.14 0.00
 -7 27 8 -7.77 0.00
 -8 27 7 2.28 0.00
 -27 17 7 1.06 0.00
 -10 27 8 0.30 0.00
 -11 27 7 3.13 0.00
 -12 27 9 -8.98 0.00
 -27 14 7 10.84 0.00
 -13 27 8 -1.31 0.00
 13 14 8 -11.79 0.00
 12 15 9 7.86 0.00
 12 15 6 -2.86 0.00
 11 16 7 11.23 0.00
 11 16 1 4.48 0.00
 -16 27 8 -4.37 0.00
 10 17 8 -0.38 0.00
 9 18 6 5.65 0.00
 8 19 7 6.86 0.00
 -19 27 2 9.42 0.00
 -19 27 8 -2.44 0.00
 7 20 8 17.98 0.00
 7 20 5 15.55 0.00
 -20 27 1 -18.97 0.00
 6 21 6 10.24 0.00
 6 21 3 -7.73 0.00
 -21 27 0 -5.34 0.00
 -21 27 3 -0.06 0.00
 5 22 7 0.43 0.00
 5 22 4 5.15 0.00
 5 22 1 14.28 0.00
 -22 27 2 18.52 0.00
 -22 27 5 -7.72 0.00
 -22 27 8 -5.32 0.00
 4 23 8 -1.53 0.00
 4 23 5 4.86 0.00
 4 23 2 -5.46 0.00
 -23 27 1 -9.33 0.00
 -23 27 4 4.35 0.00
 -23 27 7 4.95 0.00
 3 24 6 16.13 0.00
 3 24 3 -6.53 0.00
 -24 27 0 -3.11 0.00
 -24 27 3 -5.82 0.00
 -24 27 6 -4.15 0.00
 2 25 7 -2.18 0.00
 2 25 4 -0.76 0.00
 2 25 1 4.58 0.00
 -25 27 2 9.61 0.00
 -25 27 5 -5.48 0.00
 1 26 5 -11.08 0.00
 1 26 2 -1.42 0.00
 -26 27 1 -0.35 0.00
 -26 27 4 6.23 0.00
 -26 27 7 16.52 0.00
 0 27 6 7.03 0.00
 0 27 3 -5.85 0.00
 0 27 0 3.11 0.00
 -27 27 3 1.81 0.00
 -27 27 6 7.68 0.00
 -1 28 7 5.88 0.00
 -1 28 4 2.07 0.00
 -1 28 1 10.64 0.00
 -28 27 2 -0.85 0.00
 -28 27 5 -18.90 0.00
 -2 29 5 -17.89 0.00
 -2 29 2 6.93 0.00
 -29 27 1 -0.27 0.00
 -29 27 4 -2.82 0.00
 -3 30 6 0.51 0.00
 -3 30 3 -4.26 0.00
 -3 30 0 -2.87 0.00
 -30 27 3 -1.67 0.00
 -30 27 6 9.88 0.00
 -4 31 4 6.73 0.00
 -4 31 1 10.56 0.00
 -31 27 2 0.66 0.00
 -31 27 5 -16.13 0.00
 -5 32 5 -9.94 0.00
 -5 32 2 1.59 0.00
 -32 27 1 -0.91 0.00
 -32 27 4 -7.81 0.00
 -6 33 0 -7.24 0.00
 -33 27 3 -4.91 0.00
 -34 27 2 6.91 0.00
 -35 27 1 10.08 0.00
 -7 28 7 -0.71 0.00
 -28 19 7 -0.01 0.00
 -9 28 8 -5.88 0.00
 -10 28 7 3.02 0.00
 -28 16 7 6.83 0.00
 -12 28 8 -1.39 0.00
 -28 15 2 4.58 0.00
 -13 28 7 2.75 0.00
 14 14 6 -15.09 0.00
 -14 28 6 8.16 0.00
 13 15 7 10.16 0.00
 13 15 1 4.13 0.00
 -15 28 8 -5.95 0.00
 12 16 8 -6.53 0.00
 -16 28 7 -2.76 0.00
 11 17 6 0.17 0.00
 -17 28 3 0.09 0.00
 10 18 7 3.05 0.00
 10 18 1 8.66 0.00
 -18 28 2 3.57 0.00
 -18 28 8 -4.40 0.00
 9 19 8 12.48 0.00
 9 19 5 15.84 0.00
 -19 28 1 -11.35 0.00
 -19 28 7 -6.66 0.00
 8 20 6 4.00 0.00
 -20 28 0 -4.83 0.00
 -20 28 3 7.50 0.00
 7 21 7 0.26 0.00
 7 21 4 9.00 0.00
 7 21 1 16.93 0.00
 -21 28 2 17.67 0.00
 -21 28 5 -9.35 0.00
 -21 28 8 -3.62 0.00
 6 22 8 13.10 0.00
 6 22 5 11.76 0.00
 6 22 2 0.23 0.00
 -22 28 1 -15.10 0.00
 -22 28 4 -4.24 0.00
 -22 28 7 0.91 0.00
 5 23 6 15.94 0.00
 5 23 3 -7.70 0.00
 -23 28 0 -6.07 0.00
 -23 28 3 -8.22 0.00
 -23 28 6 -2.34 0.00
 4 24 7 -1.74 0.00
 4 24 4 1.10 0.00
 4 24 1 5.86 0.00
 -24 28 2 14.00 0.00
 -24 28 5 -2.66 0.00
 3 25 5 -4.48 0.00
 3 25 2 -9.75 0.00
 -25 28 1 -4.06 0.00
 -25 28 4 3.18 0.00
 -25 28 7 13.21 0.00
 2 26 6 11.75 0.00
 2 26 3 -7.38 0.00
 -26 28 0 2.88 0.00
 -26 28 3 -2.00 0.00
 -26 28 6 2.45 0.00
 1 27 7 3.09 0.00
 1 27 4 0.73 0.00
 1 27 1 9.79 0.00
 -27 28 2 5.78 0.00
 -27 28 5 -7.35 0.00
 0 28 5 -17.16 0.00
 0 28 2 1.30 0.00
 -28 28 1 -2.61 0.00
 -28 28 4 -3.64 0.00
 -1 29 6 3.85 0.00
 -1 29 3 -3.41 0.00
 -1 29 0 -0.62 0.00
 -29 28 3 0.14 0.00
 -29 28 6 9.02 0.00
 -2 30 4 5.63 0.00
 -2 30 1 12.54 0.00
 -30 28 2 4.95 0.00
 -30 28 5 -14.34 0.00
 -3 31 5 -13.04 0.00
 -3 31 2 1.06 0.00
 -31 28 1 -2.67 0.00
 -31 28 4 -8.09 0.00
 -4 32 3 -5.93 0.00
 -4 32 0 -7.13 0.00
 -32 28 3 -2.73 0.00
 -5 33 1 8.26 0.00
 -33 28 2 9.82 0.00
 -34 28 1 0.17 0.00
 -35 28 3 -5.24 0.00
 -29 21 7 -5.86 0.00
 -9 29 7 0.47 0.00
 -29 19 3 3.91 0.00
 -11 29 8 -4.45 0.00
 -29 17 8 -8.91 0.00
 -29 17 2 7.18 0.00
 -12 29 7 5.00 0.00
 -29 16 6 -15.70 0.00
 -13 29 6 10.28 0.00
 -29 15 7 8.09 0.00
 -14 29 8 -5.24 0.00
 14 15 8 -6.14 0.00
 -15 29 7 4.17 0.00
 13 16 6 -9.95 0.00
 -16 29 6 7.84 0.00
 12 17 7 2.09 0.00
 12 17 1 3.56 0.00
 -17 29 2 -4.21 0.00
 -17 29 5 4.01 0.00
 -17 29 8 -7.41 0.00
 11 18 8 3.20 0.00
 11 18 5 5.00 0.00
 -18 29 1 -0.38 0.00
 -18 29 4 -0.36 0.00
 -18 29 7 -1.08 0.00
 10 19 6 -2.61 0.00
 -19 29 3 9.63 0.00
 -19 29 6 4.13 0.00
 9 20 7 -4.80 0.00
 9 20 4 10.75 0.00
 -20 29 2 14.24 0.00
 -20 29 5 -5.40 0.00
 8 21 5 15.73 0.00
 8 21 2 7.48 0.00
 -21 29 1 -13.63 0.00
 -21 29 4 -6.69 0.00
 -21 29 7 -0.06 0.00
 7 22 6 7.58 0.00
 7 22 3 -6.98 0.00
 -22 29 0 -7.99 0.00
 -22 29 3 -0.91 0.00
 -22 29 6 4.09 0.00
 6 23 7 -2.67 0.00
 6 23 4 3.22 0.00
 6 23 1 4.98 0.00
 -23 29 2 15.04 0.00
 -23 29 5 -4.19 0.00
 5 24 5 1.73 0.00
 5 24 2 -6.69 0.00
 -24 29 1 -4.10 0.00
 -24 29 4 -2.05 0.00
 -24 29 7 8.44 0.00
 4 25 6 15.34 0.00
 4 25 3 -8.36 0.00
 -25 29 0 0.41 0.00
 -25 29 3 -9.05 0.00
 -25 29 6 0.48 0.00
 3 26 7 0.67 0.00
 3 26 4 -0.25 0.00
 3 26 1 3.58 0.00
 -26 29 2 8.22 0.00
 -26 29 5 1.64 0.00
 2 27 5 -11.47 0.00
 2 27 2 -9.30 0.00
 -27 29 1 -4.55 0.00
 -27 29 4 -6.74 0.00
 1 28 6 4.45 0.00
 1 28 3 -5.16 0.00
 -28 29 0 2.95 0.00
 -28 29 3 0.38 0.00
 -28 29 6 5.70 0.00
 0 29 4 3.63 0.00
 0 29 1 13.30 0.00
 -29 29 2 8.27 0.00
 -29 29 5 -4.21 0.00
 -1 30 5 -14.30 0.00
 -1 30 2 2.43 0.00
 -30 29 1 -1.83 0.00
 -30 29 4 -10.19 0.00
 -2 31 3 -2.33 0.00
 -2 31 0 -6.73 0.00
 -31 29 3 -2.64 0.00
 -3 32 4 4.42 0.00
 -3 32 1 8.34 0.00
 -32 29 2 11.60 0.00
 -33 29 1 -3.80 0.00
 -33 29 4 -9.33 0.00
 -5 34 0 -5.79 0.00
 -34 29 3 -2.73 0.00
 -35 29 2 10.39 0.00
 -30 21 3 5.92 0.00
 -11 30 7 3.70 0.00
 -30 18 6 -7.75 0.00
 -12 30 6 7.77 0.00
 -30 17 7 7.92 0.00
 -30 16 2 12.74 0.00
 -14 30 7 7.58 0.00
 15 15 6 -15.08 0.00
 -15 30 6 12.14 0.00
 14 16 7 3.16 0.00
 14 16 1 3.31 0.00
 -16 30 2 -8.02 0.00
 -16 30 5 4.38 0.00
 -16 30 8 -7.87 0.00
 -17 30 1 2.25 0.00
 -17 30 4 8.50 0.00
 -17 30 7 5.51 0.00
 12 18 6 -9.07 0.00
 -18 30 3 3.52 0.00
 -18 30 6 4.41 0.00
 11 19 7 -6.80 0.00
 11 19 1 5.34 0.00
 -19 30 2 4.95 0.00
 -19 30 5 0.48 0.00
 10 20 5 10.73 0.00
 -20 30 1 -5.49 0.00
 -20 30 4 -1.04 0.00
 -20 30 7 2.58 0.00
 9 21 6 -3.65 0.00
 9 21 3 -6.19 0.00
 -21 30 0 -6.30 0.00
 -21 30 3 8.69 0.00
 -21 30 6 6.66 0.00
 8 22 7 -7.36 0.00
 8 22 4 6.76 0.00
 8 22 1 2.85 0.00
 -22 30 2 16.10 0.00
 -22 30 5 -4.75 0.00
 7 23 5 5.43 0.00
 7 23 2 3.30 0.00
 -23 30 1 -1.59 0.00
 -23 30 4 -3.24 0.00
 6 24 6 11.39 0.00
 6 24 3 -7.15 0.00
 -24 30 0 -4.73 0.00
 -24 30 3 -9.39 0.00
 -24 30 6 5.08 0.00
 5 25 4 -2.15 0.00
 5 25 1 -7.02 0.00
 -25 30 2 5.78 0.00
 -25 30 5 3.11 0.00
 4 26 5 -6.58 0.00
 4 26 2 -12.88 0.00
 -26 30 1 -0.16 0.00
 -26 30 4 -8.56 0.00
 3 27 6 7.04 0.00
 3 27 3 -8.01 0.00
 -27 30 0 4.91 0.00
 -27 30 3 -3.59 0.00
 -27 30 6 2.19 0.00
 2 28 4 1.35 0.00
 2 28 1 7.63 0.00
 -28 30 2 8.63 0.00
 -28 30 5 5.82 0.00
 1 29 5 -11.08 0.00
 1 29 2 -2.49 0.00
 -29 30 1 -3.23 0.00
 -29 30 4 -15.73 0.00
 0 30 3 -1.90 0.00
 0 30 0 -3.56 0.00
 -30 30 3 -1.60 0.00
 -1 31 4 4.68 0.00
 -1 31 1 9.94 0.00
 -31 30 2 11.76 0.00
 -31 30 5 -0.39 0.00
 -2 32 2 -0.32 0.00
 -32 30 1 -0.08 0.00
 -32 30 4 -10.61 0.00
 -3 33 0 -7.96 0.00
 -33 30 3 -3.06 0.00
 -34 30 2 11.52 0.00
 -31 20 6 -3.03 0.00
 -11 31 6 -0.04 0.00
 -12 31 2 -11.31 0.00
 -31 18 2 11.78 0.00
 -13 31 7 6.80 0.00
 -31 17 6 -11.25 0.00
 -14 31 3 -0.06 0.00
 -14 31 6 12.81 0.00
 -31 16 7 4.85 0.00
 -15 31 2 -5.73 0.00
 -15 31 5 1.19 0.00
 15 16 2 14.66 0.00
 -16 31 4 10.52 0.00
 -16 31 7 8.46 0.00
 14 17 6 -11.96 0.00
 -17 31 3 -1.22 0.00
 -17 31 6 7.38 0.00
 13 18 7 -4.01 0.00
 13 18 1 1.12 0.00
 -18 31 2 -6.85 0.00
 -18 31 5 3.64 0.00
 12 19 5 -2.62 0.00
 -19 31 1 1.28 0.00
 -19 31 4 8.76 0.00
 -19 31 7 6.32 0.00
 11 20 6 -10.53 0.00
 11 20 3 -5.39 0.00
 -20 31 0 -2.42 0.00
 -20 31 3 7.62 0.00
 -20 31 6 3.85 0.00
 10 21 7 -10.06 0.00
 10 21 4 8.58 0.00
 10 21 1 1.87 0.00
 -21 31 2 13.74 0.00
 -21 31 5 -2.55 0.00
 9 22 5 5.15 0.00
 9 22 2 7.40 0.00
 -22 31 1 2.43 0.00
 -22 31 4 0.46 0.00
 8 23 6 0.17 0.00
 8 23 3 -7.18 0.00
 -23 31 0 -8.52 0.00
 -23 31 3 -1.12 0.00
 -23 31 6 9.33 0.00
 7 24 4 -1.11 0.00
 7 24 1 -14.71 0.00
 -24 31 2 5.03 0.00
 -24 31 5 0.49 0.00
 6 25 5 -6.09 0.00
 6 25 2 -4.83 0.00
 -25 31 1 8.42 0.00
 -25 31 4 -3.95 0.00
 5 26 6 8.61 0.00
 5 26 3 -7.57 0.00
 -26 31 0 2.35 0.00
 -26 31 3 -7.84 0.00
 4 27 4 -3.18 0.00
 4 27 1 -6.88 0.00
 -27 31 2 2.72 0.00
 3 28 5 -7.36 0.00
 3 28 2 -9.96 0.00
 -28 31 1 -1.34 0.00
 2 29 3 -5.32 0.00
 -29 31 0 0.71 0.00
 -29 31 3 -0.63 0.00
 1 30 4 3.21 0.00
 1 30 1 8.88 0.00
 -30 31 2 10.84 0.00
 -30 31 5 7.10 0.00
 0 31 2 3.29 0.00
 -31 31 1 2.19 0.00
 -31 31 4 -15.47 0.00
 -1 32 0 -7.78 0.00
 -32 31 3 -3.22 0.00
 -2 33 1 4.27 0.00
 -33 31 2 11.07 0.00
 -34 31 1 -1.77 0.00
 -10 32 3 -10.31 0.00
 -10 32 6 -8.45 0.00
 -11 32 2 -17.87 0.00
 -32 19 6 -7.43 0.00
 -13 32 3 -4.33 0.00
 -13 32 6 6.94 0.00
 -32 18 7 5.92 0.00
 -14 32 2 -7.15 0.00
 -14 32 5 -1.57 0.00
 -32 17 2 14.42 0.00
 -15 32 1 2.97 0.00
 16 16 6 -8.77 0.00
 -16 32 3 -0.56 0.00
 -16 32 6 10.65 0.00
 15 17 7 -0.28 0.00
 -17 32 2 -10.15 0.00
 -17 32 5 2.12 0.00
 14 18 5 -11.65 0.00
 -18 32 1 2.78 0.00
 -18 32 4 14.71 0.00
 -18 32 7 7.08 0.00
 13 19 6 -10.09 0.00
 -19 32 0 -2.86 0.00
 -19 32 3 -0.29 0.00
 -19 32 6 1.85 0.00
 12 20 4 7.30 0.00
 12 20 1 0.58 0.00
 -20 32 2 2.89 0.00
 -20 32 5 0.36 0.00
 11 21 5 -1.51 0.00
 11 21 2 2.34 0.00
 -21 32 1 6.41 0.00
 -21 32 4 6.80 0.00
 10 22 6 -8.85 0.00
 10 22 3 -9.87 0.00
 -22 32 0 -6.73 0.00
 -22 32 3 2.47 0.00
 -22 32 6 7.00 0.00
 9 23 4 2.23 0.00
 9 23 1 -12.67 0.00
 -23 32 2 9.54 0.00
 -23 32 5 -1.42 0.00
 8 24 5 -6.98 0.00
 8 24 2 3.66 0.00
 -24 32 1 14.66 0.00
 -24 32 4 3.82 0.00
 7 25 6 3.80 0.00
 7 25 3 -5.37 0.00
 -25 32 0 -3.54 0.00
 -25 32 3 -5.71 0.00
 6 26 4 -6.27 0.00
 6 26 1 -22.43 0.00
 -26 32 2 -5.25 0.00
 -26 32 5 5.53 0.00
 5 27 5 -8.95 0.00
 5 27 2 -9.67 0.00
 -27 32 1 7.09 0.00
 -27 32 4 -12.77 0.00
 -28 32 0 2.30 0.00
 -28 32 3 -2.21 0.00
 3 29 4 -0.98 0.00
 3 29 1 -0.46 0.00
 -29 32 2 6.15 0.00
 -29 32 5 9.58 0.00
 2 30 2 -0.56 0.00
 -30 32 1 1.52 0.00
 -30 32 4 -21.55 0.00
 1 31 3 -2.99 0.00
 -31 32 0 -5.03 0.00
 -31 32 3 -0.83 0.00
 0 32 1 6.09 0.00
 -32 32 2 9.12 0.00
 -33 32 1 3.88 0.00
 -2 34 0 -7.43 0.00
 -4 33 2 -3.94 0.00
 -8 33 4 0.41 0.00
 -9 33 3 -10.02 0.00
 -10 33 2 -7.00 0.00
 -10 33 5 -4.21 0.00
 -11 33 4 6.31 0.00
 -33 21 6 -7.39 0.00
 -33 21 3 13.27 0.00
 -12 33 3 -6.76 0.00
 -12 33 6 -2.14 0.00
 -13 33 2 -13.43 0.00
 -13 33 5 -1.60 0.00
 -33 19 2 5.72 0.00
 -14 33 1 8.97 0.00
 -14 33 4 2.72 0.00
 -33 18 6 -4.85 0.00
 -15 33 3 0.01 0.00
 -15 33 6 9.22 0.00
 -16 33 2 -5.62 0.00
 -16 33 5 -1.01 0.00
 16 17 5 -8.64 0.00
 16 17 2 9.79 0.00
 -17 33 1 5.25 0.00
 -17 33 4 11.37 0.00
 15 18 6 -4.08 0.00
 -18 33 0 -8.35 0.00
 -18 33 3 -2.49 0.00
 -18 33 6 3.54 0.00
 14 19 4 5.60 0.00
 14 19 1 -3.56 0.00
 -19 33 2 -7.79 0.00
 -19 33 5 0.73 0.00
 13 20 5 -9.27 0.00
 13 20 2 -3.40 0.00
 -20 33 1 7.64 0.00
 -20 33 4 12.88 0.00
 12 21 6 -8.54 0.00
 12 21 3 -11.26 0.00
 -21 33 0 -2.39 0.00
 -21 33 3 -4.15 0.00
 -21 33 6 1.57 0.00
 11 22 4 2.85 0.00
 11 22 1 -5.08 0.00
 -22 33 2 10.34 0.00
 -22 33 5 -0.99 0.00
 10 23 5 -8.07 0.00
 10 23 2 2.11 0.00
 -23 33 1 16.63 0.00
 -23 33 4 8.12 0.00
 9 24 3 -6.92 0.00
 -24 33 0 -7.24 0.00
 -24 33 3 -3.00 0.00
 8 25 4 -4.55 0.00
 8 25 1 -26.05 0.00
 -25 33 2 -4.12 0.00
 -25 33 5 1.43 0.00
 7 26 5 -12.97 0.00
 7 26 2 -2.82 0.00
 -26 33 1 15.63 0.00
 -26 33 4 1.28 0.00
 6 27 3 -5.25 0.00
 -27 33 0 0.27 0.00
 -27 33 3 -2.55 0.00
 5 28 4 -6.11 0.00
 5 28 1 -15.61 0.00
 -28 33 2 -4.13 0.00
 4 29 2 -5.73 0.00
 -29 33 1 3.76 0.00
 -29 33 4 -19.53 0.00
 3 30 3 -5.96 0.00
 -30 33 0 -3.06 0.00
 -30 33 3 0.35 0.00
 2 31 1 3.11 0.00
 -31 33 2 6.67 0.00
 -32 33 1 5.21 0.00
 -6 34 2 2.38 0.00
 -7 34 1 8.47 0.00
 -7 34 4 -4.40 0.00
 -9 34 2 10.89 0.00
 -10 34 1 4.96 0.00
 -10 34 4 2.89 0.00
 -34 23 3 10.13 0.00
 -11 34 3 -5.51 0.00
 -12 34 2 -9.06 0.00
 -12 34 5 -0.52 0.00
 -34 21 5 -10.23 0.00
 -13 34 1 7.96 0.00
 -13 34 4 6.16 0.00
 -14 34 3 0.05 0.00
 -15 34 2 -3.82 0.00
 -15 34 5 -1.32 0.00
 -34 18 5 -2.56 0.00
 -34 18 2 8.61 0.00
 -16 34 1 10.32 0.00
 -16 34 4 4.65 0.00
 -17 34 0 -9.23 0.00
 -17 34 3 1.34 0.00
 -17 34 6 5.45 0.00
 16 18 4 4.83 0.00
 16 18 1 -8.59 0.00
 -18 34 2 -6.77 0.00
 -18 34 5 -1.33 0.00
 15 19 5 -8.40 0.00
 15 19 2 -1.92 0.00
 -19 34 1 7.90 0.00
 -19 34 4 13.56 0.00
 14 20 3 -10.92 0.00
 -20 34 0 -2.63 0.00
 -20 34 3 -8.54 0.00
 13 21 4 0.85 0.00
 13 21 1 -3.24 0.00
 -21 34 2 2.43 0.00
 -21 34 5 -0.36 0.00
 12 22 5 -10.01 0.00
 12 22 2 -5.93 0.00
 -22 34 1 14.93 0.00
 -22 34 4 9.25 0.00
 11 23 3 -10.57 0.00
 -23 34 0 -5.45 0.00
 -23 34 3 -8.86 0.00
 10 24 4 -2.55 0.00
 10 24 1 -15.60 0.00
 -24 34 2 5.08 0.00
 -24 34 5 -0.12 0.00
 9 25 5 -13.35 0.00
 9 25 2 0.28 0.00
 -25 34 1 18.96 0.00
 -25 34 4 9.86 0.00
 8 26 3 -2.69 0.00
 -26 34 0 -2.94 0.00
 -26 34 3 -1.26 0.00
 7 27 4 -7.05 0.00
 7 27 1 -24.80 0.00
 -27 34 2 -10.78 0.00
 6 28 2 -5.49 0.00
 -28 34 1 8.28 0.00
 -28 34 4 -6.46 0.00
 5 29 3 -5.87 0.00
 -29 34 0 -2.75 0.00
 -29 34 3 0.08 0.00
 4 30 1 -5.64 0.00
 3 31 2 1.55 0.00
 -31 34 1 4.33 0.00
 -32 34 0 -4.54 0.00
 -8 35 2 14.34 0.00
 -9 35 1 6.54 0.00
 -9 35 4 -3.86 0.00
 -10 35 0 -4.42 0.00
 -10 35 3 -5.82 0.00
 -11 35 2 8.73 0.00
 -12 35 1 3.14 0.00
 -12 35 4 7.33 0.00
 -35 22 3 12.47 0.00
 -13 35 0 13.96 0.00
 -13 35 3 2.27 0.00
 -14 35 2 -2.64 0.00
 -14 35 5 0.62 0.00
 -35 20 5 -2.79 0.00
 -35 20 2 -3.41 0.00
 -15 35 1 9.66 0.00
 -15 35 4 3.77 0.00
 -35 19 3 -4.13 0.00
 -16 35 0 -0.51 0.00
 -16 35 3 5.01 0.00
 -35 18 4 5.87 0.00
 -35 18 1 -10.34 0.00
 -17 35 2 0.93 0.00
 -17 35 5 -1.72 0.00
 17 18 5 -0.68 0.00
 17 18 2 4.22 0.00
 -18 35 1 9.89 0.00
 -18 35 4 7.78 0.00
 16 19 3 -11.13 0.00
 -19 35 0 -6.83 0.00
 -19 35 3 -3.03 0.00
 15 20 4 -0.07 0.00
 15 20 1 -10.02 0.00
 -20 35 2 -3.49 0.00
 -20 35 5 -1.60 0.00
 14 21 5 -8.77 0.00
 14 21 2 -9.91 0.00
 -21 35 1 10.76 0.00
 -21 35 4 9.52 0.00
 13 22 3 -11.20 0.00
 -22 35 0 -2.20 0.00
 -22 35 3 -15.90 0.00
 12 23 4 -4.00 0.00
 12 23 1 -4.46 0.00
 -23 35 2 8.60 0.00
 11 24 2 -3.73 0.00
 -24 35 1 17.50 0.00
 -24 35 4 8.42 0.00
 10 25 3 -4.12 0.00
 -25 35 0 -3.76 0.00
 -25 35 3 -5.95 0.00
 9 26 1 -19.65 0.00
 -26 35 2 -4.85 0.00
 8 27 2 -3.14 0.00
 -27 35 1 10.49 0.00
 7 28 3 -2.42 0.00
 -28 35 0 -2.31 0.00
 -28 35 3 1.61 0.00
 6 29 1 -13.69 0.00
 -29 35 2 -6.65 0.00
 5 30 2 -2.26 0.00
 -30 35 1 4.23 0.00
 -31 35 0 -5.06 0.00
 -36 26 1 13.88 0.00
 -10 36 2 20.03 0.00
 -11 36 1 2.61 0.00
 -12 36 0 3.14 0.00
 -12 36 3 2.80 0.00
 -36 23 1 5.20 0.00
 -13 36 2 6.64 0.00
 -36 22 2 -17.14 0.00
 -14 36 1 2.35 0.00
 -36 21 3 6.65 0.00
 -15 36 0 7.84 0.00
 -15 36 3 7.85 0.00
 -36 20 4 9.18 0.00
 -36 20 1 -7.18 0.00
 -16 36 2 5.43 0.00
 -36 19 2 4.48 0.00
 -17 36 1 9.01 0.00
 -17 36 4 2.58 0.00
 18 18 3 -8.31 0.00
 -18 36 0 -7.45 0.00
 -18 36 3 4.94 0.00
 17 19 4 1.08 0.00
 17 19 1 -16.50 0.00
 -19 36 2 0.28 0.00
 16 20 2 -4.98 0.00
 -20 36 1 7.23 0.00
 -20 36 4 7.19 0.00
 15 21 3 -9.90 0.00
 -21 36 0 -2.64 0.00
 -21 36 3 -11.74 0.00
 14 22 4 -5.39 0.00
 14 22 1 -4.68 0.00
 -22 36 2 3.29 0.00
 13 23 2 -8.98 0.00
 -23 36 1 12.17 0.00
 12 24 3 -6.12 0.00
 -24 36 0 -1.81 0.00
 -24 36 3 -15.32 0.00
 11 25 1 -6.74 0.00
 -25 36 2 5.29 0.00
 10 26 2 -3.50 0.00
 -26 36 1 10.27 0.00
 -27 36 0 -0.65 0.00
 8 28 1 -13.38 0.00
 -29 36 1 3.15 0.00
 -12 37 2 16.85 0.00
 -13 37 1 -1.60 0.00
 -14 37 0 5.97 0.00
 -14 37 3 8.83 0.00
 -37 22 1 -1.07 0.00
 -15 37 2 8.29 0.00
 -37 21 2 -4.44 0.00
 -16 37 1 1.75 0.00
 -37 20 3 -0.41 0.00
 -17 37 0 -3.06 0.00
 -17 37 3 8.89 0.00
 -37 19 1 -14.89 0.00
 -18 37 2 6.78 0.00
 18 19 2 2.99 0.00
 -19 37 1 4.51 0.00
 17 20 3 -8.52 0.00
 -20 37 0 -5.41 0.00
 -20 37 3 -0.50 0.00
 16 21 1 -12.14 0.00
 -21 37 2 -0.38 0.00
 15 22 2 -9.18 0.00
 -22 37 1 4.86 0.00
 14 23 3 -6.15 0.00
 -23 37 0 -0.09 0.00
 -23 37 3 -16.47 0.00
 13 24 1 -0.04 0.00
 -24 37 2 6.45 0.00
 12 25 2 -5.59 0.00
 -25 37 1 8.32 0.00
 -26 37 0 1.45 0.00
 -15 38 1 -4.41 0.00
 -16 38 0 0.33 0.00
 -38 21 1 -6.74 0.00
 -18 38 1 -0.41 0.00
 -19 38 0 -6.36 0.00
 18 20 1 -14.88 0.00
 -20 38 2 1.90 0.00
 17 21 2 -3.67 0.00
 -21 38 1 -0.90 0.00
 -22 38 0 -0.41 0.00
 15 23 1 -3.16 0.00
 0 33 0 -6.03 0.00
 -7 35 0 -5.79 0.00
 -4 35 0 -5.02 0.00
 -30 36 0 -4.84 0.00
 -9 36 0 -7.83 0.00
 -6 36 0 -1.41 0.00
 -29 37 0 -1.50 0.00
 -11 37 0 -6.16 0.00
 -8 37 0 -2.06 0.00
 -28 38 0 2.78 0.00
 -25 38 0 2.64 0.00
 -13 38 0 -1.08 0.00
 -10 38 0 -4.70 0.00
 -24 39 0 2.76 0.00
 -21 39 0 -1.83 0.00
 -18 39 0 -4.89 0.00
 -15 39 0 0.35 0.00
 -15 8 1 -11.93 0.00
 -16 10 1 -24.25 0.00
 -18 11 1 -18.33 0.00
 -15 11 1 -17.08 0.00
 -39 20 1 -9.40 0.00
 17 22 1 -7.47 0.00
 -39 23 1 0.87 0.00
 -38 24 1 3.92 0.00
 -37 25 1 9.21 0.00
 14 25 1 1.81 0.00
 12 26 1 1.69 0.00
 -38 27 1 8.24 0.00
 10 27 1 -5.30 0.00
 -37 28 1 8.81 0.00
 -36 29 1 1.86 0.00
 -35 30 1 -4.32 0.00
 7 30 1 -5.36 0.00
 5 31 1 -4.90 0.00
 -36 32 1 -3.72 0.00
 3 32 1 -0.54 0.00
 -35 33 1 0.34 0.00
 1 33 1 3.46 0.00
 -34 34 1 3.36 0.00
 -4 34 1 2.71 0.00
 -1 34 1 3.46 0.00
 -33 35 1 3.48 0.00
 -6 35 1 3.46 0.00
 -3 35 1 0.51 0.00
 -32 36 1 3.25 0.00
 -8 36 1 4.44 0.00
 -5 36 1 -1.52 0.00
 -28 37 1 1.52 0.00
 -10 37 1 3.48 0.00
 -7 37 1 -0.96 0.00
 -27 38 1 1.69 0.00
 -24 38 1 3.46 0.00
 -12 38 1 0.51 0.00
 -23 39 1 -2.62 0.00
 -20 39 1 -4.08 0.00
 -17 39 1 -5.24 0.00
 -14 39 1 -2.97 0.00
 -19 12 2 0.77 0.00
 -38 20 2 4.49 0.00
 19 20 2 2.06 0.00
 -39 22 2 -0.61 0.00
 -38 23 2 -11.10 0.00
 16 23 2 -5.97 0.00
 -37 24 2 -15.99 0.00
 14 24 2 -6.83 0.00
 -38 26 2 -1.95 0.00
 -37 27 2 5.59 0.00
 11 27 2 -4.29 0.00
 -36 28 2 9.34 0.00
 9 28 2 -3.89 0.00
 7 29 2 -3.24 0.00
 -36 31 2 5.31 0.00
 -35 32 2 6.78 0.00
 1 32 2 5.71 0.00
 -34 33 2 5.65 0.00
 -7 33 2 7.31 0.00
 -1 33 2 3.36 0.00
 -33 34 2 3.31 0.00
 -30 34 2 0.91 0.00
 -3 34 2 -3.73 0.00
 0 34 2 5.41 0.00
 -32 35 2 1.19 0.00
 -5 35 2 -4.57 0.00
 -31 36 2 -1.89 0.00
 -28 36 2 -7.10 0.00
 -7 36 2 4.53 0.00
 -27 37 2 0.52 0.00
 -9 37 2 14.18 0.00
 -26 38 2 5.20 0.00
 -23 38 2 0.54 0.00
 -17 38 2 9.19 0.00
 -14 38 2 11.53 0.00
 -11 38 2 15.44 0.00
 -22 39 2 -2.87 0.00
 -19 39 2 4.89 0.00
 -16 39 2 8.22 0.00
 19 19 3 -4.55 0.00
 -38 22 3 5.66 0.00
 16 22 3 -6.24 0.00
 -37 23 3 9.24 0.00
 -36 24 3 6.79 0.00
 -38 25 3 4.25 0.00
 13 25 3 -0.97 0.00
 -37 26 3 -1.09 0.00
 11 26 3 -0.66 0.00
 -36 27 3 -5.92 0.00
 9 27 3 -0.33 0.00
 4 28 3 -7.66 0.00
 -36 30 3 -2.24 0.00
 6 30 3 -2.63 0.00
 -35 31 3 -2.23 0.00
 4 31 3 -3.82 0.00
 -34 32 3 -2.46 0.00
 -1 32 3 -1.56 0.00
 2 32 3 -3.40 0.00
 -33 33 3 -0.33 0.00
 -6 33 3 -9.74 0.00
 -3 33 3 -3.01 0.00
 0 33 3 -2.89 0.00
 -32 34 3 1.26 0.00
 -8 34 3 -10.66 0.00
 -5 34 3 -5.70 0.00
 -2 34 3 -2.39 0.00
 -31 35 3 -0.09 0.00
 -7 35 3 -7.74 0.00
 -4 35 3 -1.25 0.00
 -30 36 3 -0.05 0.00
 -27 36 3 1.04 0.00
 -9 36 3 -6.24 0.00
 -6 36 3 -1.07 0.00
 -26 37 3 -5.82 0.00
 -11 37 3 -0.41 0.00
 -25 38 3 -11.27 0.00
 -22 38 3 -6.81 0.00
 -19 38 3 6.18 0.00
 -16 38 3 9.24 0.00
 -13 38 3 5.17 0.00
 0 2 4 8.74 0.00
 -37 19 4 3.66 0.00
 16 21 4 -3.68 0.00
 -37 22 4 11.14 0.00
 -36 23 4 12.20 0.00
 13 24 4 -7.15 0.00
 -37 25 4 4.91 0.00
 -34 25 4 -0.92 0.00
 11 25 4 -5.19 0.00
 -36 26 4 -0.02 0.00
 9 26 4 -4.89 0.00
 -35 27 4 -5.24 0.00
 -34 28 4 -8.35 0.00
 8 28 4 -3.92 0.00
 6 29 4 -5.51 0.00
 4 30 4 -3.16 0.00
 -34 31 4 -7.53 0.00
 -28 31 4 -19.39 0.00
 2 31 4 1.08 0.00
 -33 32 4 -9.40 0.00
 -15 32 4 5.35 0.00
 0 32 4 3.21 0.00
 -32 33 4 -13.21 0.00
 -5 33 4 0.77 0.00
 -2 33 4 3.08 0.00
 -31 34 4 -15.02 0.00
 -4 34 4 0.58 0.00
 -27 35 4 6.07 0.00
 -6 35 4 -4.09 0.00
 -26 36 4 7.25 0.00
 -23 36 4 4.39 0.00
 -14 36 4 6.60 0.00
 -11 36 4 2.55 0.00
 -8 36 4 -5.88 0.00
 -25 37 4 1.49 0.00
 -22 37 4 2.59 0.00
 -19 37 4 2.71 0.00
 -16 37 4 2.21 0.00
 -13 37 4 5.90 0.00
 -36 19 5 3.23 0.00
 16 20 5 -2.07 0.00
 -36 22 5 -5.43 0.00
 -35 23 5 -9.85 0.00
 13 23 5 -7.29 0.00
 11 24 5 -10.62 0.00
 -35 26 5 -4.75 0.00
 -34 27 5 -6.29 0.00
 8 27 5 -10.70 0.00
 -33 28 5 -8.63 0.00
 6 28 5 -8.65 0.00
 -32 29 5 -7.26 0.00
 4 29 5 -3.69 0.00
 2 30 5 -2.67 0.00
 -27 31 5 8.70 0.00
 0 31 5 -5.31 0.00
 -2 32 5 -6.13 0.00
 -28 33 5 6.92 0.00
 -7 33 5 -6.61 0.00
 -4 33 5 -4.12 0.00
 -27 34 5 2.83 0.00
 -9 34 5 -2.50 0.00
 -6 34 5 -1.52 0.00
 -26 35 5 0.62 0.00
 -23 35 5 0.30 0.00
 -11 35 5 0.66 0.00
 -8 35 5 1.00 0.00
 -22 36 5 -0.33 0.00
 -19 36 5 -2.36 0.00
 -16 36 5 0.71 0.00
 -13 36 5 1.61 0.00
 17 17 6 1.28 0.00
 -35 19 6 0.47 0.00
 16 19 6 5.58 0.00
 -34 20 6 -6.07 0.00
 14 20 6 -1.10 0.00
 -32 22 6 -1.31 0.00
 -34 23 6 -5.13 0.00
 11 23 6 -5.34 0.00
 -33 24 6 2.81 0.00
 9 24 6 -3.62 0.00
 -32 25 6 9.13 0.00
 -33 27 6 7.32 0.00
 6 27 6 3.05 0.00
 -32 28 6 5.42 0.00
 4 28 6 1.58 0.00
 -31 29 6 4.35 0.00
 2 29 6 -0.82 0.00
 -30 30 6 3.50 0.00
 0 30 6 0.49 0.00
 -29 31 6 1.26 0.00
 -26 31 6 3.48 0.00
 -2 31 6 2.33 0.00
 -28 32 6 0.30 0.00
 -25 32 6 7.55 0.00
 -7 32 6 -11.53 0.00
 -4 32 6 -0.48 0.00
 -27 33 6 2.20 0.00
 -24 33 6 7.86 0.00
 -9 33 6 -10.63 0.00
 -6 33 6 -5.01 0.00
 -23 34 6 3.78 0.00
 -20 34 6 -0.91 0.00
 -14 34 6 2.80 0.00
 -11 34 6 -7.12 0.00
 -19 35 6 0.16 0.00
 -16 35 6 4.06 0.00
 -33 17 7 1.92 0.00
 -31 19 7 7.26 0.00
 14 19 7 -2.78 0.00
 -33 20 7 3.83 0.00
 12 20 7 -7.23 0.00
 -32 21 7 2.58 0.00
 -31 22 7 -4.38 0.00
 -28 22 7 -11.69 0.00
 11 22 7 -5.22 0.00
 -27 23 7 -8.25 0.00
 9 23 7 -6.82 0.00
 -32 24 7 -8.08 0.00
 -26 24 7 2.05 0.00
 7 24 7 -4.19 0.00
 -31 25 7 -10.94 0.00
 -25 25 7 9.67 0.00
 5 25 7 -0.95 0.00
 -30 26 7 -4.55 0.00
 -29 27 7 7.24 0.00
 -28 28 7 14.19 0.00
 2 28 7 1.14 0.00
 -27 29 7 12.99 0.00
 -6 29 7 -0.94 0.00
 0 29 7 2.89 0.00
 -26 30 7 8.77 0.00
 -23 30 7 5.82 0.00
 -8 30 7 -1.60 0.00
 -5 30 7 0.96 0.00
 -2 30 7 3.21 0.00
 -25 31 7 5.83 0.00
 -22 31 7 5.67 0.00
 -10 31 7 0.79 0.00
 -7 31 7 -1.53 0.00
 -24 32 7 4.49 0.00
 -21 32 7 6.41 0.00
 -15 32 7 7.24 0.00
 -12 32 7 3.50 0.00
 -9 32 7 -1.12 0.00
 -20 33 7 5.14 0.00
 -17 33 7 4.48 0.00
 -14 33 7 4.00 0.00
 -11 33 7 0.23 0.00
 -20 14 8 0.54 0.00
 -28 15 8 -11.65 0.00
 -30 16 8 -4.25 0.00
 15 16 8 0.29 0.00
 13 17 8 -0.13 0.00
 -31 18 8 -1.66 0.00
 -30 19 8 -3.06 0.00
 12 19 8 4.46 0.00
 -29 20 8 -0.86 0.00
 10 20 8 10.44 0.00
 8 21 8 16.66 0.00
 -30 22 8 3.40 0.00
 -29 23 8 6.06 0.00
 -23 23 8 7.31 0.00
 7 23 8 8.43 0.00
 -28 24 8 8.68 0.00
 5 24 8 1.25 0.00
 -27 25 8 8.80 0.00
 -24 25 8 3.90 0.00
 3 25 8 -8.07 0.00
 -26 26 8 4.37 0.00
 1 26 8 -10.99 0.00
 -25 27 8 -2.17 0.00
 -4 27 8 -8.61 0.00
 -1 27 8 -7.95 0.00
 -24 28 8 -5.71 0.00
 -6 28 8 -9.02 0.00
 -3 28 8 -5.37 0.00
 -23 29 8 -4.53 0.00
 -20 29 8 -2.71 0.00
 -8 29 8 -8.80 0.00
 -5 29 8 -5.28 0.00
 -22 30 8 -1.41 0.00
 -19 30 8 -4.26 0.00
 -13 30 8 -4.34 0.00
 -10 30 8 -6.81 0.00
 -7 30 8 -5.46 0.00
 -18 31 8 -5.90 0.00
 -15 31 8 -5.32 0.00
 -12 31 8 -3.84 0.00
 12 12 9 -3.32 0.00
 13 13 9 1.20 0.00
 -25 14 9 -5.99 0.00
 14 14 9 3.60 0.00
 -27 15 9 -1.45 0.00
 -28 17 9 -1.39 0.00
 11 17 9 7.45 0.00
 -27 18 9 -0.88 0.00
 9 18 9 7.55 0.00
 -26 19 9 -1.13 0.00
 7 19 9 6.73 0.00
 -28 20 9 1.01 0.00
 5 20 9 6.78 0.00
 8 20 9 4.00 0.00
 -27 21 9 1.66 0.00
 0 21 9 -1.34 0.00
 6 21 9 6.25 0.00
 -26 22 9 3.79 0.00
 -20 22 9 2.20 0.00
 4 22 9 9.10 0.00
 -25 23 9 4.85 0.00
 -22 23 9 1.46 0.00
 -1 23 9 -4.51 0.00
 2 23 9 8.77 0.00
 -24 24 9 1.67 0.00
 -3 24 9 -12.30 0.00
 0 24 9 1.88 0.00
 -23 25 9 -0.94 0.00
 -5 25 9 -12.91 0.00
 -2 25 9 -6.40 0.00
 -22 26 9 2.56 0.00
 -19 26 9 12.98 0.00
 -7 26 9 -10.72 0.00
 -4 26 9 -7.68 0.00
 -21 27 9 7.34 0.00
 -18 27 9 5.28 0.00
 -15 27 9 -3.60 0.00
 -9 27 9 -9.11 0.00
 -6 27 9 -3.67 0.00
 -20 28 9 5.36 0.00
 -17 28 9 -3.54 0.00
 -14 28 9 -4.08 0.00
 -11 28 9 -5.55 0.00
 -8 28 9 -1.83 0.00
 -1 1 10 -2.82 0.00
 -3 2 10 2.23 0.00
 0 2 10 1.44 0.00
 -5 3 10 7.10 0.00
 -2 3 10 -0.47 0.00
 1 3 10 9.90 0.00
 -4 4 10 -1.01 0.00
 -1 4 10 5.38 0.00
 2 4 10 12.92 0.00
 -3 5 10 -1.99 0.00
 0 5 10 10.88 0.00
 3 5 10 9.84 0.00
 -2 6 10 2.07 0.00
 1 6 10 10.17 0.00
 4 6 10 6.39 0.00
 -1 7 10 3.17 0.00
 2 7 10 8.25 0.00
 5 7 10 4.82 0.00
 -3 8 10 -4.64 0.00
 3 8 10 8.86 0.00
 6 8 10 4.30 0.00
 -2 9 10 -5.17 0.00
 4 9 10 8.31 0.00
 7 9 10 3.29 0.00
 5 10 10 3.53 0.00
 8 10 10 -1.09 0.00
 -21 11 10 -7.14 0.00
 6 11 10 -4.17 0.00
 -23 12 10 -8.37 0.00
 -20 12 10 -5.54 0.00
 -25 13 10 -3.99 0.00
 -22 13 10 -8.73 0.00
 11 13 10 -7.91 0.00
 -24 14 10 -5.59 0.00
 10 15 10 -4.44 0.00
 -25 16 10 -3.07 0.00
 -1 16 10 -5.41 0.00
 8 16 10 -4.22 0.00
 -24 17 10 -5.54 0.00
 6 17 10 -0.89 0.00
 -23 18 10 -3.51 0.00
 -5 18 10 7.96 0.00
 4 18 10 3.11 0.00
 -22 19 10 -1.21 0.00
 -10 19 10 -8.04 0.00
 -7 19 10 4.92 0.00
 2 19 10 2.98 0.00
 5 19 10 1.96 0.00
 -24 20 10 -0.75 0.00
 -21 20 10 -3.24 0.00
 -18 20 10 -4.90 0.00
 0 20 10 0.31 0.00
 3 20 10 3.54 0.00
 -23 21 10 -1.62 0.00
 -20 21 10 -3.98 0.00
 -17 21 10 -1.60 0.00
 -11 21 10 -3.42 0.00
 -2 21 10 1.39 0.00
 1 21 10 1.72 0.00
 -22 22 10 -3.57 0.00
 -19 22 10 1.42 0.00
 -4 22 10 4.55 0.00
 -1 22 10 0.41 0.00
 -21 23 10 -0.29 0.00
 -18 23 10 6.58 0.00
 -12 23 10 1.98 0.00
 -6 23 10 2.55 0.00
 -3 23 10 2.71 0.00
 -20 24 10 5.66 0.00
 -17 24 10 5.49 0.00
 -14 24 10 2.74 0.00
 -11 24 10 0.03 0.00
 -8 24 10 -2.76 0.00
 -5 24 10 3.82 0.00
 -16 25 10 1.82 0.00
 -13 25 10 2.02 0.00
 -10 25 10 -3.55 0.00
 0 1 11 -7.17 0.00
 -2 2 11 -4.85 0.00
 1 2 11 -1.52 0.00
 -4 3 11 -0.31 0.00
 -1 3 11 -2.04 0.00
 2 3 11 3.96 0.00
 -6 4 11 2.62 0.00
 -3 4 11 -0.80 0.00
 0 4 11 2.98 0.00
 3 4 11 6.22 0.00
 -8 5 11 4.27 0.00
 -5 5 11 0.50 0.00
 -2 5 11 2.21 0.00
 1 5 11 5.08 0.00
 4 5 11 6.40 0.00
 -10 6 11 5.82 0.00
 -7 6 11 1.32 0.00
 -4 6 11 2.76 0.00
 -1 6 11 3.03 0.00
 2 6 11 5.09 0.00
 5 6 11 5.55 0.00
 -12 7 11 6.94 0.00
 -9 7 11 2.93 0.00
 -6 7 11 3.02 0.00
 -3 7 11 4.02 0.00
 0 7 11 1.73 0.00
 3 7 11 4.68 0.00
 6 7 11 5.03 0.00
 -14 8 11 7.98 0.00
 -11 8 11 5.24 0.00
 -8 8 11 2.18 0.00
 -5 8 11 6.61 0.00
 -2 8 11 1.59 0.00
 1 8 11 1.71 0.00
 4 8 11 4.00 0.00
 7 8 11 6.47 0.00
 -16 9 11 8.85 0.00
 -13 9 11 7.32 0.00
 -10 9 11 0.83 0.00
 -7 9 11 5.99 0.00
 -4 9 11 5.92 0.00
 -1 9 11 -0.26 0.00
 2 9 11 2.31 0.00
 5 9 11 4.73 0.00
 -18 10 11 7.85 0.00
 -15 10 11 8.34 0.00
 -12 10 11 0.04 0.00
 -9 10 11 0.38 0.00
 -6 10 11 8.36 0.00
 -3 10 11 2.55 0.00
 0 10 11 -0.33 0.00
 3 10 11 2.61 0.00
 -20 11 11 4.88 0.00
 -14 11 11 0.45 0.00
 -11 11 11 -7.03 0.00
 -8 11 11 3.10 0.00
 -5 11 11 6.09 0.00
 -2 11 11 -0.04 0.00
 1 11 11 -1.53 0.00
 4 11 11 4.59 0.00
 10 11 11 4.27 0.00
 -19 12 11 3.58 0.00
 -13 12 11 -11.21 0.00
 -10 12 11 -7.85 0.00
 -7 12 11 3.16 0.00
 -4 12 11 2.18 0.00
 -1 12 11 -4.24 0.00
 2 12 11 -2.45 0.00
 8 12 11 5.80 0.00
 -21 13 11 0.94 0.00
 -12 13 11 -16.59 0.00
 -9 13 11 -6.61 0.00
 -6 13 11 0.24 0.00
 -3 13 11 -3.83 0.00
 0 13 11 -10.06 0.00
 6 13 11 6.37 0.00
 -20 14 11 -1.87 0.00
 -11 14 11 -15.61 0.00
 -8 14 11 -7.58 0.00
 -5 14 11 -4.79 0.00
 -2 14 11 -13.40 0.00
 4 14 11 2.60 0.00
 7 14 11 2.16 0.00
 -19 15 11 -6.80 0.00
 -16 15 11 -14.42 0.00
 -13 15 11 -16.69 0.00
 -10 15 11 -15.06 0.00
 -7 15 11 -10.19 0.00
 2 15 11 -6.47 0.00
 5 15 11 2.06 0.00
 -18 16 11 -10.55 0.00
 -15 16 11 -11.49 0.00
 -9 16 11 -16.12 0.00
 -6 16 11 -15.69 0.00
 -3 16 11 -23.01 0.00
 0 16 11 -16.13 0.00
 3 16 11 -1.63 0.00
 -20 17 11 -5.92 0.00
 -17 17 11 -7.10 0.00
 -14 17 11 -6.95 0.00
 -8 17 11 -17.83 0.00
 1 17 11 -7.26 0.00
 -19 18 11 -5.31 0.00
 -16 18 11 0.10 0.00
 -13 18 11 -8.41 0.00
 -1 18 11 -11.50 0.00
 -18 19 11 0.61 0.00
 -15 19 11 1.04 0.00
 -12 19 11 -11.70 0.00
 -9 19 11 -16.68 0.00
 -6 19 11 -22.72 0.00
 -3 19 11 -14.17 0.00
 -17 20 11 4.47 0.00
 -14 20 11 -3.97 0.00
 -11 20 11 -10.92 0.00
 -8 20 11 -16.22 0.00
 -5 20 11 -15.25 0.00
 -13 21 11 -5.94 0.00
 -10 21 11 -7.96 0.00
 -7 21 11 -12.06 0.00
 0 0 12 -15.22 0.00
 1 1 12 -11.19 0.00
 -1 2 12 -10.45 0.00
 2 2 12 -3.70 0.00
 -3 3 12 -4.09 0.00
 0 3 12 -4.84 0.00
 3 3 12 0.32 0.00
 -5 4 12 0.13 0.00
 -2 4 12 -1.22 0.00
 1 4 12 0.24 0.00
 4 4 12 -0.79 0.00
 -7 5 12 -0.95 0.00
 -4 5 12 2.02 0.00
 -1 5 12 1.36 0.00
 2 5 12 1.51 0.00
 5 5 12 -4.14 0.00
 -9 6 12 -4.92 0.00
 -6 6 12 0.95 0.00
 -3 6 12 2.43 0.00
 0 6 12 1.89 0.00
 3 6 12 -0.99 0.00
 6 6 12 -5.27 0.00
 -11 7 12 -7.57 0.00
 -8 7 12 -3.09 0.00
 -5 7 12 1.33 0.00
 -2 7 12 1.00 0.00
 1 7 12 0.02 0.00
 4 7 12 -4.30 0.00
 7 7 12 -2.53 0.00
 -13 8 12 -6.09 0.00
 -10 8 12 -6.74 0.00
 -7 8 12 -0.98 0.00
 -4 8 12 -1.01 0.00
 -1 8 12 -0.55 0.00
 2 8 12 -4.06 0.00
 5 8 12 -4.12 0.00
 8 8 12 0.49 0.00
 -15 9 12 -2.03 0.00
 -12 9 12 -7.36 0.00
 -9 9 12 -2.71 0.00
 -6 9 12 -2.28 0.00
 -3 9 12 -2.34 0.00
 0 9 12 -3.37 0.00
 3 9 12 -6.79 0.00
 6 9 12 -0.48 0.00
 -14 10 12 -4.56 0.00
 -11 10 12 -3.52 0.00
 -8 10 12 -1.15 0.00
 -5 10 12 -3.87 0.00
 -2 10 12 -2.35 0.00
 1 10 12 -7.47 0.00
 4 10 12 -4.34 0.00
 -13 11 12 -3.27 0.00
 -10 11 12 0.80 0.00
 -7 11 12 -2.70 0.00
 -4 11 12 -2.17 0.00
 -1 11 12 -4.60 0.00
 2 11 12 -8.04 0.00
 -15 12 12 -2.09 0.00
 -12 12 12 1.14 0.00
 -9 12 12 0.66 0.00
 -6 12 12 -2.04 0.00
 -3 12 12 -0.94 0.00
 0 12 12 -7.36 0.00
 3 12 12 -3.32 0.00
 -14 13 12 -0.11 0.00
 -11 13 12 2.81 0.00
 -8 13 12 -0.64 0.00
 -5 13 12 0.69 0.00
 -2 13 12 -3.10 0.00
 1 13 12 -5.54 0.00
 -13 14 12 2.05 0.00
 -10 14 12 0.98 0.00
 -7 14 12 0.70 0.00
 -4 14 12 0.41 0.00
 -1 14 12 -4.08 0.00
 -12 15 12 1.08 0.00
 -9 15 12 0.34 0.00
 -6 15 12 1.25 0.00
 -3 15 12 -1.72 0.00
 -8 16 12 0.76 0.00
 0 0 0 0.00 0.00
# SQUEEZE RESULTS (Version = 91117)
# Note: Data are Listed for all Voids in the P1 Unit Cell
# i.e. Centre of Gravity, Solvent Accessible Volume,
# Recovered number of Electrons in the Void and
# Details about the Squeezed Material
;
_platon_squeeze_void_probe_radius 1.20
_olex2_submission_special_instructions 'No special instructions were received'
_oxdiff_exptl_absorpt_empirical_details
;
Empirical correction (ABSPACK) includes:
- Absorption correction using spherical harmonics
- Frame scaling
;
_oxdiff_exptl_absorpt_empirical_full_max 1.449
_oxdiff_exptl_absorpt_empirical_full_min 0.649
loop_
_space_group_symop_operation_xyz
'x, y, z'
'-y, x-y, z'
'-x+y, -x, z'
'x+2/3, y+1/3, z+1/3'
'-y+2/3, x-y+1/3, z+1/3'
'-x+y+2/3, -x+1/3, z+1/3'
'x+1/3, y+2/3, z+2/3'
'-y+1/3, x-y+2/3, z+2/3'
'-x+y+1/3, -x+2/3, z+2/3'
'-x, -y, -z'
'y, -x+y, -z'
'x-y, x, -z'
'-x+2/3, -y+1/3, -z+1/3'
'y+2/3, -x+y+1/3, -z+1/3'
'x-y+2/3, x+1/3, -z+1/3'
'-x+1/3, -y+2/3, -z+2/3'
'y+1/3, -x+y+2/3, -z+2/3'
'x-y+1/3, x+2/3, -z+2/3'
loop_
_atom_site_label
_atom_site_type_symbol
_atom_site_fract_x
_atom_site_fract_y
_atom_site_fract_z
_atom_site_U_iso_or_equiv
_atom_site_adp_type
_atom_site_occupancy
_atom_site_site_symmetry_order
_atom_site_calc_flag
_atom_site_refinement_flags_posn
_atom_site_refinement_flags_adp
_atom_site_refinement_flags_occupancy
_atom_site_disorder_assembly
_atom_site_disorder_group
Pt1 Pt 0.32507(2) 0.34713(2) 0.53948(5) 0.04092(19) Uani 1 1 d . . . . .
O1 O 0.3240(3) 0.2777(3) 0.5337(8) 0.0417(19) Uani 1 1 d . . . . .
O2 O 0.3762(3) 0.2451(3) 0.5420(10) 0.052(2) Uani 1 1 d . . . . .
N3 N 0.4018(4) 0.3724(4) 0.5369(10) 0.043(2) Uani 1 1 d . . . . .
N1 N 0.2504(4) 0.3183(4) 0.5331(10) 0.037(2) Uani 1 1 d . . . . .
N2 N 0.1831(5) 0.3259(5) 0.4961(11) 0.052(3) Uani 1 1 d . . . . .
H2 H 0.165240 0.340141 0.481114 0.063 Uiso 1 1 calc R . . . .
C9 C 0.2028(5) 0.2227(5) 0.5528(13) 0.050(3) Uani 1 1 d . . . . .
H9 H 0.230816 0.219236 0.571746 0.060 Uiso 1 1 calc R . . . .
C18 C 0.4109(4) 0.3341(5) 0.5509(12) 0.039(3) Uani 1 1 d . . . . .
C7 C 0.2334(5) 0.3498(5) 0.5129(13) 0.044(3) Uani 1 1 d . . . . .
C13 C 0.1649(6) 0.2744(6) 0.5072(14) 0.054(3) Uani 1 1 d . . . . .
C1 C 0.3204(6) 0.4115(6) 0.5455(14) 0.056(4) Uani 1 1 d . . . . .
C12 C 0.1166(5) 0.2332(6) 0.4994(16) 0.057(4) Uani 1 1 d . . . . .
H12 H 0.088606 0.237107 0.483625 0.068 Uiso 1 1 calc R . . . .
C17 C 0.4604(5) 0.3435(5) 0.5552(14) 0.049(3) Uani 1 1 d . . . . .
H17 H 0.466747 0.316780 0.566476 0.059 Uiso 1 1 calc R . . . .
C14 C 0.4394(5) 0.4194(5) 0.5194(16) 0.055(4) Uani 1 1 d . . . . .
H14 H 0.431967 0.445181 0.504330 0.066 Uiso 1 1 calc R . . . .
C5 C 0.2592(6) 0.4425(6) 0.5097(15) 0.057(4) Uani 1 1 d . . . . .
H5 H 0.226542 0.435954 0.489974 0.069 Uiso 1 1 calc R . . . .
C8 C 0.2083(5) 0.2700(5) 0.5308(12) 0.041(3) Uani 1 1 d . . . . .
C6 C 0.2716(5) 0.4041(5) 0.5163(13) 0.047(3) Uani 1 1 d . . . . .
C19 C 0.3663(5) 0.2804(4) 0.5428(11) 0.038(3) Uani 1 1 d . . . . .
C16 C 0.4995(6) 0.3918(6) 0.5427(15) 0.056(4) Uani 1 1 d . . . . .
H16 H 0.532887 0.398597 0.547258 0.067 Uiso 1 1 calc R . . . .
C3 C 0.3466(7) 0.5010(6) 0.5697(16) 0.069(5) Uani 1 1 d . . . . .
H3 H 0.372008 0.533706 0.591812 0.083 Uiso 1 1 calc R . . . .
C10 C 0.1543(6) 0.1803(6) 0.5459(17) 0.066(4) Uani 1 1 d . . . . .
H10 H 0.150026 0.148203 0.561076 0.079 Uiso 1 1 calc R . . . .
C2 C 0.3568(6) 0.4608(5) 0.5721(15) 0.057(4) Uani 1 1 d . . . . .
H2A H 0.389477 0.467871 0.592559 0.068 Uiso 1 1 calc R . . . .
C11 C 0.1114(6) 0.1850(7) 0.5164(18) 0.069(4) Uani 1 1 d . . . . .
H11 H 0.079595 0.156097 0.508288 0.083 Uiso 1 1 calc R . . . .
C4 C 0.2999(7) 0.4923(6) 0.5353(16) 0.066(4) Uani 1 1 d . . . . .
H4 H 0.294262 0.519580 0.528194 0.079 Uiso 1 1 calc R . . . .
C15 C 0.4892(6) 0.4310(5) 0.5229(16) 0.063(4) Uani 1 1 d . . . . .
H15 H 0.515448 0.464312 0.512359 0.076 Uiso 1 1 calc R . . . .
loop_
_atom_site_aniso_label
_atom_site_aniso_U_11
_atom_site_aniso_U_22
_atom_site_aniso_U_33
_atom_site_aniso_U_23
_atom_site_aniso_U_13
_atom_site_aniso_U_12
Pt1 0.0440(3) 0.0394(3) 0.0415(3) -0.0002(2) -0.0026(2) 0.0224(2)
O1 0.040(5) 0.032(4) 0.049(5) 0.001(4) -0.001(4) 0.015(4)
O2 0.052(5) 0.034(5) 0.076(7) -0.002(4) -0.008(5) 0.025(4)
N3 0.035(5) 0.045(6) 0.046(6) 0.001(5) 0.000(4) 0.017(5)
N1 0.031(5) 0.049(6) 0.041(6) 0.003(4) 0.004(4) 0.027(5)
N2 0.059(7) 0.068(8) 0.048(7) -0.001(6) 0.000(5) 0.045(6)
C9 0.037(7) 0.050(8) 0.051(8) 0.000(6) 0.003(6) 0.013(6)
C18 0.036(6) 0.044(7) 0.037(7) 0.009(5) -0.003(5) 0.021(5)
C7 0.035(6) 0.058(8) 0.043(7) -0.016(6) -0.005(5) 0.026(6)
C13 0.054(8) 0.074(10) 0.048(8) -0.001(7) 0.006(6) 0.042(8)
C1 0.080(10) 0.065(9) 0.041(8) 0.001(6) 0.003(7) 0.051(8)
C12 0.042(7) 0.062(9) 0.071(10) 0.015(7) 0.012(7) 0.029(7)
C17 0.053(8) 0.039(7) 0.053(8) 0.004(6) -0.005(6) 0.022(6)
C14 0.039(7) 0.031(6) 0.080(10) 0.003(6) 0.003(7) 0.008(6)
C5 0.062(9) 0.062(9) 0.055(9) 0.006(7) 0.004(7) 0.036(8)
C8 0.039(6) 0.046(7) 0.036(7) -0.003(5) -0.002(5) 0.019(6)
C6 0.062(8) 0.057(8) 0.044(8) 0.001(6) -0.001(6) 0.046(7)
C19 0.044(7) 0.032(6) 0.028(6) 0.000(4) -0.001(5) 0.012(5)
C16 0.050(8) 0.059(9) 0.062(10) -0.008(7) -0.011(7) 0.029(7)
C3 0.094(13) 0.046(8) 0.058(10) -0.008(7) 0.005(9) 0.028(9)
C10 0.060(9) 0.064(10) 0.079(11) -0.001(8) -0.003(8) 0.035(8)
C2 0.072(10) 0.031(7) 0.067(10) 0.002(6) 0.002(7) 0.026(7)
C11 0.052(9) 0.066(10) 0.090(12) 0.008(9) 0.000(8) 0.029(8)
C4 0.091(13) 0.056(9) 0.065(10) 0.009(7) 0.010(9) 0.048(9)
C15 0.065(10) 0.036(7) 0.070(10) -0.005(7) -0.004(8) 0.011(7)
loop_
_atom_type_symbol
_atom_type_description
_atom_type_scat_dispersion_real
_atom_type_scat_dispersion_imag
_atom_type_scat_source
C C 0.0181 0.0091 'International Tables Vol C Tables 4.2.6.8 and 6.1.1.4'
H H 0.0000 0.0000 'International Tables Vol C Tables 4.2.6.8 and 6.1.1.4'
N N 0.0311 0.0180 'International Tables Vol C Tables 4.2.6.8 and 6.1.1.4'
O O 0.0492 0.0322 'International Tables Vol C Tables 4.2.6.8 and 6.1.1.4'
Pt Pt -4.5932 6.9264 'International Tables Vol C Tables 4.2.6.8 and 6.1.1.4'
loop_
_geom_angle_atom_site_label_1
_geom_angle_atom_site_label_2
_geom_angle_atom_site_label_3
_geom_angle
_geom_angle_site_symmetry_1
_geom_angle_site_symmetry_3
_geom_angle_publ_flag
N3 Pt1 O1 79.6(4) . . ?
N1 Pt1 O1 96.6(4) . . ?
N1 Pt1 N3 175.5(4) . . ?
N1 Pt1 C1 79.1(6) . . ?
C1 Pt1 O1 175.8(5) . . ?
C1 Pt1 N3 104.6(5) . . ?
C19 O1 Pt1 115.7(7) . . ?
C18 N3 Pt1 111.4(8) . . ?
C14 N3 Pt1 127.7(10) . . ?
C14 N3 C18 120.9(11) . . ?
C7 N1 Pt1 117.6(8) . . ?
C7 N1 C8 106.3(10) . . ?
C8 N1 Pt1 135.7(8) . . ?
C7 N2 H2 126.1 . . ?
C7 N2 C13 107.8(11) . . ?
C13 N2 H2 126.1 . . ?
C8 C9 H9 120.7 . . ?
C8 C9 C10 118.6(14) . . ?
C10 C9 H9 120.7 . . ?
N3 C18 C17 120.2(11) . . ?
N3 C18 C19 118.2(10) . . ?
C17 C18 C19 121.0(11) . . ?
N1 C7 N2 112.6(12) . . ?
N1 C7 C6 116.1(10) . . ?
N2 C7 C6 131.2(12) . . ?
N2 C13 C8 105.0(13) . . ?
C12 C13 N2 131.8(13) . . ?
C12 C13 C8 123.2(14) . . ?
C6 C1 Pt1 114.4(11) . . ?
C2 C1 Pt1 130.7(12) . . ?
C2 C1 C6 114.9(13) . . ?
C13 C12 H12 121.5 . . ?
C13 C12 C11 117.0(14) . . ?
C11 C12 H12 121.5 . . ?
C18 C17 H17 120.2 . . ?
C16 C17 C18 119.5(13) . . ?
C16 C17 H17 120.2 . . ?
N3 C14 H14 119.3 . . ?
N3 C14 C15 121.4(14) . . ?
C15 C14 H14 119.3 . . ?
C6 C5 H5 122.4 . . ?
C6 C5 C4 115.2(14) . . ?
C4 C5 H5 122.4 . . ?
N1 C8 C13 108.3(12) . . ?
C9 C8 N1 132.1(12) . . ?
C9 C8 C13 119.5(13) . . ?
C1 C6 C7 111.0(11) . . ?
C5 C6 C7 123.2(13) . . ?
C5 C6 C1 125.2(14) . . ?
O1 C19 C18 114.2(10) . . ?
O2 C19 O1 128.5(11) . . ?
O2 C19 C18 117.2(11) . . ?
C17 C16 H16 120.3 . . ?
C17 C16 C15 119.4(14) . . ?
C15 C16 H16 120.3 . . ?
C2 C3 H3 120.0 . . ?
C4 C3 H3 120.0 . . ?
C4 C3 C2 120.0(16) . . ?
C9 C10 H10 119.4 . . ?
C9 C10 C11 121.3(16) . . ?
C11 C10 H10 119.4 . . ?
C1 C2 C3 122.8(16) . . ?
C1 C2 H2A 118.6 . . ?
C3 C2 H2A 118.6 . . ?
C12 C11 C10 120.3(16) . . ?
C12 C11 H11 119.9 . . ?
C10 C11 H11 119.9 . . ?
C5 C4 H4 119.1 . . ?
C3 C4 C5 121.8(15) . . ?
C3 C4 H4 119.1 . . ?
C14 C15 C16 118.4(13) . . ?
C14 C15 H15 120.8 . . ?
C16 C15 H15 120.8 . . ?
loop_
_geom_bond_atom_site_label_1
_geom_bond_atom_site_label_2
_geom_bond_distance
_geom_bond_site_symmetry_2
_geom_bond_publ_flag
Pt1 O1 2.096(8) . ?
Pt1 N3 2.058(10) . ?
Pt1 N1 1.984(9) . ?
Pt1 C1 2.032(14) . ?
O1 C19 1.252(15) . ?
O2 C19 1.252(14) . ?
N3 C18 1.330(16) . ?
N3 C14 1.322(16) . ?
N1 C7 1.310(16) . ?
N1 C8 1.384(16) . ?
N2 H2 0.8600 . ?
N2 C7 1.336(16) . ?
N2 C13 1.382(19) . ?
C9 H9 0.9300 . ?
C9 C8 1.378(19) . ?
C9 C10 1.39(2) . ?
C18 C17 1.387(18) . ?
C18 C19 1.515(16) . ?
C7 C6 1.469(19) . ?
C13 C12 1.38(2) . ?
C13 C8 1.411(18) . ?
C1 C6 1.42(2) . ?
C1 C2 1.37(2) . ?
C12 H12 0.9300 . ?
C12 C11 1.40(2) . ?
C17 H17 0.9300 . ?
C17 C16 1.36(2) . ?
C14 H14 0.9300 . ?
C14 C15 1.37(2) . ?
C5 H5 0.9300 . ?
C5 C6 1.397(19) . ?
C5 C4 1.42(2) . ?
C16 H16 0.9300 . ?
C16 C15 1.39(2) . ?
C3 H3 0.9300 . ?
C3 C2 1.40(2) . ?
C3 C4 1.35(2) . ?
C10 H10 0.9300 . ?
C10 C11 1.41(2) . ?
C2 H2A 0.9300 . ?
C11 H11 0.9300 . ?
C4 H4 0.9300 . ?
C15 H15 0.9300 . ?
loop_
_platon_squeeze_void_nr
_platon_squeeze_void_average_x
_platon_squeeze_void_average_y
_platon_squeeze_void_average_z
_platon_squeeze_void_volume
_platon_squeeze_void_count_electrons
_platon_squeeze_void_content
1 0.000 0.000 -0.006 472 157 ' '
2 0.333 0.667 0.913 468 156 ' '
3 0.667 0.333 0.580 469 156 ' '
loop_
_refln_index_h
_refln_index_k
_refln_index_l
_refln_F_squared_meas
_refln_F_squared_sigma
0 0 3 9999 725.71
0 0 6 166.52 18.76
0 0 6 146.94 13.41
0 0 9 159.94 23.29
0 1 2 24.49 5.62
-1 0 2 26.34 5.86
-1 0 2 17.19 3.69
0 1 5 28.95 10.28
0 1 5 25.09 5
0 1 8 15.72 8.64
0 1 8 8.32 7.2
1 -1 8 6.38 7.13
1 -1 8 23.71 8.06
-1 0 8 1.59 6.74
0 1 8 11.31 12.35
-1 1 1 2.81 2.73
0 -1 1 1.53 2.46
1 0 1 3.19 3.18
1 0 4 4.16 7.7
-1 1 4 3.94 7.53
1 0 7 -16.51 11.1
-1 1 7 4.78 11.24
1 0 7 4.61 5.87
0 -1 7 -5.93 5.24
1 0 7 4.03 5.13
1 0 7 5.74 5.81
-1 1 7 6.57 5.99
-1 1 7 -1.2 4.93
1 1 0 1180.6 85.7
-2 1 3 350.31 24.67
-2 1 3 288.84 22.2
-2 1 6 1236.11 92.86
1 1 6 1270.33 92.84
1 1 6 1322.55 97.36
-2 1 9 576.18 43.22
1 1 9 496.04 49.09
-2 1 9 543.84 50.38
-3 1 2 104.71 10.57
1 2 5 9.96 9.61
-3 1 5 20.06 9.38
1 2 5 9.95 4.46
-3 1 8 15.62 7.09
1 2 8 1.39 11.77
1 2 8 -7.51 6.7
1 2 8 8.89 7.59
2 -3 8 -2.68 7.14
0 2 1 6.48 2.68
0 2 7 1.31 5.48
2 -2 7 0.96 4.93
0 2 7 8.39 5.11
0 2 7 -1.18 10.8
2 -1 0 1161.65 84.56
2 -1 3 6220.37 436.32
-1 -1 3 5874.76 435.14
-1 2 3 6043.34 436.12
2 -1 6 1800.68 136.5
-1 2 6 1950.91 140.62
-1 2 6 1878.62 136.52
2 -1 6 1975.03 140.72
2 -1 9 74.65 16.73
-1 2 9 40.42 15.61
0 -2 -1 4.46 2.09
0 -2 2 50.76 7.23
-2 2 2 62.22 7.72
2 0 2 68.43 7.99
2 0 5 52.51 6.39
2 0 5 58.27 11.63
-2 2 5 53.69 10.8
-2 2 8 21.93 7.38
-2 2 8 11.53 12.75
2 0 8 18.81 7.84
2 0 8 -6.98 12.22
2 1 1 144.26 10.84
1 -3 1 118.54 10.5
2 1 4 10.64 8.66
-3 2 4 9.15 7.22
1 -3 4 8.33 8.21
2 1 7 4.04 5.77
-3 2 7 8.71 5.93
2 1 7 -1.25 4.9
-3 2 7 -4.81 11.28
1 -3 7 8.28 10.79
2 1 7 5.86 10.39
1 -3 7 1.72 6
2 1 7 2.65 5.47
1 -3 7 9.38 5.58
2 -4 -9 392.61 30.89
2 2 0 442.86 35.22
2 -4 0 516.83 35.23
2 -4 3 826.09 65.11
2 2 3 884.54 65.27
-4 2 3 890.62 65.27
2 2 6 386.85 31.3
2 -4 6 332.28 26.43
2 2 6 339.94 26.4
2 -4 6 328.02 30.55
-4 2 6 333 30.37
-4 2 9 14.13 7.66
2 2 9 -4.47 13.73
-4 2 9 -9.63 13.8
2 -4 9 -1.51 13.1
2 2 9 19.24 6.93
2 3 2 24.32 7.13
3 -5 2 22.06 7.25
-5 2 2 21.73 8.21
2 3 5 17.66 5.25
3 -5 5 15.71 5.45
-5 2 5 11.56 10.42
3 -5 5 38.94 10.98
2 3 5 28.35 10.83
2 3 8 1.37 11.81
-5 2 8 9.78 7.12
3 -5 8 17.94 12.13
2 3 8 15.64 7.45
1 3 1 264.84 20.35
3 -4 1 270.19 20.6
3 -4 4 139.84 10.98
-4 1 4 116.36 11.12
1 3 4 133.46 14.43
3 -4 4 147.01 14.54
3 -4 7 25.86 6.17
3 -4 7 20.08 6.74
1 3 7 23.98 6.59
3 -4 7 14.03 11.01
1 3 7 36.16 6.66
1 3 7 25.61 5.76
3 -4 7 25.11 6.7
1 3 7 23.51 11.26
0 3 3 945.14 67.2
-3 0 3 871.24 66.06
0 3 6 12.17 10.35
0 3 6 4.66 4.99
0 3 9 130.5 20.54
-2 -1 2 195.72 15.95
-1 3 2 193.84 15.99
-1 3 5 46.61 6.15
-1 3 8 -0.69 7.95
-1 3 8 6.3 6.93
-1 3 8 -1.42 11.52
3 -2 8 10.66 7.73
-2 3 1 59 5.96
3 -1 1 69.81 6.49
-1 -2 1 53.7 5.7
3 -1 4 6.39 3.74
-2 3 4 7.52 7
3 -1 4 2.7 8.31
-2 3 7 4.36 5.02
-2 3 7 -5.96 11.12
3 -1 7 -1.36 5.68
3 -1 7 4.69 10.55
-1 -2 7 -4.82 11.39
3 -1 7 11.35 5.86
3 -1 7 0.64 5.14
-2 3 7 -4.29 5.67
0 -3 0 3168.5 217.99
3 0 0 2857.95 217.86
3 0 3 938.88 69.63
0 -3 3 903.95 69.19
-3 3 3 940.39 69.45
3 0 6 36.51 11.42
3 0 6 8.99 5.12
-3 3 6 13.9 5.57
0 -3 6 14.37 5.36
0 -3 6 15.97 10.84
-3 3 9 175.49 14.89
0 -3 9 120.05 20.64
3 0 9 147.11 14.44
3 0 9 97.72 19.49
-3 3 9 140.12 21.98
1 -4 -7 9.86 5.99
1 -4 -1 130.18 11.07
1 -4 2 71.16 9.67
3 1 2 78.91 9.15
-4 3 2 72.14 9.14
3 1 5 31.9 10.77
-4 3 5 26.05 10.52
1 -4 5 26 5.35
3 1 5 22.67 5.39
1 -4 5 22.06 10.56
1 -4 8 -13.56 6.93
-4 3 8 4.41 6.75
3 1 8 -2.42 8.27
-4 3 8 16.14 12.8
1 -4 8 -5.6 12.09
3 1 8 27.54 12.49
3 1 8 1.11 7.29
2 -5 1 204.93 15.78
3 2 1 198.57 16.13
2 -5 4 257.82 17.44
-5 3 4 270.57 20.99
3 2 4 244.94 17.43
3 2 4 281.23 21.1
2 -5 4 281.71 20.89
3 2 7 106.64 11.92
3 2 7 120.83 11.64
-5 3 7 127.54 12.35
2 -5 7 130.35 17.95
2 -5 7 117.14 12.24
2 -5 7 143.06 12.37
3 2 7 141.03 18.17
3 -6 -9 82.2 9.87
3 -6 0 1706.93 120.17
3 3 0 1665.73 120.22
3 3 0 1581.46 120.16
3 -6 3 547.13 42.6
3 3 3 571.39 42.77
-6 3 3 541.17 43.05
3 3 6 20.06 5.53
3 -6 6 29.93 11.14
3 -6 6 25.63 5.77
3 3 6 17.91 10.12
-6 3 6 37.44 10.58
-6 3 9 50.87 8.94
3 -6 9 27.87 13.18
3 3 9 28.96 13.69
-6 3 9 66.48 15.71
3 3 9 42.47 7.95
4 -7 -10 13.92 5.54
4 -7 -7 52.91 8.14
4 -7 -7 68.43 9.18
4 -7 2 87.3 9.33
3 4 2 87.86 9.61
4 -7 5 35.24 5.27
3 4 5 38.96 10.04
3 4 5 34.08 5.25
4 -7 5 20.25 8.82
-7 3 5 33.3 9.49
3 4 8 20.35 9.38
3 4 8 9.42 12.26
-7 3 8 17.52 7.25
-7 3 8 4.52 12.79
4 -7 8 14.88 11.91
2 4 1 111.65 9.82
4 -6 1 120.3 10.21
4 -6 4 11.97 10.58
-6 2 4 36.55 7.6
4 -6 4 15.74 5.33
2 4 4 11.32 5.11
2 4 4 3.82 9.89
2 4 7 34.85 12.13
4 -6 7 34.23 7.45
2 4 7 23.48 6.64
4 -6 7 25.57 12.31
2 4 7 29.4 6.1
4 -6 7 28.38 6.74
2 4 7 35.1 6.98
4 -5 0 155.64 12.7
4 -5 3 94.61 11.25
1 4 3 103.89 11.28
1 4 6 380.15 33.45
1 4 6 377.77 28.93
4 -5 6 363.08 28.93
4 -5 6 395.74 33.68
1 4 9 226.07 17.95
1 4 9 183.67 24.13
4 -5 9 153.98 23.42
0 4 2 17.17 5.08
0 4 5 33.24 6.14
0 4 5 44.25 12.04
4 -4 8 39.51 9.13
0 4 8 11.15 11.83
0 4 8 33.39 8.06
0 4 8 35.99 7.81
-1 4 1 115.93 9.44
-1 4 4 43.8 8.49
-3 -1 4 43.86 6.96
-3 -1 7 -3.64 11.12
4 -3 7 -0.66 5.35
-1 4 7 -9.55 11.28
-1 4 7 -1.97 5.64
-1 4 7 -1.45 4.85
4 -2 0 505.46 37.72
-2 4 3 12.65 6.59
-2 -2 3 16.73 6.71
-2 -2 3 11.12 6.51
4 -2 3 11.9 7.42
-2 4 6 662.5 51.17
4 -2 6 701.12 55.52
-2 4 6 777.05 56
-2 -2 6 740.55 55.97
-2 -2 6 681.43 51.27
4 -2 6 670.95 51.24
-2 -2 9 427.19 43.12
-2 -2 9 512.22 37.15
4 -2 9 459.29 36.65
4 -2 9 383.89 42.29
-2 4 9 382.61 42.35
-2 4 9 505.12 36.97
-1 -3 -7 18.72 6.25
4 -1 2 210.12 17.64
-1 -3 2 185.87 17.55
-1 -3 2 205.26 16.92
-3 4 2 232.45 17.42
4 -1 5 22.43 5.4
-3 4 5 34.46 10.41
-1 -3 5 21.34 5.31
4 -1 5 19.65 10.9
4 -1 8 15.17 11.41
4 -1 8 5.34 7.45
4 -1 8 10.21 8.73
-3 4 8 9.9 6.67
-1 -3 8 -1.43 11.91
-1 -3 8 6.79 6.64
-3 4 8 2.9 11.86
0 -4 -8 32.06 6.63
0 -4 -2 23.18 4.42
4 0 1 262.12 19.49
4 0 1 236.25 19.34
0 -4 1 242.46 18.56
4 0 4 141.22 15.81
4 0 4 147.98 12.01
-4 4 4 144.45 15.18
4 0 7 36.53 6.54
0 -4 7 32.29 6.92
-4 4 7 42.56 12.91
-4 4 7 30.79 6.78
0 -4 7 40.57 13.03
4 0 7 43.16 12.71
4 0 7 29.3 6.81
1 -5 -9 52.66 7.69
1 -5 0 177.11 14.19
4 1 0 150.95 13.37
4 1 3 50.17 8.76
1 -5 3 34.05 7.87
-5 4 3 29.55 8.16
1 -5 6 229.78 19.9
-5 4 6 283.86 24.75
1 -5 6 269.75 24.84
4 1 6 268.46 24.67
-5 4 9 173.69 15.76
-5 4 9 137.32 21.82
4 1 9 169.19 15.27
4 1 9 139.62 21.07
1 -5 9 141.24 21.4
2 -6 -7 1.2 6.65
2 -6 2 20.71 6.34
4 2 2 30.07 7.04
-6 4 2 23.9 7.55
4 2 5 18.59 4.83
4 2 5 20.64 9.54
2 -6 5 23.98 4.93
2 -6 5 20.18 9.31
-6 4 5 27.37 9.37
2 -6 8 20.58 12.04
-6 4 8 20.05 7.22
4 2 8 32 10.97
4 2 8 9.28 9.18
4 2 8 2.72 11.57
-6 4 8 20.74 13.63
4 3 1 302.01 23.92
3 -7 1 314.33 23.48
-7 4 4 267.36 23.35
4 3 4 291 23.04
3 -7 4 257.93 22.5
3 -7 4 243.84 19.61
3 -7 7 40.64 12.32
-7 4 7 29.17 12.5
4 3 7 39.85 7.38
4 3 7 48.67 7.06
4 3 7 39.55 12.13
3 -7 7 43.17 7.81
-7 4 10 9.45 6.96
4 -8 -9 38.37 7.74
4 4 0 429.29 33.81
4 -8 0 477.2 33.91
4 -8 3 7.37 6.42
-8 4 3 0.51 8.03
4 4 3 3.71 6.54
-8 4 6 202.22 21.03
4 -8 6 194.47 20.36
4 4 6 168.81 20.03
-8 4 9 149.61 14.73
-8 4 9 144.53 22.17
4 4 9 152.84 14.02
4 4 9 128.79 19.26
4 -8 9 127.62 19.59
5 -9 -10 28.73 6.45
5 -9 -7 38.81 8.09
5 -9 -7 14.15 6.6
4 5 2 203.53 16.66
5 -9 2 190.01 16.42
4 5 5 72.87 11.81
5 -9 5 56.78 11.07
-9 4 5 85.84 12.88
4 5 8 9.68 6.67
5 -9 8 -1.32 10.58
4 5 8 -14.35 11.15
-9 4 8 20.08 7.59
3 5 1 95.38 9.19
5 -8 1 113.01 9.85
5 -8 4 57.33 10.44
3 5 4 67.28 10.66
3 5 4 59.68 6.62
3 5 7 131.69 11.79
3 5 7 99.2 11.04
3 5 7 116.47 16.8
5 -8 7 129.37 17.31
5 -8 7 119.78 11.61
5 -8 7 114.89 11.89
5 -7 -9 189.15 17.2
5 -7 0 158.67 12.24
2 5 0 135.8 10.86
2 5 3 771.78 58.22
5 -7 3 768.46 58.28
2 5 6 319.62 25.39
2 5 6 334.96 29.62
5 -7 6 328.06 29.64
5 -7 9 12.93 11.8
2 5 9 18.38 12.2
2 5 9 30.03 7.32
5 -6 -10 18.04 5.85
5 -6 -7 42.7 7.37
5 -6 2 229.75 18.53
1 5 2 207.09 18.06
1 5 5 92.57 8.93
1 5 5 97.22 13.62
5 -6 5 108.29 13.72
5 -6 8 -9.66 10.77
5 -6 8 4.09 11.97
1 5 8 -10.88 12.34
1 5 8 11.22 7.13
5 -5 1 18.27 6.28
5 -5 1 18.65 5.57
0 5 1 16.69 3.86
0 5 4 45.18 10.93
-5 0 4 22.73 7.82
5 -5 4 14.42 9.77
5 -5 7 44.88 7.85
0 5 7 47.07 12.99
0 5 7 45.33 6.53
5 -5 7 38.54 12.6
0 5 7 45.14 7.29
-4 -1 3 1279.72 95.25
-4 -1 3 1309.16 95.8
-1 5 3 1283.77 95.52
-4 -1 6 750.5 60.13
-1 5 6 743.93 56.14
-1 5 6 792.38 60.45
-4 -1 9 60.67 16.64
-4 -1 9 71.09 9.99
-1 5 9 49.32 14.87
-3 -2 -7 128.25 12.45
-3 -2 2 0.77 6.68
-2 5 2 1.4 6.08
-2 5 5 81.28 13.08
-3 -2 5 76.57 13.03
-2 5 8 32.06 7.66
-3 -2 8 29.81 7.51
-2 5 8 25.86 7.77
-3 -2 8 26.35 13.91
-2 5 8 16.97 12.55
5 -3 8 21.18 9.16
5 -2 1 5.41 5.19
-2 -3 1 8.11 4.03
-3 5 1 7.06 4.05
5 -2 1 9.61 5.99
-2 -3 4 11.86 7.07
5 -2 4 36.35 9.15
-2 -3 4 28.12 8
-3 5 4 23.98 8.11
5 -2 7 7.05 5.58
5 -2 7 23.47 11.29
-3 5 7 3.91 4.68
-3 5 7 -4.78 11.69
5 -2 7 14.23 6.16
-3 5 7 8.3 6.04
-2 -3 7 8.48 11.36
-2 -3 7 4.02 5.6
-1 -4 -3 77.44 6.76
-1 -4 0 133.17 11.56
5 -1 0 111.2 11.08
5 -1 3 1037.64 73.82
-4 5 3 1005.28 73.55
-1 -4 3 948.08 73.19
-1 -4 3 951.07 73.41
-1 -4 6 517.88 43.43
5 -1 6 515.07 43.03
-4 5 6 516.75 42.82
-1 -4 6 510.31 38.93
-1 -4 9 -1.53 12.88
-4 5 9 18.69 13.04
5 -1 9 20.62 12.61
5 -1 9 39.4 7.78
-4 5 9 35.29 7.98
0 -5 -7 51.29 8.06
0 -5 -1 14.62 6.08
5 0 2 59.96 9.75
0 -5 2 67.76 8.32
0 -5 2 75.83 11.11
-5 5 2 84.15 10.08
0 -5 5 62.27 12.36
0 -5 5 76.1 7.85
-5 5 5 74.68 11.75
5 0 5 97.58 13.1
-5 5 8 11.67 12.75
5 0 8 15.04 11.91
0 -5 8 30.84 13.22
-5 5 8 31.25 7.93
5 0 8 31.49 9.91
5 0 8 48.04 11.67
0 -5 8 23.04 7.29
1 -6 -8 44.09 7.57
5 1 1 404.9 31.2
5 1 1 421.2 31.15
1 -6 1 400.78 30.22
5 1 4 27.16 9.93
1 -6 4 32.17 9.19
-6 5 4 54.18 10.11
1 -6 4 38.39 5.21
5 1 7 18.04 5.94
-6 5 7 18.18 6.93
5 1 7 22.2 11.56
1 -6 7 13.31 6.32
1 -6 7 12.93 11.11
5 1 7 9.95 6.23
-6 5 10 42.07 8.38
2 -7 -9 219.65 18.87
2 -7 0 263.1 20.28
5 2 0 218.34 18.56
2 -7 3 652.63 52.11
5 2 3 705.31 52.63
-7 5 3 718.8 53.03
5 2 6 337.59 31.64
2 -7 6 360.34 27.68
2 -7 6 343.66 31.89
-7 5 6 381.03 32.6
5 2 9 36.08 7.67
5 2 9 25.51 13.12
2 -7 9 8.65 12.14
-7 5 9 23.5 8.13
-7 5 9 29.01 13.98
3 -8 -7 39.42 7.46
3 -8 -7 47.26 8.24
3 -8 2 25.01 5.72
5 3 2 17.73 6.53
-8 5 5 18.57 8.85
3 -8 5 1.44 7.91
5 3 5 10.51 9.07
3 -8 5 7.26 4.35
5 3 8 19.43 8.49
-8 5 8 31.8 14.01
3 -8 8 -12.02 11.85
5 3 8 1.34 11
5 3 8 8.23 7.21
-8 5 8 10.47 7
4 -9 -8 22.5 7.41
4 -9 -8 19.58 10.42
5 4 1 848.55 66.12
4 -9 1 926.14 65.72
4 -9 4 212.79 19.27
-9 5 4 225.56 21.03
5 4 4 197.33 19.48
5 4 7 4.07 5.74
4 -9 7 -6.86 10.02
5 4 7 16.16 10.13
-9 5 7 8.86 10.53
4 -9 7 -0.72 6.34
-9 5 10 47.55 8.11
5 -10 -9 111.92 12.02
5 -10 -6 187.66 16.82
5 -10 -6 186.59 16.7
5 -10 0 161.06 12.97
5 5 0 147.5 12.92
5 5 3 565.88 44.5
-10 5 3 572.51 45.92
5 -10 3 576.84 44.18
5 5 6 280.41 22.66
-10 5 6 310.1 28.02
5 5 6 263.14 26.3
5 -10 6 275.29 26.48
-10 5 9 19.62 7.62
5 5 9 19.23 6.78
6 -11 -10 6.53 5.47
6 -11 -7 37.21 14.8
6 -11 -7 48.76 12.64
6 -11 2 70.57 8
5 6 2 65.79 8.31
-11 5 5 19.59 10.26
6 -11 5 16.73 8.18
5 6 5 9.04 7.67
-11 5 8 50.69 13.8
5 6 8 38.04 7.72
5 6 8 32.47 11.26
6 -11 8 60.29 13.31
6 -10 1 370.96 29.88
4 6 1 404.85 29.66
6 -10 4 519.98 39.39
4 6 4 461.87 39.08
6 -10 7 97.82 15.59
4 6 7 74.76 14.65
4 6 7 99.45 10.78
6 -10 7 109.59 11.37
6 -9 -9 58.15 9.04
6 -9 -6 6.63 6.06
6 -9 0 864.18 56.71
3 6 0 725.81 55.47
3 6 3 334.47 26.43
6 -9 3 317.18 26.5
6 -9 6 5.63 9.23
3 6 6 8.44 8.99
3 6 9 44.24 7.75
6 -8 -10 19.24 6.27
6 -8 -7 -0.83 5.72
6 -8 2 88.33 9.04
2 6 2 62.41 8
2 6 5 0.73 8.35
6 -8 5 10.34 8.49
2 6 5 3.74 4.18
2 6 8 46.91 9.45
2 6 8 26.36 12.38
6 -8 8 21.39 12.05
6 -8 8 34.72 9.35
6 -7 1 150.5 14.53
6 -7 1 157.39 13.46
1 6 1 149.08 12.17
1 6 4 161.16 15.25
6 -7 4 152.52 15.28
1 6 4 133.51 11.54
6 -7 7 13.96 10.33
1 6 7 17.38 6.15
1 6 7 9.28 10.93
1 6 7 15.33 5.33
6 -7 7 21.42 6.17
6 -7 7 18.47 6.54
6 -6 0 2045.52 149.41
0 6 3 656.9 51.71
6 -6 3 701.23 52.16
-6 0 3 685.78 52.24
-6 0 6 -2.93 9.3
6 -6 6 -0.95 9.26
0 6 6 1.83 4.91
0 6 6 5.68 9.48
-6 0 9 128.66 12.39
6 -6 9 72.17 16.2
0 6 9 91.78 17.45
-6 0 9 93.69 18.18
6 -5 -10 25.13 6.28
-5 -1 2 529.85 41.2
-1 6 2 541.83 40.43
-1 6 5 23.12 9.6
-1 6 5 28.36 4.8
-5 -1 5 18.41 8.92
-5 -1 5 17.06 6.22
-1 6 8 28.95 13.14
-5 -1 8 44.67 14.61
-1 6 8 41.69 7.75
-5 -1 8 45.38 8.58
-1 6 8 55.99 8.16
6 -5 8 27.39 13.44
-4 -2 -5 15.83 4.14
-2 6 1 7.56 3.44
-4 -2 4 17.81 9.35
-4 -2 4 16.68 9.83
-2 6 4 23.32 9.66
-2 6 7 1.39 4.68
-2 6 7 4.26 5.72
-4 -2 7 1.23 11.82
-4 -2 7 0.34 6.16
-2 6 7 -1.2 11.37
-3 -3 -6 16.53 4.72
6 -3 0 1906.49 139.45
6 -3 3 942.79 67.24
-3 6 3 935.55 66.69
-3 -3 3 837.95 66.57
-3 -3 3 855.02 66.57
6 -3 6 20.94 10.56
-3 -3 6 29.24 6.13
-3 6 6 31.79 5.98
-3 -3 9 107.71 18.4
-3 6 9 121.81 12.09
6 -3 9 74.79 16.4
-3 6 9 86.12 17.21
6 -3 9 107.57 11.97
-3 -3 9 107.85 12.17
-2 -4 -7 30.61 7.23
-2 -4 -7 27.52 6.05
-4 6 2 139.18 12.34
6 -2 2 138.07 12.95
-2 -4 2 114.05 11.57
-2 -4 2 133.17 13.53
6 -2 5 35.91 10.59
-4 6 5 36.63 9.4
-2 -4 5 29.32 9.18
-2 -4 5 40.8 5.76
-4 6 8 4.72 6.41
6 -2 8 9.12 10.91
-2 -4 8 0.4 6.49
6 -2 8 4.11 12.09
-2 -4 8 -14.36 12.27
6 -2 8 14.61 10.13
-4 6 8 -18.78 12.28
-1 -5 -8 12.62 5.69
-1 -5 -8 9.62 8.62
-1 -5 -2 243.12 19.57
6 -1 1 81.62 9.42
6 -1 1 91.8 8.93
-1 -5 1 69.11 6.68
6 -1 4 -1.73 8.58
-1 -5 4 9.16 7.71
-5 6 4 10.39 8.05
-1 -5 7 42.48 7.41
6 -1 7 36.09 7.1
6 -1 7 54.96 7.92
6 -1 7 43.45 13.02
-5 6 7 47.48 7.78
-5 6 7 39.31 13.71
-1 -5 7 32.5 13.11
6 0 0 1769.18 134.18
0 -6 0 1921.47 134.66
0 -6 3 502.45 39.38
6 0 3 498.26 38.91
-6 6 3 483.67 38.79
0 -6 6 16.2 10.37
-6 6 6 18.07 9.64
0 -6 6 4.49 5.05
6 0 6 -2.87 9.64
6 0 9 71.86 15.05
-6 6 9 83.47 17.44
6 0 9 83.12 10.28
-6 6 9 96.38 10.77
1 -7 -7 38.53 6.94
1 -7 -7 43.49 8.07
1 -7 -7 33.79 6.92
1 -7 -1 87.5 10.72
-7 6 2 171.12 14.91
6 1 2 190.7 14.86
1 -7 2 201.2 16.65
1 -7 5 40.66 10.36
1 -7 5 39.25 5.41
6 1 5 23.5 9.67
-7 6 5 34.35 9.38
6 1 8 -0.39 7.53
-7 6 8 6.95 6.76
-7 6 8 -2.96 12.19
1 -7 8 21.76 11.99
6 1 8 -2.71 10.88
6 1 8 10.54 8.76
2 -8 -8 73.69 10.32
2 -8 -8 68.68 9.38
2 -8 -8 86.69 11.87
2 -8 1 91 7.75
6 2 1 91.45 10.36
6 2 1 82.23 9.78
2 -8 4 90.46 11.54
-8 6 4 70.59 12.64
2 -8 4 72.78 7.5
6 2 4 58.92 11.71
6 2 7 141.16 13.07
2 -8 7 110.51 17.57
6 2 7 136.78 18.11
-8 6 7 155.03 18.59
6 2 10 63.63 8.95
-8 6 10 55.83 8.95
3 -9 -9 52.56 8.11
3 -9 -6 14.17 6.61
6 3 0 974.89 72.1
-9 6 3 645.91 49.55
6 3 3 641.44 48.93
3 -9 3 624.32 48.4
3 -9 6 17.56 9.64
6 3 6 16.36 9.7
-9 6 6 37.1 10.8
6 3 9 55.82 8.75
-9 6 9 53.12 9.07
4 -10 -10 21.87 5.78
4 -10 -7 71.95 12.86
4 -10 -7 71.75 9.8
4 -10 2 80.87 8.41
6 4 2 83.06 9.47
4 -10 5 72.28 10.84
-10 6 5 62.25 12.03
6 4 5 60.74 11.42
6 4 8 20.7 7.77
6 4 8 19.39 10.28
4 -10 8 23.04 11.59
6 4 8 17.71 6.93
-10 6 8 16.65 7.87
5 -11 -8 69.78 9.83
5 -11 -8 57.04 9.29
5 -11 1 74.72 7.76
6 5 1 71 9.01
-11 6 4 132.12 15.96
6 5 4 132.08 14.39
5 -11 4 132.35 13.81
-11 6 7 245.89 25.18
5 -11 7 212.62 18.72
6 5 7 216.82 19.17
6 5 7 205.26 23.09
5 -11 7 216.1 22.98
6 5 10 75.84 9.28
-11 6 10 99.17 10.39
6 -12 -9 16.52 6.99
6 -12 -6 16.85 6.41
6 -12 -6 14 6.49
6 6 0 438.01 35.8
6 -12 0 517.34 35.95
6 -12 3 311.99 25.28
6 6 3 298.5 25.53
-12 6 3 335.38 27.75
-12 6 6 16.15 10.68
6 6 6 20.65 5.62
6 -12 6 24.55 9.56
6 6 6 21.75 9.17
6 6 6 13.02 6.08
6 -12 6 10.05 5.84
6 6 9 26.14 6.8
-12 6 9 18.81 7.27
7 -13 -10 12.22 5.49
7 -13 -7 157.11 15.28
7 -13 -7 113.48 13.9
7 -13 -7 155.71 16.79
7 -13 2 189.92 15.63
6 7 2 166.47 15.64
7 -13 5 245.6 21.97
-13 6 5 231.61 23.89
6 7 5 217.46 21.78
7 -13 8 67.02 12.73
6 7 8 64.51 12.49
6 7 8 61.58 8.7
-13 6 8 78.32 14.94
7 -12 -8 60.15 9.71
7 -12 -8 54.12 9.6
5 7 1 1001.45 76.96
7 -12 1 1099.56 77.34
5 7 4 195.19 18.11
7 -12 4 194.49 17.99
7 -12 7 3.3 9.08
5 7 7 14.89 11.1
7 -12 7 27.36 10.33
5 7 7 -5.51 9.53
7 -11 -9 26.01 7.68
7 -11 -6 246.2 20.8
7 -11 -6 249.39 20.95
7 -11 0 52.47 7.81
7 -11 3 86.05 9.76
4 7 3 61.97 9.19
4 7 6 142.38 17.02
7 -11 6 135.08 12.64
7 -11 6 136.38 12.34
4 7 6 123.09 12.27
7 -11 6 137.97 16.37
4 7 9 88.78 10.04
7 -10 -10 5.77 5.79
7 -10 -7 133.25 13.69
7 -10 2 97.35 9.93
3 7 2 85.19 9.03
7 -10 5 173.2 17.16
3 7 5 197.75 17.48
7 -10 8 52.13 9.51
3 7 8 48.82 7.94
7 -10 8 49.05 13.05
3 7 8 56.86 13.22
7 -9 1 197.99 17.19
2 7 1 193.15 15.16
7 -9 1 204.68 16.77
2 7 4 4.42 7.06
7 -9 4 8.67 7.64
2 7 4 3.96 3.54
2 7 7 35.29 6.4
7 -9 7 38.21 7.51
7 -9 7 35.87 11.71
7 -9 7 37.63 7.19
2 7 7 35.25 11.73
7 -8 0 423.15 32.57
-8 1 3 53.93 9.63
7 -8 3 50.69 8.72
1 7 3 41.51 8.02
-8 1 6 239.09 24.02
1 7 6 245.02 23.34
1 7 6 224.47 18.76
7 -8 6 235.22 23.34
-8 1 9 101.74 11.68
-8 1 9 97.64 18.19
1 7 9 97.23 10.44
7 -7 -10 -6.73 5.82
0 7 2 18.42 5.43
7 -7 2 15.61 6.32
-7 0 2 16.78 7.07
0 7 5 234.22 18.19
-7 0 5 183.18 19.49
-7 0 5 255.78 22.69
7 -7 5 258.14 22.28
0 7 5 264.27 22.37
0 7 8 148.87 14.78
7 -7 8 144.12 19.92
7 -7 8 148.13 15.6
7 -7 8 178.94 15.12
-7 0 8 119.41 20.6
0 7 8 132.1 19.89
-7 0 8 148.55 14.65
7 -6 1 76.63 9.38
-1 7 1 73.38 6.58
7 -6 1 69.54 11.01
-6 -1 4 -3.61 7.73
7 -6 4 15.79 8.42
-6 -1 4 9.68 7.41
7 -6 7 22.65 6.59
-1 7 7 31.19 5.74
-1 7 7 52.84 13.15
-6 -1 7 33.99 7.43
-1 7 7 39.74 6.67
7 -6 7 22.32 11.02
7 -6 7 39.44 7.7
-2 7 3 65.66 8.93
-5 -2 3 69.51 9.58
-5 -2 3 67.96 10.53
-2 7 6 473.78 37.39
-5 -2 6 414.98 36.87
-2 7 6 416.83 32.61
-5 -2 9 270.94 22.15
-2 7 9 233.55 27.68
-5 -2 9 231.38 28.45
-4 -3 -7 47.91 7.66
-4 -3 2 11.16 5.75
-3 7 2 4.24 4.94
-3 7 5 119.04 12.94
-4 -3 5 98.13 13.04
-3 7 8 120.78 18.83
-3 7 8 123.69 12.51
-4 -3 8 127.87 12.67
-4 -3 8 103.2 19
-3 -4 -8 12.24 8.69
-3 -4 -5 22.2 4.75
-3 -4 1 41.41 5.63
7 -3 1 40.58 7.99
7 -3 1 45.23 9.02
-3 -4 4 29.4 8.69
7 -3 4 27.81 9.59
-4 7 4 37.31 8.57
-3 -4 4 28.65 7.95
-4 7 7 43.37 12.9
7 -3 7 50.26 8.12
-3 -4 7 24.44 12.67
-4 7 7 38.4 6.21
7 -3 7 46.84 7.55
7 -3 7 42.61 12.74
-3 -4 7 50.58 7.59
-4 7 7 57.08 7.78
-2 -5 -6 298.97 23.58
-2 -5 -3 682.76 50.7
-2 -5 0 151.3 15.19
7 -2 0 173.4 14.86
7 -2 3 131.9 14.42
-5 7 3 139.94 13.45
-2 -5 3 129.21 12.91
-2 -5 3 133.71 14.34
7 -2 6 336.17 34.13
-2 -5 6 433.12 35.09
-5 7 6 410.54 34.47
-2 -5 6 390.34 30.11
-5 7 9 187.78 24.21
7 -2 9 187.32 17.97
-2 -5 9 185.16 23.83
7 -2 9 191.7 17.57
-5 7 9 220.52 17.74
7 -2 9 143.96 22.08
-1 -6 -7 11.43 6.47
-1 -6 -7 15.58 5.82
-1 -6 -4 134.52 11.63
-1 -6 -1 150.16 14.61
7 -1 2 15.98 6.84
-6 7 2 5.6 5.64
-1 -6 2 8.56 8.96
-1 -6 2 -2.24 4.2
-1 -6 5 38.3 5.81
-1 -6 5 53.04 10.57
-6 7 5 68.54 10.75
7 -1 5 47.71 10.47
-6 7 8 62.6 9.12
7 -1 8 74.55 10.44
7 -1 8 62.65 14.45
-1 -6 8 30.71 13.61
7 -1 8 65.03 9.68
-6 7 8 59.59 15.01
-1 -6 8 62.69 8.97
0 -7 -8 181.39 18.38
0 -7 -8 164.21 15.28
0 -7 -2 11.53 6.13
0 -7 1 207.08 15.9
7 0 1 230.65 18.25
7 0 1 199.19 17.86
0 -7 4 268.35 24.38
7 0 4 298.15 25
0 -7 4 268.61 21.19
-7 7 4 304.81 25.23
7 0 7 79.64 9.28
0 -7 7 54.14 14.13
-7 7 7 74.4 13.97
7 0 7 82.45 14.48
0 -7 7 68.09 8.89
-7 7 10 5.07 6.48
7 0 10 23.55 6.9
1 -8 -9 11.61 5.71
1 -8 -6 337.28 26.76
1 -8 -3 831.49 61.38
1 -8 0 401.57 31.71
7 1 0 383.96 30.49
7 1 3 46.41 8.6
-8 7 3 39.72 8.83
1 -8 3 36.67 10.74
1 -8 3 24.41 7.16
-8 7 6 229.81 23.09
1 -8 6 222.59 22.67
7 1 6 218.41 22.74
1 -8 6 217.33 18.07
7 1 9 112.99 12.18
-8 7 9 135.95 19.89
-8 7 9 118.67 12.59
7 1 9 98.36 16.9
2 -9 -7 -3.58 6.42
2 -9 -7 12.04 6.26
2 -9 -7 5.23 7.63
2 -9 -1 183.4 17.39
2 -9 2 70.22 7.85
7 2 2 85 9.63
2 -9 2 75.83 13.37
7 2 5 -0.78 8.79
-9 7 5 10.95 8.69
2 -9 5 3.58 8.01
2 -9 5 -0.62 3.83
7 2 8 19.21 7.2
-9 7 8 8.35 7.26
7 2 8 32.95 8.22
7 2 8 14.51 10.91
2 -9 8 -3.91 11.27
3 -10 -8 200.62 17.66
3 -10 -8 179.48 17.04
3 -10 -8 163.17 16.38
3 -10 1 374.13 29.57
7 3 1 368.24 31.08
7 3 4 526.92 42.34
-10 7 4 504.55 42.89
3 -10 4 542.69 41.81
-10 7 7 132.01 18.28
7 3 7 111.51 17.02
3 -10 7 109.88 16.97
7 3 7 129.71 12.94
7 3 10 3.98 6.01
-10 7 10 11.36 6.44
4 -11 -9 4.58 6.3
4 -11 -6 128.32 13.84
4 -11 -6 167.22 14.46
4 -11 -6 158.69 14.26
7 4 0 460.53 35.3
4 -11 3 7.04 5.9
-11 7 3 9.41 8.43
7 4 3 5.24 6.64
4 -11 6 105.75 15.35
7 4 6 131.73 16.43
7 4 6 131.58 12.31
-11 7 6 164.05 18.11
7 4 6 141.99 12.93
7 4 9 104.66 11.66
-11 7 9 117.2 12.2
5 -12 -10 29.35 6.06
5 -12 -7 8.08 7.37
5 -12 -7 14.66 9.28
5 -12 -7 18.07 11.75
5 -12 2 78.44 8.77
7 5 2 70.65 10.43
7 5 5 3.13 7.62
-12 7 5 -3.87 9.15
5 -12 5 11.96 7.48
7 5 8 9.06 6.58
7 5 8 9.91 10.19
7 5 8 6.08 7.15
5 -12 8 -7.18 9.67
-12 7 8 -10.39 11.33
6 -13 -8 247.47 21.85
6 -13 -8 261.25 22.22
6 -13 -2 11.98 5.25
7 6 1 477.59 36.8
6 -13 4 723.15 54.34
7 6 4 671.64 54.61
-13 7 4 731.97 56.54
-13 7 7 160.71 20.84
6 -13 7 145.94 18.42
7 6 7 172.16 16.08
6 -13 7 148.03 15.48
7 6 7 147.97 18.51
7 6 10 1.39 5.19
-13 7 10 3.17 5.94
7 -14 -9 8.93 6.63
7 -14 -6 50.11 8.76
7 -14 -6 44.76 8.99
7 -14 -3 153.7 13.68
7 7 0 118.23 10.91
-14 7 3 16.38 9.35
7 7 3 9.21 6.27
7 -14 3 21.48 5.86
7 -14 6 19.04 6.26
-14 7 6 28.68 11.97
7 -14 6 17.51 8.5
7 7 6 28.93 9.37
7 7 6 31.94 6.63
-14 7 9 25.98 7.67
7 7 9 25.28 6.76
8 -15 -10 16.06 5.48
8 -15 -7 43.17 9.72
8 -15 -7 35.06 8.98
8 -15 -1 268.69 19.83
8 -15 -1 261.35 18.99
7 8 2 445.93 35.04
8 -15 2 450.73 34.84
8 -15 5 136.43 14.52
7 8 5 114.42 14.45
-15 7 5 160.58 18.26
7 8 8 16.35 6.34
-15 7 8 -1.5 10.36
8 -14 -8 65.47 10.12
8 -14 -8 71.03 10.35
8 -14 -5 606.79 44.33
8 -14 -5 549.35 43.93
8 -14 -2 839.52 62.26
6 8 4 105.63 11.87
8 -14 4 96.06 11.65
6 8 7 200.74 18.49
6 8 7 203.59 22.03
8 -14 7 194.39 21.99
8 -14 7 249.13 19.21
8 -13 -9 29.26 7.63
8 -13 -6 39.04 8.17
8 -13 0 87.04 9.99
5 8 3 106.33 12.51
8 -13 3 150.31 13.38
8 -13 6 46.04 7.61
5 8 6 46.54 9.97
8 -13 6 58 11.1
5 8 6 46.44 7.39
5 8 9 3.48 5.7
8 -12 -10 59.12 7.98
8 -12 -7 76.25 12.01
8 -12 2 894.68 64.57
4 8 2 834.18 63.83
4 8 5 198.68 20.46
8 -12 5 247.12 21.4
4 8 8 6.38 5.96
8 -12 8 7.52 7.63
4 8 8 9.47 9.75
8 -12 8 3.7 9.86
8 -11 1 11.46 6.8
3 8 1 1.01 3.27
8 -11 1 18.07 6.28
3 8 4 161.42 15.33
8 -11 4 138.99 15.23
8 -11 7 163.71 17.44
8 -11 7 176.14 17.67
8 -11 7 155.92 19.74
3 8 7 169.07 15.62
3 8 7 164.6 19.79
8 -10 -9 81.08 10.71
8 -10 -6 162.68 14.75
8 -10 -6 153.54 14.63
8 -10 0 471.22 36.56
2 8 3 493.84 38.63
-10 2 3 492.55 40.26
8 -10 3 510.42 39.15
8 -10 6 106.79 10.72
-10 2 6 123.61 16.12
2 8 6 109.45 14.73
8 -10 6 105.02 11
8 -10 6 96.93 14.84
-10 2 9 18.27 7.59
2 8 9 3.81 5.8
8 -9 -10 82.34 9.59
1 8 2 437.76 33.52
8 -9 2 446.93 34.46
1 8 5 190.59 18.21
8 -9 5 189.87 18.23
-9 1 5 206.75 19.4
1 8 5 180.74 14.15
8 -9 8 18.45 10.7
1 8 8 15.94 6.62
1 8 8 -8.96 10.87
8 -9 8 19.8 8.13
-9 1 8 22.72 7.69
8 -9 8 14.71 7.38
8 -8 1 40.23 8.57
0 8 1 33.49 3.84
8 -8 1 37.61 7.1
0 8 4 99.38 8.71
0 8 4 87.5 12.17
8 -8 4 106.21 12.6
-8 0 4 113.19 13.32
8 -8 7 65.6 13.46
-8 0 7 54.44 13.54
8 -8 7 70.62 9.15
8 -8 7 78.01 8.84
0 8 7 50.52 13.07
0 8 7 53.8 7.31
0 8 7 59.89 8.11
-8 0 10 9.49 6.39
8 -7 0 434.49 33.76
-7 -1 3 909.73 68.35
8 -7 3 894.74 68.17
8 -7 6 294.88 28.71
-1 8 6 347.38 29.45
-1 8 6 298.27 24.04
-7 -1 6 312.29 28.8
-7 -1 9 19.19 12.92
8 -7 9 16.88 11.32
8 -7 9 15.93 8.46
-7 -1 9 25.73 7.73
-6 -2 2 664.92 49.74
-2 8 2 648.4 48.84
-2 8 5 487.2 36.12
-6 -2 5 440.81 37.92
-6 -2 5 518.74 39.92
-2 8 5 482.2 39.56
-2 8 8 68.54 9.26
-2 8 8 56.76 8.79
-2 8 8 73.33 15.06
8 -6 8 65.37 14.71
-6 -2 8 87.12 10.05
8 -6 8 77.94 10.19
-6 -2 8 73.07 16.63
-5 -3 -8 0.4 7.93
-5 -3 -5 7.28 3.72
-3 8 1 201.25 15.73
-5 -3 4 173.76 18.76
-5 -3 4 220.48 19
-3 8 4 186.33 18.14
-5 -3 7 38.65 7.18
-3 8 7 33.27 5.7
-3 8 7 32.67 6.72
-3 8 7 52.81 13.34
-5 -3 7 38.99 13.64
-4 -4 -6 180.71 15.03
8 -4 0 570.14 43.53
8 -4 3 792.07 57.32
-4 8 3 801.13 56.65
-4 -4 3 705.64 57.09
-4 -4 3 697.62 56.49
-4 8 6 321.34 25.83
8 -4 6 328.41 30.64
-4 -4 6 342.53 26.08
8 -4 9 39.01 9.39
8 -4 9 25.79 12.3
-4 8 9 28.05 7.51
-4 -4 9 35.88 8.28
-4 8 9 30.84 12.8
8 -4 9 38.2 8.23
-3 -5 -7 137.5 12.77
-3 -5 -7 115.67 11.52
-3 -5 -4 56.87 6.72
-3 -5 2 343.67 26.95
-3 -5 2 301.83 24.9
-5 8 2 324.39 25.27
8 -3 2 324.53 26.11
-5 8 5 178.81 18.41
-3 -5 5 174.6 18.21
8 -3 5 190.24 18.99
8 -3 8 31.42 8
8 -3 8 38.26 12.86
-3 -5 8 12.86 12.19
8 -3 8 31.76 8.94
-5 8 8 37.29 7.42
-5 8 8 25.77 13.16
-3 -5 8 20.27 7.1
-2 -6 -8 48.82 12.19
-2 -6 -8 26.42 6.26
-2 -6 -5 8.67 4.9
-2 -6 -2 67.57 8.8
-2 -6 1 197.84 16.68
8 -2 1 249.11 19.61
8 -2 1 261.73 19.32
8 -2 4 107.28 13.75
-2 -6 4 96.29 14.29
-2 -6 4 108.61 12.89
-6 8 4 87.79 12.66
-6 8 7 4.82 5.76
-2 -6 7 1.21 11.19
-2 -6 7 1.01 5.46
8 -2 7 0.72 5.59
8 -2 7 5.94 10.26
8 -2 7 0.73 6.24
-1 -7 -6 234.43 19.23
-1 -7 -3 33.27 6.26
8 -1 0 407.22 31.76
-1 -7 0 397.84 32.34
-1 -7 3 679.79 55.67
-7 8 3 776.16 56.66
-1 -7 3 760.37 57.48
8 -1 3 782.03 56.8
-1 -7 6 226.99 24.13
8 -1 6 263.11 24.86
-7 8 6 242.99 24.23
-1 -7 6 246.34 19.75
8 -1 9 18.91 8.17
8 -1 9 19.89 7.25
-7 8 9 1.53 11.36
-7 8 9 14.19 7.05
8 -1 9 14.05 10.92
0 -8 -7 75.99 8.82
0 -8 -7 57.03 8.71
0 -8 -7 83.68 10.05
0 -8 -4 108.78 10.28
0 -8 -1 33.52 8.41
0 -8 2 29.84 5.71
0 -8 2 43.67 10.51
8 0 2 45.63 8.28
0 -8 5 102.22 14.61
-8 8 5 129.38 15.09
8 0 5 150.68 15.64
0 -8 5 126.45 10.92
8 0 8 45.61 13.03
-8 8 8 48.65 14.34
8 0 8 29.3 8.74
8 0 8 30.68 7.95
0 -8 8 45.37 13.39
-8 8 8 31.26 8.06
1 -9 -8 48.06 11.18
1 -9 -8 41.21 7.86
1 -9 -8 69.08 10.19
1 -9 -5 31.5 6.09
1 -9 -2 605.78 46.51
1 -9 1 557.24 40.95
8 1 1 593.76 43.1
8 1 1 498.44 43
1 -9 1 662.67 44.93
1 -9 4 111 13.18
1 -9 4 116.37 9.99
8 1 4 117.74 14
-9 8 4 134.99 14.96
1 -9 7 -2.28 10.67
-9 8 7 14.91 11.24
8 1 7 7.08 10.37
8 1 7 11.82 7.53
-9 8 10 40.83 7.61
8 1 10 45.65 7.8
2 -10 -9 121.58 12.29
2 -10 -6 232.92 20.32
2 -10 -6 230.47 20.24
2 -10 -6 264.35 20.71
2 -10 -3 100.3 9.61
8 2 0 87.05 10.92
2 -10 0 96.72 13.02
2 -10 3 398.12 32.81
8 2 3 470.54 34.25
-10 8 3 415.25 34.61
8 2 6 207.91 17.19
8 2 6 196.99 17.49
8 2 6 195.01 21.23
2 -10 6 203.59 20.93
-10 8 6 215.5 22.14
-10 8 9 22.66 7.76
8 2 9 20.07 7.07
3 -11 -10 2.75 4.88
3 -11 -7 37.32 12.49
3 -11 -7 18.52 13.03
3 -11 -7 46.44 8.4
3 -11 -4 49.85 7.06
8 3 2 92.54 10.78
3 -11 2 88.07 8.38
3 -11 5 79.79 11.87
-11 8 5 115.87 14.02
8 3 5 82.29 12.54
-11 8 8 46.19 8.11
3 -11 8 7.38 10.2
8 3 8 25.65 7.22
8 3 8 24.88 7.92
8 3 8 28.28 10.93
4 -12 -8 57.3 9.72
4 -12 -8 41.63 8.61
4 -12 -5 60.38 8.16
4 -12 -2 543.08 40.85
8 4 1 666.43 47.32
8 4 1 577.4 46.75
8 4 4 92.17 12.61
-12 8 4 128.69 14.86
4 -12 4 110.51 11.82
8 4 7 29.35 11.41
4 -12 7 13.84 9.54
-12 8 7 1.34 10.31
8 4 7 17.24 10.19
8 4 7 14.86 9.1
8 4 10 68.79 8.26
-12 8 10 58.49 8.56
5 -13 -9 52.39 8.5
5 -13 -6 134.28 13.29
5 -13 -6 128.96 13.21
8 5 0 15.78 6.44
-13 8 3 214.1 21.34
5 -13 3 202.78 17.85
8 5 3 215.5 19.35
5 -13 6 94.03 10.92
8 5 6 140.04 15.59
-13 8 6 94.96 15.96
5 -13 6 102.75 14.09
8 5 6 112.94 10.85
8 5 6 123.59 11.58
8 5 9 18.59 6.79
-13 8 9 14.91 7.24
6 -14 -10 -0.93 4.85
6 -14 -7 6.51 10.2
6 -14 -7 35.72 9.34
6 -14 -7 27.3 7.83
6 -14 -1 180.66 14.83
6 -14 -1 181.98 14.94
8 6 2 26.01 7.42
6 -14 2 23.14 5.29
8 6 5 9.54 7.88
-14 8 5 15.93 11.13
6 -14 5 19.11 7.8
-14 8 8 29.78 11.54
8 6 8 26.97 10.17
8 6 8 27.61 7.18
7 -15 -8 59.82 9.28
7 -15 -8 28.31 9
7 -15 -5 73.24 9.48
7 -15 -5 83.82 9.58
7 -15 -5 72.16 9.8
7 -15 -2 1022.77 75.63
7 -15 4 242.84 21.24
8 7 4 232.18 21.91
-15 8 4 267.44 24.59
8 7 7 -2.14 8.85
7 -15 7 -6.9 8.19
-15 8 7 1.42 10.88
8 7 7 9.83 8.81
-15 8 10 75.88 8.73
8 7 10 70.77 8.05
8 -16 -9 8.1 6.33
8 -16 -6 31.69 10.25
8 -16 -6 28.36 8.27
8 -16 -6 37.91 10.98
8 -16 -3 8.62 5.76
8 -16 0 13.1 4.56
8 -16 3 30.28 6.89
-16 8 3 33 10.52
8 8 3 46.09 7.78
8 8 6 43.94 12.13
8 -16 6 23.58 8.62
-16 8 6 18.7 11.46
-16 8 9 8.17 6.69
8 8 9 4.82 6.05
9 -17 -10 1.67 4.6
9 -17 -7 3.29 8.02
9 -17 -7 1.98 7.83
9 -17 -7 10.89 8.17
9 -17 -4 85.33 9.87
9 -17 -4 63.45 9.16
9 -17 -4 77.91 9.43
9 -17 -1 166.82 14.04
-17 8 5 11.03 11.24
9 -17 5 7.1 6.5
8 9 5 6.2 5.75
8 9 8 7.62 5.79
9 -16 -8 229.01 19.3
9 -16 -8 188.12 18.54
9 -16 -5 161.96 14.26
9 -16 -5 129.12 13.51
9 -16 -2 28.85 5.87
9 -16 4 538.12 42.49
9 -16 7 128.7 13.39
9 -15 -9 -1.7 6.59
9 -15 -6 14.4 12.15
9 -15 -6 25.35 14.37
9 -15 0 22.77 6.96
6 9 3 11.52 5.71
9 -15 3 7.96 5.73
6 9 6 12.95 6.04
9 -15 6 3.52 5.87
9 -15 6 2.72 7.56
6 9 9 16.34 6.15
9 -14 -10 14.8 5.54
9 -14 -7 30.46 9.5
9 -14 -1 959.82 70.71
9 -14 2 169.35 16.18
5 9 2 184.47 15.32
5 9 5 -0.72 7.17
9 -14 5 -1.52 7.31
9 -14 8 60.65 12.03
9 -14 8 48.59 9.11
5 9 8 49.27 7.68
9 -13 -8 193.13 18.21
9 -13 1 463.7 36.03
9 -13 4 505.02 39.94
4 9 4 496.46 39.5
4 9 7 119.66 16.07
9 -13 7 130.69 16.88
9 -13 7 122.57 13.39
9 -12 -9 21.85 7.5
9 -12 -6 75.38 9.75
9 -12 0 481.75 37.57
-12 3 3 59.6 12.11
9 -12 3 82.51 10.12
3 9 3 69.9 8.84
9 -12 6 18.29 6.7
9 -12 6 9.52 5.53
3 9 6 5.45 8.69
-12 3 6 7.03 10.46
9 -12 6 2.87 8.67
-12 3 9 29.43 8.07
3 9 9 24 6.25
9 -11 -10 28.84 6.76
9 -11 -7 12.18 13.05
9 -11 2 307.78 23.58
2 9 2 271.27 22.01
-11 2 5 1.86 7.4
2 9 5 -0.72 7.53
-11 2 5 3.82 9.23
9 -11 5 0.78 7.9
2 9 8 44.45 11.75
-11 2 8 51.41 9.31
9 -11 8 50.22 9.44
9 -11 8 49.9 13.43
2 9 8 54.12 7.7
9 -10 1 224.21 21.29
9 -10 1 289.47 22.06
9 -10 4 196.22 17.96
-10 1 4 222.57 19.52
1 9 4 166.05 14.32
1 9 4 213.56 17.63
1 9 7 23.31 10.58
-10 1 7 29.06 11.75
9 -10 7 30.82 11.95
1 9 7 21.73 5.97
9 -10 7 36.56 10.76
9 -10 7 37.3 11.47
-10 1 10 9.83 6.47
9 -9 -6 11.15 6.02
9 -9 0 931.08 70.01
-9 0 3 255.15 23.89
9 -9 3 270.37 23.05
0 9 3 274.76 22.46
9 -9 6 8.9 5.55
9 -9 6 13.53 6.3
-9 0 6 17.07 10.66
0 9 6 -0.93 8.74
9 -9 6 10.76 9.62
0 9 6 5.26 4.95
-9 0 9 67.12 9.57
9 -9 9 60.57 10.36
9 -8 -10 24.06 6.65
-8 -1 2 550.75 41.03
-1 9 2 474.51 39.34
9 -8 2 607.02 40.96
-8 -1 5 25.28 8.39
-8 -1 5 34.91 10.13
9 -8 5 32.42 9.56
-1 9 5 35.24 5.2
-1 9 5 51.9 10
-8 -1 8 56.21 15.48
-1 9 8 32.43 12.57
-1 9 8 38.18 8.13
9 -8 8 18.76 11.43
9 -8 8 35.89 8.09
9 -8 8 30.5 8.88
-8 -1 8 37.84 7.96
-2 9 1 153.67 11.93
9 -7 1 160.84 14.81
9 -7 1 148.06 15.26
-7 -2 4 50.12 10.19
9 -7 4 53.91 10.62
-2 9 4 57.24 5.97
-7 -2 4 51.65 10.37
9 -7 7 15.25 7.23
-2 9 7 -5.84 10.39
9 -7 7 7.12 10.52
9 -7 7 6.24 6.51
-2 9 7 -2.64 4.47
-7 -2 7 2.92 6.37
-2 9 7 3.23 5.35
-6 -3 3 315.83 26.45
-3 9 3 294.39 24.38
-6 -3 3 301.84 25.15
-6 -3 6 21.82 10.02
-3 9 6 11.47 9.95
-3 9 6 5.85 4.65
-6 -3 9 56.63 8.93
-5 -4 -7 5.94 6.19
-5 -4 -4 205.37 16.26
-5 -4 2 606.85 47.16
-4 9 2 639.95 46.91
-4 9 5 59.74 10.72
-5 -4 5 80.33 11.43
-5 -4 5 62.75 10.68
-4 9 8 -2.76 11.18
-5 -4 8 7.35 12.11
-5 -4 8 25.73 7.37
-4 9 8 3.79 6.15
-4 -5 -8 6.51 10.87
-4 -5 -5 63.01 7.05
9 -4 1 138.4 13.26
-4 -5 1 123.59 10.81
9 -4 1 113.14 13.35
-4 -5 4 16.57 7.52
9 -4 4 25.91 8.89
-5 9 4 20.23 6.96
-4 -5 4 9.82 9.59
-5 9 7 21.41 6.28
-4 -5 7 -2.47 11.67
-4 -5 7 19.58 6.31
-5 9 7 16.94 11.33
9 -4 7 20.39 11.14
9 -4 7 33.75 7.57
-3 -6 -6 2.86 4.53
-3 -6 -3 272.19 21.88
9 -3 0 937.8 65.49
-3 -6 0 799.56 65.58
-6 9 3 311.37 26.44
9 -3 3 348.45 27.45
-3 -6 3 320.86 26.12
-3 -6 3 326.95 28.1
-3 -6 6 9.07 5.12
-3 -6 6 11.72 9.45
9 -3 6 6.21 5.74
-6 9 6 7.6 8.35
9 -3 6 12.97 10.12
9 -3 9 46.85 8.86
9 -3 9 52.81 9.69
-6 9 9 54.35 8.46
-2 -7 -7 37.17 6.9
-2 -7 -7 47.5 8.36
-2 -7 -4 8.62 4.53
-2 -7 -1 205.14 18.48
9 -2 2 273.42 20.54
-7 9 2 243.56 19.64
-2 -7 2 226.27 21.53
-2 -7 2 211.26 18.4
-7 9 5 29.77 8.99
9 -2 5 29.78 9.85
-2 -7 5 22.95 9.26
-2 -7 5 32.79 5.15
9 -2 8 6.8 10.56
-7 9 8 12.94 12.33
-2 -7 8 15.13 6.73
-2 -7 8 5.5 12.03
9 -2 8 15.66 8.17
9 -2 8 19.4 7.44
-7 9 8 11.02 6.62
-1 -8 -8 8.61 5.91
-1 -8 -8 21.56 8.67
-1 -8 -5 180.42 15.31
-1 -8 -2 412.29 32.48
9 -1 1 84.44 10.36
-1 -8 1 56.5 5.31
-1 -8 1 88.49 11.74
9 -1 1 63.17 9.48
9 -1 4 29.13 9.4
-1 -8 4 33.14 8.77
-8 9 4 54.49 9.96
-1 -8 4 30.84 4.79
-1 -8 4 53.66 12.3
-1 -8 7 126.61 12.14
9 -1 7 108.02 14.81
9 -1 7 128.04 13.62
9 -1 7 130.06 17.83
-1 -8 7 111.22 17.66
-8 9 7 117.44 17.74
-8 9 10 61.92 8.35
9 -1 10 49.4 8.41
0 -9 -9 50.97 7.46
0 -9 -6 16.46 6.07
0 -9 -6 11.78 6.46
0 -9 -3 272.23 21.32
9 0 0 864.9 68.47
9 0 0 930.4 68.45
0 -9 0 952.63 69.33
-9 9 3 466.65 32.58
9 0 3 416.83 32.21
0 -9 3 480.42 34.51
-9 9 6 29.61 10.4
0 -9 6 25.26 10.13
9 0 6 28.32 7.05
9 0 6 27.08 10.48
0 -9 6 11.14 5.28
9 0 6 17.86 6.12
9 0 9 26.46 8.33
-9 9 9 28.68 7.59
9 0 9 30.6 7.7
1 -10 -7 4.48 7.54
1 -10 -7 -11.31 15.74
1 -10 -7 9.23 6.49
1 -10 -4 29.54 5.89
1 -10 -1 226.34 20.74
1 -10 2 246.7 20.08
1 -10 2 270.03 24.49
9 1 2 281.13 22.22
1 -10 5 56.74 10.12
-10 9 5 65.93 11.36
9 1 5 36.77 9.63
1 -10 5 39.29 5.64
9 1 8 10.21 7.5
1 -10 8 -13.86 10.88
9 1 8 5.71 6.82
-10 9 8 8.67 7.06
9 1 8 -1.32 9.78
2 -11 -8 86.29 11.58
2 -11 -8 76.37 10.57
2 -11 -8 69.94 9.68
2 -11 -5 428.71 33.26
2 -11 1 52.11 12.19
9 2 1 43.55 8.84
9 2 1 43.82 8.48
2 -11 4 88.94 10.63
-11 9 4 79 12.24
9 2 4 74.66 11.01
9 2 7 175.48 18.27
9 2 7 132.87 19.05
2 -11 7 155.17 19.08
9 2 7 155.04 16.51
-11 9 7 170.59 20.57
-11 9 10 66.58 8.45
9 2 10 52.69 8.17
3 -12 -9 41.36 7.58
3 -12 -6 14.01 6.92
3 -12 -6 23.23 6.95
3 -12 -6 17.47 6.96
3 -12 -3 66.14 7.99
9 3 0 270.89 22.58
3 -12 3 209.54 17.66
-12 9 3 222.69 20.42
9 3 3 203.93 19.24
9 3 6 18.56 6.71
3 -12 6 7.02 8.6
9 3 6 7.63 5.78
-12 9 6 23.69 10.61
9 3 6 16.02 9.83
-12 9 9 24.2 7.62
9 3 9 24.71 7.26
4 -13 -10 28.71 5.84
4 -13 -7 51.6 10.44
4 -13 -7 46.5 12.56
4 -13 -7 39.75 8.4
4 -13 -4 5.68 5.38
4 -13 -1 33.63 5.95
9 4 2 49.23 10.06
4 -13 2 69.24 7.21
9 4 5 37.17 9.53
4 -13 5 33.53 8.36
-13 9 5 37.23 11.02
4 -13 8 -15.64 8.92
-13 9 8 14.66 10.73
9 4 8 12.58 7.01
9 4 8 -3.06 6.89
9 4 8 -4.94 9.37
5 -14 -8 90.96 11.91
5 -14 -8 73.41 10.56
5 -14 -8 90.16 11.41
5 -14 -5 592.84 45.65
5 -14 -5 583.88 45.71
5 -14 -5 619.91 46.09
5 -14 -2 842.42 62.49
9 5 1 104.18 11.49
-14 9 4 167.01 18.49
9 5 4 146.78 16.27
5 -14 4 172.61 15.35
9 5 7 318.34 28.02
9 5 7 293.57 24.22
9 5 7 267.85 23.38
5 -14 7 248.03 26.07
-14 9 7 290.66 29.51
-14 9 10 101.56 10.6
9 5 10 104.79 10.28
6 -15 -9 21.02 6.8
6 -15 -6 1.44 13.16
6 -15 -6 5.82 7.15
6 -15 -3 117.62 11.46
6 -15 0 232.69 18.24
9 6 0 225.39 19.35
6 -15 3 102.41 10.56
-15 9 3 115.66 14.52
9 6 3 109.03 12.44
-15 9 6 3.83 10.9
6 -15 6 0.82 7.22
9 6 6 0.69 7.32
9 6 6 7.81 8.43
9 6 6 2.96 5.36
9 6 9 17.06 7.02
-15 9 9 6.71 6.7
7 -16 -10 3.99 4.74
7 -16 -7 19.15 8.38
7 -16 -7 8.75 7.59
9 7 -1 -3.85 5.83
7 -16 -1 1.18 4.55
9 7 2 24.13 7.01
-16 9 5 48.8 13
7 -16 5 47.16 8.86
9 7 5 48.98 7.85
9 7 5 64.6 10.66
9 7 8 23.9 6.81
8 -17 -8 108.53 12.79
8 -17 -8 107.68 12.09
8 -17 -5 616.24 47.34
8 -17 -5 623.55 47.83
8 -17 -2 608.73 45.9
-17 9 4 162.01 19.48
-17 9 7 267.1 28.65
-17 9 10 76.77 8.87
9 8 10 92.27 8.46
9 -18 -9 5.63 5.84
9 -18 -6 2.91 7.56
9 -18 -6 9.25 8.5
9 -18 -6 3.54 8.14
9 -18 -3 17.97 6.2
9 -18 0 36.87 5.55
-18 9 3 28.41 11.43
-18 9 6 5.64 11.2
9 9 6 10.48 8.63
-18 9 9 11.04 6.2
9 9 9 14.31 5.42
10 -19 -7 34.62 8.81
10 -19 -7 21.02 8.03
10 -19 -4 63.33 9.18
10 -19 -4 73.86 9.25
10 -19 -4 50.32 8.08
10 -19 -1 55.44 7.14
9 10 5 -3.98 7.79
-19 9 5 1.32 10.21
9 10 8 6.09 5.81
10 -18 -8 37.25 8.44
10 -18 -5 95.87 11.18
10 -18 -5 82.57 10.56
10 -18 -2 686.76 51.62
10 -17 -9 8.33 6.04
10 -17 -6 9.56 10.11
10 -17 -6 15.06 11.79
10 -17 -3 30.28 6.49
10 -17 0 5.15 3.83
10 -17 3 8.11 5.81
7 10 6 27.6 11.01
10 -17 6 6.21 7.88
7 10 9 5.96 5.2
10 -16 -10 1.5 4.9
10 -16 -7 99.21 12.17
10 -16 -7 90.17 11.71
10 -16 -1 117.01 9.82
10 -16 -1 83.2 11.34
10 -16 2 9.26 5.67
10 -16 5 94.16 12.64
6 10 8 45.3 7.27
10 -15 -8 28.92 8.25
10 -15 -5 37.27 7.09
10 -15 -5 35.59 7.35
10 -15 -2 440.79 33.63
10 -15 4 117.78 13.27
10 -15 7 13.49 8.51
10 -15 7 5.37 8.56
-15 5 7 11.49 11.7
10 -14 -9 35.8 8.16
10 -14 -6 83.67 11.09
10 -14 -6 78.97 10.35
10 -14 0 17.34 7.98
4 10 3 36.36 6.61
10 -14 3 57.86 8.84
-14 4 3 54.7 11.39
10 -14 6 51.69 11.09
-14 4 6 26.57 12.04
4 10 6 54.34 10.64
10 -14 6 50.84 7.98
4 10 9 19.92 5.79
-14 4 9 27.09 7.72
10 -13 -10 7.25 5.51
10 -13 -7 225.85 21.93
10 -13 2 77.49 10.37
3 10 5 216.5 22.47
10 -13 5 276.27 23.86
-13 3 5 283.18 25.52
10 -13 8 91.11 15.08
3 10 8 91.77 9.97
10 -13 8 99.53 11.65
-13 3 8 101.23 16.98
10 -12 1 643.01 47.36
10 -12 1 587.06 47.53
2 10 4 87.13 11.18
10 -12 4 110.21 12.37
-12 2 4 92.05 13.57
2 10 7 22.34 11.3
-12 2 7 1.38 10.87
10 -12 7 6.9 9.53
10 -12 7 5.88 8.09
2 10 7 -1.06 9.48
10 -12 7 7.29 7.24
-12 2 10 48.29 7.84
10 -11 -6 264.85 22.26
10 -11 0 37.45 9.02
-11 1 3 125.55 14.47
1 10 3 113.65 11.74
10 -11 3 124.28 13.31
-11 1 6 133.44 18.52
1 10 6 171.53 17.98
10 -11 6 148.56 13.92
10 -11 6 145.02 17.74
10 -11 6 148.61 13.51
-11 1 9 58.01 9.07
10 -11 9 46.87 9.82
10 -10 -10 9.36 5.99
0 10 2 2.72 3.97
10 -10 2 -0.45 6.8
10 -10 5 198.31 17.99
-10 0 5 183.09 18.82
-10 0 5 131.34 16.46
0 10 5 202.71 17.87
0 10 5 152.63 13.38
0 10 8 120.55 17.35
10 -10 8 130.34 13.27
10 -10 8 133.98 14.11
10 -10 8 103.67 17.44
0 10 8 125.05 12.03
-10 0 8 134.69 13.44
10 -9 1 194.04 18.76
10 -9 1 222.53 19.53
-9 -1 4 16.35 8.79
-1 10 4 16.51 3.65
10 -9 4 15.56 8.21
-1 10 4 17.64 7.82
-1 10 7 9.84 5.43
10 -9 7 5.93 10.42
-9 -1 7 10.35 11.19
10 -9 7 6.31 10.96
10 -9 7 14.52 12.84
-1 10 7 2.26 9.71
-9 -1 10 20.47 6.69
10 -8 0 113.6 11.98
10 -8 0 100.07 13.24
-8 -2 3 83.9 11.69
10 -8 3 92.43 11.47
-2 10 6 221.98 17.06
-2 10 6 259.08 22.67
-8 -2 6 195.41 21.72
10 -8 6 192.58 17.25
10 -8 6 184.46 21.43
10 -8 6 192.99 17.71
10 -8 9 112.12 13.15
10 -8 9 121.91 12.61
-8 -2 9 104.13 12.21
-7 -3 -7 114.3 11.93
-7 -3 -4 457.62 34.26
-7 -3 2 40.58 7.34
-3 10 2 33.84 5.29
-3 10 5 96.27 13.13
-7 -3 5 120.09 13.74
-3 10 5 95.94 8.9
-7 -3 5 87.64 12.89
-7 -3 8 104.07 19.77
10 -7 8 146.79 14.28
10 -7 8 114.92 18.57
-7 -3 8 162.21 14.41
-3 10 8 137.01 19.35
-3 10 8 148.12 13.69
-6 -4 -8 12.9 9.22
-6 -4 -5 53.57 6.22
-4 10 1 11.26 3.52
-4 10 4 37.44 8.75
-6 -4 4 31.9 9.52
-6 -4 4 32.85 11.1
-6 -4 7 58.1 8.59
-4 10 7 61.7 8.14
-6 -4 7 25.51 13.86
-4 10 7 59.8 13.81
10 -6 7 46.28 9.8
-5 -5 -6 249.47 19.93
10 -5 0 184.57 16.99
10 -5 3 54.25 11.16
-5 -5 3 35.7 13.7
-5 10 3 32.84 9.15
-5 -5 3 54.9 9.75
10 -5 6 151.8 18.35
-5 10 6 160.17 13.26
10 -5 6 134.46 13.92
-5 -5 6 149.26 13.43
10 -5 6 152.24 13.78
-5 10 9 110.24 10.95
-5 -5 9 81.41 10.98
10 -5 9 96.17 11.98
-4 -6 -7 104.52 10.85
-4 -6 -7 129.85 12.68
-4 -6 -4 465.24 35.12
-4 -6 2 2.75 9.51
10 -4 2 4.53 7.22
-6 10 2 4.2 5.16
-4 -6 2 11.23 4.86
-4 -6 5 119.48 14.41
10 -4 5 118.26 15.28
-6 10 5 117.86 14.14
-4 -6 5 131.79 15.65
10 -4 8 118.22 18.15
-6 10 8 125.79 12.24
-6 10 8 140.54 19.2
-4 -6 8 133.14 12.52
10 -4 8 119.16 13.41
-3 -7 -8 102.77 11.38
-3 -7 -8 61.01 8.43
-3 -7 -5 173.54 14.63
-3 -7 -2 90.8 11.05
10 -3 1 27.42 8.66
10 -3 1 25.25 8.23
-3 -7 1 23.61 3.83
-7 10 4 229.11 20.69
10 -3 4 230 21.26
-3 -7 4 203.07 22.1
-3 -7 4 191.91 19.58
-3 -7 7 128.94 12.22
10 -3 7 133.66 16.2
-7 10 7 128.68 12.29
-3 -7 7 104.09 17.86
10 -3 7 111.14 17.45
10 -3 10 21.35 6.92
-2 -8 -6 136.54 13.37
-2 -8 -6 134.94 12.59
-2 -8 -3 473.64 35.58
-2 -8 -3 469.49 36.68
-2 -8 0 447.09 37.4
10 -2 0 490.49 37.03
10 -2 3 13.12 7.93
-2 -8 3 1.82 5.16
-2 -8 3 16.29 10.49
-8 10 3 18.51 7.66
10 -2 6 117.07 12.25
-2 -8 6 89.04 15.19
10 -2 6 126.68 11.93
-2 -8 6 127.16 11.32
-8 10 6 126.21 16.14
10 -2 6 123.44 16.52
-8 10 9 97.5 10.95
10 -2 9 93.56 11.88
10 -2 9 97.13 11.26
-1 -9 -7 28.75 7.89
-1 -9 -7 43.22 16.58
-1 -9 -7 36.62 6.87
-1 -9 -4 191.54 15.9
-1 -9 -1 274.09 23.97
-1 -9 2 81.38 12.57
10 -1 2 60.51 9.2
-9 10 2 61.19 8.5
10 -1 5 28.53 9.73
-9 10 5 30.5 9.15
-1 -9 5 19.77 8.62
-1 -9 5 28.55 4.95
-9 10 8 84.23 16.34
-1 -9 8 74.95 15.15
10 -1 8 80.5 15.04
-9 10 8 110.88 10.57
10 -1 8 79.96 10.87
10 -1 8 68.59 10.5
0 -10 -8 146.55 14.43
0 -10 -8 132.93 15.01
0 -10 -8 145.01 13.66
0 -10 -5 186.31 15.94
0 -10 -2 3.09 4.51
0 -10 -2 3.32 8.06
10 0 1 272.06 24.06
0 -10 1 312.14 25.67
10 0 1 266.76 23.85
10 0 4 393.91 30.74
-10 10 4 409.95 31.06
0 -10 4 340.14 29.26
0 -10 4 346.83 26.87
0 -10 7 134.78 18.61
10 0 7 127.23 18.93
10 0 7 154.24 16.29
10 0 7 167.26 16.87
-10 10 7 126.38 18.99
10 0 10 14.45 6.52
-10 10 10 11.42 6.19
1 -11 -9 1.57 6.22
1 -11 -9 9.72 5.73
1 -11 -6 122.75 12.65
1 -11 -6 118.92 12.16
1 -11 -3 354.21 27.38
10 1 0 261.67 22.69
1 -11 0 275.82 24.38
10 1 3 0.57 7.44
1 -11 3 3 5.19
-11 10 3 -1.87 7.42
10 1 6 70.65 12.76
10 1 6 86.9 9.4
-11 10 6 67.14 12.61
10 1 6 64.94 8.61
1 -11 6 42.75 11.33
10 1 9 80.61 9.92
10 1 9 55.84 9.81
-11 10 9 79.63 9.64
2 -12 -7 35.73 11.21
2 -12 -7 51.69 10.05
2 -12 -7 38.57 7.94
2 -12 -4 173.39 15.03
2 -12 -1 219.34 20.76
2 -12 -1 206.87 16.75
2 -12 2 12.16 3.42
10 2 2 22.46 7.85
-12 10 5 5.74 9.37
10 2 5 23.02 9.08
2 -12 5 14.86 7.95
-12 10 8 41.16 8.08
10 2 8 37.28 11.99
2 -12 8 23.07 10.13
10 2 8 36.35 8.23
10 2 8 33.93 8.11
3 -13 -8 236.33 21.25
3 -13 -8 248.04 21.65
3 -13 -8 244.44 20.87
3 -13 -5 252.02 19.01
3 -13 -5 189.69 18.54
3 -13 -2 8.39 5.25
10 3 1 518.45 40.26
10 3 1 506.49 39.91
3 -13 4 646.41 48.71
10 3 4 597.45 49.99
-13 10 4 656.98 51.1
-13 10 7 124.8 19.4
10 3 7 158.39 15.33
10 3 7 190.49 17.67
10 3 7 184.15 19.95
3 -13 7 125.82 17.67
10 3 10 8.76 5.66
-13 10 10 3.28 5.56
4 -14 -9 -0.39 5.84
4 -14 -6 57.85 8.84
4 -14 -6 50.35 9.18
4 -14 0 69.03 7.39
10 4 0 74.18 10.1
-14 10 3 -5.36 9.23
4 -14 3 0.31 3.94
10 4 3 10.37 7.17
10 4 6 52.77 7.77
10 4 6 57.86 8.63
10 4 6 41.76 11.09
-14 10 6 46.12 12.88
4 -14 6 61.09 10.13
-14 10 9 51.15 8.5
10 4 9 43.31 8.51
5 -15 -10 6.8 4.83
5 -15 -7 14.36 8.11
5 -15 -7 1.91 8.25
5 -15 -7 -0.94 7.16
10 5 -1 39.05 9.21
5 -15 -1 47.06 6.41
10 5 2 30.78 7.92
-15 10 5 7.7 9.8
5 -15 5 4.99 5.96
10 5 5 3.5 5.63
10 5 5 9.47 8.25
-15 10 8 14.56 11.27
10 5 8 -0.72 6.8
10 5 8 10.03 6.72
6 -16 -8 305.33 25.83
6 -16 -8 289.45 25.19
6 -16 -8 317.38 25.81
6 -16 -5 333.95 27.28
6 -16 -5 328.34 27.16
6 -16 -5 324.63 27.35
6 -16 -5 351.97 27.48
6 -16 -2 6.66 5.14
10 6 4 779.46 61.03
-16 10 4 792.16 62.86
10 6 7 221.92 18.88
-16 10 7 224.73 24.41
10 6 7 201.7 18.03
10 6 7 190.1 21.98
-16 10 10 4.4 5.03
10 6 10 9.1 4.94
7 -17 -9 2.68 5.86
7 -17 -6 20.11 11.18
7 -17 -6 19.22 11.85
7 -17 -6 22.16 7.77
7 -17 -3 46.26 7.27
10 7 0 10.35 5.61
7 -17 0 10.44 4.62
-17 10 3 4.71 9.35
10 7 3 13.84 7.36
10 7 6 34.31 8.77
-17 10 6 23.11 12.07
10 7 9 15.78 5.99
-17 10 9 16.85 6.38
8 -18 -10 5.56 4.27
8 -18 -7 -2.09 7.78
8 -18 -7 7.51 8.16
8 -18 -7 2.93 7.28
8 -18 -4 -3.55 5.57
8 -18 -4 1.28 5.53
8 -18 -4 -2.81 6.56
8 -18 -4 1.31 6.04
8 -18 -1 7.82 4.78
10 8 5 0.97 6.16
-18 10 5 11.34 10.82
10 8 8 8.2 6.31
9 -19 -8 217.85 19.96
9 -19 -8 243.33 20.91
9 -19 -5 203.79 19.52
9 -19 -2 19.73 6.24
-19 10 4 353.52 32.94
-19 10 7 115.27 17.37
-19 10 10 0.48 4.33
10 -20 -9 6.03 5.18
10 -20 -6 -2.09 7.89
10 -20 -6 -3.08 7.4
10 -20 -3 -2.68 6.12
10 -20 -3 7.28 6.16
10 -20 -3 8.77 5.26
10 -20 -3 10.32 5.67
10 -20 -3 6.54 5.85
-20 10 3 -9.09 10.18
-20 10 6 10.16 11.46
10 10 6 8.01 7.05
-20 10 9 5.97 5.43
10 10 9 -0.66 4.44
11 -21 -7 1 8.1
11 -21 -4 22.4 9.71
11 -21 -4 24.97 7.17
11 -21 -4 10.98 7.31
11 -21 -1 7.95 6.33
11 -21 -1 3.68 4.92
10 11 5 23.53 8.28
-21 10 5 9.74 11.19
10 11 8 9.62 5.38
11 -20 -8 68.41 9.57
11 -20 -5 422.52 33.11
11 -20 -5 402.79 32.83
11 -20 -2 541.28 39.63
11 -20 -2 490.35 39.77
11 -19 -9 3.94 5.35
11 -19 -6 14.42 8.35
11 -19 -6 2.18 7.31
11 -19 -3 14.76 6.08
11 -19 -3 13.9 6.45
11 -19 -3 24.61 6.77
11 -19 -3 13.27 5.98
11 -19 0 22.22 4.71
8 11 6 5.29 8.21
8 11 9 8.46 4.57
11 -18 -10 13.63 4.66
11 -18 -7 63.13 10.2
11 -18 -7 44.85 9.38
11 -18 -4 27.84 7.07
11 -18 -4 27.05 7.05
11 -18 -4 26.96 6.31
11 -18 -1 2.93 5.73
11 -18 -1 -2.02 4.27
7 11 8 13.99 5.67
11 -17 -8 48.14 9.01
11 -17 -5 293.5 24.42
11 -17 -5 310.67 25.18
11 -17 -2 337.46 26.48
11 -17 4 64.35 10.19
-17 6 7 121.47 19.46
11 -17 7 157.73 14.34
11 -16 -9 19.16 6.9
11 -16 -6 8.81 8.67
11 -16 0 79.42 10.83
-16 5 3 34.9 10.39
11 -16 3 19.51 7.44
11 -16 6 3.82 8
11 -16 6 7.72 6.35
-16 5 6 13.57 11.1
-16 5 9 8.49 6.53
5 11 9 8.35 5.28
11 -15 -10 41.53 6.71
11 -15 -7 112.03 13.1
11 -15 -1 204.17 19.22
11 -15 -1 185.1 15.62
11 -15 2 503.94 39.75
-15 4 5 183.81 21.99
11 -15 5 205.37 19.81
11 -15 8 22.75 7.97
4 11 8 15.56 5.79
11 -14 -5 344.8 28.17
11 -14 -5 370.85 28.76
11 -14 1 139.97 14.54
11 -14 1 131.74 13.3
-14 3 4 48.24 12.07
11 -14 4 41.89 8.59
11 -14 7 139.64 14.34
3 11 7 114.42 11.96
11 -14 7 114.43 16.36
-14 3 7 120.95 18.64
-14 3 10 47 7.34
11 -13 -9 45.69 8.63
11 -13 -6 43.77 8.17
11 -13 0 317.99 27.02
11 -13 3 264.82 22
-13 2 3 226.44 23.14
-13 2 6 34.24 11.82
11 -13 6 36.47 6.41
11 -13 6 44.96 10.57
11 -13 6 33.29 7.34
2 11 6 23.33 9.32
-13 2 9 7.39 6.78
2 11 9 5.63 4.81
11 -12 -10 67.18 8.59
11 -12 2 451.59 36.41
11 -12 5 264.62 24.44
-12 1 5 273.79 26.04
1 11 5 271.7 23.78
-12 1 5 235.1 24.2
11 -12 8 44.75 11.76
-12 1 8 30.74 7.81
1 11 8 19.25 5.99
11 -12 8 27.75 8.55
11 -11 1 14.13 9.4
11 -11 1 13.71 7.01
-11 0 4 91.3 13
11 -11 4 81.51 11.88
0 11 4 88.92 10.72
11 -11 7 114.09 12.76
11 -11 7 110.54 12.05
-11 0 7 118.83 17.78
11 -11 7 81.91 15.16
0 11 7 89.65 14.79
-11 0 10 27.41 6.69
11 -10 0 281.24 24.52
-10 -1 3 387.77 31.5
-1 11 3 356.13 29.55
11 -10 3 393.24 30.98
11 -10 6 115.19 15.38
11 -10 6 109.62 10.56
11 -10 6 94.47 10.83
-1 11 6 104.38 9.7
-1 11 6 83.79 14.04
-10 -1 6 93.33 15.5
-10 -1 9 -4.56 7
11 -10 9 3.98 8.01
11 -9 -10 64.7 8.63
11 -9 2 464.34 33.13
-2 11 2 370.26 30.83
-9 -2 2 446.24 32.86
11 -9 5 357.12 31.68
-9 -2 5 391.86 32.29
-2 11 5 366.6 27.73
-2 11 5 414.59 31.83
-9 -2 5 303.15 30.86
11 -9 8 54.81 13.57
11 -9 8 74.15 9.84
-9 -2 8 73.99 16.18
-9 -2 8 68.85 9.71
11 -9 8 83.95 10.72
-2 11 8 39.52 13.09
11 -8 1 9.58 8.96
11 -8 1 -0.49 7.99
11 -8 4 39.04 9.56
-8 -3 4 30.75 10.09
-8 -3 4 37.07 9.31
-3 11 4 36.48 4.8
-3 11 7 32.98 6.67
11 -8 7 37.52 12.27
11 -8 7 15.98 11.14
-3 11 7 36.79 12.11
11 -8 7 23.92 11.3
-8 -3 7 44.88 7.78
-4 11 3 489.91 38.07
-7 -4 3 492.88 38.85
-7 -4 3 493.1 40.52
11 -7 6 140.26 13.2
-4 11 6 133.04 11.94
-4 11 6 172.12 17.33
11 -7 9 10.48 7.33
-7 -4 9 2.85 6.66
-6 -5 -7 237.27 20.81
-6 -5 -4 110.53 11.68
-6 -5 -4 122.2 10.36
-6 -5 2 528.99 40.72
-5 11 2 533.01 40.25
-6 -5 5 367.22 30.48
-6 -5 5 327.69 30.47
-5 11 5 356.09 29.95
-6 -5 8 52.64 8.41
11 -6 8 56.58 9.13
-5 11 8 53.11 8.12
-6 -5 8 40.57 14.01
-5 11 8 66.82 14.38
-5 -6 -8 56.1 9.68
-5 -6 -5 13.2 4.6
11 -5 1 280.65 25.78
-6 11 1 344.88 23.75
11 -5 1 258.41 25.7
-5 -6 1 292.52 23.46
-5 -6 4 225.74 20.95
-5 -6 4 222.88 22.76
-6 11 4 247.27 21.2
11 -5 4 244.74 22.11
-6 11 7 12.06 11.07
-6 11 7 38.91 6.85
11 -5 7 38.58 12.27
-5 -6 7 38.45 12.37
11 -5 7 28.29 12.39
-5 -6 7 35.14 7.09
11 -5 7 36.71 12.68
-4 -7 -6 145.33 13.31
-4 -7 -6 159.56 14.5
-4 -7 -3 51.3 9.22
-4 -7 -3 71.32 7.07
11 -4 0 36.16 8.81
11 -4 0 35.65 10.33
-4 -7 0 45.22 10.14
-4 -7 3 346.79 28.81
11 -4 3 326.04 27.28
-4 -7 3 295.39 25.54
-7 11 3 325.12 26.22
11 -4 6 184.09 16.69
-4 -7 6 200.76 16.29
-7 11 6 196.97 20.62
11 -4 6 203.06 21.05
-4 -7 6 180.28 21.07
11 -4 9 36.83 8.94
-7 11 9 23.13 6.94
-3 -8 -7 199.11 16.36
-3 -8 -7 176.24 16.93
-3 -8 -7 182.47 23.03
-3 -8 -4 170.64 14.3
-3 -8 -1 -1.45 8.27
-3 -8 2 337.82 27.99
-8 11 2 366.26 25.67
-3 -8 2 266.93 23.96
11 -3 2 359.5 26.66
-3 -8 5 270.99 21.19
-8 11 5 298.47 25.21
11 -3 5 329.37 26.01
-3 -8 8 51.13 8
11 -3 8 31.23 12.78
-8 11 8 58.21 8.19
-3 -8 8 46.48 13.37
11 -3 8 51.02 9.26
-8 11 8 39.35 13.59
-2 -9 -8 45.13 7.52
-2 -9 -8 70.57 10.27
-2 -9 -5 7.35 5.13
-2 -9 -2 269.5 21.35
-2 -9 -2 291.95 23.82
11 -2 1 772.97 59.41
-2 -9 1 818.28 60.46
11 -2 1 747.64 59.21
-2 -9 4 290.37 26.43
-2 -9 4 275.31 20.77
11 -2 4 292.53 24.72
-2 -9 4 219.17 23.02
-9 11 4 296.44 24.37
-9 11 7 8.49 9.81
11 -2 7 10.79 9.77
-2 -9 7 6.84 6
11 -2 7 3.67 10.64
-2 -9 7 -13.79 11.43
11 -2 7 21.24 9.31
11 -2 10 20.73 6.76
-1 -10 -9 42.85 6.96
-1 -10 -6 192.69 16.08
-1 -10 -6 167.16 15.5
-1 -10 -6 151.96 15.06
-1 -10 -3 119.92 12.62
-1 -10 -3 116.15 10.73
11 -1 0 41.58 9.61
-1 -10 0 31.11 10.52
-10 11 3 358.75 26.35
-1 -10 3 351.53 28.72
11 -1 3 338.1 26.4
11 -1 6 185.75 17.19
-1 -10 6 191.84 20.59
11 -1 6 193.12 16.88
11 -1 6 194.38 21.11
-10 11 6 246.23 21.91
-1 -10 6 195.19 16.23
-10 11 9 44.5 8.02
11 -1 9 36.71 8.28
11 -1 9 45.49 9.05
0 -11 -7 130.83 13.25
0 -11 -7 132.18 15.23
0 -11 -7 134.88 15.65
0 -11 -4 93.09 9.6
0 -11 -1 2.33 9
0 -11 2 223.19 17.45
11 0 2 241.88 20.95
0 -11 5 203.42 20.04
0 -11 5 197.72 16.6
11 0 5 238.94 21.82
-11 11 5 247.64 21.94
-11 11 8 48.72 8.28
11 0 8 44.14 8.59
11 0 8 51.66 12.92
11 0 8 57.2 9.25
0 -11 8 29.66 11.39
1 -12 -8 32.38 9.05
1 -12 -8 31.75 8.37
1 -12 -8 24.36 6.95
1 -12 -5 107.37 11.01
1 -12 -2 727.96 56.78
1 -12 1 983.9 71.04
11 1 1 936.61 68.93
11 1 1 836.91 68.45
11 1 4 176.79 18.57
1 -12 4 180.69 16.94
-12 11 4 212.86 19.69
1 -12 7 -7.23 10.27
11 1 7 6.04 9.54
11 1 7 -3.32 11.62
11 1 7 27.04 8.77
-12 11 7 6.49 10.18
-12 11 10 46.35 7.2
11 1 10 54.68 7.66
2 -13 -9 38.23 7.95
2 -13 -9 41.98 7.29
2 -13 -6 103.91 11.2
2 -13 -6 84.19 10.93
2 -13 -6 103.52 11.55
2 -13 -3 60.96 7.69
11 2 0 21.57 8.41
2 -13 0 9.03 11.11
-13 11 3 100.16 12.44
11 2 3 97.41 12.03
2 -13 3 72.76 8.3
-13 11 6 58.77 12.97
11 2 6 74.81 9.53
11 2 6 71.99 8.77
11 2 6 57.85 12.47
2 -13 6 61.43 11.06
11 2 9 12.18 7.45
-13 11 9 28.2 7.24
11 2 9 27.77 7.82
3 -14 -10 1.63 4.45
3 -14 -7 47.82 9.15
3 -14 -7 69.55 10.57
3 -14 -7 62.18 10.74
3 -14 -4 82.15 9.34
3 -14 -1 27.03 5.49
11 3 2 4.31 8.69
-14 11 5 39.64 11.29
11 3 5 49.24 10.82
11 3 5 35.09 7.26
3 -14 5 34.13 7.88
11 3 8 22.33 10.51
-14 11 8 17.14 11.33
11 3 8 16.47 7.61
11 4 -11 54.49 6.32
4 -15 -8 42.11 8.23
4 -15 -8 49.95 10.35
4 -15 -8 43.28 9.35
4 -15 -5 87.15 9.88
4 -15 -5 65.67 9.55
4 -15 -5 79.35 9.76
4 -15 -2 991.25 73.4
-15 11 4 259.42 25.24
11 4 4 267.01 24.13
11 4 7 -1.16 8.95
-15 11 7 20.6 11.51
11 4 7 23.57 8.4
11 4 7 5.68 7.02
-15 11 10 96.23 9.39
11 4 10 75.43 9.04
5 -16 -9 5.72 5.92
5 -16 -6 41.95 9.94
5 -16 -6 30.04 8
5 -16 -3 10.33 5.79
11 5 0 55.85 9.18
-16 11 3 108.74 13.89
11 5 3 72.46 11.51
-16 11 6 33.66 12.58
11 5 6 26.92 9.9
11 5 6 55.98 9.76
11 5 6 29.09 10.02
-16 11 9 5.17 6
11 5 9 -7.01 6.12
6 -17 -10 5.93 4.53
6 -17 -7 8.92 8.31
6 -17 -7 12.47 7.58
6 -17 -4 2.51 5.89
11 6 -1 4.54 6.6
6 -17 -1 5.54 4.92
11 6 2 14.38 6.83
11 6 5 18.61 6.85
-17 11 5 40.67 12.21
11 6 5 29.95 9.17
7 -18 -8 64.37 9.87
7 -18 -8 37.03 8.28
7 -18 -5 93.45 12.04
7 -18 -5 87.52 17.08
7 -18 -2 957.14 71.19
-18 11 4 139.27 17.62
11 7 4 129.1 12.15
-18 11 7 11.39 10.21
11 7 7 6.83 7.12
-18 11 10 60.44 7.43
11 7 10 70.86 7.17
8 -19 -9 -5.25 5.6
8 -19 -6 9.7 7.98
8 -19 -6 1.8 7.68
8 -19 -6 13.61 7.99
8 -19 -3 10.78 6.36
8 -19 -3 3.65 5.63
-19 11 3 3.19 9.6
-19 11 6 11.32 11.32
11 8 6 10.09 7.4
-19 11 9 5.59 5.68
11 8 9 -1.58 4.91
9 -20 -7 15.73 8.17
9 -20 -7 8.1 7.43
9 -20 -7 6.14 8.06
9 -20 -4 -1.4 7.09
9 -20 -4 12.89 8.58
9 -20 -4 7.39 6.2
9 -20 -4 2.58 6.97
9 -20 -1 12.19 5.39
-20 11 5 -6.71 10.79
11 9 5 14.4 8.07
11 9 8 12.43 6.29
10 -21 -8 32.09 7.49
10 -21 -8 39.45 8.57
10 -21 -5 29.91 8.68
10 -21 -5 49.76 8.8
10 -21 -2 463 35.43
10 -21 -2 441.9 35.62
10 -21 -2 425.22 35.32
10 -21 -2 498.53 35.54
11 10 1 532.95 40.4
11 10 4 143.29 13.78
-21 11 4 115.27 18.44
11 -22 -9 -0.57 4.52
11 -22 -6 34.03 8.51
11 -22 -6 29.48 7.99
11 -22 -3 48.83 8.08
11 -22 -3 38.82 8.09
11 -22 -3 65.9 9.73
11 -22 -3 44.62 6.89
11 -22 -3 48.11 9.14
11 -22 0 15.92 7.04
11 11 0 10.38 7.11
-22 11 3 -2.51 10.61
-22 11 6 11.61 10.47
11 11 6 4.42 6.28
11 -22 6 0.41 6.76
-22 11 9 9.24 4.91
11 11 9 5.47 3.86
12 -23 -7 23.91 8.63
12 -23 -4 14 6.99
12 -23 -4 6.76 7.7
12 -23 -4 15.44 7.88
12 -23 -1 3.54 7.28
12 -23 -1 1.75 4.81
12 -23 -1 2.14 5.06
12 -23 5 27.02 8.14
-23 11 5 29.89 12.33
11 12 8 11.98 4.74
12 -22 -8 142.1 13.58
12 -22 -5 153.82 14.96
12 -22 -5 136.42 14.23
12 -22 -5 159.75 15.5
12 -22 -2 1.08 5.63
12 -22 -2 6.39 6.83
12 -22 -2 -4.63 5.39
12 -22 -2 1.55 5.24
12 -21 -9 16.2 5.4
12 -21 -6 35.5 8.88
12 -21 -3 20.71 7.32
12 -21 -3 13.18 5.02
12 -21 -3 16.11 6.5
12 -21 -3 14.24 6.41
12 -21 0 4.8 6.2
12 -21 6 20.38 6.93
9 12 9 1.48 3.7
12 -20 -7 27.33 8.77
12 -20 -4 12.89 7.02
12 -20 -4 7.35 5.86
12 -20 -4 6.34 7.6
12 -20 -1 49.08 6.89
12 -20 -1 59.63 8.27
8 12 8 3.61 5.31
12 -19 -8 172.13 16.21
12 -19 -5 147.81 15.61
12 -19 -5 156.02 15.2
12 -19 -2 5.67 5.16
-19 7 7 49.71 13.56
12 -18 -9 0.38 5.81
12 -18 -6 29.43 8.67
12 -18 -3 65.76 8.48
12 -18 0 37 7.81
12 -18 3 -2.43 6.12
-18 6 3 13.54 10.01
-18 6 6 27.16 12.37
6 12 9 6.58 4.45
-18 6 9 14.08 6.19
12 -17 -10 18.77 5.22
12 -17 -7 2.58 7.71
12 -17 -7 12.07 7.94
12 -17 -4 31.89 6.91
12 -17 -4 36.86 6.62
12 -17 -1 128.06 11.67
12 -17 -1 144.63 14.7
12 -17 2 97.74 11.23
-17 5 5 23.74 11.83
12 -17 5 14.64 7.88
5 12 8 11.17 5.32
12 -16 -8 146.56 14.84
12 -16 -5 117.97 11.92
12 -16 1 168.34 13.24
-16 4 4 291.49 26.87
12 -16 4 250.64 23.95
12 -16 7 82.52 10.55
12 -16 7 74.15 13
4 12 7 66.41 8.65
-16 4 7 93.29 16.28
-16 4 10 -3.77 5.06
12 -15 -9 12.9 6.97
12 -15 -6 61.63 11.65
12 -15 0 133.88 15.97
12 -15 3 1.97 7.13
-15 3 3 29.82 9.63
-15 3 6 38.06 13
12 -15 6 33.57 8.02
12 -15 6 28.34 10.6
-15 3 9 25.67 7.18
12 -14 -10 39.03 6.67
12 -14 2 462.41 37.2
12 -14 5 18.64 6.44
-14 2 5 24.21 10.49
-14 2 5 25.52 10.79
12 -14 5 25.15 8.73
-14 2 8 -2.98 10.98
12 -14 8 28.1 8.41
12 -13 -5 172.4 15.73
12 -13 1 313.67 25.3
12 -13 1 290.05 22.48
12 -13 1 305.7 26.47
-13 1 4 354.89 29.21
12 -13 4 288.06 27.13
12 -13 7 60.25 10.57
12 -13 7 60.13 10.66
-13 1 7 60.2 14.52
12 -13 7 49.66 12.47
-13 1 10 -3.89 5.67
12 -12 0 429.92 35.13
-12 0 3 83.56 11.56
12 -12 3 53.44 10.13
12 -12 6 10.87 5.52
12 -12 6 20.09 7.02
12 -12 6 28.11 10.09
-12 0 6 28.46 11.52
-12 0 9 37.07 7.83
12 -12 9 41.46 9.38
12 -11 -10 47.6 7.56
12 -11 2 626.23 49.12
-11 -1 5 66.47 12.89
-1 12 5 58.83 10.4
12 -11 5 60.31 11.34
-11 -1 5 64.08 12.08
-11 -1 8 18.39 13.29
12 -11 8 33.08 7.66
12 -11 8 18.62 8.33
-11 -1 8 27.9 7.4
12 -11 8 18.42 10.72
12 -10 1 202.3 20.91
12 -10 1 244.05 20.71
-10 -2 4 134.88 17.73
-10 -2 4 155.44 16.84
-2 12 4 161 15.21
12 -10 4 147.75 16.22
12 -10 7 20.49 7.88
-2 12 7 15.15 10.45
12 -10 7 18.3 10.82
12 -10 7 37.36 9.94
-10 -2 7 21.07 11.37
-10 -2 10 2.71 5.64
-9 -3 -6 17.87 6.52
12 -9 0 304.89 26.58
-9 -3 3 60.46 9.91
-3 12 3 40.36 7.71
12 -9 3 59.96 10.09
-3 12 6 18.23 5.07
-9 -3 6 9.78 9.8
12 -9 6 19.56 7.21
12 -9 6 7.09 6.73
12 -9 6 17.58 6.07
-3 12 6 26.39 9.76
12 -9 6 26.34 10.94
-9 -3 9 44.29 8.25
12 -9 9 58.01 8.73
12 -9 9 36.92 9.28
-8 -4 -7 22.24 12.2
-8 -4 -4 102.81 9.15
12 -8 -1 606.9 44.91
-8 -4 2 475.46 37.47
-4 12 2 474.04 35.97
-8 -4 5 56.59 10.61
-4 12 5 42.01 5.59
-4 12 5 36.93 9.31
-8 -4 5 39.53 11.1
-4 12 8 26.12 6.6
12 -8 8 16.3 11.18
-4 12 8 25.06 11.61
-8 -4 8 24.49 7.3
-8 -4 8 14.67 13.43
12 -8 8 28.11 7.95
-7 -5 -8 14.08 7.92
-7 -5 -5 3.25 3.96
-5 12 1 81.02 7.45
-7 -5 4 19.75 10.54
-7 -5 4 24.16 7.97
-5 12 4 15.39 6.66
12 -7 7 24.63 8.64
-5 12 7 14.06 5.68
-5 12 7 11.78 10.56
-7 -5 7 2.51 5.99
-6 -6 -9 11.47 7.04
-6 -6 -6 19.99 4.99
-6 -6 -6 15.55 6.55
-6 -6 -3 299.64 23.12
-6 -6 -3 302.84 25.44
12 -6 0 556.29 43.98
12 -6 3 175.59 16.06
-6 12 3 148.71 13.92
-6 -6 3 124.65 13.85
-6 -6 3 146.73 17.79
12 -6 6 7.67 6.26
12 -6 6 10.21 6.82
12 -6 6 6.38 10.16
-6 12 6 10.78 4.83
-6 -6 6 10.86 5.11
-6 -6 9 20.48 6.88
12 -6 9 13.82 8.41
12 -6 9 21.24 7.72
-5 -7 -7 11.79 5.2
-5 -7 -7 37.64 14.07
-5 -7 -4 177.79 14.7
12 -5 -1 730.25 53.84
-5 -7 2 729.69 53.89
-7 12 2 693.02 50.52
-5 -7 2 614.71 49.96
12 -5 2 695.16 52.17
12 -5 2 647.88 52.71
-7 12 5 42.22 9.21
12 -5 5 30.21 10.02
-5 -7 5 28.29 11.16
-5 -7 5 32.82 8.94
12 -5 8 38.36 12.96
-7 12 8 64.51 8.21
-5 -7 8 41.33 7.83
12 -5 8 53.07 9.65
-7 12 8 43.44 13.02
-5 -7 8 27.25 12.78
-4 -8 -8 7.47 8.04
-4 -8 -8 9.75 5.23
-4 -8 -5 225.59 18.41
-4 -8 -2 822.32 60.38
-4 -8 -2 800.81 62.71
-4 -8 1 465.7 38.71
-4 -8 1 607.3 42.84
12 -4 1 585.82 41.91
-8 12 4 14.42 7.14
12 -4 4 19.31 8.83
-4 -8 4 23.82 7.01
-4 -8 4 28.63 11.15
-8 12 7 69.5 8.3
-8 12 7 69.44 14.31
-4 -8 7 74.17 8.27
12 -4 7 59.19 10.3
12 -4 7 46 12.99
-3 -9 -9 38.42 8.98
-3 -9 -6 13.98 5.7
-3 -9 -6 15.59 7.15
-3 -9 -6 19.45 6.36
-3 -9 -3 77.88 8.01
-3 -9 -3 72.06 10.62
-3 -9 0 486.15 38.76
12 -3 0 467.72 38.35
-9 12 3 402.11 34.24
-3 -9 3 459.27 37.06
12 -3 3 437.7 35.39
12 -3 6 58.08 8.06
12 -3 6 41.91 12.09
-9 12 6 29.37 10.43
-3 -9 6 39.53 11.34
-3 -9 6 49.9 6.66
-9 12 9 12.21 6.27
12 -3 9 15.67 7.33
12 -3 9 10.33 7.98
-2 -10 -7 18.34 9.91
-2 -10 -7 10.99 6.13
-2 -10 -7 19.24 11.76
-2 -10 -4 104.18 10.15
-2 -10 -1 532.75 39.61
-2 -10 -1 475.48 36.51
12 -2 -1 484.86 36.32
-10 12 2 485.57 33.04
12 -2 2 469.93 34.07
-10 12 5 65.65 11.09
-2 -10 5 58.26 6.43
12 -2 5 46.2 11.17
-2 -10 5 28.28 10.16
-10 12 8 23.13 6.68
12 -2 8 16.21 11.15
-10 12 8 9.87 11.1
12 -2 8 5.57 6.95
12 -2 8 8.56 7.7
-2 -10 8 30.4 11.24
-1 -11 -8 37.9 7.45
-1 -11 -8 41.7 8.63
-1 -11 -8 48.72 9.72
-1 -11 -5 329.94 26.22
-1 -11 -2 520.28 38.81
-1 -11 -2 499.34 41.29
12 -1 1 97.89 13.29
-1 -11 1 85.24 16.57
12 -1 1 85.8 13
-1 -11 4 52.88 9.16
-1 -11 4 81.14 15.11
-11 12 4 86.19 11.3
12 -1 4 65.13 11.17
-11 12 7 203.98 21.93
12 -1 7 166.66 19.04
12 -1 7 189.5 18.17
-1 -11 7 159.31 20.34
12 -1 7 193.48 21.75
-11 12 10 86.45 9.09
12 -1 10 72.57 9.3
0 -12 -9 39.41 7.33
0 -12 -9 41.61 9.45
0 -12 -9 23.03 6.3
0 -12 -6 16.88 6.72
0 -12 -6 20.51 6.73
0 -12 -6 23.85 7.51
0 -12 -3 88.9 9.14
0 -12 0 426.5 34.74
12 0 0 391.98 33.38
12 0 3 242.27 23.05
-12 12 3 292.77 23.67
0 -12 3 246.31 20.39
0 -12 3 269.97 26.55
12 0 6 45.29 8.27
-12 12 6 33.2 11.12
12 0 6 24.96 10.84
0 -12 6 40.16 9.71
12 0 6 46.4 7.56
12 0 9 9.15 7.79
-12 12 9 17.53 6.42
12 0 9 1.18 7.34
1 -13 -7 22.37 7.22
1 -13 -7 20.34 9.9
1 -13 -7 27.12 9.24
1 -13 -4 19.82 5.89
1 -13 -1 282.69 22.49
1 -13 -1 298.12 26.98
12 1 2 210.65 20.22
12 1 5 25.96 6.94
12 1 5 18.56 9.78
-13 12 5 31.93 10.41
12 1 5 26.02 6.55
12 1 5 30.74 6.41
1 -13 5 29.74 7.86
-13 12 8 6.02 6.8
12 1 8 12.86 7.78
12 1 8 -5.17 10
2 -14 -8 115.9 12.08
2 -14 -8 98.29 12.47
2 -14 -8 117.74 13.31
2 -14 -5 561.06 43.74
2 -14 -5 581.8 44.13
12 2 1 55.62 9.46
12 2 1 42.03 5.36
12 2 1 48.35 9.57
12 2 4 160.93 18.05
-14 12 4 187.56 19.03
-14 12 7 262.13 28.62
12 2 7 282.72 23.6
12 2 7 304.21 24.23
12 2 7 264.84 28.03
-14 12 10 114.02 9.79
12 2 10 72.64 9.62
3 -15 -9 18.28 7.73
3 -15 -9 27.13 6.65
3 -15 -6 11.8 7.27
3 -15 -6 18.68 12.08
12 3 0 120.27 14.47
12 3 0 118.16 10.43
12 3 3 67.44 11.55
-15 12 3 94.91 12.59
12 3 6 20.08 12.2
-15 12 6 14.75 11.12
12 3 6 10.83 9.9
12 3 6 21.35 9.23
-15 12 9 6.57 6.05
12 3 9 6.06 6.5
4 -16 -10 4.83 4.23
4 -16 -7 10.42 8.6
4 -16 -7 21.47 7.68
4 -16 -7 12.15 8.66
4 -16 -4 11.12 6.52
4 -16 -4 3.35 5.89
4 -16 -4 2.51 5.96
12 4 -1 11.19 7.83
4 -16 -1 19.47 5.38
12 4 2 32.23 8.78
-16 12 5 23.82 10.89
12 4 5 15.75 6.49
12 4 5 16.04 5.41
12 4 5 20.91 9.27
12 4 8 19.25 7.03
5 -17 -8 112.03 12.45
5 -17 -8 108.35 12.72
5 -17 -8 87.85 11.36
5 -17 -5 723.59 54.29
5 -17 -5 687.39 54.1
5 -17 -5 727.45 54.56
5 -17 -2 985.79 73.24
12 5 4 102.59 14.39
-17 12 4 117.04 15.86
12 5 4 116.63 11.06
-17 12 7 238.06 27.42
12 5 7 277.6 22.29
12 5 7 272.39 23.02
12 5 10 78.65 8.53
-17 12 10 84.36 8.61
6 -18 -9 2.49 5.43
6 -18 -6 11.4 7.53
6 -18 -6 8.32 8.46
6 -18 -6 9.17 8.24
6 -18 -3 7.57 5.71
6 -18 -3 11.52 6.09
12 6 0 20.58 7.37
12 6 3 19.59 8.16
-18 12 3 26.83 10.27
-18 12 6 -6.81 10.87
12 6 6 4.57 8.01
-18 12 9 1.01 5.58
12 6 9 3.28 5.47
7 -19 -7 -1.91 7.23
7 -19 -7 10.96 8.11
7 -19 -7 8.85 8.01
7 -19 -4 13.82 7.27
7 -19 -4 9.45 5.91
7 -19 -4 10.61 6.02
7 -19 -1 11.77 5.33
12 7 5 12.04 11.84
-19 12 5 1.28 10.44
8 -20 -8 65.42 10.33
8 -20 -8 59.66 8.93
8 -20 -5 458.91 36.7
8 -20 -2 603.38 44.27
8 -20 -2 562.44 44.2
8 -20 -2 572.97 44.21
-20 12 4 66.4 14.37
12 8 4 75.12 8.83
12 8 7 206.66 18.22
9 -21 -9 8.3 5.15
9 -21 -6 12.61 8.76
9 -21 -6 24.64 7.9
9 -21 -3 10.51 6.21
9 -21 -3 13.67 5.61
9 -21 -3 21.97 6.64
9 -21 -3 10.13 6.81
9 -21 -3 23.41 6.6
-21 12 3 -1.18 9.72
12 9 3 0.28 5.1
12 9 6 12 6.98
-21 12 6 -1.44 9.97
12 9 9 12.74 4.5
-21 12 9 2.83 4.97
10 -22 -7 6.31 7.1
10 -22 -7 0.48 8.55
10 -22 -4 -0.96 10.37
10 -22 -4 -6.78 6.93
10 -22 -4 9.74 6.56
12 10 -1 21.15 7.7
10 -22 -1 11.23 5.38
10 -22 -1 17.84 6.94
10 -22 -1 21.35 5.81
12 10 5 11.05 7.06
-22 12 5 16.73 11.5
12 10 8 5.37 5.11
11 -23 -8 40.78 7.01
11 -23 -5 289.84 23.22
11 -23 -5 253.64 22.32
11 -23 -5 266.41 23.43
11 -23 -2 368.31 28.58
11 -23 -2 369.48 28.64
11 -23 -2 344.32 30.02
11 -23 -2 341.07 28.43
12 11 1 47.56 8.69
-23 12 4 49.29 13.47
12 11 4 38.88 10.15
12 -24 -6 3.17 6.96
12 -24 -3 11.3 8.97
12 -24 -3 -2.22 11.03
12 -24 -3 5.54 6.41
12 -24 0 35.78 12.29
12 12 0 36.78 9.23
-24 12 3 33.58 11.67
12 -24 6 14.3 7.04
13 -25 -7 8.66 6.11
13 -25 -4 0.45 6.29
13 -25 -4 -2.69 5.41
13 -25 -4 13.8 7.46
13 -25 -1 54.61 12.26
13 -25 2 74.59 11.09
13 -25 5 22.92 7.87
12 13 8 8.42 3.94
13 -24 -5 31.6 8.86
13 -24 -5 44.36 8.4
13 -24 -2 290.96 23.42
13 -24 -2 279.55 24.51
13 -24 -2 282.41 24.12
13 -24 4 68.84 10.43
13 -23 -9 7.95 4.47
13 -23 -6 2.32 7.05
13 -23 -3 55.46 9.42
13 -23 -3 50.52 8.68
13 -23 0 126.73 13.47
13 -23 3 54.5 10.73
13 -23 6 -6.11 6.15
13 -22 -7 -0.48 8.64
13 -22 -4 45.28 11.39
13 -22 -4 22.56 6.86
13 -22 -4 28.32 7.5
13 -22 -1 75.88 9.69
13 -22 -1 60.09 7.81
13 -22 2 33.85 8.04
13 -22 5 -2.57 7.07
9 13 8 8.72 4.54
13 -21 -8 27.86 7.12
13 -21 -5 30.76 8.23
13 -21 -5 28.84 8.93
13 -21 -2 454.75 33.18
13 -21 -2 427.86 33.61
13 -21 -2 396.82 33.02
13 -21 1 484.9 37.77
13 -21 4 57.49 11.87
13 -20 -9 22.28 5.83
13 -20 -6 9.84 7.61
13 -20 -3 1.61 5.85
13 -20 -3 9.51 6.32
13 -20 0 39.88 7.36
13 -20 3 35.56 7.96
-20 7 3 64.2 13.56
-20 7 6 2.94 10.43
-20 7 9 1.55 5.33
13 -19 -4 71.24 10.04
13 -19 -4 90.66 10.26
13 -19 -4 77.57 8.99
13 -19 -1 90.44 9
13 -19 -1 88.18 11.37
13 -19 5 4.47 6.11
-19 6 5 24.16 11.55
13 -18 -8 40.69 8.35
13 -18 -5 23.21 7.51
13 -18 -2 334.28 25.96
13 -18 -2 318 28.37
-18 5 4 40.01 13.08
13 -18 4 57.2 8.05
13 -18 4 42.56 9.7
-18 5 7 4.39 11.56
13 -18 7 9.96 7.04
-18 5 10 32.44 5.63
13 -17 -9 21.38 6.66
13 -17 -6 55.59 10.37
13 -17 0 55.64 10.52
-17 4 3 119.48 16.72
13 -17 3 109.65 13.65
13 -17 6 21.06 7.68
13 -17 6 11.36 9.01
-17 4 9 -0.36 5.87
13 -16 -10 5.31 4.81
13 -16 -4 274.45 22.6
13 -16 -1 184.43 17.72
13 -16 -1 166.1 14.07
13 -16 2 -3.6 6.72
-16 3 5 93.27 15.44
13 -16 5 102.69 10.63
13 -16 5 108.21 13.93
13 -16 8 93.61 11.23
13 -15 -5 14.88 6.37
13 -15 1 477.79 37.23
13 -15 1 448.15 33.78
13 -15 4 79.52 11.77
-15 2 4 86.33 13.99
13 -15 7 2.82 7.41
-15 2 7 1.43 10.19
13 -15 7 9.38 9.3
-15 2 10 24.44 5.8
13 -14 -9 28.94 7.73
13 -14 0 18.22 10.01
13 -14 0 14.11 3.98
13 -14 3 94.83 12.64
-14 1 3 105.2 14.01
13 -14 6 91.89 10.02
13 -14 6 98.86 14.46
13 -14 6 103.37 11.76
-14 1 6 67.02 14.79
-14 1 9 15.38 7.01
13 -14 9 29.76 8.52
13 -13 -10 2.71 5.38
13 -13 2 31.25 8.98
-13 0 5 113.08 15.58
13 -13 5 95.83 13.91
13 -13 5 100.88 10.63
-13 0 5 88.55 14.55
-13 0 8 153.85 14.13
13 -13 8 143.66 18.45
13 -13 8 121.62 14.34
13 -12 1 330.25 27.16
13 -12 1 317.87 24.19
13 -12 1 301.45 28.08
-12 -1 4 18.9 9.22
13 -12 4 19.37 8.61
13 -12 7 27.19 9.18
13 -12 7 33.06 10.91
-12 -1 7 25.91 12.01
13 -12 7 8.78 8.49
-12 -1 10 36.2 6.76
13 -11 0 4.1 9.35
13 -11 0 14.73 3.84
-11 -2 3 38.8 9.72
13 -11 3 59.12 9.86
13 -11 6 95.78 9.61
13 -11 6 71.3 13.95
-11 -2 6 92.22 14.53
13 -11 6 75.5 9.9
-11 -2 9 42.05 7.84
13 -11 9 40.85 9.83
13 -10 -10 0.73 5.95
13 -10 -1 493.11 36.81
13 -10 2 19.51 8.99
-10 -3 2 10.6 7.38
-3 13 5 192.05 18.17
-10 -3 5 164.97 18.86
-10 -3 5 137.41 19.19
13 -10 5 210.64 19.76
-10 -3 8 226.27 18.31
13 -10 8 216.47 18.39
13 -10 8 197.75 23.27
13 -10 8 210.16 19.05
-9 -4 -8 3.98 6.78
13 -9 1 33 11.72
13 -9 1 40.47 10.38
-4 13 4 -1.12 6.35
-9 -4 4 5.11 7.14
-9 -4 4 -6.06 10.33
13 -9 4 14.61 8.22
-4 13 7 25.41 6.2
13 -9 7 33.53 11.89
-4 13 7 38.71 10.8
13 -9 7 44.4 9.64
13 -9 7 25.07 11.34
-9 -4 7 49.87 7.8
-8 -5 -6 139.61 13.58
-5 13 3 81.68 9.98
-8 -5 3 114.52 16.79
-8 -5 3 80.1 11.75
-5 13 6 115.72 10.47
13 -8 6 106.97 11.97
-5 13 6 127.36 15.67
-8 -5 6 97.76 15.23
13 -8 9 47.34 8.68
-8 -5 9 32.68 7.39
-7 -6 -7 178 17.95
-7 -6 -4 621.69 46.4
-7 -6 2 6.93 5.71
-6 13 2 11.15 4.83
-6 13 5 287.12 24.15
-7 -6 5 247.17 25.57
-7 -6 5 242.9 24.18
-7 -6 8 170.33 23.59
-6 13 8 205.73 17.71
-6 13 8 189.37 22.86
13 -7 8 227.66 18.89
-7 -6 8 214.02 18.18
-6 -7 -8 77.84 10.97
-6 -7 -5 238.25 19.21
13 -6 1 16.69 9.75
-6 -7 1 26.27 12.37
13 -6 1 19.15 11.41
-6 -7 1 14.82 5.16
-7 13 1 13.61 4.98
-6 -7 4 141.15 19.72
13 -6 4 175.31 18.24
-6 -7 4 167.87 16.74
-7 13 4 188 16.85
13 -6 7 102.43 14.69
-6 -7 7 110.67 11.26
-7 13 7 114.04 11.09
-7 13 7 114.32 16.7
-6 -7 7 108.44 17.36
13 -6 7 97.61 16.63
13 -6 7 108.83 14.49
-5 -8 -9 16.53 7.62
-5 -8 -6 54.13 7.36
-5 -8 -6 57.92 8.16
-5 -8 -6 58.57 8.94
-5 -8 -3 121.05 13.53
-5 -8 -3 109.9 10.44
13 -5 0 91.99 13.28
13 -5 0 76.08 7.45
-5 -8 0 96.74 13.49
-5 -8 3 4.57 6.04
13 -5 3 10.19 9.54
-8 13 3 9.3 7.49
-5 -8 3 11.76 13.07
13 -5 6 40.4 8.05
-8 13 6 22.43 8.94
-5 -8 6 24.83 10.65
-5 -8 6 34.7 6
13 -5 6 26.24 7.14
13 -5 6 39.72 11.69
-8 13 9 41.26 6.97
13 -5 9 24.81 8.98
-4 -9 -7 108.83 11.73
-4 -9 -7 117.55 14.86
-4 -9 -4 494.85 37.51
-4 -9 -1 386.01 32.54
13 -4 -1 375.93 28.61
13 -4 2 10.4 10.3
-9 13 2 -0.43 6.91
-4 -9 2 1.55 13.37
13 -4 2 11.23 11.89
-4 -9 2 0.96 4.24
-4 -9 5 202.77 21.5
-4 -9 5 167.1 14.02
-4 -9 5 145.21 17.49
13 -4 5 162.45 18.71
-9 13 5 195.63 18.26
-4 -9 8 135.12 20.21
-9 13 8 173.33 21.6
-9 13 8 200.24 15.95
13 -4 8 155.94 20.96
13 -4 8 173.9 16.7
-3 -10 -8 108.52 11.5
-3 -10 -8 101.6 12.2
-3 -10 -5 265.06 21.69
-3 -10 -5 273.65 22.33
-3 -10 -2 104.74 9.65
-3 -10 -2 90.17 13.13
13 -3 1 141.14 15
-3 -10 1 110.86 16.58
13 -3 1 133.36 15.45
-3 -10 4 322.95 30.74
-10 13 4 405.59 32.3
-3 -10 4 413.14 34.98
13 -3 4 446.82 33.43
-3 -10 7 167.33 14.81
-3 -10 7 118.41 19.02
13 -3 7 175.23 20.66
13 -3 7 173.15 17.38
-10 13 7 185.82 15.3
13 -3 10 0.66 5.98
-2 -11 -9 -7.86 8.53
-2 -11 -6 44.96 7.34
-2 -11 -6 32.13 7.61
-2 -11 -6 42.25 8.32
-2 -11 -3 252.95 20.71
-2 -11 -3 275.3 23.05
13 -2 0 307.58 24.25
13 -2 0 249.56 20.28
-2 -11 0 288.47 25.32
-2 -11 3 10.39 4.83
-2 -11 3 23.57 12.24
13 -2 3 22.14 9.21
-11 13 3 23.94 8.14
-11 13 6 35.07 10.24
13 -2 6 36.69 7.96
-2 -11 6 26.9 5.42
13 -2 6 20.07 10.77
-2 -11 6 25.83 9.45
13 -2 6 37.14 7.24
-11 13 9 56.08 7.8
13 -2 9 40.8 8.85
13 -2 9 33.25 9.16
-1 -12 -7 93.47 12
-1 -12 -7 66.31 13.18
-1 -12 -7 75.7 9.53
-1 -12 -4 351.45 27.55
-1 -12 -1 304.02 27.72
13 -1 2 -2.08 9.47
-12 13 5 143.97 16.64
13 -1 5 120.31 12.08
13 -1 5 141.99 16.82
13 -1 5 114.9 12.6
-1 -12 5 127.42 14.2
13 -1 5 135.82 12.39
13 -1 8 118.23 13.1
-12 13 8 144.75 12.73
13 -1 8 99.89 17.15
13 -1 8 118.68 13.2
-12 13 8 108.56 18.27
0 -13 -8 141.53 14.42
0 -13 -8 157.81 15.45
0 -13 -8 175.57 16.33
0 -13 -5 118.51 12.13
0 -13 -5 126.34 12.66
0 -13 -2 30.59 10.59
0 -13 1 664.76 49.63
13 0 1 620.19 47.12
13 0 1 620.75 47.17
13 0 1 571.95 44.24
13 0 4 635.91 52.7
-13 13 4 683.6 52.83
13 0 7 173.9 16.31
13 0 7 166.02 15.68
13 0 7 125.07 19.03
-13 13 7 176.36 20.6
-13 13 10 5.91 4.9
13 0 10 6.35 5.67
1 -14 -9 10.01 6.79
1 -14 -9 -1.78 5.51
1 -14 -6 55.33 8.71
1 -14 -6 40.2 13.61
1 -14 -6 46.11 16.48
1 -14 -3 155.64 13.85
13 1 0 176.52 16.73
13 1 0 143.72 12.53
1 -14 0 189.1 19.64
-14 13 3 65.56 10.68
13 1 3 37.43 9.99
13 1 6 13.14 12.83
13 1 6 -2.25 9.86
13 1 6 3.11 10.48
-14 13 6 1.17 9.28
-14 13 9 21.93 6.56
13 1 9 17.93 7.85
13 1 9 23.47 7.3
2 -15 -7 14.43 8.35
2 -15 -7 28.01 9.19
2 -15 -7 28.43 7.56
2 -15 -4 148.32 13.41
2 -15 -4 133.2 13.5
13 2 -1 150.92 16.82
2 -15 -1 160.36 13.72
13 2 2 24.51 8.82
13 2 5 27.99 6.36
13 2 5 25.23 7.35
13 2 5 11.91 9.91
13 2 5 8.72 6.42
-15 13 5 15.11 10.07
13 2 8 33.11 7.81
3 -16 -8 236.85 21.68
3 -16 -8 243.68 21.11
3 -16 -8 268.63 22.29
3 -16 -5 263.43 21.14
3 -16 -5 231.92 20.85
3 -16 -5 241.64 21.29
3 -16 -2 6.55 5.26
13 3 1 443.15 33.68
13 3 1 472.14 36.44
13 3 4 602.43 50.11
-16 13 4 664.24 51.34
13 3 4 615.96 46.89
13 3 7 124.76 18.85
13 3 7 185.63 16.49
-16 13 7 224.86 22.41
13 3 7 160.97 15.56
-16 13 10 1.03 4.47
13 3 10 6.57 5.21
4 -17 -9 2.83 5.44
4 -17 -9 13.99 6.64
4 -17 -6 10.86 9.23
4 -17 -6 -0.92 7.18
13 4 0 86.38 11.45
13 4 3 11.56 8.93
-17 13 3 12.06 9.68
13 4 6 11.14 9.64
-17 13 6 5.2 10.13
13 4 6 7.82 7.18
13 4 6 1.12 8.89
-17 13 9 7.7 5.77
13 4 9 8.12 5.76
5 -18 -7 8.99 7.8
5 -18 -7 19.99 8.48
5 -18 -4 34.43 7.55
13 5 -1 27.55 8.64
5 -18 -1 32.03 6.24
13 5 2 -2.69 6.72
13 5 5 12.42 9.91
13 5 5 31.76 15.19
-18 13 5 4.9 10.4
5 -18 8 -0.81 5.16
13 5 8 2.22 6.07
6 -19 -8 270.52 23.81
6 -19 -8 313.04 24.86
6 -19 -5 282.58 24.67
6 -19 -5 264.62 24.46
6 -19 -5 292.67 24.13
6 -19 -2 6.2 5.46
-19 13 4 555.22 45.29
13 6 4 518.88 40.15
6 -19 7 127.29 11.85
13 6 7 124.91 13.42
13 6 10 4.73 4.65
7 -20 -9 13.15 5.43
7 -20 -6 6.3 7.3
7 -20 -6 8.46 8.16
7 -20 -6 10.48 7.92
7 -20 -3 0.36 6.08
7 -20 -3 9.93 7.06
7 -20 -3 9.63 5.93
7 -20 -3 1.74 6
-20 13 3 5.55 9.81
13 7 3 11.19 5.67
-20 13 6 2.79 10.61
13 7 6 14.06 7.78
13 7 9 -1.02 4.83
-20 13 9 9.7 5.49
8 -21 -7 -3.51 8.25
8 -21 -7 17.06 8.13
8 -21 -7 0.46 6.88
8 -21 -4 12.01 8.51
8 -21 -4 3.1 9.66
8 -21 -4 4.9 7.49
8 -21 -4 1.34 7.18
13 8 -1 11.92 7.16
8 -21 -1 2.55 4.92
8 -21 -1 10.06 6.29
13 8 2 12 5.32
13 8 5 10.12 7.7
-21 13 5 5.4 11.06
13 8 8 3.39 5.59
9 -22 -8 128.05 12.79
9 -22 -8 131.73 13.28
9 -22 -5 135.76 14.76
9 -22 -5 169.05 14.87
9 -22 -5 141.07 15.44
9 -22 -2 2.31 5.82
13 9 -2 -2.07 7.33
9 -22 -2 -4.14 5.52
9 -22 -2 4.1 6.49
13 9 1 199.84 17.43
-22 13 4 334.53 32.34
10 -23 -9 -2.82 4.43
10 -23 -6 16.5 7.5
10 -23 -3 24.1 8.6
10 -23 -3 32.05 10.81
10 -23 -3 13.34 7.23
10 -23 -3 16.79 6.53
10 -23 -3 27.75 7.98
13 10 0 14.52 7.65
10 -23 0 18.47 7.32
-23 13 3 2.58 10.89
13 10 6 -1.31 6.63
13 10 9 4.9 3.81
-23 13 9 -0.23 4.15
11 -24 -7 0.87 7.41
11 -24 -4 41.11 8.9
11 -24 -4 33.13 8.18
11 -24 -4 26.17 7.03
11 -24 -1 71.41 8.73
11 -24 -1 65.98 8.6
11 -24 -1 77.74 12.77
13 11 -1 67.93 11.52
13 11 5 0.64 6.41
-24 13 5 -2.8 10.46
13 11 8 16.73 4.87
12 -25 -5 81.35 9.69
12 -25 -5 79.8 11.01
12 -25 -5 76.69 10.2
12 -25 -2 11.64 8.44
12 -25 -2 5.4 7.57
12 -25 -2 11.44 7.45
12 -25 1 173.6 17.83
12 -25 4 199.36 18.2
-25 13 4 172.23 22.39
13 -26 -6 14.99 6.6
13 -26 -6 17.75 7.81
13 -26 -3 50.01 8.82
13 -26 -3 56.51 8.62
13 -26 0 57.19 10.32
-26 13 3 27.84 11.57
13 -26 3 11.59 8.3
13 -26 6 7.58 6.72
14 -27 -7 2.8 5.03
14 -27 -4 38.53 8.27
14 -27 -4 42.4 7.77
14 -27 -1 82.93 11.43
-27 13 2 15.02 11.26
14 -27 2 57.81 9.88
14 -27 5 2.11 7.37
14 -26 -8 18.6 4.83
14 -26 -5 133.45 13.3
14 -26 -5 127.48 13.61
14 -26 -2 132.7 13.86
14 -26 -2 121.51 12.67
14 -26 4 38.84 8.94
12 14 7 43.91 5.87
14 -25 -6 47.48 8.43
14 -25 -6 57.81 10.16
14 -25 -3 73.29 9.18
14 -25 -3 57.04 9.19
14 -25 0 37.97 11.88
14 -25 3 6.38 8.06
14 -25 6 8.55 5.97
14 -24 -7 3.19 6.11
14 -24 -4 53.52 9.3
14 -24 -4 52.24 8.95
14 -24 -1 39.4 10.43
14 -24 2 -6.2 9.61
14 -24 5 3.49 7.14
14 -23 -5 258.64 22.6
14 -23 -5 271.44 23
14 -23 -2 310 23.79
14 -23 -2 281.23 23.67
14 -23 -2 268.03 27.67
14 -23 4 55.47 9.6
14 -22 -9 -3.63 4.45
14 -22 -6 51.18 9.35
14 -22 -3 164.87 14.87
14 -22 -3 146.35 15.86
14 -22 0 97.48 11.4
-22 8 3 -2.56 11.41
14 -22 3 3.08 11.81
-22 8 9 4.65 4.67
14 -21 -4 81.7 10.15
14 -21 -4 69.88 10.83
14 -21 -1 17.06 6.84
14 -21 -1 18.56 5
14 -21 2 19.84 7.6
-21 7 5 57.74 13.82
14 -21 5 56.62 10.33
14 -20 -8 34.23 7.8
14 -20 -5 235.95 21.66
14 -20 -5 255.06 21.44
14 -20 -2 292.94 23.6
14 -20 -2 297.18 24.32
14 -20 1 14.37 6.79
-20 6 4 30.83 12.57
14 -20 4 61.22 8.66
14 -19 -9 2.81 5.49
14 -19 -6 33.52 8.54
14 -19 -6 26.54 8.58
14 -19 -3 87.7 10.09
14 -19 -3 96.91 10.26
14 -19 0 89.32 11.66
14 -19 3 7.1 6.34
14 -19 3 8.69 6.26
-19 5 3 4.49 9.71
14 -19 6 3.33 6.75
-19 5 6 10.11 11.24
-19 5 9 23.63 6.33
14 -18 -10 13.62 4.68
14 -18 -4 69.83 9.28
14 -18 -1 1.72 4.14
14 -18 -1 5.13 8.44
14 -18 2 73.59 7.06
-18 4 5 118.75 17.32
14 -18 5 102.65 10.37
14 -18 8 34.9 7.76
14 -17 -8 21.26 7.68
14 -17 1 21.24 3.87
-17 3 4 40.65 12.4
14 -17 4 34.99 9.85
-17 3 7 92.65 16.13
14 -17 7 56.78 12.68
14 -17 7 103.74 10.92
-17 3 10 22.58 5.17
14 -16 -9 20.78 6.77
14 -16 0 267.83 23.02
14 -16 0 242.03 19.05
14 -16 3 99.43 13.07
-16 2 3 93.23 14.57
14 -16 6 8.74 8.84
-16 2 6 5.37 10.32
14 -16 6 4.84 7.62
-16 2 9 9.65 6.2
14 -15 -10 61.07 7.65
14 -15 -4 117.57 11.95
14 -15 -1 48.51 11.31
14 -15 2 486.73 39.37
-15 1 5 343.51 29.86
-15 1 5 252.12 28.56
14 -15 5 297.22 24.37
14 -15 5 330.64 28.28
-15 1 8 37.79 8.22
14 -15 8 59.57 9.31
14 -14 -11 7.07 3.83
14 -14 -5 269.57 22.56
14 -14 1 24.22 8.04
14 -14 1 20.41 4.13
14 -14 1 28.59 10.72
14 -14 4 62.62 11.06
-14 0 4 53.29 11.59
14 -14 7 99.87 10.45
-14 0 7 74.41 15.32
14 -14 7 77.44 11.21
14 -14 7 88.34 14.64
-14 0 10 28.07 6.02
14 -13 0 170.35 13.67
14 -13 0 161.1 18.47
-13 -1 3 148.71 16.18
14 -13 3 132.04 15.81
14 -13 6 36.11 6.92
14 -13 6 17.8 10.84
14 -13 6 38.7 11.84
-13 -1 6 42.78 12.53
-13 -1 9 4.09 6.24
14 -13 9 0.81 7.88
14 -12 -10 112.53 11.22
14 -12 2 581.24 46.46
14 -12 5 492.25 39.18
-12 -2 5 520.4 39.85
14 -12 5 455.96 35.29
-12 -2 5 372.51 38.64
-12 -2 8 97.31 10.63
-12 -2 8 80.05 16.52
14 -12 8 90.91 10.51
14 -12 8 70.18 14.42
14 -12 8 78.23 11.35
14 -11 1 22.52 8.68
14 -11 1 25.47 4.6
14 -11 1 20.96 10.99
-11 -3 4 54.47 13.44
-11 -3 4 64.25 11.13
14 -11 4 68.72 11.6
14 -11 7 48.22 8.62
14 -11 7 25.29 11.26
-11 -3 7 38.26 12.61
14 -11 7 34.26 9.1
14 -10 0 104.33 14.53
14 -10 0 92.26 8.57
-10 -4 3 115.74 13.48
14 -10 3 115.85 14.1
14 -10 6 37.5 8.22
14 -10 6 42.62 11.76
14 -10 6 37.38 8.28
-10 -4 6 54.63 11.98
14 -10 6 38.74 7.08
-10 -4 9 10.71 6.26
14 -10 9 5.37 7.36
14 -10 9 2.16 8.42
-9 -5 -7 304.6 25.69
14 -9 -1 99.7 9.25
-9 -5 2 709.79 54.3
14 -9 5 434.76 36.34
-5 14 5 547.19 39.32
-9 -5 5 446.19 40.72
-9 -5 5 516.93 39.92
-9 -5 8 66.42 15.41
14 -9 8 68.1 9.71
-9 -5 8 66.83 8.95
14 -9 8 49.23 13.91
-8 -6 -8 27.6 8.12
-6 14 1 141.88 11.94
-8 -6 1 160.55 13.72
-8 -6 4 84.16 15.25
-6 14 4 122.24 11.76
-8 -6 4 82.18 11.88
-8 -6 7 28.24 6.53
-6 14 7 18.52 5.64
-8 -6 7 10.14 10.7
14 -8 7 24.52 8.68
-6 14 7 13.57 9.98
-7 -7 -9 32.72 7.85
-7 -7 -6 24.51 5.58
-7 -7 -6 26.52 7.53
-7 -7 -3 10.05 8.12
14 -7 0 149.28 17.17
-7 -7 3 95.1 11.92
-7 -7 3 113.91 16.63
-7 14 3 130.41 12.15
14 -7 3 149.44 15.4
-7 14 6 35.1 5.91
-7 14 6 51.57 11.23
14 -7 6 27.24 7.72
14 -7 6 28.36 10.87
-7 -7 6 34.6 6.29
14 -7 6 36.11 7.74
14 -7 9 7.2 7.61
14 -7 9 14.33 8.83
-6 -8 -7 247.21 19.91
-6 -8 -7 227.46 23.13
-6 -8 -4 95.11 9.3
14 -6 -1 99.69 9.45
-6 -8 -1 131.69 15.07
14 -6 2 519.06 48.93
-8 14 2 737.61 47.47
-6 -8 2 743.86 51.27
-6 -8 2 593.68 46.66
14 -6 2 511.55 48.94
-6 -8 5 436.14 35.91
14 -6 5 496.76 37.84
14 -6 5 404.34 33.34
-6 -8 5 428.18 38.2
14 -6 5 392.92 33.2
-8 14 5 465.36 36.13
14 -6 5 441.44 33.18
-6 -8 5 432.72 32.58
-8 14 8 59 8.01
-6 -8 8 60.04 8.15
14 -6 8 55.23 9.53
14 -6 8 73.46 10.35
14 -6 8 63.48 13.88
-5 -9 -8 70.96 11.06
-5 -9 -5 15.49 5.31
-5 -9 -5 8.17 7
-5 -9 -2 252.15 23.33
-5 -9 1 901.56 53.89
14 -5 1 840.07 52.53
-9 14 4 353.67 28.43
-5 -9 4 309.55 27.72
14 -5 4 353.64 29.97
-5 -9 4 336.59 31.52
14 -5 7 23.3 11.65
14 -5 7 10.6 8.9
-5 -9 7 10.93 5.6
-9 14 7 18.22 10.56
-9 14 7 22.35 5.91
-5 -9 7 14.96 10.37
14 -5 7 28.08 8.57
-4 -10 -9 0.42 7.97
-4 -10 -6 56.9 7.92
-4 -10 -6 74.5 10.25
-4 -10 -6 52.45 8.6
-4 -10 -3 58.3 7
-4 -10 -3 43.55 9.68
14 -4 0 6.28 10.05
-4 -10 0 11.44 11.24
14 -4 0 8.88 4.22
-10 14 3 38.85 7.95
14 -4 3 42.75 10.27
-4 -10 3 40.33 12.61
14 -4 6 60.74 12.97
-10 14 6 60.22 11.63
-4 -10 6 66.45 7.42
-4 -10 6 53.36 11.51
14 -4 6 61.05 9.4
-10 14 9 14 5.93
14 -4 9 21.73 8.71
-3 -11 -7 150.9 14.27
-3 -11 -7 154.37 17.37
-3 -11 -7 156.84 16.12
-3 -11 -4 51.74 7.18
-3 -11 -1 124.53 14.53
14 -3 -1 91.99 8.94
-11 14 2 510.29 36.53
14 -3 2 379.37 37.37
-3 -11 5 237.32 24.53
14 -3 5 277.8 22.75
14 -3 5 275.26 26.91
-11 14 8 43.69 7.7
-11 14 8 36.15 12.59
14 -3 8 47.71 12.97
14 -3 8 53.44 9.55
-2 -12 -8 23.6 6.6
-2 -12 -8 31.69 8.05
-2 -12 -8 34.03 9.25
-2 -12 -5 29.22 6.52
-2 -12 -5 26.95 6.75
-2 -12 -2 493.95 38.32
-2 -12 -2 544.04 41.48
14 -2 1 867.29 61.28
-2 -12 1 911.36 63.38
14 -2 1 730.5 58
14 -2 1 854.57 61.3
-12 14 4 186.14 17.51
-2 -12 4 132.78 14.95
14 -2 4 178.54 18.33
14 -2 7 1.33 8.19
14 -2 7 -12.91 10.62
-12 14 7 4.93 9.95
14 -2 7 -2.43 7.62
14 -2 10 28.23 6.59
-1 -13 -9 9.45 6.41
-1 -13 -9 13.93 5.65
-1 -13 -6 117.67 12.24
-1 -13 -6 108.62 16.6
-1 -13 -6 115.75 17.87
-1 -13 -3 136.22 12.46
14 -1 0 13.77 10.02
-1 -13 0 22.54 12.21
14 -1 0 14.12 4.6
-13 14 3 46.01 9.32
14 -1 3 33.58 9.94
-1 -13 3 42.38 13.69
14 -1 6 54.34 13.57
14 -1 6 55.8 13.35
14 -1 6 71.3 15.31
-13 14 6 71.65 12.84
14 -1 9 27.07 7.5
-13 14 9 28.66 6.38
14 -1 9 22.17 7.87
0 -14 -7 126.24 12.31
0 -14 -7 103.46 13.14
0 -14 -7 109.58 13.43
0 -14 -4 67.47 8.81
0 -14 -1 20.06 10.31
14 0 2 301.09 27.06
14 0 5 186.66 17.78
-14 14 5 230.02 22.16
14 0 5 195.1 17.43
14 0 5 204.98 17.15
14 0 5 196.98 21.4
14 0 8 37.21 8.52
-14 14 8 50 7.87
14 1 -11 46.33 5.19
1 -15 -8 15.09 6.89
1 -15 -8 46.55 9.66
1 -15 -8 35.05 8.42
1 -15 -5 55.43 8.5
1 -15 -5 46.97 8.23
1 -15 1 927.73 64.48
14 1 1 757.52 57.9
14 1 1 806.66 60.82
14 1 4 148.89 17.5
-15 14 4 157.3 17.16
14 1 4 136.62 13.11
-15 14 7 32.77 10.95
14 1 7 20.6 8.87
14 1 7 18.77 7.59
14 1 7 18.99 10.99
-15 14 10 63.07 6.69
14 1 10 33.84 6.79
2 -16 -9 13.39 6.78
2 -16 -9 14.16 5.7
2 -16 -6 50.24 9.08
2 -16 -6 62.89 12.16
14 2 0 27.88 9.45
14 2 0 19.03 4.26
14 2 3 1.75 8.57
-16 14 3 -3.47 8.02
14 2 6 28.85 11.29
-16 14 6 12.31 9.99
14 2 6 14.02 10.4
14 2 6 23.59 7.93
-16 14 9 15.04 5.76
14 2 9 3.78 6.11
14 3 -10 18.74 5.09
3 -17 -7 56.11 8.98
3 -17 -7 49.75 9.93
3 -17 -7 48.14 9.73
3 -17 -4 35.21 7.66
3 -17 -4 36.13 7.56
14 3 -1 4.49 8.14
14 3 2 53.19 9.6
14 3 2 43.41 5.65
14 3 5 32.24 6.47
14 3 5 16.13 9.53
14 3 5 38.97 12.58
-17 14 5 22.13 10.79
14 3 5 18.12 11.34
14 3 8 21.19 7.18
4 -18 -8 36.85 8.01
4 -18 -8 37.3 10.05
4 -18 -8 50.71 9.59
4 -18 -5 60 9.46
4 -18 -5 59.69 10.74
4 -18 -5 56.42 11.54
4 -18 -2 796.93 56.99
14 4 -2 681.81 58.82
14 4 1 833.64 61.53
4 -18 4 186.6 14.87
-18 14 4 169.49 19.57
14 4 4 174.24 15.28
14 4 4 131.39 18.1
14 4 7 25.28 8.43
-18 14 7 9.46 10.6
14 4 7 18.4 7.15
14 4 10 58.32 7.11
5 -19 -9 -0.98 5.09
5 -19 -6 13.82 8.5
5 -19 -6 2.88 7.33
5 -19 -6 15.9 8.24
5 -19 -3 24.88 6.95
5 -19 -3 22.86 6.49
14 5 0 20.39 8.03
-19 14 3 7.29 9.37
14 5 3 9.02 7.79
14 5 3 -0.59 5.38
14 5 6 -0.8 7.4
5 -19 6 11.94 6.03
-19 14 6 -6.72 9.91
-19 14 9 6.83 5.26
14 5 9 3.42 5.25
6 -20 -7 4.66 7.01
6 -20 -7 2.74 7.91
6 -20 -7 14.39 8.22
6 -20 -4 0.8 7.75
6 -20 -4 6.61 7.21
6 -20 -4 14.64 12.94
14 6 -1 7.29 7.53
14 6 2 26.95 7.72
14 6 2 15.02 5.65
-20 14 5 1.3 9.85
14 6 5 8.02 10.06
7 -21 -8 50.78 8.04
7 -21 -8 53.1 9.25
7 -21 -5 38.92 8.48
7 -21 -2 566.24 41.44
7 -21 -2 539.48 41.23
7 -21 -2 547.39 41.28
7 -21 -2 500.8 40.53
14 7 1 626.87 47.37
14 7 4 106.49 13.64
-21 14 4 107.92 16.7
14 7 7 14.91 7.3
8 -22 -6 10.88 7.58
8 -22 -6 -1.57 8.11
8 -22 -3 8.59 7.09
8 -22 -3 9.25 5.86
8 -22 -3 4.76 7.35
8 -22 -3 3.25 11.24
14 8 0 1.61 7.81
8 -22 0 1.71 5.44
8 -22 0 3.51 5
14 8 3 13.99 7.19
-22 14 3 14.68 11.35
14 8 6 5.48 7.2
14 8 9 -2.03 4.24
-22 14 9 -0.49 4.3
9 -23 -7 18.46 8.2
9 -23 -7 14.59 7.01
9 -23 -4 22.83 7.86
9 -23 -4 28.35 7.59
9 -23 -4 33.75 8.74
9 -23 -4 25.82 7.44
9 -23 -1 15.17 7.96
14 9 -1 20.7 8.3
9 -23 -1 18.84 6.18
-23 14 5 13.76 10.8
14 9 5 22.03 7.29
14 9 8 4.17 5.03
10 -24 -8 20.37 5.88
10 -24 -5 59.32 10.15
10 -24 -5 36.95 8.72
10 -24 -5 59.12 8.66
10 -24 -2 384.89 29.99
10 -24 -2 364.35 29.61
10 -24 -2 373.61 29.51
14 10 -2 317.72 31.16
14 10 1 508.14 42.04
14 10 4 123.35 12.1
-24 14 4 84.78 16.51
11 -25 -6 14.81 7.43
11 -25 -3 3.54 6.25
11 -25 -3 12.72 7.74
11 -25 -3 12.89 7.15
14 11 0 2.55 10.21
11 -25 0 28.85 11.82
-25 14 3 33.95 11.86
14 11 6 14.01 6.28
11 -25 6 12.07 7.22
12 -26 -7 21.7 6.07
12 -26 -4 65.95 9.37
12 -26 -4 60.97 9.6
12 -26 -4 52.85 7.88
14 12 -1 33.56 11.78
12 -26 -1 32.72 7.63
12 -26 -1 39.83 9.2
12 -26 5 9.52 7.71
14 12 8 9.07 3.74
13 -27 -5 2.08 6.53
13 -27 -5 8.78 7.8
13 -27 -2 119.72 12.72
13 -27 -2 142.39 13.98
13 -27 1 143.85 15.5
13 -27 4 44.43 9.2
14 -28 -3 42.21 7.58
14 -28 0 20.28 8.48
14 -28 3 16.42 8.35
15 -29 -4 63.21 9.11
15 -29 -1 32.61 8.74
15 -29 2 5 7.98
15 -29 5 28.29 7.4
15 -28 -5 26.93 7.01
15 -28 -5 42.35 8.02
15 -28 -2 16.68 7.92
15 -28 -2 1.47 5.51
15 -28 4 79.88 11.05
15 -27 -6 24.02 6.25
15 -27 -3 5.94 5.98
15 -27 -3 2.1 6.17
15 -27 0 14.22 8.24
15 -27 3 39.26 8.91
15 -26 -7 23.17 6.09
15 -26 -4 26.27 7.61
15 -26 -4 24.48 7.02
15 -26 -1 14.86 8.51
15 -26 2 8.05 8.31
15 -26 5 23.09 7.7
15 -25 -8 59.12 7.28
15 -25 -5 47.54 9.37
15 -25 -5 65.26 8.91
15 -25 -2 14.2 5.92
15 -25 -2 -3.15 6.94
15 -25 -2 15.42 8.32
-25 10 4 122.25 19.05
15 -25 4 157.37 15.12
15 -24 -6 44.17 8.15
15 -24 -6 48.51 9.6
15 -24 -3 43.13 9.05
15 -24 -3 37.88 7.67
15 -24 0 12.33 9.29
-24 9 3 58.96 14.3
15 -24 3 73.97 10.76
15 -23 -7 35.39 7.53
15 -23 -4 17.08 6.69
15 -23 -4 11.24 7.31
15 -23 -1 22.01 12.63
15 -23 -1 16.88 5.26
15 -23 2 91.12 14.3
15 -23 5 26.61 8.02
-23 8 5 40.18 13.14
15 -22 -5 98.62 12.15
15 -22 -5 103.57 11.86
15 -22 -2 2.04 5.37
15 -22 -2 -1.5 5.12
15 -22 1 226.63 19.68
-22 7 4 245.43 26.87
15 -22 4 245.01 21.62
15 -21 -9 30.36 6.01
15 -21 -6 101.29 12.05
15 -21 -3 62.32 8.47
15 -21 -3 52.51 8.22
15 -21 3 31.37 7.87
-21 6 3 47.21 13.02
-21 6 6 37.8 12.53
-21 6 9 8.96 4.95
15 -20 -7 8.07 7.34
15 -20 -4 27.87 7.69
15 -20 -4 33.72 12.14
15 -20 -1 179.84 15.75
15 -20 -1 168 14.41
15 -20 -1 164.06 17.51
15 -20 2 233.63 19.9
-20 5 5 51.09 14.15
15 -19 -5 142.52 15.49
15 -19 -5 114.79 13.1
15 -19 -2 11.94 9.4
15 -19 -2 6.26 5.26
15 -19 -2 16.94 6.89
15 -19 1 101.23 8.85
15 -19 4 182.93 19.57
-19 4 4 188.46 22.66
15 -19 4 190.14 16.73
15 -19 7 71.76 9.33
15 -18 -9 12.78 5.8
15 -18 -3 104.36 10.71
15 -18 0 13.16 9.37
15 -18 3 60.77 9.96
-18 3 3 24.71 10.82
-18 3 6 44.83 13.1
15 -18 6 45.19 11.77
15 -18 6 60.75 9.24
-18 3 9 8.67 5.55
15 -17 -10 36.57 5.85
15 -17 -4 70.01 9.18
15 -17 -1 404.98 33.27
15 -17 -1 384.03 29.67
15 -17 2 299.55 26.17
15 -17 2 302.11 23.13
15 -17 5 26.16 9.99
-17 2 5 4.63 11.08
-17 2 5 13.89 11.23
15 -17 5 13.98 6.76
15 -17 8 35.45 8.37
15 -16 -8 67.74 9.82
15 -16 1 189.1 15.08
15 -16 1 189.85 19.82
15 -16 4 152.61 19.45
-16 1 4 214.77 21.62
15 -16 4 197.35 16.47
-16 1 7 55.62 13.3
15 -16 7 70.65 9.78
-16 1 10 2.71 4.37
15 -15 -9 11.99 6.44
15 -15 0 65.4 11.92
15 -15 0 68.5 6.88
-15 0 3 5.44 8.99
15 -15 3 14.14 8.13
15 -15 6 39.16 11.31
15 -15 6 22.94 7.31
-15 0 6 18.08 11.18
15 -15 6 23.45 8.7
-15 0 9 29.83 6.54
15 -15 9 15.76 7.59
15 -14 -10 53.56 7.29
15 -14 -1 936.17 72.53
15 -14 2 627.26 49.79
-14 -1 5 52.19 12.88
15 -14 5 54.04 6.77
-14 -1 5 46.33 11.6
15 -14 5 44.47 7.95
15 -14 5 27.69 10.67
-14 -1 8 34.52 7.4
15 -14 8 28.73 8.75
15 -13 -11 11.27 4.13
15 -13 1 171.54 14.03
15 -13 1 173.51 17.28
15 -13 1 185.8 19.11
15 -13 4 109.65 14.82
-13 -2 4 131.16 17.57
-13 -2 4 112.34 14.9
15 -13 7 17.62 6.85
15 -13 7 24.6 8.42
-13 -2 7 6.77 10.12
15 -13 7 6.39 10.62
-13 -2 10 1.6 4.72
15 -12 0 137.48 11.9
15 -12 0 147.17 18.5
-12 -3 3 41.16 9.33
15 -12 3 37.65 10.62
15 -12 6 19.35 6.85
-12 -3 6 -1.18 10.27
15 -12 6 4.66 10.65
15 -12 6 21.39 11.35
-12 -3 9 25.44 6.71
15 -12 9 25.46 8.6
15 -11 -10 78.19 9.01
-11 -4 -7 11.32 9.72
15 -11 2 922.36 68.75
-11 -4 2 857.86 67.28
15 -11 5 67.54 8.74
-11 -4 5 61.53 11.79
15 -11 5 62.08 12.19
-11 -4 5 49.66 13.14
15 -11 5 63.26 8.73
-11 -4 8 46.52 7.66
15 -11 8 36.9 8.05
15 -11 8 37.36 9.33
-10 -5 -8 1.2 6.86
-10 -5 -5 5.5 6.56
15 -10 1 62.03 6.66
15 -10 1 59.88 10.94
15 -10 1 60.42 13.09
-10 -5 4 21.42 8.33
-10 -5 4 12.35 11.17
15 -10 4 24.93 9.78
-10 -5 7 4.75 6.06
15 -10 7 8.67 7.11
15 -10 7 7.86 8.18
15 -10 7 10.46 10.45
-9 -6 -9 8.73 6.5
-9 -6 3 76.48 10.85
-9 -6 3 123 16.56
15 -9 6 12.2 8.39
-9 -6 6 6.38 8.92
-9 -6 9 15.27 6.08
15 -9 9 17.11 7.43
-8 -7 -7 16.23 9.43
-8 -7 2 747.15 59.71
-7 15 2 813.2 59.2
-8 -7 2 851.19 63.84
15 -8 5 66.53 8.21
15 -8 5 61.77 8.54
-8 -7 5 43.9 13.15
-8 -7 5 50.31 10.28
-8 -7 8 38.03 7.14
-7 15 8 32.57 6.32
15 -8 8 30.98 8.02
-7 -8 -8 12.68 8.05
-7 -8 -5 128.2 12.52
-7 -8 -5 161.08 14.07
-7 -8 -2 461.91 38.31
15 -7 1 269.34 20.99
-8 15 1 193.51 16.61
-7 -8 1 180.12 16.43
-7 -8 1 235.4 22.63
15 -7 1 258.5 21.77
-7 -8 4 11.81 11.63
-8 15 4 -0.61 6.35
-7 -8 4 11.22 6.64
15 -7 4 0.9 8.73
15 -7 7 18.67 8.93
-8 15 7 27.06 6.11
-7 -8 7 35.19 6.57
-7 -8 7 29.92 11.14
15 -7 7 25.08 8.75
15 -7 7 22.47 10.99
-6 -9 -9 23.19 8.36
-6 -9 -6 14.46 5.52
-6 -9 -6 10.41 10.55
-6 -9 -6 10.48 6.15
-6 -9 -3 3.79 7.56
15 -6 0 19.31 11.05
-6 -9 0 14.71 11.57
-6 -9 0 7.55 2.82
15 -6 0 18.62 4.41
15 -6 3 23.85 10.3
-9 15 3 15 6.17
-6 -9 3 10.56 5.24
-6 -9 3 21 12.82
-9 15 6 7.14 5.17
-6 -9 6 -2.74 4.67
15 -6 6 0.81 12.46
-6 -9 6 18.67 9.49
15 -6 6 1.19 10.57
15 -6 6 16.26 14.07
15 -6 9 11.32 7.41
15 -6 9 -3.78 8.06
-5 -10 -7 -0.73 5.41
-5 -10 -7 12.72 8.72
-5 -10 -4 107.77 10.55
-5 -10 -1 520.88 41.11
15 -5 -1 488.47 37.17
15 -5 2 345.37 28.2
-10 15 2 362.85 25.65
-5 -10 2 275.99 23.63
15 -5 2 341.02 28.22
15 -5 5 20.88 10.11
15 -5 5 22.53 6.88
-5 -10 5 14.89 7.96
-5 -10 5 8.65 11.58
-10 15 5 25.89 8.53
15 -5 5 22.11 6.56
15 -5 5 22.48 6.49
-10 15 8 22.72 6.16
15 -5 8 29.15 7.98
15 -5 8 27.79 8.29
-4 -11 -8 17.04 7.11
-4 -11 -8 8.6 8.32
-4 -11 -5 210.82 18.58
-4 -11 -5 222.32 19.41
-4 -11 -5 236.07 19.44
-4 -11 -2 481.06 39.62
15 -4 1 174.06 18.1
-4 -11 1 156.27 21.51
15 -4 1 163.71 13.84
15 -4 1 159.81 19.75
-4 -11 4 9.28 5.84
-11 15 4 17.63 7.77
-4 -11 4 14.06 12.51
15 -4 4 15.73 9.02
-11 15 7 85.9 9.48
15 -4 7 82.14 11.03
15 -4 7 83.41 15.14
-3 -12 -9 28.52 8.4
-3 -12 -6 36.39 7.37
-3 -12 -6 44.75 12.58
-3 -12 -6 25.13 13.89
-3 -12 -3 8.75 5.28
-3 -12 -3 6.22 7.98
15 -3 0 125.51 17.28
-3 -12 0 136.16 18.78
15 -3 0 122.84 11.23
15 -3 3 124.38 17.3
-12 15 3 162.14 15.92
-12 15 6 37.51 11.22
15 -3 6 40.95 12.37
15 -3 6 45.49 11.79
15 -3 9 -1.18 7.4
-12 15 9 -0.63 5.26
-2 -13 -7 16.16 6.76
-2 -13 -7 3.01 7.66
-2 -13 -7 23.44 8.93
-2 -13 -4 101.97 10.49
-2 -13 -1 488.95 40.87
15 -2 2 316.54 27.15
-13 15 2 278.86 25.04
15 -2 5 16.7 7.24
15 -2 5 20.39 10.54
-13 15 5 17.23 9.23
15 -2 5 21.37 6.46
-13 15 8 21.1 6.5
15 -2 8 22.03 8.09
15 -1 -11 6.99 3.98
-1 -14 -8 33.17 7.17
-1 -14 -8 45.61 9.68
-1 -14 -8 37.47 8.59
-1 -14 -5 373.64 29.77
-1 -14 -5 373.32 30.1
-1 -14 -2 469.56 36.48
-1 -14 -2 501.67 40.24
15 -1 1 40.39 10.99
15 -1 1 46.76 9.96
15 -1 1 37.03 5.56
-1 -14 1 39.08 13.2
15 -1 4 86.85 9.89
-14 15 4 96.27 13.45
15 -1 4 88.68 14.2
15 -1 7 150.1 14.73
15 -1 7 141.28 15.43
15 -1 7 119.22 18.76
15 -1 10 41.99 6.81
0 -15 -9 36.71 8.7
0 -15 -9 32.58 7.23
0 -15 -6 41.19 11.31
0 -15 -6 33.82 11.86
0 -15 -6 37.31 7.96
0 -15 -3 0.67 5.43
0 -15 0 67.37 14.06
15 0 0 51.34 6.51
15 0 0 78.57 11.95
-15 15 3 90.54 12.56
15 0 3 73.86 13.28
-15 15 6 57.47 12.25
15 0 6 61.09 12.28
15 0 6 37.89 11.57
15 0 6 47.6 9.64
15 0 9 1.42 6.05
-15 15 9 14.96 5.64
15 0 9 13.44 6.96
1 -16 -7 11.26 6.99
1 -16 -7 12 8.14
1 -16 -7 9.9 8.45
1 -16 -4 50.35 8.25
1 -16 -4 56.25 8.08
1 -16 -4 34.14 7.49
15 1 -1 302.1 27.01
15 1 2 205.58 20.51
15 1 5 9.01 10.31
15 1 5 27.14 11.45
-16 15 5 4.42 9.54
15 1 5 18.58 10.26
15 1 5 13.92 6.29
-16 15 8 16.77 6.38
15 1 8 11.9 7.42
2 -17 -8 85.55 11.28
2 -17 -8 96.67 12.36
2 -17 -8 74.73 9.97
2 -17 -5 459.77 37.06
2 -17 -5 470.57 38.49
2 -17 -5 487.61 38.74
2 -17 -2 586.56 44.65
15 2 1 73.02 7.44
15 2 1 71.82 11.76
2 -17 4 81.99 9.02
15 2 4 73.12 13.99
15 2 4 73.69 9.47
-17 15 4 67.14 12.74
15 2 4 76.86 8.87
15 2 7 141.61 19.68
15 2 7 171.19 16.45
15 2 7 171.91 15.59
-17 15 7 178.77 20.94
15 2 10 44.64 6.53
3 -18 -9 16.57 6.34
3 -18 -6 37.14 9.33
3 -18 -6 43.17 9.1
3 -18 -6 46.06 8.82
3 -18 -3 35.87 7.17
15 3 0 16.68 8.6
15 3 3 24.18 6.48
-18 15 3 26.41 9.72
15 3 3 32.46 9.63
15 3 6 17.62 8.26
15 3 6 7.4 9.48
-18 15 6 10.23 9.7
15 3 6 23.42 7.38
-18 15 9 6.13 5.1
15 3 9 13.82 5.91
4 -19 -7 5.1 6.94
4 -19 -7 1.56 8.11
4 -19 -4 26.15 7.53
15 4 -1 74.48 11.57
15 4 2 23.02 8.01
15 4 2 21.57 4.66
4 -19 5 7.06 6.81
15 4 5 3.99 11.32
-19 15 5 -11.14 10
15 4 5 -4.52 9.3
15 4 8 -0.3 6.33
5 -20 -8 78.38 9.57
5 -20 -8 74.74 10.56
5 -20 -5 527.08 40.87
5 -20 -5 509.53 40.66
5 -20 -5 518.52 40.97
5 -20 -2 635.21 48.68
5 -20 -2 617.97 48.44
5 -20 -2 710.85 49.04
5 -20 -2 609.1 48.29
15 5 1 58.41 9.32
5 -20 4 145.35 12.83
15 5 4 122.75 17.87
-20 15 4 132.39 18.35
15 5 7 230.68 18.64
5 -20 7 191.95 17.16
15 5 10 55.52 6.33
6 -21 -6 -0.48 7.59
6 -21 -6 4.23 8.51
6 -21 -6 2.73 7.87
6 -21 -3 9.95 6.14
6 -21 -3 12.11 7.56
6 -21 -3 19.59 7.44
6 -21 0 28.08 6.23
15 6 0 23.83 8.12
-21 15 3 -3.46 9.92
15 6 3 10.81 6.4
-21 15 6 12.15 10.04
15 6 6 0.79 7.66
-21 15 9 8.04 4.81
15 6 9 10.91 5.01
7 -22 -7 23.41 8.69
7 -22 -7 25.21 7.78
7 -22 -7 24.1 9.28
7 -22 -4 32.17 8.1
7 -22 -4 39.84 9.55
7 -22 -4 36.42 10.19
7 -22 -4 23.47 8.54
7 -22 -1 14.78 5.59
15 7 -1 11.42 7.83
7 -22 -1 4.85 5.68
15 7 2 19.51 9.13
15 7 2 -6.88 5.63
15 7 5 5.37 7.28
-22 15 5 -2.68 10.15
15 7 8 2.07 5.42
8 -23 -8 49.93 8.27
8 -23 -8 40.88 7.12
8 -23 -5 307.59 26.01
8 -23 -5 306.82 25.48
8 -23 -5 313.27 26.45
8 -23 -2 364.44 30.4
8 -23 -2 352.13 29.27
15 8 -2 330.43 30.44
15 8 1 34.11 10.59
15 8 1 32.57 6.42
-23 15 4 77.92 14.64
15 8 4 75 9.86
9 -24 -6 -4.77 7.09
9 -24 -3 11.77 7.86
9 -24 -3 17.22 11.04
9 -24 -3 33.44 8.06
15 9 -3 30.41 13.46
9 -24 -3 13.97 7.73
9 -24 -3 25.78 6.97
9 -24 0 33.59 10.74
9 -24 0 41.42 6.98
15 9 3 19.58 9.13
-24 15 3 16.96 11.64
15 9 6 6.01 6.51
15 9 9 16.56 4.56
10 -25 -7 16.21 7.52
10 -25 -4 -8.41 7.1
10 -25 -4 -4.36 6.18
10 -25 -4 10.3 7.65
15 10 -1 13.03 10.09
10 -25 -1 24.88 11.02
10 -25 -1 6.94 6.28
10 -25 -1 13.82 6.67
15 10 5 19.52 6.89
15 10 8 7.48 4.38
11 -26 -5 189.79 18.57
11 -26 -5 210.95 19.15
11 -26 -5 223.04 18.03
15 11 -2 207.17 19.83
11 -26 -2 226.79 20.19
11 -26 -2 251.36 19.83
11 -26 -2 218.74 19.58
11 -26 1 22.14 8.57
15 11 4 38.63 7.66
12 -27 -6 5.24 6.77
12 -27 -3 9.74 6.69
12 -27 0 59.38 10.36
12 -27 3 42.3 9.49
-27 15 3 28.67 12.15
12 -27 6 7.78 6.43
13 -28 -4 5.1 6.94
13 -28 -1 8.34 8.33
15 13 -1 1.87 8.2
13 -28 5 30.54 8
14 -29 -5 67.46 8.99
14 -29 -2 93.49 10.97
14 -29 -2 76.38 9.14
14 -29 1 9.12 8.06
14 -29 4 16.49 8.15
15 -30 -3 -6.17 5.89
15 -30 0 46.63 9.57
15 -30 3 53.24 9.77
16 -31 -1 16.49 8.24
16 -31 5 30.37 6.61
16 -30 4 25.87 7.51
16 -29 -3 46.35 7.66
16 -29 0 87.63 11.68
16 -29 3 21.28 8.51
16 -28 -4 1.22 6.4
16 -28 -4 6.42 5.91
16 -28 -1 32.4 9.22
16 -28 2 61.04 10.23
16 -28 5 31.66 7.78
16 -27 -5 8.17 6.11
16 -27 -2 122.31 12.05
16 -27 4 19.66 8.11
16 -26 -6 0.77 5.84
16 -26 -3 46.64 8.24
16 -26 -3 50.27 7.69
16 -26 0 87.4 11.94
16 -26 3 51.87 9.54
-26 10 3 40.81 13
16 -25 -7 -0.71 5.47
16 -25 -4 6.34 6.53
16 -25 -4 14.19 7.19
16 -25 -1 58.4 10.6
16 -25 2 49.52 9.63
16 -25 5 4.91 7.14
16 -24 -8 14.8 5.34
16 -24 -5 15.5 6.78
16 -24 -5 22.94 8.02
16 -24 -2 248.18 20.39
16 -24 -2 246.47 20.84
16 -24 1 317.22 26.91
-24 8 4 28.33 12.12
16 -24 4 56.51 9.23
16 -23 -6 7.63 6.85
16 -23 -3 33.78 7.32
16 -23 -3 46.2 8.54
-23 7 3 58.96 14.58
16 -23 3 111.47 13.21
16 -22 -7 18.1 7.14
16 -22 -4 90.45 10.81
16 -22 -4 100.96 11.73
16 -22 -1 175.18 16.62
16 -22 2 27.26 8.14
-22 6 5 15.62 10.92
16 -22 5 4.29 6.62
16 -21 -5 5.6 7.04
16 -21 -5 20.14 7.91
16 -21 -2 251.01 19.81
16 -21 -2 230.25 19.87
16 -21 1 379.75 30.45
-21 5 4 72.14 15.02
16 -21 4 75.03 10.67
16 -20 -9 27.5 5.85
16 -20 -6 12.12 7.47
16 -20 -6 12.18 6.04
16 -20 -3 29.66 10.5
16 -20 -3 20.44 6.43
16 -20 -3 28.74 6.86
16 -20 0 125.79 15.22
-20 4 3 77.82 15.22
16 -20 3 96.23 10.48
16 -20 3 88.83 8.37
-20 4 6 7.12 10.59
16 -20 6 8.42 6.32
-20 4 9 4.15 4.9
16 -19 -7 50.96 9.28
16 -19 -4 198.78 17.58
16 -19 -4 270.32 21.19
16 -19 -1 232.32 18.86
16 -19 -1 184.19 21.02
16 -19 2 5.39 3.77
16 -19 2 4.93 6.38
16 -19 5 23 9.38
-19 3 5 8.71 12.56
16 -19 5 33.1 7.57
-19 3 5 36.18 12.32
16 -19 8 56.8 8.95
16 -18 -2 181.34 19.02
16 -18 -2 153.79 14.12
16 -18 1 259.06 20.2
16 -18 4 62.19 11.52
-18 2 4 67.96 13.27
16 -18 4 54.75 8.22
16 -18 7 2.68 7.06
16 -17 -9 34.34 7
16 -17 -3 1.13 5.42
16 -17 0 64.98 12.32
16 -17 3 66.26 11.59
-17 1 3 76.9 13.35
-17 1 6 20.21 11.22
16 -17 6 10.1 7.27
16 -17 6 -4.81 9.5
-17 1 9 2.2 5.29
16 -16 -10 1.08 4.54
16 -16 -10 5.85 4.65
16 -16 -1 283.19 26.19
16 -16 2 0.87 3.7
16 -16 2 5.96 7.34
-16 0 5 168.6 20.68
16 -16 5 133.57 19.07
16 -16 5 191.49 15.9
-16 0 5 156.19 21
-16 0 8 179.62 16.52
16 -16 8 187.04 17.05
16 -15 1 304.82 23.66
16 -15 1 325.05 28.26
16 -15 4 41.89 11.03
-15 -1 4 28.65 10.31
16 -15 4 40.2 9.17
16 -15 7 6.45 9.72
16 -15 7 -2.13 7.69
16 -15 7 -4.74 5.96
-15 -1 7 -13.78 10.73
16 -14 0 23.17 10.67
16 -14 0 32.14 4.83
16 -14 3 49.09 11.29
-14 -2 3 59.4 11.21
16 -14 6 24.28 10.98
16 -14 6 49.04 7.85
-14 -2 6 33.53 11.74
16 -14 6 41.44 11
-14 -2 9 1.98 5.57
16 -14 9 4.54 7.44
16 -13 -10 -5.85 5.04
16 -13 -1 616.79 50.18
16 -13 2 -5.49 8.68
-13 -3 2 8.31 7.33
-13 -3 5 156.14 21.11
16 -13 5 177.56 15.92
16 -13 5 178.35 15.36
-13 -3 5 173.63 19.99
16 -13 5 182.79 16.21
16 -13 5 205.51 20.89
-13 -3 8 216.29 18.52
16 -13 8 222.02 18.66
16 -13 8 203.67 19.31
16 -12 -11 7.68 4.06
-12 -4 -5 9.33 6.68
16 -12 1 27.41 9.1
16 -12 1 30.29 4.94
16 -12 1 26.59 10.78
16 -12 4 7.78 9.42
-12 -4 4 -2.58 7.67
-12 -4 4 -6.83 11.66
16 -12 4 6.04 8.33
-12 -4 7 12.37 6.42
16 -12 7 5.3 6.65
-12 -4 7 -3.87 9.79
16 -12 7 9.28 8.2
16 -12 7 -6.64 10.55
16 -11 0 53.39 12.65
16 -11 0 67.8 6.94
-11 -5 3 8.07 6.98
16 -11 3 2.67 8.97
-11 -5 3 10.79 11.81
16 -11 6 38.41 11.57
16 -11 6 24.91 9.76
-11 -5 6 24.72 10.08
16 -11 6 20.72 11.26
16 -11 6 37.17 9.74
-11 -5 9 11.97 5.82
16 -11 9 15.05 6.84
16 -11 9 19.65 8.07
-10 -6 -7 216.06 19.64
-10 -6 2 -0.52 5.76
16 -10 5 244.68 19.7
-10 -6 5 208.93 24.97
-10 -6 5 253.86 23.18
16 -10 5 213.41 19.59
16 -10 5 221.15 23.92
-10 -6 8 255.08 21.32
16 -10 8 262.7 21.91
-9 -7 -8 16.65 7.62
-9 -7 -5 46.51 8.65
-9 -7 1 -0.77 5.03
-9 -7 4 11.75 7.21
-9 -7 4 11.37 12.1
-9 -7 7 12.85 5.87
16 -9 7 18.67 7.28
-9 -7 7 3.65 9.88
-8 -8 -9 -6.77 7.17
-8 -8 -3 33.56 9.67
16 -8 0 20.37 11.75
-8 -8 0 30.96 14.11
-8 -8 3 14.48 11.98
-8 -8 3 9.43 5.6
16 -8 3 8.98 9.16
-8 -8 6 25.51 5.89
-8 -8 6 15.47 10.22
16 -8 6 35.4 11.68
-8 -8 6 17.44 11.9
16 -8 6 21.83 9.4
16 -8 9 19.02 7.26
16 -8 9 12.43 8.01
-7 -9 -7 136.18 14.73
16 -7 -1 517 38.23
-7 -9 -1 472.62 41.98
16 -7 2 34.97 10.67
-7 -9 2 17.85 4.66
-9 16 2 16.13 5.27
16 -7 2 26.72 11.92
16 -7 5 92.61 10.87
-7 -9 5 84.18 16.67
-7 -9 5 95.12 9.29
16 -7 5 106.01 15.41
16 -7 5 96.62 10.92
-9 16 5 108.34 12.99
16 -7 5 112.29 11.67
-9 16 8 175.32 13.95
-7 -9 8 138.21 13.78
16 -7 8 174.1 15.35
16 -7 8 133.63 15.4
16 -6 -11 8.01 4.62
-6 -10 -8 52.51 9.89
-6 -10 -5 93.14 9.48
-6 -10 -5 73.92 10.69
-6 -10 -5 79.5 10.1
-6 -10 -2 -4.46 8.89
16 -6 1 109.97 13.64
-10 16 1 77.61 9.48
16 -6 1 92.15 8.7
-6 -10 1 92.73 15.76
16 -6 1 100.63 14.73
-10 16 4 169.35 17.09
-6 -10 4 208.52 22.82
16 -6 4 169.07 19.59
-10 16 7 71.68 8.16
16 -6 7 59.1 10.91
-6 -10 7 65.74 7.93
16 -6 7 61.04 14.34
16 -6 7 63.5 10.22
16 -6 10 14.51 5.94
-5 -11 -9 -1.96 7.49
-5 -11 -6 6.72 5.85
-5 -11 -6 14.72 9.7
-5 -11 -6 5.68 14.54
-5 -11 -3 18.14 8.77
16 -5 0 83.91 13.65
-5 -11 0 84.69 13.82
16 -5 0 69.41 7.49
16 -5 3 15.78 10.1
-11 16 3 21.79 6.99
-5 -11 3 24.85 12.95
16 -5 6 3.82 9.16
16 -5 6 0.79 8.23
-11 16 6 -9.1 8.31
16 -5 6 11.22 10.77
-11 16 9 16.54 5.37
16 -5 9 1.5 6.61
16 -5 9 9.14 7.56
-4 -12 -7 77.68 9.76
-4 -12 -7 87.4 11.99
-4 -12 -4 304.47 25.03
-4 -12 -4 303.71 24.56
-4 -12 -4 311.83 25.18
-4 -12 -1 137.07 17.22
16 -4 2 0.85 8.88
-12 16 2 9.9 6.41
-12 16 5 105.37 13.63
16 -4 5 96.77 10.89
16 -4 5 102.49 15.39
-12 16 8 113.16 11.04
16 -4 8 106.88 12.77
-4 -12 11 24.05 4.84
16 -3 -11 24.86 4.59
-3 -13 -8 107.11 12.29
-3 -13 -8 122.68 13.43
-3 -13 -5 116.03 12.2
-3 -13 -5 125.27 13.09
-3 -13 -5 127.75 12.8
-3 -13 -2 -10.77 10.07
16 -3 1 185.33 17.89
-3 -13 1 155.65 20.08
16 -3 1 156.38 13.44
16 -3 1 155.65 17.82
-13 16 4 210.51 19.44
-3 -13 4 215.94 24.7
16 -3 4 184.8 20.83
16 -3 4 173.3 16.72
-13 16 7 58.92 7.78
16 -3 7 61.46 9.69
16 -3 7 52.77 13.53
-13 16 7 45.05 11.65
-2 -14 -9 14.65 7.4
-2 -14 -9 16.73 6.44
-2 -14 -6 1.26 6.14
-2 -14 -6 -7.19 9.58
-2 -14 -3 95.65 10.11
-2 -14 -3 88.8 13.53
-2 -14 0 252.21 24.65
16 -2 0 231.37 18.82
16 -2 0 245.68 22.99
-14 16 3 98.32 12.86
16 -2 3 80.35 13.92
-2 -14 3 121.28 18.59
16 -2 6 7.38 9.91
-14 16 6 5.58 8.6
16 -2 6 14.23 10.66
16 -2 6 1.26 10.29
-14 16 9 13.73 5.36
16 -2 9 22.24 6.96
16 -2 9 8.26 6.74
-1 -15 -7 64.69 9.62
-1 -15 -7 77.33 11.14
-1 -15 -7 89.08 11.62
-1 -15 -4 254.19 21.55
-1 -15 -4 255.03 21.58
-1 -15 -4 266.73 21.85
-1 -15 -1 177.53 20.3
16 -1 -1 169.71 18.79
-15 16 2 7.07 7.15
16 -1 2 9.44 8.71
16 -1 5 41.38 11.82
16 -1 5 28.63 13.31
16 -1 5 56.24 13.13
-15 16 5 59.41 12.2
16 -1 5 68.17 8.91
-15 16 8 68.25 8.31
16 -1 8 48.51 9.13
0 -16 -8 203.35 17.65
0 -16 -8 178.83 18.17
0 -16 -8 229.74 19.43
0 -16 -5 241.06 20.35
0 -16 -5 219.93 23.89
0 -16 1 283.61 26.75
16 0 1 223.37 18.42
16 0 1 241.53 22.6
-16 16 4 293.19 25.79
16 0 4 252.64 21.72
16 0 4 293.58 21.86
16 0 7 58.72 13.38
16 0 7 67.54 10.72
-16 16 7 84.18 14.22
16 0 7 70.67 9.87
16 0 10 -4.07 5.12
1 -17 -9 17.55 6.17
1 -17 -6 15.16 7.41
1 -17 -6 6.51 7.84
1 -17 -3 1.37 6.31
16 1 0 78.83 8.26
16 1 0 94.34 13.19
-17 16 3 71.39 12.23
1 -17 3 72.21 8.35
16 1 3 55.59 12.4
16 1 3 73.33 8.73
16 1 6 11.25 6.94
16 1 6 17.36 8.51
16 1 6 5.15 10.24
-17 16 6 -1.22 8.8
1 -17 9 5.18 5.89
-17 16 9 8.38 4.96
16 1 9 -6.43 5.93
16 1 9 7.39 5.94
16 2 -10 10.79 4.41
2 -18 -7 65.44 10.6
2 -18 -7 50.16 9.01
2 -18 -4 148.57 13.31
16 2 -4 110.25 11.47
2 -18 -4 126.67 13.56
16 2 -1 76.53 12.98
16 2 2 2.2 4.34
16 2 2 0.81 7.61
2 -18 5 61.68 9.18
16 2 5 45.33 11.53
16 2 5 37.27 12.1
16 2 5 49.97 10.83
16 2 5 56.46 11.14
-18 16 5 49.38 12.35
-18 16 8 26.94 6.39
16 2 8 24.84 7.71
2 -18 8 35.14 7.53
3 -19 -8 175.21 16.81
3 -19 -8 190.3 17.74
3 -19 -8 212.58 18.04
3 -19 -5 155.15 15.23
3 -19 -5 143.53 16.02
3 -19 -5 166.42 16.2
16 3 -2 1.61 8.79
3 -19 -2 7.91 5.89
3 -19 -2 14.29 6.03
16 3 1 384.22 28.91
16 3 1 352.57 27.91
16 3 4 413.21 40.47
-19 16 4 466.55 41.26
16 3 4 451.79 38.62
3 -19 4 517.21 36.73
3 -19 7 141.5 12.35
16 3 7 120.89 13.04
16 3 7 103.28 12.06
16 3 10 2.01 4.81
4 -20 -6 31.24 8.47
4 -20 -6 49.26 9.81
4 -20 -6 28.69 8.74
4 -20 -3 22.41 7.6
4 -20 -3 34 6.97
4 -20 -3 38.73 7.51
4 -20 0 6.58 5.51
16 4 0 9 7.75
16 4 0 9.09 8.33
16 4 3 20.63 4.78
4 -20 3 15.13 5.62
16 4 3 6.28 7.87
-20 16 3 10.89 9.57
16 4 3 17.84 6.31
4 -20 6 15.35 6.55
16 4 6 17.48 8.15
-20 16 6 9.07 9.45
16 4 6 7.01 6.08
-20 16 9 -3.99 4.3
16 4 9 2.89 5.11
5 -21 -7 20.63 7.61
5 -21 -7 30.24 9.67
5 -21 -7 36.38 9.46
5 -21 -4 13.46 8.39
16 5 -1 11.58 8.27
5 -21 -1 5.67 5.87
5 -21 -1 1.64 6.11
5 -21 2 24.54 6
5 -21 2 22.92 5.81
16 5 2 22.53 8.21
16 5 2 16.89 6.15
-21 16 5 -1.29 9.73
5 -21 5 12.67 6.39
16 5 5 18.24 8.27
6 -22 -8 129.86 13.28
6 -22 -8 163 14.28
6 -22 -5 148.34 14.98
6 -22 -2 2 6.4
6 -22 -2 11.47 5.57
6 -22 -2 14.8 6.64
6 -22 1 327.43 26.68
16 6 1 357.28 27.41
-22 16 4 388.52 33.82
16 6 4 336.62 28.25
16 6 7 81.66 10.77
7 -23 -6 12.28 7.58
7 -23 -6 14.26 8.51
7 -23 -3 25.49 9.2
7 -23 -3 31 8.16
7 -23 -3 22.05 7.25
7 -23 -3 35.25 10.41
16 7 0 24.99 10.67
7 -23 0 11.96 5.66
7 -23 0 12.96 6.04
-23 16 3 7.49 10.37
16 7 3 15.92 7.72
16 7 6 35.13 8.12
16 7 9 14.35 4.95
8 -24 -7 16.39 7.61
8 -24 -7 5.23 6.2
8 -24 -7 17.45 6.84
8 -24 -4 0.48 7.28
8 -24 -4 11.6 7.85
8 -24 -4 -1.17 6.47
8 -24 -4 -2.58 6.84
8 -24 -1 6.29 8.83
16 8 -1 27.6 11.8
8 -24 -1 12.68 8.64
16 8 2 14.65 8.04
16 8 5 11.42 7.31
16 8 8 6.08 4.91
9 -25 -5 84.77 10.93
16 9 -5 76.32 11.18
9 -25 -5 84.41 11.68
9 -25 -5 95.9 10.39
16 9 -2 -1.5 10.18
9 -25 -2 21.59 8.27
9 -25 -2 10.55 7.84
9 -25 -2 6.84 6.94
16 9 1 192.15 19.56
16 9 4 210.14 18.29
-25 16 4 200.11 23.59
10 -26 -6 42.16 8.03
10 -26 -6 62.57 9.46
16 10 -3 59.89 9.92
10 -26 -3 54.39 9.03
10 -26 -3 52.37 8.97
10 -26 -3 41.14 7
10 -26 -3 59.2 8.9
16 10 0 9.78 9.21
10 -26 0 5.42 7.75
-26 16 3 9.4 9.93
16 10 3 9.29 6.19
16 10 6 22.28 6.86
10 -26 6 14.62 7.55
11 -27 -4 23.46 7.77
11 -27 -4 16.48 5.61
11 -27 -1 65.59 8.37
11 -27 -1 71.49 10.44
11 -27 -1 56.97 8.43
16 11 -1 58.81 10.49
-27 16 2 29.13 11.51
16 11 5 -0.57 6.14
11 -27 5 -2.23 7.9
16 11 8 11.47 4.14
12 -28 -5 55.48 8.95
16 12 -2 -4.82 8.09
12 -28 -2 -11.95 7.75
12 -28 -2 1.98 6.05
12 -28 1 77.43 11.59
12 -28 4 70.87 10.82
13 -29 -3 67.26 9
13 -29 0 65.22 10.43
13 -29 3 -5.85 8.38
14 -30 -4 25.68 6.5
14 -30 -1 95.83 11.83
14 -30 5 1.39 6.29
15 -31 1 39.74 9.33
15 -31 4 52.11 8.63
16 -32 0 70.85 10.25
16 -32 3 23.86 7.38
17 -32 1 6.08 7.3
17 -32 4 27.48 6.92
17 -31 0 18.94 8.38
17 -31 3 17.15 7.37
17 -30 2 34.12 9.53
17 -30 5 7.43 5.79
17 -29 4 3.34 7.34
17 -28 -6 56.04 7.32
17 -28 0 44.68 9.67
17 -28 3 11.47 7.95
17 -27 -7 -2.85 4.71
17 -27 -4 8.82 5.85
17 -27 -1 33.24 8.89
17 -27 2 13.55 8.09
-27 10 2 16.51 10.9
17 -27 5 11.67 6.95
17 -26 -5 76.48 9.41
17 -26 -2 57.53 8.31
17 -26 -2 68.87 8.02
17 -26 1 17.1 8.71
17 -26 4 35.12 8.29
17 -25 -6 40.21 7.57
17 -25 -3 107.57 11.08
17 -25 -3 105.65 11.58
-25 8 3 4.19 10.69
17 -25 3 12.86 8.12
17 -24 -7 17.93 6.14
17 -24 -4 61.88 8.97
17 -24 -4 62.03 9.42
17 -24 -1 40.7 12.11
17 -24 2 16.16 9.96
17 -24 5 29.22 7.39
17 -23 -8 20.8 5.74
17 -23 -5 168.85 15.98
17 -23 -2 207.14 16.97
17 -23 -2 187.24 17.36
17 -23 1 38.88 12.05
-23 6 4 12.56 11.32
17 -23 4 26.33 7.77
17 -22 -6 89.91 11.04
17 -22 -3 249.4 20.89
17 -22 -3 248.84 21.53
17 -22 3 -1.31 8.22
-22 5 3 3.91 10.39
17 -21 -7 54.6 8.97
17 -21 -4 45.19 8.28
17 -21 -4 60.16 11.4
17 -21 -1 10.79 8.49
17 -21 -1 10.16 6.99
17 -21 2 107.04 11.75
-21 4 5 91.96 15.65
17 -21 5 76.39 8
17 -20 -5 145.89 14.64
17 -20 -5 184.94 15.97
17 -20 -2 284.86 22.42
17 -20 -2 255.37 26
17 -20 1 74.68 7.28
17 -20 1 70.62 9.46
-20 3 4 15.47 11.44
17 -20 4 11.08 7.13
17 -20 4 18.7 8.41
17 -20 4 5.15 4.14
17 -20 7 37.88 7.56
17 -19 -9 2.59 5.25
17 -19 -3 106.05 10.31
17 -19 0 136.89 13.23
17 -19 0 114.07 16.25
17 -19 3 0.84 7.08
17 -19 3 6.81 6.3
17 -19 3 10.64 4.16
-19 2 3 13.77 9.87
17 -19 6 4.63 9
-19 2 6 20.65 10.89
17 -19 6 14.82 7.62
-19 2 9 20.68 5.36
17 -18 -4 59.56 7.96
17 -18 -1 15.23 10.12
17 -18 2 298.45 23.12
17 -18 5 203.87 22.18
-18 1 5 182.9 23.01
17 -18 5 227.46 18.58
-18 1 5 178.11 23.86
-18 1 8 46.91 7.83
17 -18 8 43.45 8.86
17 -17 -2 193.34 21.45
17 -17 1 24.03 4.67
17 -17 1 28.23 11.62
17 -17 4 26.03 10.12
-17 0 4 14.71 10.42
17 -17 7 73.15 10.38
17 -16 -9 4.14 5.89
17 -16 0 103.59 14.9
17 -16 0 91.64 8.69
-16 -1 3 5.81 8.6
17 -16 3 8.22 8.5
17 -16 6 11.59 6.36
-16 -1 6 -1.29 9.94
17 -16 6 -1.27 9.89
17 -16 6 3.68 7.47
-16 -1 9 -7.74 5.45
17 -16 9 26.61 7.04
17 -15 -10 66.1 7.65
17 -15 -10 70.45 7.59
17 -15 -1 69.08 13.45
17 -15 2 602.06 45.72
-15 -2 2 517.83 45.15
17 -15 2 563.65 42.09
17 -15 5 246.64 28.9
-15 -2 5 320.71 30.04
-15 -2 5 295.39 30.84
17 -15 5 348.77 26.66
-15 -2 8 63.26 8.78
17 -15 8 72.05 10.58
-15 -2 11 3.7 3.23
17 -14 -11 6.26 3.13
-14 -3 -5 21.75 7.5
17 -14 1 -4.29 10.45
17 -14 1 4.42 3.96
17 -14 4 25.5 10.4
-14 -3 4 23.88 13.84
-14 -3 4 31.67 9.84
17 -14 4 25.4 8.66
17 -14 7 21.6 10.69
17 -14 7 38.63 7.14
-14 -3 7 3.94 9.67
17 -14 7 32.92 8.82
17 -13 0 83.43 14.25
17 -13 0 81.91 8.02
-13 -4 3 51.84 10.47
17 -13 3 42.02 11.81
17 -13 6 -2.94 9.08
17 -13 6 10.2 10.49
17 -13 6 2.39 6.35
-13 -4 6 -1.18 9.39
-13 -4 9 4.22 5.29
17 -13 9 -0.38 7.37
17 -12 -10 75.67 8.58
-12 -5 -7 244.79 21.27
-12 -5 -4 93.82 10.68
17 -12 -1 159.19 19.29
17 -12 2 1012.73 69.95
-12 -5 2 818.81 67.74
17 -12 5 558.34 45.53
17 -12 5 542.98 40.77
-12 -5 5 469.4 45.71
17 -12 5 521.94 40.88
-12 -5 5 532.94 44.06
-12 -5 8 92.19 10.03
17 -12 8 97.77 10.77
17 -12 8 83.94 11.74
-12 -5 11 9.97 4.43
17 -11 -11 9.47 4.06
-11 -6 -8 18.32 7.34
-11 -6 -5 19.98 7.54
17 -11 1 8.43 8.01
-11 -6 1 6.96 5.94
17 -11 1 10.46 4.31
17 -11 1 0.84 10.95
17 -11 4 1.06 9.58
-11 -6 4 -2.35 7.07
17 -11 4 1.38 8.28
-11 -6 4 -9.54 12.3
17 -11 7 -1.37 10.19
-11 -6 7 6.57 5.64
-11 -6 7 1.25 9.87
17 -11 7 4.28 6.61
17 -11 7 3.59 7.89
-10 -7 -9 17.75 6.8
-10 -7 -3 6.56 9.18
-10 -7 3 30.21 7.36
-10 -7 3 42.06 13.24
-10 -7 6 13.76 5.76
17 -10 6 18.92 9.41
17 -10 9 4.48 6.2
-9 -8 -7 296.29 25.26
-9 -8 -4 192.93 17.2
-9 -8 -1 28.67 11.36
-9 -8 2 454.47 36.55
-9 -8 2 535.58 42.06
17 -9 5 486.64 37.8
-9 -8 5 501.63 40.46
-9 -8 5 424.97 42.86
17 -9 5 494.16 37.5
-9 -8 8 76.23 9.14
17 -9 8 97.05 10.62
17 -8 -11 6.38 4.21
-8 -9 -8 -5.75 7.89
-8 -9 -5 11.18 7.51
-8 -9 -5 1.71 5.73
-8 -9 -2 106.19 14.94
17 -8 1 194.36 19.02
-8 -9 1 181.71 21.23
17 -8 1 174.02 14.63
17 -8 1 174.36 19.93
17 -8 4 45.77 9.48
17 -8 4 58.28 12.95
-8 -9 4 54.11 14.89
-8 -9 4 42.22 8.31
17 -8 4 52.15 7.7
17 -8 7 6.77 8.32
-8 -9 7 3.05 5.04
17 -8 7 10.7 8.36
17 -8 7 9.75 10.78
-7 -10 -9 14.5 7.05
-7 -10 -6 20.22 11.64
-7 -10 -3 10.91 8.73
17 -7 0 5.72 11.32
-7 -10 0 17.54 11.61
17 -7 0 9.89 4.6
-7 -10 3 11.77 12.84
17 -7 3 2.95 9.63
17 -7 6 25.75 11.62
17 -7 6 -0.41 10.94
17 -7 6 -3.89 10.79
17 -7 9 0.36 6.33
17 -7 9 -2.77 7.52
-6 -11 -7 189.55 18.33
-6 -11 -4 111.18 12
17 -6 -1 17.44 11.56
-6 -11 -1 13.98 10.4
17 -6 2 290.37 24.64
-11 17 2 242.76 20.95
17 -6 2 223.76 24.15
17 -6 5 235.71 19.78
17 -6 5 222.5 19.29
17 -6 5 204.6 19.3
-11 17 5 265.04 22.56
-6 -11 5 186.94 25.85
17 -6 5 259.79 24.76
-11 17 8 50.86 6.9
17 -6 8 47.39 9.29
17 -6 8 41.5 8.64
-6 -11 11 8.9 4.45
17 -5 -11 29.11 4.64
-5 -12 -8 5.95 6.79
-5 -12 -8 6.04 8.02
-5 -12 -5 1.7 7.85
-5 -12 -5 16.32 6.46
-5 -12 -2 111.86 15.56
17 -5 1 130.93 15.99
-5 -12 1 128.46 18.82
17 -5 1 135.12 11.83
17 -5 1 145.57 17.1
17 -5 4 30.69 11.32
-5 -12 4 40.57 14.8
17 -5 4 21.22 8.28
17 -5 4 17.26 6.5
-12 17 4 31.89 8.28
17 -5 7 -2.79 10.61
-12 17 7 7.63 5.21
17 -5 7 19.03 8.19
-4 -13 -9 5.71 6.81
-4 -13 -6 30.93 7.19
-4 -13 -6 26.14 10.01
-4 -13 -6 41.34 11.31
-4 -13 -3 93.28 14.07
-4 -13 0 59.14 13.22
17 -4 0 49.62 11.94
17 -4 0 51.04 6.56
-4 -13 3 29.44 14.2
17 -4 3 9.13 10.02
-13 17 3 6.78 6.96
17 -4 6 40.98 12.56
-13 17 6 54.74 10.73
17 -4 6 28.18 9.38
-13 17 9 18.59 5.13
17 -4 9 22.39 7.21
-3 -14 -7 94.7 11.62
-3 -14 -7 128.47 13.2
-3 -14 -7 121.32 13.73
-3 -14 -4 41.89 7.66
-3 -14 -4 47.75 8.01
-3 -14 -1 34.14 11.85
17 -3 -1 24.7 11.38
17 -3 2 183.65 19.91
-14 17 2 184.46 17.72
17 -3 5 121.5 18.24
17 -3 5 149.76 15.27
-14 17 5 130.54 16.05
-14 17 8 14.64 5.67
17 -3 8 31.22 8.52
-2 -15 -8 40.6 9.76
-2 -15 -8 22.48 7.95
-2 -15 -5 20.46 7.29
-2 -15 -5 34.64 15.07
-2 -15 -2 304.03 28.69
-2 -15 1 365.73 34
17 -2 1 343.2 27.19
17 -2 1 390.22 31.72
17 -2 4 46.08 8.04
17 -2 4 45.9 9.45
17 -2 4 38.86 12.27
-15 17 4 57.23 10.74
17 -2 7 22.37 8.87
-15 17 7 4.74 8.75
17 -2 7 20.36 8.02
-2 -15 10 39.51 6.47
17 -2 10 36.47 6.56
-1 -16 -9 -0.64 5.53
-1 -16 -9 1.83 6.82
-1 -16 -6 28.64 7.79
-1 -16 -6 34.93 9.45
-1 -16 -6 25.2 8.2
17 -1 -3 78.49 9.65
-1 -16 -3 115.98 10.85
-1 -16 -3 92.81 10.59
-1 -16 -3 100.39 10.79
17 -1 0 66.47 12.31
-1 -16 0 57.31 14.03
17 -1 0 50.71 6.65
-1 -16 3 9.08 5.82
-16 17 3 -6.75 7.74
17 -1 3 3.24 5.78
17 -1 3 5.74 7.56
17 -1 3 -1.12 7.93
17 -1 3 7.17 9.6
17 -1 6 15.57 8.67
17 -1 6 30.85 11.81
17 -1 6 34.52 8.14
-16 17 6 27.62 9.82
-16 17 9 16.97 5.18
17 -1 9 22.6 6.56
17 -1 9 21.76 6.92
-1 -16 9 33.63 6.97
17 0 -10 31.04 5.64
0 -17 -7 90.04 10.84
0 -17 -7 78.2 11.95
0 -17 -7 103.4 12.46
0 -17 -4 18.85 7.14
0 -17 -4 24.71 7.58
0 -17 -4 32.05 7.7
17 0 -1 29.11 11.46
17 0 2 170.09 18.78
-17 17 2 188.92 18.34
17 0 2 169.26 14.55
17 0 5 93.23 12.84
17 0 5 64.77 13.25
17 0 5 83.2 15.11
17 0 5 94.97 11.69
-17 17 5 120.78 15.05
-17 17 8 4.53 5.39
17 0 8 0.71 7.4
1 -18 -8 22.87 8.38
1 -18 -8 14.6 7.83
1 -18 -5 87.37 11.11
1 -18 -5 87.18 12.21
1 -18 -5 82.67 12.71
1 -18 -2 568.99 42.04
17 1 -2 475.09 44.91
1 -18 -2 562.8 42.12
17 1 1 543.78 41.23
17 1 1 552.3 44.75
17 1 1 549.93 41.7
1 -18 4 125.1 11.3
17 1 4 101.28 15.73
17 1 4 89.89 14.66
-18 17 4 88.31 14.81
1 -18 7 11.29 7.01
17 1 7 9.12 8.29
17 1 7 -4 6.91
17 1 10 25.4 5.88
17 2 -9 18.18 5.35
2 -19 -9 13.07 5.74
2 -19 -6 5.7 7.51
2 -19 -6 8.05 8.45
2 -19 -6 0.55 7.38
2 -19 -3 54.17 8.43
17 2 0 130.52 16.54
17 2 0 141.55 13.99
2 -19 0 145 13.14
-19 17 3 28.56 9.88
17 2 3 31.7 6.93
2 -19 3 30.55 6.37
17 2 3 33.25 5.81
17 2 3 17.51 8.92
2 -19 6 3.02 6.52
17 2 6 -6.39 9.49
17 2 6 4.77 7.87
-19 17 6 -11.1 9.42
17 2 6 -4.18 6.49
-19 17 9 14.62 4.75
17 2 9 5.04 5.35
3 -20 -7 16.03 8.58
3 -20 -7 18.4 7.29
17 3 -7 15.23 6.64
3 -20 -4 1.3 8.16
3 -20 -1 52.51 7.61
17 3 -1 51.58 11.46
3 -20 2 67.48 7.63
17 3 2 56.13 9.51
17 3 2 50.33 6.65
3 -20 5 18.74 7.07
17 3 5 19.56 7.84
17 3 5 17.75 8.5
-20 17 5 4.92 9.78
17 3 5 21.68 8.17
-20 17 8 7.08 5.36
17 3 8 15.68 6.28
4 -21 -8 18.44 6.98
4 -21 -5 72.24 10.93
4 -21 -5 93.23 11.56
4 -21 -5 83.38 11.25
4 -21 -2 489.1 38.05
4 -21 -2 488.49 37.73
4 -21 -2 510.03 38.53
4 -21 -2 480.6 38.04
4 -21 1 477.21 36.35
17 4 1 479.78 37.01
4 -21 1 474.64 36.6
4 -21 4 68.64 9.06
-21 17 4 56.67 12.99
17 4 4 66.46 7.79
17 4 4 92.68 12.32
4 -21 7 7.62 5.74
17 4 7 18.57 8.59
17 4 7 1.15 5.9
17 4 10 32.34 4.43
5 -22 -6 45.79 9.6
5 -22 -6 21.9 7.73
5 -22 -6 23.62 8.69
5 -22 -3 18.38 8.44
5 -22 -3 10.4 8.87
5 -22 0 17.34 6.15
17 5 0 12.04 8.44
5 -22 3 51.53 8.32
-22 17 3 34.32 11.54
5 -22 3 47.32 7.3
17 5 3 46.6 9.35
5 -22 6 56.61 7.08
17 5 6 18.32 8.39
17 5 9 0.42 4.71
6 -23 -7 7.92 6.38
6 -23 -7 12.22 7.78
6 -23 -7 5.07 7.3
6 -23 -4 28.52 8.07
6 -23 -4 25.4 7.63
6 -23 -4 17.33 7.81
17 6 -1 19.99 18.9
6 -23 -1 28.2 7.93
6 -23 -1 22.34 7.99
6 -23 2 4.77 5.45
6 -23 2 -2.13 5.42
17 6 2 13.55 10.82
17 6 2 16.61 10.74
17 6 5 11.13 7.58
-23 17 5 -2.6 10.05
-23 17 8 -2.42 4.62
17 6 8 3.57 5.35
7 -24 -8 30.75 6.83
7 -24 -5 23.6 8
7 -24 -5 21 8.73
7 -24 -5 34.66 7.7
17 7 -2 265.53 24.32
7 -24 -2 277.29 22.65
7 -24 -2 230.67 20.85
7 -24 -2 268.46 23.06
17 7 1 253.87 23.04
17 7 1 282.09 23.74
7 -24 1 262.92 21.98
-24 17 4 31.34 11.2
17 7 4 30.56 7.63
17 7 7 6.47 6.44
17 8 -6 17.72 8.64
8 -25 -6 8.58 7.16
17 8 -3 22.59 9.39
8 -25 -3 4.99 6.23
8 -25 -3 23.79 7.72
8 -25 -3 16.33 7.61
8 -25 -3 9.4 6.8
17 8 0 79.36 13.98
8 -25 0 89.37 9.67
8 -25 0 65.23 9.34
17 8 3 79.07 9.64
-25 17 3 71.58 14.5
17 8 6 27.91 8.06
17 8 9 -0.69 3.06
9 -26 -7 9.87 6.38
9 -26 -4 12.09 7.6
17 9 -4 7.15 8.73
9 -26 -4 13.18 6.12
17 9 -1 7.16 9.24
9 -26 -1 -4.37 6.12
9 -26 -1 -0.95 7.56
9 -26 -1 10.24 6.51
-26 17 2 6.43 9.83
17 9 2 5.55 6.24
17 9 5 20.65 7.07
17 9 8 13.71 4.51
10 -27 -5 21.48 8.2
10 -27 -5 14.02 6.25
17 10 -2 176.71 16.85
10 -27 -2 187.95 17.1
10 -27 -2 183.19 16.49
10 -27 -2 171.23 16.34
10 -27 1 202.75 19.18
17 10 4 41.52 7.91
11 -28 -6 37.21 7.3
11 -28 -3 3.87 6.55
17 11 -3 5.56 8.31
11 -28 0 10.01 8.13
11 -28 3 37.93 9.37
11 -28 6 18.7 6.66
12 -29 -4 67.62 9.43
12 -29 -1 47.47 9.15
17 12 -1 32.46 9.24
12 -29 5 29 7.62
13 -30 -5 11.54 5.82
13 -30 -2 82.41 10.91
13 -30 1 94.62 12.32
13 -30 4 27.93 7.89
14 -31 0 10.11 8.28
14 -31 3 12.58 7.37
15 -32 5 27.38 6.18
16 -33 1 27.11 7.59
16 -33 4 10.87 5.95
17 -34 3 4.85 5.91
18 -33 3 34.3 7.31
18 -32 2 2.89 6.59
18 -31 4 25.25 6.98
18 -30 0 77.21 11.35
18 -30 3 97.11 11.61
18 -29 2 20.8 8.56
18 -28 -5 12.77 5.52
18 -28 4 43.32 8.99
18 -27 -6 52.31 7.4
18 -27 -3 0.35 5.16
18 -27 0 53.89 9.96
18 -27 3 98.21 12.05
18 -26 -7 11.58 5.14
18 -26 -4 7.35 5.89
18 -26 -1 18.67 8.57
18 -26 2 64.65 10.3
-26 8 2 50.52 13.23
18 -26 5 36.26 7.59
18 -25 -8 39.89 5.8
18 -25 -5 42.38 7.71
18 -25 1 55.21 10.32
18 -25 4 87.21 10.43
-25 7 4 50.51 13.78
18 -24 -6 88.52 10.44
18 -24 -3 21.37 6.35
-24 6 3 122.11 18.5
18 -24 3 138.56 14.13
18 -23 -7 27.51 6.82
18 -23 -4 3.35 6.31
18 -23 -1 67.07 11.25
18 -23 2 96.11 12.47
18 -23 5 21.84 6.56
-23 5 5 6.98 10.8
-23 5 8 5.33 5.04
18 -22 -8 47.12 7.12
18 -22 -5 70.87 9.79
18 -22 -2 -0.96 4.98
18 -22 1 83.25 12.6
18 -22 4 97.47 11.33
-22 4 4 72.1 15.37
18 -21 -6 74.48 10.39
18 -21 -6 76.14 8.61
18 -21 -3 34.61 11.17
18 -21 -3 29.97 6.73
18 -21 0 17.19 7.24
-21 3 3 98.86 16.18
18 -21 3 93.94 9.07
18 -21 3 99.7 13.3
18 -21 6 44.39 6.19
18 -21 6 54 8.04
18 -20 -7 7.19 6.85
18 -20 -7 7.19 6.06
18 -20 -4 65.94 9.75
18 -20 -4 81.18 9.8
18 -20 -1 289.27 27.57
18 -20 2 181.06 17.1
18 -20 2 197.57 15.67
18 -20 5 17.47 9.02
-20 2 5 14.89 10.42
18 -20 5 20.76 7.34
-20 2 8 4.55 5.43
18 -19 -8 92.37 9.59
18 -19 -5 106.96 11.66
18 -19 -2 13.58 5.9
18 -19 -2 7.57 11.26
18 -19 -2 14.65 5.54
18 -19 1 52.62 6.41
18 -19 1 62.9 8.67
18 -19 4 99.65 11.91
18 -19 4 116.21 14.84
-19 1 4 90.95 15.91
18 -19 7 49.07 8.72
-19 1 10 -1.14 3.46
18 -18 -9 24.47 5.68
18 -18 -3 68.13 8.36
18 -18 0 11.74 10.74
18 -18 3 66.41 11.26
18 -18 3 59.11 10.08
18 -18 3 61.45 8.56
18 -18 3 65.21 7.24
-18 0 3 49.93 11.79
-18 0 6 35.69 11.78
18 -18 6 27.41 8.32
18 -18 6 24.82 10.29
-18 0 9 -0.52 4.54
18 -17 -4 106.27 10.94
18 -17 -1 659.73 53.57
-17 -1 2 448.84 42.99
18 -17 2 547.36 39.56
-17 -1 5 86.79 14.54
-17 -1 5 66.04 15.99
18 -17 5 68.82 10.59
18 -17 5 51.62 12.98
-17 -1 8 17.47 6.19
18 -17 8 24 8.12
18 -16 1 69.59 7.43
18 -16 1 65.91 14.41
18 -16 4 89.84 14.97
18 -16 4 106.82 12.34
-16 -2 4 86.19 14.26
-16 -2 4 114.48 18.58
18 -16 7 40.07 7
18 -16 7 54.67 9.23
18 -15 -9 13.06 6.14
18 -15 -3 34.73 6.73
18 -15 0 6.37 10.5
18 -15 0 14.23 4.59
18 -15 3 32.65 8.93
18 -15 3 53.81 11.54
-15 -3 3 27.83 9.25
18 -15 6 9.34 10.16
18 -15 6 16.96 6.73
-15 -3 6 28.24 10.82
18 -15 6 32.26 8.48
-15 -3 9 2.17 4.68
18 -15 9 -1.37 6.8
18 -14 -10 46.39 6.82
18 -14 -10 66.68 7.3
-14 -4 -4 163.98 15.38
18 -14 -1 1085.5 84.26
18 -14 2 770.43 57.7
-14 -4 2 629.38 56.07
18 -14 2 744.82 53.8
18 -14 5 37.93 7.74
18 -14 5 39.16 6.56
-14 -4 5 14.57 14.26
18 -14 5 38.48 12.03
-14 -4 5 40.37 10.9
18 -14 5 64.64 11.65
18 -14 8 27.39 9.3
-14 -4 8 40.19 6.75
18 -14 8 21.4 6.89
-14 -4 11 25.74 3.83
18 -13 -11 4.34 3.02
-13 -5 -5 5.66 9.29
18 -13 1 40.15 5.67
18 -13 1 22.11 11.99
18 -13 4 28.23 12.26
18 -13 4 32.58 7.1
18 -13 4 38.73 9.55
-13 -5 4 29.51 9.63
-13 -5 4 19.58 13.64
18 -13 4 26.06 6.59
-13 -5 7 7.35 5.89
18 -13 7 1.4 10.63
18 -13 7 -0.72 6.51
18 -13 7 7.17 8.38
18 -12 0 55.66 12.86
18 -12 0 41.89 6.05
18 -12 3 12.29 10.19
-12 -6 3 5.6 6.82
-12 -6 3 18.78 13.07
18 -12 3 6.18 8.2
18 -12 6 6.74 10.3
18 -12 6 13.59 8.72
-12 -6 6 -7.7 8.46
18 -12 6 1.3 8.14
18 -12 9 11.71 7.48
18 -11 -10 54.73 7.09
-11 -7 -7 3.2 7.73
-11 -7 -4 125.81 12.93
-11 -7 2 656.78 53.98
-11 -7 2 877.64 60.1
18 -11 5 65.16 9.18
18 -11 5 39.91 12.55
-11 -7 5 51.84 15.54
-11 -7 5 56.31 10.77
18 -11 5 49.99 13.85
-11 -7 8 39.94 6.83
18 -11 8 54.49 8.34
-11 -7 11 40.65 5.5
-10 -8 -8 1.23 7.26
-10 -8 -5 8.9 9
-10 -8 -2 27.08 10.88
-10 -8 1 4.28 4.36
-10 -8 1 26.18 12.87
18 -10 4 2.06 6.55
-10 -8 4 -13.27 13.28
-10 -8 4 -2.79 6.21
18 -10 4 4.5 6.04
-10 -8 7 7.68 5.05
18 -10 7 3.19 6.6
-9 -9 -9 16.37 6.51
-9 -9 -3 20.29 10.11
18 -9 0 42.64 12.82
-9 -9 0 31.54 13.27
-9 -9 3 28.34 14.17
18 -9 3 18.71 11.3
18 -9 6 6 9.14
18 -9 6 13.73 8.47
18 -9 9 2 5.96
18 -9 9 4.62 7.11
-8 -10 -7 21.57 8.77
-8 -10 -4 108.25 11.82
-8 -10 -1 561.62 49.62
18 -8 -1 659.78 50.64
18 -8 2 626.33 47.65
18 -8 2 526.43 47.35
18 -8 5 50.11 14.15
18 -8 5 70.66 10.68
18 -8 5 72.28 10.09
-8 -10 5 50.18 16.23
18 -8 8 17.47 7.35
18 -8 8 29.22 8.74
-8 -10 11 23.34 4.65
18 -7 -11 3.39 3.73
-7 -11 -8 13.73 6.51
-7 -11 -8 25.01 8.76
-7 -11 -5 57.15 15.5
-7 -11 -5 50.1 8.84
-7 -11 -2 26.33 10.67
-7 -11 1 -5.42 11.78
18 -7 1 0.99 4.11
18 -7 1 -3.6 10.54
-7 -11 4 34.84 14.37
18 -7 4 10.44 10.79
18 -7 4 17.17 8.29
18 -7 4 14.63 6.4
18 -7 7 37.38 12.66
18 -7 7 55.37 10.19
18 -7 7 41.71 9.34
-6 -12 -9 12.11 6.88
-6 -12 -6 29.03 11.14
18 -6 -3 15.9 5.99
-6 -12 -3 -0.35 6.49
-6 -12 -3 5.19 9.1
-6 -12 0 43.66 12.68
18 -6 0 45.89 12.6
18 -6 0 31.52 5.73
18 -6 3 62.8 12.68
-6 -12 3 46.08 16.04
18 -6 3 40.4 8.81
18 -6 3 37.5 7.41
18 -6 6 9.78 8.62
18 -6 6 18.05 8.17
18 -6 6 10.95 11.36
18 -6 9 10.89 6.28
18 -6 9 8.83 6.93
18 -5 -10 39.98 6.84
-5 -13 -7 8.56 8.58
-5 -13 -4 71.56 9.93
-5 -13 -4 62.74 9.21
-5 -13 -1 355.78 33.41
18 -5 -1 388.83 33.6
18 -5 2 313.73 26.19
-13 18 2 241.32 22.88
18 -5 2 270.5 21.29
18 -5 5 23.44 13.19
18 -5 5 -1.29 11.04
18 -5 5 15.52 12.06
18 -5 5 22.81 13.02
18 -5 8 26.66 8.26
18 -5 8 22.39 8.46
-4 -14 -8 23.59 7.78
-4 -14 -8 45.85 10.22
-4 -14 -5 147.9 16.45
-4 -14 -5 148.45 18.45
-4 -14 -2 83.07 14.17
-4 -14 1 13.05 12.82
18 -4 1 10.05 4.77
18 -4 1 0.9 10.79
-4 -14 4 50.95 16.72
18 -4 4 51.73 9.42
-14 18 4 57.37 10.13
18 -4 4 33.4 12.2
-14 18 7 72.98 8.18
18 -4 7 44.61 13.87
18 -4 7 66.37 10.27
-4 -14 10 25.07 6.31
-3 -15 -9 6.77 5.31
-3 -15 -9 16.04 6.98
-3 -15 -6 76.51 10.88
-3 -15 -6 87.76 12.07
-3 -15 -3 46.87 12.1
18 -3 -3 54.26 7.78
-3 -15 -3 72.55 8.97
-3 -15 -3 55.65 8.42
18 -3 0 6.16 10.1
-3 -15 0 19.45 12.47
18 -3 0 14.32 4.79
-3 -15 3 97.04 9.44
-15 18 3 78.26 11.4
18 -3 3 81.7 9.54
18 -3 3 62.28 13.41
18 -3 3 73.63 10.33
18 -3 3 66.4 10.25
18 -3 6 30.71 12.62
18 -3 6 58.01 9.39
-3 -15 9 19.56 6.56
18 -3 9 7.86 6.69
18 -2 -10 23.66 6
-2 -16 -7 1.02 8.08
-2 -16 -7 9.42 8.82
-2 -16 -4 85 10.68
-2 -16 -4 76.87 10.53
-2 -16 -1 257.87 26.22
18 -2 -1 244.83 25.32
-2 -16 2 153.8 13.02
-16 18 2 127.26 15.28
18 -2 2 121.51 13.8
18 -2 2 147 12.51
18 -2 2 133.22 17.16
18 -2 5 14.27 11.94
18 -2 5 18.42 10.99
-16 18 5 9.23 8.97
18 -2 5 -7.87 11.29
18 -2 5 14.13 8.29
-16 18 8 30.68 5.87
18 -2 8 9.7 7.69
-1 -17 -8 61.74 9.87
-1 -17 -8 50.74 9.83
-1 -17 -5 263 22.75
-1 -17 -5 273.54 24.25
-1 -17 -2 302.54 24.68
18 -1 -2 316.91 29.24
-1 -17 1 28.88 14.62
18 -1 1 24.73 11.37
18 -1 1 17.72 5.04
-17 18 4 60.68 11.62
-1 -17 4 60.23 8.97
18 -1 4 41.75 13.08
18 -1 4 69 10.72
18 -1 4 75.78 14.67
18 -1 7 82.91 11.95
18 -1 7 96.75 11.3
18 -1 10 41.8 6.54
18 0 -9 9.8 5.67
0 -18 -9 8.21 5.47
0 -18 -6 32.25 8.21
0 -18 -6 42.16 8.93
18 0 -3 57.19 7.91
0 -18 -3 75.78 9.33
0 -18 -3 59.91 9.18
0 -18 0 10.64 5.92
0 -18 0 11.3 5.98
18 0 0 20.71 8.27
18 0 0 3.48 10.49
0 -18 3 69.52 8.37
18 0 3 64.92 9.64
18 0 3 77.17 9.06
18 0 3 68.6 12.6
18 0 3 62.42 7.69
-18 18 3 38.71 10.84
0 -18 6 72.68 9.84
18 0 6 66.64 10.99
-18 18 6 85.28 13.55
18 0 6 80.78 14.89
18 0 6 73.46 10.07
0 -18 9 20.48 6.2
-18 18 9 22.11 4.8
18 0 9 16.18 5.85
18 0 9 28.62 6.29
18 1 -7 0.78 6.76
1 -19 -7 5.03 7.95
1 -19 -4 110.64 12.04
1 -19 -4 92.37 12.57
1 -19 -4 105.93 12.87
18 1 -4 82.45 15.16
1 -19 -1 217.42 17.86
18 1 -1 191.52 21.42
1 -19 -1 212.19 18.04
1 -19 2 93.77 10.22
-19 18 2 104.1 13.87
18 1 2 94.74 9.48
18 1 5 2.82 7.38
1 -19 5 5.8 7.08
18 1 5 -2.18 8.03
18 1 5 1.24 9.72
-19 18 5 10.57 9.26
18 1 5 6.22 7.15
-19 18 8 23.72 5.72
1 -19 8 26.51 6.99
18 1 8 15.31 6.49
18 2 -8 67.51 8.46
2 -20 -8 67.42 9.47
2 -20 -8 83.47 10.33
2 -20 -5 276.42 23.83
2 -20 -5 293.05 24.06
18 2 -5 266.38 22.45
2 -20 -5 284.38 24.31
2 -20 -2 244.52 19.92
18 2 -2 211.45 23.37
2 -20 -2 238.71 20.03
2 -20 1 5.72 5.95
2 -20 1 12.05 5.96
18 2 1 20.04 8.7
18 2 1 15.47 5.1
2 -20 4 68.26 9.24
-20 18 4 53.04 12.12
18 2 4 57.85 12.39
18 2 4 52.3 7.47
18 2 4 62.25 10.14
18 2 4 84.85 12.55
2 -20 7 89.27 10.19
18 2 7 89.77 11.75
18 2 7 88.6 10.26
18 2 10 31.02 4.69
3 -21 -6 29.7 8.82
3 -21 -6 32.88 7.99
3 -21 -6 14.82 8.94
18 3 -6 14.27 6.53
3 -21 -3 95.44 13.68
3 -21 -3 107.52 12.38
18 3 0 89.33 11.44
3 -21 0 95.66 10.18
18 3 0 92.76 13.46
-21 18 3 17.82 10.28
3 -21 3 11.1 8.46
18 3 3 18.82 8.46
18 3 3 8.77 4.78
3 -21 6 6.87 6.33
18 3 6 3.79 7.82
18 3 6 -6.34 6.11
18 3 9 18.28 5.49
4 -22 -7 14.93 8.13
4 -22 -7 25.07 8.11
4 -22 -4 54.04 9.34
4 -22 -1 12.75 6.19
4 -22 -1 9.33 6.4
4 -22 -1 17.76 6.9
4 -22 2 7.94 6.04
4 -22 2 7.8 6.16
-22 18 2 8.77 9.95
18 4 2 5.89 11.69
18 4 2 -10.37 13.6
4 -22 5 22.69 6.8
18 4 5 26.88 8.4
-22 18 5 15.04 9.83
-22 18 8 12.99 5.07
5 -23 -8 29.43 7.06
5 -23 -5 175.75 16.63
18 5 -2 165.8 17.17
5 -23 -2 138.25 16.16
5 -23 -2 155.03 15.3
5 -23 -2 166.83 15.97
5 -23 1 13.18 7.05
18 5 1 10.36 10.76
5 -23 4 50.13 7.73
-23 18 4 47.43 12.27
18 5 4 61.94 9.23
18 5 7 90.96 10.78
6 -24 -6 11.24 7.96
18 6 -3 57.28 10.98
6 -24 -3 51 8.7
6 -24 -3 65.04 9.6
18 6 0 72.25 13.63
6 -24 0 43.57 9.13
6 -24 0 69.98 9.36
6 -24 3 21.82 6.65
-24 18 3 14.94 9.99
18 6 3 23.73 7.28
18 6 6 18.18 8.22
18 6 9 7.58 3.9
7 -25 -7 10.56 7.06
7 -25 -7 1.63 5.91
18 7 -4 7.19 9.1
7 -25 -4 9.05 8.01
7 -25 -4 5.83 6.67
7 -25 -4 6.72 7.47
7 -25 -1 23.49 8.74
18 7 -1 21.67 10.32
7 -25 -1 40.76 8.74
18 7 2 36.94 7.93
-25 18 2 24.67 10.3
18 7 5 13.34 7.33
-25 18 8 -0.64 4.01
18 7 8 9.55 4.77
18 8 -5 122.58 13.7
8 -26 -5 140.96 14.52
8 -26 -5 129.13 12.96
18 8 -2 137.42 14.5
8 -26 -2 133.51 14.04
8 -26 -2 130.53 13.66
8 -26 -2 136.31 13.59
18 8 1 19.01 6.78
18 8 1 19.96 9.51
8 -26 1 2.79 6.09
18 8 4 42.42 8.54
9 -27 -6 3.59 6.71
9 -27 -3 58.73 9.3
18 9 -3 75.97 10.76
9 -27 -3 85.49 10.16
9 -27 -3 57.43 7.82
9 -27 -3 61.77 9.02
18 9 0 71.8 10.69
9 -27 0 56.58 9.87
9 -27 0 47.72 7.63
18 9 3 18.56 6.6
18 9 6 17.66 6.1
9 -27 6 -1.87 6.62
10 -28 -4 6.99 7.51
18 10 -4 -3.26 8.11
10 -28 -1 28.11 8.45
18 10 -1 24.38 9.14
10 -28 -1 14.23 5.64
10 -28 -1 1.21 5.89
10 -28 2 63.17 11.03
18 10 5 39.33 7.2
10 -28 5 26.94 8.25
18 10 8 8.64 3.04
11 -29 -5 101.82 11.15
18 11 -2 96.42 12.1
11 -29 -2 108.09 11.91
11 -29 -2 103.05 10.9
11 -29 1 32.67 9
18 11 4 17.31 6.69
11 -29 4 0.46 7.58
18 11 7 24.67 4.84
12 -30 -3 18.4 6.53
12 -30 0 34.84 9.13
18 12 3 5.25 6.09
12 -30 3 16.77 8.21
13 -31 -4 22.38 5.95
13 -31 -1 16.42 8.12
13 -31 5 50.22 7.81
14 -32 1 12.6 7.67
14 -32 4 6.23 6.3
15 -33 0 30.14 7.68
15 -33 3 21.24 6.9
19 -32 3 48.79 8.2
19 -31 2 60.08 9.46
19 -30 4 21.16 7.06
19 -29 0 180.23 17.51
19 -29 3 60.3 10.03
19 -28 -4 -2.64 5.05
19 -28 2 48.12 9.47
19 -27 -5 11.47 5.63
19 -27 1 59.33 10.27
19 -27 4 18.3 7.44
19 -26 -6 1.73 5.33
19 -26 -3 63.24 7.99
-26 7 3 44.21 13.32
19 -26 3 64.22 9.96
19 -25 -7 -3.2 4.95
19 -25 -4 30.58 6.77
-25 6 2 38.75 12.62
19 -25 2 62.71 10.13
19 -24 -8 5.7 4.54
19 -24 -5 6.2 6.25
19 -24 1 91.65 12.16
-24 5 4 4.13 10.47
19 -24 4 15.02 7.31
19 -23 -6 0.42 6.47
19 -23 -3 95.76 10.3
19 -23 0 271.82 23.83
-23 4 3 103.68 16.68
19 -23 3 111.96 12.67
19 -22 -7 24.66 6.71
19 -22 -4 95.43 10.83
19 -22 2 -0.89 8.42
-22 3 2 -2.44 10.26
19 -22 2 1.66 3.8
-22 3 5 5.47 10.94
19 -22 5 35.82 5.25
-22 3 8 27.23 5.98
19 -21 -8 9.39 5.52
19 -21 -5 15.32 7.02
19 -21 -5 6.26 6.04
19 -21 -2 113.95 15.5
19 -21 -2 96.49 10.09
19 -21 1 111.47 12.67
-21 2 4 26.01 11.98
19 -21 4 25.61 8.08
19 -21 4 27.71 5.29
19 -21 4 33.22 8.02
19 -20 -6 7.42 6.91
19 -20 -6 6 6.23
19 -20 -3 35.47 12.99
19 -20 -3 43.32 7.48
19 -20 -3 36.63 6.96
19 -20 0 123.44 16.79
19 -20 3 47.63 9.72
19 -20 3 54.23 8.56
-20 1 3 48.88 12.44
19 -20 3 49.91 6.46
19 -20 6 -4.41 7.3
-20 1 9 12.17 4.78
19 -19 -7 60.45 9.62
19 -19 -7 73.42 8.93
19 -19 -4 259.15 21.35
19 -19 -1 226.1 18.81
19 -19 -1 249.85 24.55
-19 0 2 11.57 9.18
19 -19 2 16.18 6.62
19 -19 2 16.7 8.14
19 -19 2 21.17 4.63
-19 0 5 31.7 15.76
-19 0 5 53.28 12.97
19 -19 5 45.3 11.07
19 -19 5 46.42 8.86
-19 0 8 68.92 8.64
19 -19 8 83.03 9.56
19 -18 -8 19.49 6.92
19 -18 -8 29.63 6.62
19 -18 -5 10.28 7.54
19 -18 -2 99.87 10.3
19 -18 -2 92.33 16.17
19 -18 1 225.75 24.27
19 -18 1 231.5 18.51
-18 -1 4 67.13 13.61
19 -18 4 89.57 13.66
-18 -1 4 58.02 19.13
19 -18 7 7.47 7.5
-18 -1 10 4.84 3.8
19 -17 -9 13.92 5.51
19 -17 -3 40.29 6.96
-17 -2 -3 15.01 6.94
19 -17 0 145.25 19.01
19 -17 3 33.4 9.3
19 -17 3 44.09 11.02
19 -17 3 52.11 6.56
-17 -2 3 33.33 10.31
-17 -2 3 39.88 6.94
19 -17 6 16.29 7.91
-17 -2 6 -2.51 9
19 -17 6 -3.93 9.66
19 -17 9 9.25 6.36
19 -16 -10 -1.42 4.77
19 -16 -4 453.75 34.15
-16 -3 -4 426.06 34.54
19 -16 -1 492.11 42.2
19 -16 2 9.52 8.32
19 -16 2 13.48 4.58
-16 -3 2 15.59 8.28
19 -16 5 139.58 15.36
-16 -3 5 132.12 16.97
-16 -3 5 107.53 19.51
19 -16 5 120.12 17.93
-16 -3 8 149.47 13.7
19 -16 8 158.23 15
-15 -4 -5 13.24 10.4
19 -15 -2 36.42 6.89
19 -15 1 60.64 6.96
19 -15 1 51.99 13.64
19 -15 4 16.47 11.15
-15 -4 4 18.42 15.65
-15 -4 4 19.87 9.27
19 -15 4 16.96 9.74
-15 -4 7 2.08 5.67
19 -15 7 0.96 5.77
19 -15 7 15.68 8.06
-15 -4 10 10.29 5.98
19 -14 -3 -0.52 5.91
-14 -5 -3 8.27 6.35
19 -14 0 8.78 11.32
19 -14 0 27.58 5.27
-14 -5 3 27.5 15
-14 -5 3 16.19 8.01
19 -14 3 13.46 8.82
19 -14 3 19.71 10.13
19 -14 6 -2.78 10.95
-14 -5 6 -12.54 8.93
19 -14 6 -1.98 5.94
19 -14 6 16.62 8.17
19 -14 9 12.02 7.02
19 -13 -10 4.17 5.77
-13 -6 -7 111.2 12.39
-13 -6 -4 427.35 33.75
19 -13 -1 536.82 45.47
19 -13 2 -4.66 9.15
-13 -6 2 -4.57 6.56
-13 -6 2 18.16 13.91
19 -13 2 6.19 4.54
19 -13 5 176.26 22.88
19 -13 5 212.96 19.74
-13 -6 5 178.88 20.95
-13 -6 5 198.7 26.78
19 -13 5 251.24 19.74
-13 -6 8 201.7 17.21
19 -13 8 209.61 17.77
19 -13 8 209.24 19.01
-12 -7 -8 6.96 6.85
-12 -7 -5 -9.45 13.14
19 -12 1 27.69 5.05
-12 -7 1 6.21 5.52
19 -12 1 10.87 12.13
19 -12 4 2.39 6.45
-12 -7 4 -13.91 13.76
19 -12 4 13.85 8.78
-12 -7 4 7.03 6.57
19 -12 4 3.59 10.7
19 -12 4 4.21 5.74
-12 -7 7 4.33 4.89
19 -12 7 -4.45 6.23
19 -12 7 12.65 8.26
-11 -8 -9 1.59 5.33
-11 -8 -3 -2.85 9.94
-11 -8 -3 3.65 6.6
-11 -8 0 36.11 13.34
-11 -8 3 -11.82 13.58
19 -11 6 4.21 8.12
19 -11 9 10.08 5.56
-10 -9 -7 89.31 11.88
-10 -9 -4 528.08 41
-10 -9 -1 419.64 37.31
19 -10 5 146.38 16.86
19 -10 5 136.16 16.4
-10 -9 5 136.31 23.74
19 -10 8 183.03 16.7
19 -9 -11 6.17 2.93
-9 -10 -8 5.87 7.85
-9 -10 -5 18.27 11.36
-9 -10 -5 12.85 10.35
-9 -10 -2 -11.71 11.08
-9 -10 1 35.94 13.53
19 -9 1 44.01 6.2
19 -9 1 44.89 12.62
-9 -10 4 62.31 16.69
19 -9 4 42.36 7.62
19 -9 4 48.04 9.61
19 -9 4 24.33 11.71
19 -9 7 25.45 8.99
19 -9 7 19.79 7.23
19 -9 7 5.92 11.07
19 -9 7 13.96 8.59
-8 -11 -9 10.61 6.38
-8 -11 -6 12.83 7.82
-8 -11 -3 32.34 11.14
19 -8 -3 9.56 6.14
-8 -11 -3 18.91 7.1
-8 -11 -3 18.96 6.57
19 -8 0 12.43 11.68
-8 -11 0 25.94 12.75
19 -8 0 29.87 5.58
19 -8 3 15.49 10.44
-8 -11 3 1.38 13.68
19 -8 3 13.3 6.39
19 -8 3 5.34 8.38
19 -8 6 7.99 8.55
19 -8 6 -8.61 11.74
19 -8 6 11.74 8.06
19 -8 9 0.63 5.71
19 -8 9 0.36 6.86
19 -7 -10 7.32 6.1
-7 -12 -7 99.91 12.98
-7 -12 -4 365.77 29.54
-7 -12 -1 329.36 31.1
19 -7 -1 325.41 30.56
19 -7 2 0.97 9.2
19 -7 2 2.25 4.76
19 -7 5 106.83 13.25
-7 -12 5 118.62 22.49
19 -7 5 84.65 16.32
19 -7 5 102.62 12.57
19 -7 8 116.97 12.69
19 -7 8 119.41 13.39
-6 -13 -8 16.83 7.16
-6 -13 -8 35.14 9.59
-6 -13 -5 1.82 9.64
-6 -13 -5 0.5 8.98
-6 -13 -2 26.39 6.7
-6 -13 -2 20.33 10.94
19 -6 1 87.85 8.84
-6 -13 1 72.38 16.25
19 -6 1 86.18 15
-6 -13 4 38.64 16.09
19 -6 4 55.57 10.02
19 -6 4 60.44 8.51
19 -6 4 32.21 12.34
19 -6 7 26.53 9.17
19 -6 7 12.6 8.21
-6 -13 10 11.19 6.51
19 -6 10 4.81 5.47
-5 -14 -9 22.62 7.11
-5 -14 -6 10.16 8.59
-5 -14 -6 18.59 7.82
-5 -14 -3 7.73 9.94
19 -5 -3 9 6
-5 -14 -3 19.55 6.59
19 -5 0 67.62 13.77
-5 -14 0 52.85 14.89
19 -5 0 88.21 8.59
19 -5 3 76.27 10.07
19 -5 3 61.58 10.16
-5 -14 3 78.08 17.54
19 -5 3 72.16 13.39
19 -5 6 5.76 11.01
19 -5 6 13.03 7.88
19 -5 9 4.4 5.82
19 -5 9 7.3 6.53
19 -4 -10 9.52 5.85
-4 -15 -7 97.92 12.92
19 -4 -4 202.26 18.41
-4 -15 -4 231.15 20.04
-4 -15 -1 95.71 16.91
19 -4 -1 130.64 16.82
-4 -15 -1 103.86 10.91
-4 -15 2 2.38 5.87
19 -4 2 -4.61 7.75
19 -4 2 3.42 8.2
-15 19 2 -2.02 6.64
19 -4 2 9.79 4.94
19 -4 2 -1 9.29
19 -4 5 81.45 15.51
19 -4 5 99.79 13.65
19 -4 8 84.63 10.89
19 -4 8 75.02 10.06
-3 -16 -8 40.14 8.88
-3 -16 -8 66.68 10.21
-3 -16 -5 37.53 9.7
-3 -16 -2 15.63 6.3
19 -3 -2 6.36 11.4
-3 -16 -2 7.85 11.26
19 -3 -2 4.98 5.71
-3 -16 -2 17.9 6.68
-3 -16 1 187.67 15.64
19 -3 1 173.33 16.26
19 -3 1 171.45 15.11
-3 -16 1 174.99 23.33
19 -3 1 193.13 20.77
-3 -16 4 190.16 18.47
19 -3 4 186.56 21.96
-16 19 4 189.99 19.31
19 -3 4 183.93 20.75
19 -3 4 167.3 19.74
-16 19 7 56.42 7.59
19 -3 7 60.07 9.71
-3 -16 10 2.68 5.51
19 -2 -9 27.1 6.55
-2 -17 -9 16.12 5.58
-2 -17 -6 29.82 9.52
-2 -17 -6 25.41 8.24
19 -2 -3 15.88 6.2
-2 -17 -3 14.09 6.96
-2 -17 -3 7.12 6.75
-2 -17 0 96.4 10.73
-2 -17 0 128.54 19.19
19 -2 0 110.85 10.39
-2 -17 0 101.67 10.83
19 -2 0 103.17 15.97
-2 -17 3 103 10.6
19 -2 3 83.72 11.61
19 -2 3 77.46 14.19
-17 19 3 111.87 13.43
19 -2 3 87.55 11.42
19 -2 3 99.18 10.71
19 -2 3 102.89 10.02
-2 -17 6 23.35 7.82
19 -2 6 26.9 9
19 -2 6 26.8 7.97
19 -2 6 4.2 10.88
19 -2 9 6.67 6.07
-2 -17 9 13.16 6.09
19 -1 -10 5.88 3.85
-1 -18 -7 56.39 10.57
19 -1 -7 59.83 9.22
-1 -18 -7 64.57 10.35
19 -1 -4 119.68 14.91
-1 -18 -4 125.64 14.13
-1 -18 -4 122.61 13.94
-1 -18 -1 55.85 7.87
19 -1 -1 50.69 12.72
19 -1 -1 41.9 6.93
-1 -18 -1 57.48 7.93
-1 -18 2 3.36 6.08
-18 19 2 16.19 8.43
19 -1 2 17 8.26
19 -1 2 11.46 5.09
-1 -18 5 111.9 11.56
19 -1 5 77.26 12.14
19 -1 5 80.3 15.4
-18 19 5 87.32 13.62
19 -1 5 103.29 11.57
19 -1 5 112.51 12.09
-1 -18 8 75 9.03
-18 19 8 65.09 7.55
19 -1 8 53.27 8.64
19 0 -8 82.51 9.54
0 -19 -8 76.2 10.43
0 -19 -8 108.83 11.47
19 0 -5 47.98 8.59
0 -19 -5 59.17 10.2
0 -19 -5 53.17 9.57
19 0 -2 14.98 11.32
19 0 -2 23.49 5.94
0 -19 -2 15.88 6.6
0 -19 -2 18.62 6.68
0 -19 1 223.77 19.05
19 0 1 214.32 19.47
19 0 1 227.74 18.7
0 -19 1 251.44 19.45
19 0 4 206.3 21.04
0 -19 4 277.09 20.02
19 0 4 190.09 23.07
-19 19 4 201.66 22.61
19 0 4 218 18.64
0 -19 7 53.66 8.58
19 0 7 45.22 10.18
19 0 7 53.64 8.5
19 0 10 2.82 3.76
19 1 -9 32.77 5.09
1 -20 -9 27.85 5.75
19 1 -6 54.83 8.32
1 -20 -6 64.72 10.37
1 -20 -6 35.29 9.04
19 1 -3 20.07 20.34
1 -20 -3 18.88 11.2
19 1 -3 11.69 7.4
1 -20 0 33.1 6.93
19 1 0 35.5 8.7
1 -20 0 33.84 6.95
19 1 0 31.97 10.75
1 -20 3 118.36 14.25
19 1 3 119.16 14.13
19 1 3 110.65 13.35
19 1 3 113.25 10.86
-20 19 3 109.62 15.39
1 -20 6 59.25 8.58
19 1 6 61.64 10.04
19 1 6 40.35 8.23
19 1 9 7.54 5.19
19 2 -7 34.76 7.44
2 -21 -7 56.59 9.99
19 2 -4 40.64 9.99
2 -21 -4 45.54 9.12
19 2 -1 2.85 11.8
2 -21 -1 1.11 6.79
2 -21 -1 -0.33 5.99
19 2 -1 2.73 10.1
-21 19 2 42.87 10.87
2 -21 2 50.2 7.88
2 -21 2 42.14 8.04
19 2 2 38.8 14.93
19 2 2 44.59 15.42
19 2 2 34.57 6.24
-21 19 5 75.45 12.73
2 -21 5 68.11 8.66
19 2 5 66.9 10.17
19 2 5 56.61 9.3
19 2 5 43.29 7.08
19 2 5 38.08 8.13
-21 19 8 15.16 5.01
19 2 8 11.8 5.49
3 -22 -8 53.66 8.31
3 -22 -5 32.78 8.72
3 -22 -5 34.94 8.9
3 -22 -2 -5.85 7.6
3 -22 -2 22.29 13.11
3 -22 -2 9.99 9.52
3 -22 -2 -4.82 8.03
19 3 1 108.14 16.8
3 -22 1 123.08 12.67
3 -22 4 162.32 13.62
19 3 4 161.34 14.45
19 3 4 121.89 12.48
-22 19 4 139.13 17.83
19 3 7 49.68 8.91
19 3 7 34.91 7.19
4 -23 -6 37.87 9.78
4 -23 -6 40.81 8.97
4 -23 -3 35.52 8.6
4 -23 -3 48.21 8.95
19 4 0 7.56 10.57
4 -23 0 3.97 8.56
4 -23 3 16.04 8.07
4 -23 3 9.37 7.05
19 4 3 12.29 7.52
-23 19 3 3.54 9.1
4 -23 6 12.98 5.75
19 4 6 19.94 8.41
19 4 9 0.88 4.4
5 -24 -7 10.7 7.25
5 -24 -7 0.7 6.44
5 -24 -4 8.39 7.15
5 -24 -4 11.13 7.76
19 5 -1 4.99 10.88
5 -24 -1 25.53 9.65
5 -24 -1 18.74 9.98
19 5 2 43.89 8.4
5 -24 2 20.61 8.12
-24 19 2 19.95 10.29
5 -24 5 -0.81 5.39
19 5 5 3.2 7.51
-24 19 8 1.28 3.93
19 5 8 5.61 4.99
6 -25 -8 43.9 7.21
6 -25 -5 71.81 11
6 -25 -5 70.01 9.83
19 6 -2 17.61 9.64
6 -25 -2 -0.86 6.96
6 -25 -2 -3.49 6.03
6 -25 -2 13.2 7.16
19 6 1 87.21 12.3
19 6 1 93.54 10.33
6 -25 1 60.66 9.9
6 -25 1 83.55 10.59
19 6 4 113.42 12.02
19 6 7 42.81 7.57
7 -26 -6 50.83 7.89
19 7 -6 42.9 8.91
19 7 -3 37.18 10.03
7 -26 -3 39.18 8.13
7 -26 -3 22.53 8.08
7 -26 -3 24.08 6.74
7 -26 -3 28.86 7.73
19 7 0 11.05 9.43
7 -26 0 -3.41 7.82
7 -26 0 2.09 5.99
7 -26 0 3.85 6.48
19 7 3 52.41 8.3
-26 19 3 32.6 11.43
19 7 6 44.86 7.88
19 8 -4 35.01 9.31
8 -27 -4 24.61 8.19
8 -27 -4 27.03 6.6
19 8 -1 44.52 9.9
8 -27 -1 30.15 8.64
8 -27 -1 29.96 7.07
8 -27 -1 38.03 7.56
19 8 2 19.61 6.76
-27 19 2 7.53 9.96
19 8 5 3.55 7.14
19 8 8 13.32 4.16
19 9 -5 46.5 9.39
9 -28 -5 47.25 8.8
9 -28 -5 54.08 7.47
19 9 -2 13.69 8.95
9 -28 -2 3.89 7.19
9 -28 -2 4.15 6.38
9 -28 -2 3.1 6.17
9 -28 1 64.84 10.81
19 9 1 61.97 8.35
19 9 4 97.15 11.06
10 -29 -6 36.89 7
19 10 -3 20.05 8.89
10 -29 -3 23.47 7.35
10 -29 0 4.86 7.86
10 -29 6 11.44 6
11 -30 -4 24.41 6.51
19 11 -1 104.75 12.57
11 -30 -1 109.3 12.6
11 -30 2 68.96 10.91
19 11 5 5.97 4.96
11 -30 5 15.43 6.73
12 -31 -5 11.56 5.29
12 -31 1 35.05 8.6
12 -31 4 48.97 8.54
13 -32 0 9.69 7.31
13 -32 3 1.19 6.83
14 -33 5 9.29 5.72
15 -34 1 20.82 6.95
15 -34 4 22.52 6.81
20 -30 2 32.32 8.86
20 -29 1 26.67 8.51
20 -28 -6 77.78 8.23
20 -28 3 12.87 7.51
20 -27 -7 8.49 4.14
20 -27 -4 28.68 5.98
20 -27 2 6.27 7.9
20 -26 -5 40.56 7.06
20 -26 1 29.37 8.65
20 -26 4 9.71 6.9
20 -25 -6 65.27 8.4
20 -25 -3 163.68 14.44
20 -25 3 17.63 7.58
-25 5 3 2.7 10.01
20 -24 -7 48.93 7.08
20 -24 -4 53.49 8.06
-24 4 2 -1.3 9.69
20 -24 2 30.52 8.43
20 -23 -8 2.81 4.67
20 -23 -5 18.82 6.93
20 -23 1 -6.14 10.72
-23 3 4 11.98 10.46
20 -22 -6 82.2 10.15
20 -22 -6 82.59 8.61
20 -22 -3 153.55 14.24
20 -22 3 8.48 9.36
20 -22 3 5.99 4.2
20 -22 6 36.96 6.82
20 -22 6 32.54 5.05
20 -21 -7 89.81 9.87
20 -21 -7 71.48 8.78
20 -21 -4 44.97 14.65
20 -21 -4 50.69 8.25
20 -21 -4 52.7 8.21
20 -21 -1 16.7 5.71
20 -21 -1 -3.97 10.19
20 -21 2 145.35 14.36
20 -21 2 152.88 12.66
-21 1 2 114.81 17.89
-21 1 5 100.24 16.1
20 -21 5 111.73 11.72
20 -21 5 100.3 9.96
-21 1 8 14.83 5.14
-21 1 8 11.67 5.17
20 -20 -8 11.63 5.73
20 -20 -8 11.88 5.17
20 -20 -5 94.3 10.33
20 -20 -2 160.08 20.45
20 -20 -2 174.8 14.92
20 -20 1 59.57 10.31
20 -20 1 63.84 7.2
-20 0 4 2.46 9.39
-20 0 4 12.56 18.97
20 -20 4 4.42 4.7
20 -20 4 -1.1 8.78
20 -20 4 -2.05 8.54
20 -20 7 25.04 7.81
20 -20 7 14.43 4.96
20 -19 -6 64.44 8.91
20 -19 -3 141.72 21.63
20 -19 -3 151.66 14.2
20 -19 0 49.61 13.22
20 -19 3 15.96 10.88
20 -19 3 15.18 4.88
-19 -1 3 5.57 9.57
20 -19 6 53.27 9.36
-19 -1 9 12.42 4.95
20 -18 -7 108.84 11.39
20 -18 -4 67.28 9.8
20 -18 -1 -9.45 12.05
20 -18 -1 15.71 6.4
20 -18 2 232.75 18.16
-18 -2 2 191.92 21.9
20 -18 2 219.71 19.42
20 -18 5 209.54 23.33
-18 -2 5 198.86 22.98
20 -18 5 253 19.7
-18 -2 5 165.65 25.38
-18 -2 8 51 7.29
20 -18 8 76.52 9.16
20 -17 -8 2.77 6.29
20 -17 -5 23.88 7.65
20 -17 -2 88.97 14.99
20 -17 -2 67.61 8.76
20 -17 1 49.38 10.06
20 -17 1 63.09 7.12
20 -17 1 50.01 14.16
-17 -3 4 7.53 9.55
20 -17 4 14.95 11.52
-17 -3 4 19.75 16.25
20 -17 4 3.44 9.35
-17 -3 7 3 5.52
20 -17 7 21.28 8.13
-17 -3 10 18.9 4.35
20 -16 -9 2.57 5.54
20 -16 -3 22.87 6.68
-16 -4 -3 20.62 7.14
20 -16 0 0.73 5.8
20 -16 0 6.09 4.75
20 -16 0 -3.16 12.35
-16 -4 3 27.93 6.41
-16 -4 3 36.07 17.78
-16 -4 3 17.46 8.63
20 -16 3 26.49 9.36
20 -16 3 31.09 5.93
20 -16 3 18.83 9.55
20 -16 6 40.96 12.5
20 -16 6 29 8.85
20 -16 9 13.36 6.71
20 -15 -10 70.12 7.2
-15 -5 -7 189.69 17.04
20 -15 -4 144.77 16.21
-15 -5 -4 108.78 15.64
20 -15 -1 57.25 14.26
20 -15 -1 59.11 8.2
-15 -5 2 499.05 41
-15 -5 2 473.59 43.32
20 -15 2 541.72 41.59
20 -15 2 624.48 41.2
20 -15 5 388.99 36.23
20 -15 5 377.36 30.38
-15 -5 5 320.62 37.15
-15 -5 5 341.4 33.62
20 -15 5 437.31 31.37
20 -15 8 68.65 10.33
-14 -6 -5 11.16 10.99
20 -14 -2 23.99 13.16
20 -14 -2 11.04 6.06
-14 -6 1 8.32 6.65
20 -14 1 11.06 4.88
20 -14 1 20.34 13.13
20 -14 4 -2.32 6.49
20 -14 4 3.68 10.09
-14 -6 4 -8.77 19.74
-14 -6 4 -5.24 7.5
20 -14 4 0.64 5.96
-14 -6 7 6.7 4.87
20 -14 7 10.92 5.9
20 -14 7 6.62 8.04
-14 -6 10 10.34 5.57
20 -13 -9 3.43 6.29
-13 -7 -3 19.18 11.4
20 -13 -3 16.3 6.93
-13 -7 -3 11.12 7.25
20 -13 0 -1.04 11.44
20 -13 0 3.09 4.75
-13 -7 3 -1.87 6.25
20 -13 3 4.31 5.96
20 -13 3 11.8 9.32
-13 -7 3 12.84 15.51
20 -13 3 -5.5 10.48
20 -13 6 16.83 8.08
20 -13 6 0.69 6.12
20 -13 6 5.74 10.89
20 -13 6 8.04 8.12
20 -13 9 -4.03 6.55
-12 -8 -7 166.27 16.24
-12 -8 -4 85.62 11.91
-12 -8 -1 66.62 15.45
20 -12 -1 60.94 8.04
-12 -8 2 453.9 38
20 -12 2 505.74 42.28
20 -12 2 543.87 38.08
20 -12 5 323.57 31.63
20 -12 5 332.98 26.59
-12 -8 5 306.26 33.58
20 -12 5 305.31 27.17
20 -12 8 43.35 7.8
-11 -9 -8 1.91 7.63
-11 -9 -5 7.68 11.6
-11 -9 -5 16.15 10.45
-11 -9 -2 9.73 11.57
-11 -9 1 5.07 13.46
20 -11 4 2.97 7.17
20 -11 4 5.27 6.6
20 -11 7 7.15 6.61
-11 -9 10 9.96 6.14
-10 -10 -9 -0.27 5.34
-10 -10 -6 18.4 7.39
-10 -10 -3 -1.98 9.68
-10 -10 -3 5.83 6.74
-10 -10 -3 -0.35 6.18
20 -10 0 34.08 13.77
-10 -10 0 11.85 13.56
20 -10 0 7.43 5.31
-10 -10 3 -1.6 5.6
20 -10 3 -2.66 5.99
-10 -10 3 -1.45 14.23
20 -10 6 12.2 8.41
20 -10 6 2.68 8.4
20 -10 9 13.29 5.59
20 -9 -10 72.32 8.38
-9 -11 -7 152.41 15.91
20 -9 -4 97.79 12.97
-9 -11 -4 85.61 13.3
20 -9 -1 56.79 13.65
-9 -11 -1 36.43 13.05
20 -9 -1 37.71 6.82
-9 -11 2 464.81 35.61
20 -9 2 489.57 39.96
20 -9 2 411.82 35.86
20 -9 2 494.46 35.46
20 -9 5 231.65 28.68
20 -9 5 330.9 25.76
-9 -11 5 242.21 31.28
20 -9 5 299.08 24.93
20 -9 8 44.36 8.19
20 -9 8 43.78 9.29
-8 -12 -8 6.88 6.32
-8 -12 -8 2.49 7.93
-8 -12 -5 10.2 11.79
-8 -12 -5 15.76 8.2
-8 -12 -2 78.41 9.56
20 -8 -2 82.92 9.34
-8 -12 -2 75.29 15.03
-8 -12 1 36.37 6.86
-8 -12 1 55.21 15.04
20 -8 1 48.06 7.03
20 -8 1 49.34 6.56
20 -8 1 54.5 14.25
20 -8 4 6.44 11.66
-8 -12 4 20.58 21.26
20 -8 4 7.83 7.86
20 -8 4 13.93 15.21
20 -8 7 6.7 8.38
20 -8 7 10.15 7.99
-8 -12 10 11.91 6.36
20 -7 -9 1.76 6.48
-7 -13 -9 8.04 6.16
-7 -13 -6 15 7.52
-7 -13 -3 39.38 12.01
20 -7 -3 51.37 8.05
-7 -13 -3 42.38 8.54
-7 -13 -3 40.54 8.33
20 -7 0 50.29 13.27
-7 -13 0 34.17 6.96
20 -7 0 46.06 6.85
20 -7 0 43.56 6.43
20 -7 3 1.37 8.36
20 -7 3 6.69 6.56
20 -7 3 7.38 8.96
20 -7 3 5.72 10.29
-7 -13 3 13.66 15.89
20 -7 6 12.26 8.56
20 -7 6 -7.36 11.83
20 -7 6 13.05 8.07
-7 -13 9 10.36 6.78
20 -7 9 22.61 6.09
20 -7 9 3.94 6.63
20 -6 -10 47.81 6.67
-6 -14 -7 150.28 15.85
20 -6 -4 63.33 16.12
-6 -14 -4 84.01 16.78
-6 -14 -4 49.95 14.56
20 -6 -1 22.99 12.94
-6 -14 -1 31.89 6.98
-6 -14 -1 30.63 13.77
20 -6 -1 34.76 6.83
20 -6 2 267.67 25.32
20 -6 2 241.28 21.37
20 -6 2 278.12 20.69
20 -6 2 233.1 21.07
20 -6 5 168.51 16.4
20 -6 5 139.4 15.36
20 -6 5 154.53 15.54
20 -6 5 146.67 20.53
20 -6 8 14.05 6.74
20 -6 8 19.1 7.85
-5 -15 -8 -5.12 6.88
-5 -15 -8 6.71 7.94
-5 -15 -5 68.49 11.42
-5 -15 -5 77.17 11.06
-5 -15 -2 238.31 24.44
20 -5 -2 216.58 18.11
-5 -15 -2 228.27 18.95
20 -5 -2 230.39 24.31
-5 -15 -2 203.5 18.57
-5 -15 1 207.82 24.05
20 -5 1 176.6 16.65
20 -5 1 174.18 15.6
20 -5 1 231.51 22.19
-5 -15 4 30.29 10.58
-5 -15 4 26.08 19.76
20 -5 4 15.14 16.73
20 -5 4 17.88 12.14
20 -5 7 0.83 7.45
-5 -15 10 6.26 5.59
20 -5 10 14.28 4.64
20 -4 -9 9.18 6
-4 -16 -9 1.21 4.54
-4 -16 -9 2.46 6.24
-4 -16 -6 12.76 8.9
-4 -16 -6 11.13 7.77
20 -4 -3 105.07 10.79
-4 -16 -3 111.93 11.85
-4 -16 -3 92.49 11.46
-4 -16 0 111.29 18.84
20 -4 0 115.83 10.9
20 -4 0 107.23 10.8
20 -4 0 117.44 16.91
-4 -16 3 27.24 6.73
20 -4 3 13.71 8.37
-4 -16 3 -1.66 22.67
20 -4 3 23.94 10.93
20 -4 3 19.29 8.64
20 -4 3 22.47 5.91
20 -4 6 -4.31 10.68
-4 -16 6 6.64 7.78
20 -4 6 7.01 7.54
-4 -16 9 14.2 6.3
20 -4 9 23.07 5.9
20 -4 9 20.07 6.43
20 -3 -10 27.3 4.5
20 -3 -7 34.32 8.6
-3 -17 -7 48.22 9.34
-3 -17 -7 42.4 10.31
20 -3 -4 13.8 8.6
-3 -17 -4 13.03 8.87
20 -3 -1 101.13 15.62
-3 -17 -1 91.26 16.69
-3 -17 -1 88.04 9.81
20 -3 -1 72.48 9.02
-3 -17 2 225.73 19.37
20 -3 2 219.49 19.95
20 -3 2 257.58 19.29
-17 20 2 211.56 21.62
20 -3 2 239.1 20.1
-3 -17 5 148.46 13.54
20 -3 5 111.18 13.57
20 -3 5 133.76 18.66
20 -3 5 119.17 13.31
-3 -17 8 33.6 7.56
20 -3 8 22.37 7.29
20 -2 -8 10.32 6.61
-2 -18 -8 10.6 6.8
-2 -18 -8 -2.36 7.55
20 -2 -5 37.86 8.14
-2 -18 -5 33.37 8.57
20 -2 -2 213.87 17.8
-2 -18 -2 216.97 18.76
20 -2 -2 213.98 24.17
-2 -18 1 288.6 22.39
-2 -18 1 292.76 31.55
20 -2 1 253.53 22.56
20 -2 1 273.33 21.85
20 -2 1 249.03 26.77
-2 -18 4 70.74 11.58
20 -2 4 60.21 13.3
20 -2 4 50.55 11.92
20 -2 4 41.84 11.08
20 -2 4 50.85 7.55
-18 20 7 3.17 4.74
-2 -18 7 9.25 7.32
20 -2 7 5.59 8.91
20 -2 7 2.6 7
20 -1 -9 16.6 5.13
-1 -19 -9 10.27 4.82
20 -1 -6 3.89 7.13
-1 -19 -6 5.93 7.45
20 -1 -3 63.25 19.75
-1 -19 -3 88.81 12.4
20 -1 -3 87.31 13.94
-1 -19 -3 46.99 10.85
20 -1 0 109.78 11.23
-1 -19 0 133.81 12.07
-1 -19 0 130.42 12.29
20 -1 0 100.72 16.55
-1 -19 3 50.68 10.08
-19 20 3 35.28 9.74
20 -1 3 42.68 9.77
20 -1 3 69.73 17.93
20 -1 3 32.19 6.38
-1 -19 6 6.57 7.12
20 -1 6 11.64 8.35
20 -1 6 10.45 6.95
20 -1 9 13.09 5.43
20 0 -7 32.87 7.92
0 -20 -7 27.38 8.91
20 0 -4 17.58 8.46
0 -20 -4 18.7 8.39
0 -20 -4 12.47 7.72
20 0 -1 57.03 13.86
0 -20 -1 59.93 9.27
20 0 -1 54.37 7.7
0 -20 -1 67.38 8.79
0 -20 2 168.61 15.28
-20 20 2 125.94 16.87
20 0 2 136.63 14.79
20 0 2 159.13 13.52
0 -20 5 87.33 10.01
20 0 5 81.85 11.06
20 0 5 77.75 13.67
20 0 5 65.37 10.21
20 0 5 58.52 8.26
20 0 5 79.54 9.86
0 -20 8 12.85 6.07
20 0 8 6.41 5.79
20 0 8 13.56 5.79
20 0 8 0.73 4.14
20 1 -8 4.65 5.07
1 -21 -8 6.09 6.14
1 -21 -8 5.49 6.82
20 1 -5 39.04 7.57
1 -21 -5 33.33 9.23
1 -21 -5 33.55 8.83
20 1 -2 137.37 25.63
1 -21 -2 182.79 18.06
1 -21 -2 180.92 16.99
1 -21 1 165.66 16.09
20 1 1 166.13 21.64
1 -21 1 176.34 15.28
1 -21 1 177.95 16.54
20 1 4 40.36 8.5
1 -21 4 38.91 7.89
-21 20 4 14.35 9.31
20 1 4 25.56 5.94
20 1 4 40.79 7.47
1 -21 7 0.59 6.61
20 1 7 3.86 7.6
20 1 7 3.89 6.68
20 1 7 4.94 4.68
20 2 -6 11.65 6.19
2 -22 -6 6.61 8.92
2 -22 -6 11.55 8.54
2 -22 -3 25.91 8.23
2 -22 -3 15.28 7.73
2 -22 0 95.12 12.75
20 2 0 108.96 13.6
2 -22 0 81.46 9.97
2 -22 3 72.98 10.45
2 -22 3 63.18 9.3
20 2 3 66.37 9.59
-22 20 3 63.91 12.47
20 2 3 49.18 7.19
2 -22 6 12.32 6.47
20 2 6 7.4 8.24
20 2 6 -0.91 5.91
20 2 6 -0.57 4.49
20 2 9 -2.88 4.66
3 -23 -7 6.78 7.35
3 -23 -7 1.86 6.95
3 -23 -4 12.81 7.64
20 3 -1 61.61 14.65
3 -23 -1 79.33 9.92
3 -23 -1 53.66 11.62
3 -23 -1 84.88 12.15
3 -23 2 66.86 10.26
3 -23 2 56.94 10.41
-23 20 2 44.1 11.29
20 3 2 75.47 10.04
20 3 2 59.39 11.53
3 -23 5 7.98 6.4
20 3 5 -4.64 7.99
20 3 8 6.56 5.21
20 4 -8 22.13 6.53
4 -24 -8 6.18 5.77
4 -24 -5 12.68 7.34
20 4 -2 77.1 11.98
4 -24 -2 82.69 10.7
4 -24 -2 66.3 10.13
4 -24 -2 93.7 10.75
20 4 1 171.56 17.17
4 -24 1 167.59 16.6
4 -24 4 47.34 7.71
4 -24 4 55.25 8.12
-24 20 4 74.65 13.04
20 4 4 69.19 9.37
20 4 7 -0.94 6.36
5 -25 -6 2.94 6.67
20 5 -3 22.27 9.76
5 -25 -3 23.74 7.22
5 -25 -3 28.91 7.6
20 5 0 53.71 10.93
5 -25 0 42.69 8.42
5 -25 0 51.92 8.48
5 -25 3 22.96 6.36
20 5 3 31.27 7.68
-25 20 3 24 10.1
20 5 6 -0.69 6.94
20 5 9 7.59 3.24
20 6 -7 12.56 6.66
6 -26 -7 11.27 6.47
20 6 -4 29.45 9.3
6 -26 -4 14.64 7.94
6 -26 -4 14.98 6.43
6 -26 -4 12.59 7.46
20 6 -1 15.95 9.31
6 -26 -1 3.23 7.44
6 -26 -1 5.1 6.38
20 6 2 8.43 6.82
-26 20 2 -9.64 9.02
6 -26 2 3.17 5.86
20 6 5 11.51 7.77
20 6 8 4.54 4.79
20 7 -5 19.26 9.1
7 -27 -5 5.28 7.57
7 -27 -5 7.31 6.25
7 -27 -2 84.92 10.93
20 7 -2 97.41 12.36
7 -27 -2 91.74 10.97
7 -27 -2 75.97 10.6
20 7 1 156.28 14.12
20 7 1 162.46 15.93
7 -27 1 133.81 13.62
20 7 4 44.41 8.64
8 -28 -6 31.65 7.33
20 8 -3 7.69 9.05
8 -28 -3 10.06 6.88
8 -28 -3 -9.65 6.56
20 8 0 49.36 10.07
20 8 0 35.73 7.12
8 -28 0 31.18 8.87
8 -28 0 25.59 6.54
20 8 3 33.84 7.19
20 8 6 -0.48 5.33
8 -28 6 4.77 6.44
9 -29 -4 65.57 9.17
20 9 -4 59.39 10.16
20 9 -1 49.95 9.81
9 -29 -1 42.97 8.54
9 -29 -1 24.55 5.86
9 -29 -1 33.11 6.86
20 9 2 -2.26 5.71
9 -29 2 5.47 8.38
20 9 5 18.99 6.2
9 -29 5 22.88 7.44
10 -30 -5 14.31 5.76
20 10 -2 86.91 11.26
10 -30 -2 87.21 10.38
10 -30 -2 63.38 8.85
10 -30 1 132.97 14.76
20 10 4 24.03 6.46
10 -30 4 39.33 8.27
20 10 7 -0.12 3.2
20 11 -3 -5.87 7.48
11 -31 -3 6.67 5.26
11 -31 0 10.19 7.99
20 11 3 5.97 5.71
12 -32 -4 85.05 8.75
12 -32 -1 57.07 8.91
12 -32 2 -1.68 6.91
12 -32 5 35.89 6.84
13 -33 1 29.59 7.49
13 -33 4 9.62 6.14
14 -34 0 5.78 6.06
14 -34 3 4.29 6.18
21 -27 -6 75.79 8.21
21 -26 -7 7.39 4.39
21 -26 -4 -1.01 5.01
-26 5 2 31.73 11.53
21 -25 -5 5.41 5.62
21 -24 -6 87.58 9.76
21 -24 -3 26.46 5.84
-24 3 3 87.25 14.71
21 -23 -7 9.12 5.54
21 -23 -4 36.11 7.21
-23 2 2 91.85 15.7
21 -23 5 9.46 5.75
21 -22 -8 11.75 5.01
21 -22 -5 41.8 7.78
21 -22 -5 42.68 7.22
21 -22 -2 6.15 6.26
21 -22 -2 4.13 10.38
-22 1 4 40.11 16.51
-22 1 4 25.3 11.08
21 -22 4 38.66 5.88
21 -22 4 50.76 8.04
-22 1 7 13.74 5.58
21 -21 -6 40.72 7.94
21 -21 -6 47.17 7.49
21 -21 -3 -1.1 11.93
21 -21 -3 -2.53 5.49
21 -21 -3 0.76 7.51
21 -21 0 62.24 10.3
21 -21 0 61.12 14.78
21 -21 3 125.21 13.99
21 -21 3 92.49 9.58
-21 0 3 89.48 15.16
-21 0 6 28.39 6.88
21 -21 6 38.51 7.85
21 -21 6 35.53 5.88
21 -20 -7 11.26 6.36
21 -20 -7 4.83 6.41
21 -20 -4 35.99 14.01
21 -20 -4 44.51 8.1
21 -20 -1 167.79 14.97
21 -20 -1 192.58 21.49
-20 -1 2 126.2 17.75
21 -20 2 157.73 13.07
21 -20 2 142.86 16.17
-20 -1 5 25.56 7.14
-20 -1 5 24.41 10.3
21 -20 5 12.13 9.25
21 -20 5 38.8 6.05
21 -20 5 28.53 8.18
-20 -1 8 11.48 5.58
21 -19 -8 27.31 6.37
21 -19 -8 24.4 5.95
21 -19 -5 74.01 9.55
21 -19 -2 48.62 17.26
21 -19 -2 34.43 7.53
21 -19 1 11.65 9.52
21 -19 1 6.32 4.97
-19 -2 4 33.7 8.89
-19 -2 4 63.94 19.59
21 -19 4 41.88 11.04
-19 -2 4 24.11 10.4
21 -19 4 36.3 6.21
21 -19 7 11.77 5.25
21 -19 7 35.88 8.32
21 -18 -9 -4.05 4.62
21 -18 -9 12.97 4.8
21 -18 -6 10.36 7.19
21 -18 -3 12.2 13.97
21 -18 -3 27.49 10.28
-18 -3 -3 30.27 13.56
21 -18 0 93.49 10
21 -18 0 91.31 16.4
-18 -3 3 80.72 14.02
-18 -3 3 73.56 13.04
-18 -3 3 110.16 21.34
21 -18 3 97.04 15.91
21 -18 3 97.47 9.41
21 -18 6 32.72 8.58
-18 -3 9 6.44 5.24
21 -18 9 4.47 5.57
21 -17 -10 31.57 3.95
21 -17 -7 15.49 7.89
21 -17 -4 104.05 12.77
-17 -4 -4 72.53 12.14
21 -17 -1 479.93 38.35
21 -17 -1 626.05 44.9
-17 -4 2 420.32 33.33
21 -17 2 475.06 33.42
21 -17 2 453.61 34.19
-17 -4 5 59.55 17.48
21 -17 5 62.05 13.4
21 -17 5 55.12 9.97
21 -17 8 16.05 7.25
21 -16 -8 5.63 6.54
21 -16 -5 1.21 7.36
-16 -5 -5 -0.84 8.01
21 -16 -2 26.82 13.51
21 -16 -2 27.24 7.04
-16 -5 1 2.84 5.88
-16 -5 1 12.16 7.83
21 -16 1 11.96 9.64
21 -16 1 19.13 5.42
21 -16 1 10.25 13.04
21 -16 4 7.19 9.79
-16 -5 4 21.86 16.84
21 -16 4 26.03 12.96
21 -16 7 31.79 8.74
-16 -5 10 0.14 4.01
21 -15 -9 15.21 5.92
21 -15 -6 6.11 8.23
-15 -6 -3 1.19 12.52
-15 -6 -3 17.98 8.21
21 -15 -3 23.14 8.08
-15 -6 0 20.74 6.3
21 -15 0 30.52 6.8
21 -15 0 35.08 6.07
21 -15 0 41.49 14
-15 -6 3 11.59 6.82
-15 -6 3 -4.62 23.55
21 -15 3 19.96 10.52
21 -15 3 27.33 10.8
21 -15 3 5.17 6.16
21 -15 3 12.43 5.67
21 -15 6 -2.78 10.42
21 -15 6 10.37 5.73
21 -15 6 0.44 8.16
-15 -6 9 2.24 5.85
21 -15 9 10.03 6.38
21 -14 -10 58.16 6.3
-14 -7 -7 14.76 7.69
-14 -7 -4 129.61 16.28
21 -14 -4 144.18 14.36
21 -14 -1 675.41 51.76
21 -14 -1 760.78 57.53
-14 -7 2 443.82 37.43
-14 -7 2 513.18 45.96
21 -14 2 473.4 38.19
21 -14 2 548.86 37.61
21 -14 5 30.21 9.24
21 -14 5 27.31 12.14
-14 -7 5 18.85 17.58
21 -14 5 27.73 9.02
21 -14 8 31.1 6.36
21 -14 8 33.04 8.12
21 -13 -8 6.5 7.31
-13 -8 -8 7.23 6.57
21 -13 -5 10.93 8.32
-13 -8 -5 0.9 8.57
-13 -8 -2 19.04 6.49
21 -13 -2 7.17 12.55
-13 -8 -2 15.56 12.11
21 -13 -2 7.84 6.78
-13 -8 1 10.41 5.81
21 -13 1 7.74 4.94
21 -13 4 6.51 8.21
-13 -8 4 14.32 16.96
21 -13 4 5.38 11.79
21 -13 4 7.58 10.46
21 -13 4 12.9 8.97
21 -13 7 3.03 5.94
21 -13 7 -3.53 8.37
-13 -8 10 5.27 4.85
-12 -9 -3 6.91 6.88
-12 -9 -3 5.39 10.46
-12 -9 -3 1.07 6.29
-12 -9 0 -0.89 5.69
-12 -9 0 14.31 13.67
-12 -9 3 10.32 6.38
-12 -9 3 12.11 17.72
21 -12 3 9.43 6.58
21 -12 6 4.38 11.49
21 -12 6 17.91 8.3
-12 -9 9 20.29 6.64
-11 -10 -7 7.35 8.09
-11 -10 -4 154.1 17.44
-11 -10 -1 502.06 48.89
-11 -10 -1 603 44.18
-11 -10 2 383.12 29.95
21 -11 5 29.75 9.2
-11 -10 5 1.63 17.21
21 -11 5 23.8 8.33
21 -11 8 24.89 6.75
21 -10 -8 8.06 7.72
-10 -11 -8 23.69 7.72
21 -10 -5 21.75 8.77
-10 -11 -5 10.32 9.11
-10 -11 -5 23.15 10.68
-10 -11 -2 2.8 6.07
21 -10 -2 12.06 13.21
-10 -11 -2 26 12.02
21 -10 -2 12.67 6.28
-10 -11 1 -0.31 5.89
-10 -11 1 -2.69 13.36
21 -10 1 3.33 5
21 -10 1 2.26 12
-10 -11 4 13.47 8.69
21 -10 4 15.66 12.09
21 -10 4 14.33 11.44
21 -10 4 25.25 11.45
-10 -11 4 34.38 18.41
21 -10 7 20.01 8.53
21 -10 7 13.19 6.93
21 -10 7 -3.97 7.88
21 -9 -9 9.56 6.28
-9 -12 -9 5.4 5.36
-9 -12 -6 19.04 7.57
-9 -12 -3 38.58 12.66
21 -9 -3 56.93 8.32
-9 -12 -3 49.57 9.05
-9 -12 -3 46.93 8.33
21 -9 0 22.08 12.78
-9 -12 0 13.89 6.05
-9 -12 0 16.74 12.95
21 -9 0 13.27 6.35
21 -9 0 19.52 5.54
-9 -12 3 7.54 6.75
21 -9 3 10.47 10.23
-9 -12 3 1.57 18.73
21 -9 3 5.4 6.49
21 -9 3 13.19 9.13
21 -9 3 14.39 5.61
21 -9 6 24.48 8.82
21 -9 6 26.3 8.79
21 -9 6 5.92 10.7
21 -9 9 21.53 5.67
21 -9 9 5.7 6.42
21 -8 -10 48.03 6.04
-8 -13 -7 19.19 9.19
21 -8 -4 84.04 11.5
-8 -13 -4 88.83 12.78
-8 -13 -1 424.66 41.4
21 -8 -1 460.05 35.47
21 -8 -1 516.87 41.48
-8 -13 -1 466.38 35.97
-8 -13 2 394.59 29.71
21 -8 2 360.87 29.66
21 -8 2 359.74 30.04
21 -8 2 388.96 29.47
21 -8 5 35.81 13.76
21 -8 5 29.07 9.31
-8 -13 5 42.35 21.6
21 -8 5 20.67 8.46
21 -8 5 35.45 8.89
21 -8 8 24.11 6.72
21 -8 8 18.98 7.72
21 -7 -8 41.19 8.35
-7 -14 -8 35.31 7.5
-7 -14 -8 39.53 8.55
21 -7 -5 82.15 10.33
-7 -14 -5 63.88 11.03
-7 -14 -5 51.97 10.11
-7 -14 -2 23.04 7.27
21 -7 -2 22.33 14.2
-7 -14 -2 20.07 12.53
21 -7 -2 38.81 7.34
-7 -14 1 20.36 6.42
-7 -14 1 27.02 15
21 -7 1 17.02 8.14
21 -7 1 19.02 5.75
21 -7 1 16.75 12.41
-7 -14 4 57.05 18.99
21 -7 4 58.08 12.43
21 -7 4 54.34 10.18
21 -7 4 61.4 13.95
21 -7 7 34.2 9.17
21 -7 7 25.41 8.39
-7 -14 10 3.22 4.7
21 -6 -9 5.57 5.97
-6 -15 -9 13.12 6.09
21 -6 -6 43.64 9.33
-6 -15 -6 59.23 10.66
-6 -15 -6 27.28 8.65
-6 -15 -3 21.08 12.42
21 -6 -3 49.67 9.84
-6 -15 -3 52.37 10.74
-6 -15 0 10.6 6.13
21 -6 0 16.13 6.19
-6 -15 0 -2.72 12.62
21 -6 0 13.39 5.51
21 -6 0 3.29 11.72
21 -6 3 66.09 13.99
-6 -15 3 83.32 27.12
21 -6 3 51.81 10.05
21 -6 3 49.63 10.85
21 -6 3 63.87 13.3
21 -6 3 48.92 7.62
21 -6 6 89.54 16.33
-6 -15 6 83.64 10.73
21 -6 6 73.14 11.45
21 -6 6 67.08 10.78
-6 -15 9 30.26 7.09
21 -6 9 32.16 6.33
21 -6 9 35.93 7.13
21 -5 -10 19.19 4.16
21 -5 -7 2.88 7.94
-5 -16 -7 8.06 9.24
21 -5 -4 109.44 13.67
-5 -16 -4 111.21 15.26
-5 -16 -1 310.88 32.3
21 -5 -1 299.97 25.66
21 -5 -1 377.04 32.35
-5 -16 -1 352.56 26.49
21 -5 2 195.14 17.07
21 -5 2 184.39 17.07
21 -5 2 179.33 15.87
-5 -16 5 8.57 7.68
21 -5 5 16.42 8.86
21 -5 5 13.75 10.87
21 -5 5 6.64 7.69
-5 -16 8 21.07 7.31
21 -5 8 20.3 6.7
21 -5 8 20.06 7.29
21 -4 -8 34.89 7.23
-4 -17 -8 16.05 6.57
-4 -17 -8 30.58 8.02
21 -4 -5 122.97 11.91
-4 -17 -5 77.78 11.85
21 -4 -2 88.36 19.32
-4 -17 -2 85.82 17.34
21 -4 -2 99.84 11.02
-4 -17 -2 124.57 12.14
-4 -17 -2 120.45 12.17
-4 -17 1 23.31 6.93
-4 -17 1 18.52 16.2
21 -4 1 11.49 8.46
21 -4 1 7.47 8.67
21 -4 1 23.14 5.84
21 -4 1 14.22 12.56
-4 -17 4 26.48 9.4
21 -4 4 19.16 11.03
21 -4 4 24.82 14.19
21 -4 4 38.43 6.61
-4 -17 7 44.13 8.92
21 -4 7 35.17 8.69
21 -3 -9 13.01 5.2
-3 -18 -9 -2.14 4.28
-3 -18 -9 -0.27 5.84
21 -3 -6 70.4 9.95
-3 -18 -6 81.74 11.74
-3 -18 -6 62.04 10.15
21 -3 -3 103.97 20.02
21 -3 -3 123.85 14.54
-3 -18 -3 143.8 14.43
-3 -18 -3 112.11 13.96
-3 -18 0 28.11 6.96
-3 -18 0 30.98 6.77
-3 -18 0 28.73 17.53
21 -3 0 21.16 6.31
21 -3 0 25.88 13.17
-3 -18 3 21.59 8.49
21 -3 3 29.17 9.22
21 -3 3 44.58 14.07
21 -3 3 25.94 6.17
-3 -18 6 61.43 9.46
21 -3 6 45.61 8.92
-3 -18 9 37.16 6.27
21 -3 9 24.74 6.07
21 -2 -7 7.3 7.5
-2 -19 -7 2.34 7.75
-2 -19 -7 3.54 8.41
21 -2 -4 54.17 8.67
-2 -19 -4 42.69 9.69
-2 -19 -4 31.06 9.14
21 -2 -1 125.4 20.52
-2 -19 -1 133.06 13.16
21 -2 -1 132.48 12.49
-2 -19 2 109.22 15.08
21 -2 2 62.9 17.75
21 -2 2 92.69 14.66
21 -2 2 93.86 9.82
-2 -19 5 -2.63 7.07
21 -2 5 5.03 8.59
21 -2 5 8.91 9.52
21 -2 5 -0.43 7.46
21 -2 5 9.69 5.37
21 -2 5 11.82 7.13
-2 -19 8 15.58 6.56
21 -2 8 25.67 6.51
21 -2 8 6.46 4.51
21 -1 -8 31.89 6.41
-1 -20 -8 35.26 7.19
-1 -20 -8 29.5 7.68
21 -1 -5 156.62 14.07
-1 -20 -5 151.98 15.75
-1 -20 -5 133.49 15.32
21 -1 -2 155.95 23.43
21 -1 -2 160.25 17.88
-1 -20 -2 141.1 15.86
-1 -20 1 23.64 11.96
-1 -20 1 2.02 11.42
21 -1 1 11.26 9.29
21 -1 1 10.34 5.49
21 -1 4 42.27 9.05
-1 -20 4 52.08 8.51
21 -1 4 39.45 6.89
21 -1 4 37.27 10.99
-1 -20 7 74.45 9.01
21 -1 7 61.38 9.49
21 -1 7 57.32 8.78
21 -1 7 38.27 6.83
21 0 -6 49.28 7.98
0 -21 -6 68.02 10.27
21 0 -3 88.23 17.61
0 -21 -3 123.89 12.96
21 0 -3 108.73 13.41
0 -21 0 65.06 11.34
21 0 0 57.92 12.99
21 0 0 60.27 12.14
0 -21 0 60.26 8.91
21 0 0 73.67 21.41
21 0 3 8.42 7.93
0 -21 3 1.38 7.24
-21 21 3 8.15 8.77
21 0 3 16.89 13.08
21 0 3 5.86 5.2
0 -21 6 50.72 8.08
21 0 6 39.95 9.58
21 0 6 38.23 6.26
21 0 6 26.86 7.5
21 0 9 18.84 5.36
21 1 -7 2.66 5.63
1 -22 -7 17.57 7.23
21 1 -4 66.42 8.73
1 -22 -4 67.5 10.24
1 -22 -4 68.54 10.66
21 1 -1 99.08 16.82
1 -22 -1 100.71 12.11
1 -22 -1 131.61 14.24
21 1 -1 86.54 18.62
21 1 2 9.32 8.27
1 -22 2 21.67 9.61
1 -22 2 15.16 9.12
21 1 2 8.5 5.06
-22 21 2 12.35 8.55
1 -22 5 16.15 7.09
21 1 5 17.95 8.52
21 1 5 17.03 7.71
21 1 5 16.38 5.23
21 1 5 17.01 6.76
21 1 8 25.34 5.94
21 1 8 15.27 5.14
2 -23 -8 18.61 6.02
2 -23 -5 77.34 10.62
2 -23 -5 54.85 10.06
21 2 -2 90.92 12.88
2 -23 -2 79.36 13
2 -23 -2 92.61 11.28
2 -23 -2 110.28 12.01
2 -23 -2 91.28 11.46
2 -23 1 29.66 9.71
21 2 1 37.01 10.79
2 -23 4 12.13 6.34
2 -23 4 16.09 6.81
21 2 4 18.39 7.92
21 2 4 0.6 4.87
21 2 7 37.66 7.98
3 -24 -6 40.68 9.03
3 -24 -6 32.92 8.3
3 -24 -3 24.92 7.81
3 -24 -3 46.65 8.56
21 3 0 10.85 10.15
3 -24 0 10.48 7.19
3 -24 3 0.34 6.11
3 -24 3 6.38 6.34
21 3 3 16.66 7.31
-24 21 3 -1.13 8.2
21 3 6 8.87 7.39
21 3 9 7.68 3.48
4 -25 -7 19.81 7.11
4 -25 -7 15.27 6.26
21 4 -7 11.74 7.63
4 -25 -4 31.04 7.83
4 -25 -4 26.53 8.11
21 4 -1 23.04 10.03
4 -25 -1 15.23 7.82
4 -25 -1 16.8 6.47
4 -25 -1 5.82 6.54
4 -25 -1 9.66 7.38
4 -25 2 10.11 6.76
21 4 2 2.62 6.93
-25 21 2 -2.3 8.72
4 -25 5 15.78 5.66
21 4 5 21.71 8.68
21 4 8 14.05 5.64
5 -26 -8 17.51 5.55
21 5 -5 66.85 11.69
5 -26 -5 66.01 10.49
5 -26 -5 79.75 9.93
21 5 -2 144.59 14.76
5 -26 -2 117.97 13.23
5 -26 -2 120.29 12.3
5 -26 -2 134.32 13.58
21 5 1 73.01 11.17
21 5 1 59.51 8.85
5 -26 1 51.64 8.17
5 -26 1 49.61 8.46
21 5 4 -4.6 6.65
5 -26 7 13.8 5.97
21 6 -6 27.14 7.94
6 -27 -6 20.04 6.09
6 -27 -3 50.62 9.24
6 -27 -3 41.72 7.62
21 6 -3 61.12 10.77
6 -27 -3 56.87 9.17
6 -27 0 32.33 8.74
21 6 0 27.47 10.31
6 -27 0 28.19 7.27
21 6 3 11.64 6.85
21 6 6 27.68 6.8
21 7 -4 -1.1 9.27
7 -28 -4 7.37 5.97
7 -28 -4 5.17 7.38
21 7 -1 36.04 9.84
7 -28 -1 29.8 8.31
7 -28 -1 17.05 6.5
7 -28 -1 22.55 6.8
21 7 2 40.96 7.67
21 7 5 34.81 7.37
21 7 8 2.92 2.97
21 8 -5 66.01 9.67
8 -29 -5 77.33 9.23
8 -29 -2 90.68 10.88
8 -29 -2 100.95 10.76
21 8 -2 112.14 12.35
8 -29 -2 81.41 10.4
8 -29 1 35.1 8.8
21 8 1 12.68 6.24
21 8 4 8.58 6.53
8 -29 4 5.37 7.36
9 -30 -6 13.41 5.57
21 9 -3 44.68 9.31
9 -30 -3 34.02 7.34
9 -30 0 29.15 8.79
9 -30 6 4.09 5.68
10 -31 -4 18.49 5.65
10 -31 -1 12.07 7.37
10 -31 2 63.7 10.07
21 10 5 41.72 6
10 -31 5 52.31 7.79
11 -32 -5 20.49 5.26
11 -32 1 13.79 7.42
11 -32 4 -0.34 6.3
12 -33 0 10.74 6.7
13 -34 2 63.84 8.75
14 -35 1 9.52 6.12
14 -35 4 9.02 4.51
22 -26 -6 4.01 4.67
22 -25 -7 16.25 4.72
22 -25 -4 62.85 8
-25 3 2 5.1 9.33
22 -24 -5 4.72 5.56
22 -23 -6 -0.37 5.63
22 -23 -3 67.51 8.29
-23 1 3 54.46 12.42
22 -23 3 60.91 8.24
22 -23 3 45.81 6.4
22 -22 -7 27.92 6.35
22 -22 -4 113.11 11.64
22 -22 -4 124.75 12.06
22 -22 -1 94.15 16.13
22 -22 2 6.4 10.88
-22 0 2 1.17 9
22 -22 2 7.93 4.65
22 -22 5 32.82 7.53
22 -22 5 27 5.36
22 -21 -8 21.55 5.4
22 -21 -5 3.74 6.08
22 -21 -5 15.51 6.7
22 -21 -2 15.85 12.04
22 -21 -2 18.44 7.26
22 -21 1 95.93 13.61
-21 -1 4 62.05 16.96
22 -21 4 64.25 7.45
-21 -1 4 48.59 11.9
22 -21 4 54.49 9.32
-21 -1 7 4.1 5.64
22 -21 7 4.54 6.28
22 -21 7 5.88 4.05
22 -20 -6 9.67 6.63
22 -20 -6 10.51 6.77
22 -20 -3 73.71 17.21
22 -20 -3 61.49 10.26
22 -20 0 94.66 13.55
22 -20 0 79.2 18.83
-20 -2 3 39.35 18.58
-20 -2 3 17.6 9.55
22 -20 3 25.1 12.23
22 -20 3 16.96 5.32
-20 -2 6 7.85 6.22
22 -20 6 2.13 4.76
22 -20 6 15.06 7.65
-20 -2 9 9.8 4.68
22 -19 -7 51.97 8.39
22 -19 -7 62.11 8.26
22 -19 -4 150.31 21.3
22 -19 -4 181.95 15.1
-19 -3 -4 140.52 15.65
22 -19 -1 127.6 22.15
22 -19 -1 110.26 12.15
22 -19 2 12.38 12.07
-19 -3 2 21.82 8.93
22 -19 2 4 4.8
-19 -3 5 39.63 8
22 -19 5 29.24 10.47
22 -19 5 40.76 6.66
22 -19 5 42.89 8.63
-19 -3 8 45.67 6.82
22 -19 8 49 7.45
22 -19 8 29.57 5.37
22 -18 -8 16.78 5.96
22 -18 -8 16.34 5.9
22 -18 -5 20.63 7.3
-18 -4 -5 6.63 7.65
22 -18 -2 18.04 16.17
22 -18 -2 10.03 11.09
22 -18 1 24.01 9.58
-18 -4 1 17.45 8.49
22 -18 1 9.54 5.32
-18 -4 4 37.5 8.03
-18 -4 4 39.09 16.89
22 -18 4 43.72 11.28
22 -18 4 29.18 10.87
22 -18 4 36.7 6.59
-18 -4 7 0.31 6.78
22 -18 7 6.9 5.15
22 -18 7 4.94 7.47
22 -17 -9 2.34 4.43
22 -17 -9 5.42 5.2
22 -17 -6 35.44 8.51
22 -17 -3 33.45 15.65
22 -17 -3 54.62 9.63
-17 -5 -3 39.7 11.35
22 -17 0 17.93 6.49
22 -17 0 -1.19 13.64
-17 -5 3 21.95 9.37
22 -17 3 37.05 11.78
-17 -5 3 31.37 18.12
22 -17 3 14.9 5.64
22 -17 6 30.72 8.62
-17 -5 9 5.83 5.51
22 -17 9 6.76 5.87
22 -16 -10 2.55 3.11
22 -16 -7 88.57 10.04
-16 -6 -7 49.38 8.88
22 -16 -4 421.38 31.03
-16 -6 -4 343.12 32.51
22 -16 -1 384.81 34.19
22 -16 -1 358.62 27.28
-16 -6 -1 325.71 27.16
-16 -6 2 4.1 6.39
22 -16 2 10.93 5.78
22 -16 2 8.05 10.64
22 -16 2 4.11 5.13
22 -16 5 116.5 16.3
22 -16 5 87.69 10.87
22 -16 5 115.24 12.61
-16 -6 8 94.23 10.2
22 -16 8 71.94 9.1
22 -15 -8 5.35 6.68
22 -15 -5 12.08 7.93
-15 -7 -5 -1.77 8.25
22 -15 -2 5.39 7.01
-15 -7 -2 -5.01 6.06
22 -15 -2 3.69 20.03
-15 -7 -2 11.87 15.77
-15 -7 1 -2.46 5.8
22 -15 1 0.32 8.93
22 -15 1 5.66 5.25
22 -15 1 16.93 13.78
-15 -7 4 26.56 8.98
22 -15 4 19.05 7.53
-15 -7 4 46.06 19.8
22 -15 4 17.36 10.74
22 -15 4 27.77 11.59
22 -15 4 23.54 7.41
22 -15 4 26.27 6.32
22 -15 7 15.74 5.37
22 -15 7 28.11 9.34
-15 -7 10 1.32 3.71
22 -14 -9 7.61 5.58
22 -14 -6 7.11 7.88
-14 -8 -3 4.73 16.25
22 -14 -3 3.24 11.15
-14 -8 -3 28.32 17.12
-14 -8 -3 22.29 7.4
-14 -8 0 -2.78 6.11
22 -14 0 -0.27 6.49
22 -14 0 4.77 5.57
22 -14 0 -2.38 13.08
-14 -8 3 30.38 14.85
-14 -8 3 28.52 17.91
22 -14 3 20.97 14.95
22 -14 3 2.01 6.71
22 -14 3 15.77 6.04
22 -14 3 11.71 10.51
22 -14 6 1.91 7.52
22 -14 6 12.09 6.02
22 -14 6 13.44 8.38
-14 -8 9 -0.24 5.88
22 -14 9 -8.53 6.11
22 -14 9 -3.04 3.92
-13 -9 -7 103.84 12.39
-13 -9 -4 343.84 30.14
-13 -9 -1 204.55 25.82
-13 -9 -1 215.43 18.75
22 -13 -1 231 18.68
-13 -9 2 3.63 6.1
22 -13 5 120.73 13.04
-13 -9 5 97.93 20.62
22 -13 5 122.74 18.18
22 -13 8 116.05 11.1
-12 -10 -8 1.01 6.31
-12 -10 -5 24.87 8.97
-12 -10 -5 7.42 7.12
-12 -10 -2 33.32 7.17
-12 -10 -2 33.1 12.74
-12 -10 1 13.82 6.42
-12 -10 1 2.89 15.89
22 -12 4 -1.87 7.67
-12 -10 4 0.75 10.03
22 -12 4 6.23 8.54
-12 -10 4 -5.08 17.52
22 -12 7 6.4 6.08
-12 -10 10 7.25 4.57
-11 -11 -9 2.81 4.64
22 -11 -9 -1.13 6
22 -11 -6 6.01 8.31
-11 -11 -6 1.76 6.54
-11 -11 -3 1.14 11.67
-11 -11 -3 24.48 16.8
-11 -11 -3 5.78 8.11
-11 -11 0 5.81 6.26
-11 -11 0 9.5 13.96
22 -11 0 11.71 5.63
-11 -11 3 75.22 16.03
-11 -11 3 47.61 21.8
22 -11 3 52.49 9.27
22 -11 6 18.36 8.35
22 -11 6 18.46 8.44
-11 -11 9 11.47 6.12
22 -11 9 1.76 4.51
22 -10 -10 8.35 4.1
22 -10 -7 99.33 12.15
-10 -12 -7 90.66 12.28
22 -10 -4 353.84 29.16
-10 -12 -4 360.11 30.8
-10 -12 -1 213.4 27.03
22 -10 -1 265.53 20.96
22 -10 -1 288.93 28.34
-10 -12 -1 243.91 21.21
-10 -12 2 8.52 6.3
22 -10 2 -2.64 7.68
22 -10 2 10.29 9.28
22 -10 2 3.95 5.52
-10 -12 5 123.43 12.57
22 -10 5 118.66 12.94
22 -10 5 104.58 12.62
22 -10 5 101.07 17.31
22 -10 5 110.74 13
22 -10 8 111.3 10.98
22 -10 8 105.09 11.99
22 -9 -8 14.02 7.27
-9 -13 -8 -0.95 5.51
-9 -13 -8 7.04 6.85
22 -9 -5 17.79 8.45
-9 -13 -5 5.77 8.67
-9 -13 -5 -4.07 7.34
-9 -13 -2 38.1 7.69
22 -9 -2 60.56 21.45
-9 -13 -2 19.82 13.1
22 -9 -2 29.11 7.51
-9 -13 -2 33.73 8.2
-9 -13 1 58.15 9.14
-9 -13 1 59.53 19.04
22 -9 1 67.9 10.2
22 -9 1 76.86 11.21
22 -9 1 75.49 8.56
22 -9 1 80.02 16.64
22 -9 4 35.79 11.9
-9 -13 4 16.05 9.19
-9 -13 4 47.41 21.03
22 -9 4 33.18 11.33
22 -9 4 21.22 12.6
22 -9 7 11.29 8.86
22 -9 7 9.98 7.04
22 -9 7 5.93 8.41
-9 -13 10 4.49 4.31
22 -8 -9 15.16 6.04
-8 -14 -9 18.68 5.75
22 -8 -6 20.98 8.53
-8 -14 -6 19.74 9.2
-8 -14 -6 11.8 7.33
-8 -14 -3 3.43 12.26
-8 -14 -3 10.02 11.3
22 -8 -3 14.97 11.32
-8 -14 -3 23.81 15.31
-8 -14 0 77.75 10.28
-8 -14 0 58.19 17.64
22 -8 0 100.5 10.04
22 -8 0 90.46 11.27
22 -8 0 86.35 9.62
22 -8 0 69.35 16.74
-8 -14 3 106.87 14.46
-8 -14 3 112.88 24.1
22 -8 3 113.86 15.62
22 -8 3 117.88 17.87
22 -8 3 138.8 18.03
22 -8 3 128.54 12.25
22 -8 6 34.47 9.29
22 -8 6 45.92 9.37
-8 -14 9 9.66 6.21
22 -8 9 6.84 4.91
22 -8 9 -0.56 6.09
22 -8 9 6.18 4.18
22 -7 -10 0.88 3.72
22 -7 -7 58.93 10.43
-7 -15 -7 76.5 11.86
22 -7 -4 295.98 24.1
-7 -15 -4 305.17 25.06
-7 -15 -4 264.38 25
22 -7 -1 219.18 24.87
-7 -15 -1 177.44 23.78
22 -7 -1 193.65 16.83
-7 -15 -1 199.68 17.36
22 -7 2 4.46 8.53
22 -7 2 1.26 10.41
22 -7 2 6.06 5.68
22 -7 5 66.63 10.73
22 -7 5 61.78 10.43
22 -7 5 55.8 13.81
22 -7 5 68.28 10.24
-7 -15 8 78.71 9.52
22 -7 8 66.24 9.31
22 -7 8 58.72 8.56
22 -6 -8 37.43 7.44
-6 -16 -8 22.74 6.59
-6 -16 -8 28.23 7.84
22 -6 -5 16.37 8.11
-6 -16 -5 17.33 9.08
-6 -16 -5 16.12 7.82
-6 -16 -2 39.92 13.01
22 -6 -2 53.5 23.03
-6 -16 -2 38.78 15.74
22 -6 -2 40.47 10.19
-6 -16 -2 43.34 12.16
-6 -16 1 103.51 27.92
22 -6 1 141.6 14.66
22 -6 1 142.22 14.45
22 -6 1 143.36 13.07
22 -6 1 150.24 22.71
22 -6 4 66.08 10.47
-6 -16 4 47.4 20.64
22 -6 4 72.59 12.22
22 -6 4 75.41 14.54
22 -6 4 66.33 8.72
-6 -16 7 11.17 8.36
22 -6 7 8.4 8.7
22 -6 7 21.73 8.37
-6 -16 10 4.91 3.8
-5 -17 -9 24.37 6.47
22 -5 -9 34.64 6.16
22 -5 -6 40.89 8.79
-5 -17 -6 37.98 10.12
-5 -17 -6 30.42 8.58
22 -5 -3 1.29 14.5
22 -5 -3 -0.29 8.38
-5 -17 -3 11.02 10.88
-5 -17 -3 -2.17 10.04
-5 -17 0 97.81 24.85
22 -5 0 109.71 12.31
22 -5 0 96.43 10.68
22 -5 0 134.11 20.89
-5 -17 3 191.36 18.6
-5 -17 3 178.98 29.7
22 -5 3 186.6 19.62
22 -5 3 219.18 17.41
-5 -17 6 81.8 10.48
22 -5 6 60.9 10.1
-5 -17 9 17.04 5.91
22 -5 9 7.96 5.32
22 -5 9 6.16 5.85
22 -4 -7 34.4 7.94
-4 -18 -7 30.6 8.56
-4 -18 -7 23.43 9.19
22 -4 -4 131.55 12.87
-4 -18 -4 110.34 13.36
22 -4 -1 65.96 24.25
-4 -18 -1 76.74 25.41
22 -4 -1 66.6 9.7
-4 -18 -1 65.39 10.54
-4 -18 2 15.99 8.86
-4 -18 2 3.6 19.59
22 -4 2 1.3 13.1
22 -4 2 20.03 18.4
22 -4 2 4.78 5.49
-4 -18 5 48.86 8.88
22 -4 5 40.78 12.57
22 -4 5 29.31 6.74
22 -4 5 41.1 8.65
-4 -18 8 47.97 7.5
22 -4 8 32.18 6.71
22 -4 8 41.01 7.27
22 -3 -8 41.37 6.78
-3 -19 -8 31.49 7.18
-3 -19 -8 29.16 7.6
22 -3 -5 48.33 8.85
-3 -19 -5 39.53 9.06
22 -3 -2 17.66 14.52
22 -3 -2 6.21 9.36
-3 -19 -2 16.87 8.97
-3 -19 1 76.99 13.17
-3 -19 1 71.98 12.56
-3 -19 1 71.01 21.42
22 -3 1 82.01 15.94
22 -3 1 104.23 18.4
22 -3 1 77.9 9.33
-3 -19 4 118.46 11.84
22 -3 4 104.74 11.99
22 -3 4 96.57 12.98
22 -3 4 92.36 10.24
22 -3 4 84.16 15.17
-3 -19 7 24.41 7.44
22 -3 7 23.48 8.32
22 -3 7 9.29 5.34
22 -3 7 20.29 7.2
-2 -20 -9 24.67 5.21
22 -2 -9 28.58 5.2
22 -2 -6 64.95 8.79
-2 -20 -6 41.58 9.44
22 -2 -3 24.25 8.45
-2 -20 -3 3.47 8.25
-2 -20 -3 7.03 7.73
-2 -20 -3 24.3 8.55
-2 -20 0 43.7 9.76
-2 -20 0 33.98 10.85
22 -2 0 61.37 19.16
-2 -20 3 141.34 13.48
22 -2 3 116.71 14.81
22 -2 3 118.89 12.18
22 -2 3 142.19 14.1
-2 -20 6 59.8 9.16
22 -2 6 52.66 10.49
22 -2 6 53.51 7.54
22 -2 6 69.46 9.19
22 -1 -7 30.78 6.66
-1 -21 -7 32.47 8.08
22 -1 -4 35.79 13.49
22 -1 -4 53.48 8.36
-1 -21 -4 61.38 9.36
-1 -21 -1 13.66 11.32
22 -1 -1 20.92 8.38
22 -1 -1 39.41 14.31
-1 -21 -1 20.65 8.16
22 -1 -1 16.54 13.12
-1 -21 2 6.54 8.45
-1 -21 2 12.05 7.98
22 -1 2 30.85 11.49
22 -1 2 5.38 5.35
-1 -21 5 39.57 8.09
22 -1 5 45.22 9.34
22 -1 5 16.22 8.27
22 -1 5 17.18 5.93
22 -1 5 40.89 7.75
-1 -21 8 12.04 5.48
22 -1 8 11.5 5.36
22 0 -8 38.79 5.67
0 -22 -8 52.15 7.32
22 0 -5 50.07 7.86
0 -22 -5 46.88 9.71
0 -22 -5 38.62 8.84
22 0 -2 -10.9 13.84
22 0 -2 4.18 8.99
0 -22 -2 -0.8 7.45
0 -22 -2 11.07 7.52
0 -22 -2 22.2 8.24
0 -22 1 103.55 11.88
22 0 1 75.3 12.6
0 -22 1 87.26 10.39
0 -22 4 131.19 12.15
22 0 4 117.28 12.67
22 0 4 103.1 11.63
22 0 4 101.18 10.81
0 -22 7 28.36 6.68
22 0 7 30.78 7.79
22 0 7 30.61 6.25
22 0 7 14.18 4.66
22 1 -6 55.45 8.04
1 -23 -6 71.64 10.36
1 -23 -6 47.21 9.56
1 -23 -3 8.6 7.52
1 -23 0 13.29 7.73
22 1 0 30.42 10.68
1 -23 0 28.28 8.55
1 -23 3 85.18 9.93
1 -23 3 85.25 9.77
22 1 3 94.4 10.62
22 1 3 55.18 8.16
1 -23 6 44.96 8.05
22 1 6 39.05 8.74
22 1 6 38.82 7.37
22 1 9 6.29 3.8
2 -24 -7 27.43 7.47
2 -24 -7 32.67 7.09
2 -24 -4 38.1 8.63
22 2 -1 -4.63 9.63
2 -24 -1 1.42 6.74
2 -24 -1 6.55 6.77
2 -24 -1 2.08 7.28
2 -24 2 76.44 9.79
22 2 2 72.52 10.13
22 2 2 63.38 12.05
2 -24 5 49.13 8.01
22 2 5 46.9 9.66
22 2 8 13.46 5.68
22 3 -8 27.53 7.85
3 -25 -8 23.88 6.25
3 -25 -5 53.86 9.39
22 3 -2 44.8 10.45
3 -25 -2 24.43 7.44
3 -25 -2 22.62 7.81
3 -25 1 9.48 7.12
22 3 1 9.69 9.91
-25 22 1 14.06 8.29
3 -25 4 50.29 7.61
3 -25 4 62.45 8.2
22 3 4 52.1 9.05
22 3 7 37.39 7.14
22 4 -6 36.59 8.61
4 -26 -6 30.36 7.01
22 4 -3 13.14 9.59
4 -26 -3 14 6.81
4 -26 -3 9.14 7.34
22 4 0 26.51 10.36
4 -26 0 25.59 7.34
4 -26 0 38.16 7.86
4 -26 3 75.64 9.2
22 4 3 78.88 9.99
22 4 6 49.09 8.1
22 5 -7 5.43 6.26
5 -27 -7 1.42 5.74
22 5 -4 27.96 10.4
5 -27 -4 26.95 8.5
5 -27 -4 9 6.65
5 -27 -4 20.4 7.72
22 5 -1 56.35 10.9
5 -27 -1 46.74 8.92
5 -27 -1 46.95 8.26
22 5 2 27.9 7.49
5 -27 2 30.93 6.91
22 5 5 12.37 6.93
22 5 8 0.14 3.42
6 -28 -5 46.31 8.13
6 -28 -5 38.39 6.76
22 6 -5 44.66 8.77
22 6 -2 13.84 9.58
6 -28 -2 8.59 6.87
6 -28 -2 8.9 6.62
6 -28 -2 8.23 6.68
22 6 1 26.94 7.14
6 -28 1 15.28 5.4
6 -28 1 10.12 6.36
22 6 4 46.44 8.59
7 -29 -6 37.08 6.87
22 7 -3 14.98 9.56
7 -29 -3 26.88 7.53
7 -29 -3 19.26 6.93
22 7 0 2.42 6.1
22 7 0 4.53 9.2
7 -29 0 -0.92 7.41
7 -29 0 -1.5 5.33
22 7 3 36.86 7.73
22 7 6 19.3 5.55
7 -29 6 19.04 6.29
8 -30 -4 20.34 6.49
22 8 -4 30.55 7.98
22 8 -1 91.04 12.35
8 -30 -1 78.14 10.98
8 -30 -1 80.88 9.71
22 8 2 55.37 8.41
8 -30 2 69.95 10.06
22 8 5 14.15 5.57
8 -30 5 20.51 6.76
9 -31 -5 15.23 5.33
9 -31 -2 10.68 6.27
22 9 -2 8.83 7.94
9 -31 1 44.19 8.92
22 9 4 39.67 6.78
9 -31 4 50.32 8.3
10 -32 0 -0.39 6.59
22 10 3 8.65 5.26
11 -33 -1 115.65 11.69
22 11 2 46.04 7.06
11 -33 2 72.27 8.86
11 -33 5 8.34 5.09
12 -34 1 -0.33 5.98
12 -34 4 19.8 6.3
23 -25 -6 56.57 7.1
23 -24 -7 35.27 5.74
23 -24 -4 27.91 5.77
23 -24 -4 17.99 5.45
-24 1 2 72.28 13.15
23 -23 -5 18.87 6
23 -23 -5 14.66 5.81
23 -23 -2 59.18 8.15
23 -23 1 81.16 11.17
-23 0 1 52.31 12.5
23 -23 4 12 6.72
23 -23 4 7.75 4.45
23 -22 -6 43.04 7.33
23 -22 -6 47.3 7.45
23 -22 -3 72.54 14.67
23 -22 -3 77.7 9.36
23 -22 0 24.85 11.74
-22 -1 3 1.75 16.46
23 -22 3 15.35 9.48
23 -22 3 11.34 4.76
-22 -1 6 34.3 7.05
23 -22 6 37.34 7.98
23 -22 6 33.06 5.53
23 -21 -7 39.78 6.8
23 -21 -7 40.31 6.55
23 -21 -4 6.42 6.72
23 -21 -4 -8.28 12.11
23 -21 -4 4.94 5.88
23 -21 -1 32.54 8.24
23 -21 -1 22.36 13.34
-21 -2 2 60.8 12.64
23 -21 2 95.65 12.85
23 -21 2 83.01 8.7
-21 -2 5 35.58 7.32
23 -21 5 46.18 6.46
23 -21 5 38.57 8.32
-21 -2 8 1.51 4.47
23 -20 -8 6.5 4.73
23 -20 -8 12.62 4.85
23 -20 -5 11.59 7.15
23 -20 -2 50.93 15.8
-20 -3 -2 52.53 12.08
23 -20 -2 53.21 10.62
23 -20 1 57.51 11.96
-20 -3 4 6.63 6.54
-20 -3 4 6.62 14.68
23 -20 4 7.76 4.99
23 -20 4 16.54 7.87
-20 -3 7 6.26 6
23 -20 7 15.88 6.75
23 -20 7 -2.35 4.21
23 -19 -6 29.49 7.72
23 -19 -3 25.24 14.62
23 -19 -3 6.63 7.33
-19 -4 -3 17.95 8.99
23 -19 0 -1.23 14.19
-19 -4 3 24.58 8.2
23 -19 3 38.86 10.83
23 -19 3 35 6.29
-19 -4 3 29.45 18.09
-19 -4 6 35.54 7.64
23 -19 6 28.71 6.05
23 -19 6 50.4 9.01
-19 -4 9 9.34 4.75
23 -18 -7 136.55 12.77
23 -18 -4 74.67 17.18
23 -18 -4 70.5 9.8
-18 -5 -4 63.5 10.61
23 -18 -1 4.97 14.25
23 -18 -1 26.73 10.3
-18 -5 2 153.44 16.92
-18 -5 2 143.95 26.74
23 -18 2 170.69 17.88
23 -18 2 179.85 14.92
-18 -5 5 120.51 12.88
23 -18 5 132.38 13.68
23 -18 5 140.68 12.2
-18 -5 8 17.42 6.12
23 -18 8 17.26 6.69
23 -18 8 12.77 4.43
23 -17 -8 4.37 5.75
23 -17 -5 7.48 8.07
-17 -6 -5 -1.68 7.91
23 -17 -2 5.08 14.53
23 -17 -2 11.72 8.36
-17 -6 1 17.83 7.89
-17 -6 1 24.64 19.46
23 -17 1 28.71 17.71
23 -17 1 30.49 6.3
23 -17 1 29.23 17.42
-17 -6 4 23.86 7.56
23 -17 4 9.81 10.53
23 -17 4 18.51 5.89
23 -17 4 20.81 10.59
-17 -6 7 2.57 6.72
23 -17 7 2.53 4.96
23 -17 7 9.23 7.72
23 -16 -9 20.06 5.82
23 -16 -6 28.6 8.29
23 -16 -3 14.64 17.96
-16 -7 -3 20.75 11.38
23 -16 -3 11.75 10.4
-16 -7 -3 -3.85 13.35
-16 -7 0 14.88 6.61
-16 -7 0 21.72 23.63
23 -16 0 10.6 8.48
23 -16 0 8.8 20.45
-16 -7 3 18.5 9.87
-16 -7 3 40.49 21.84
23 -16 3 30.89 14.36
23 -16 3 22.21 7.52
23 -16 3 32.12 6.46
-16 -7 6 17.2 7.55
23 -16 6 12.6 5.73
23 -16 6 8.22 7.91
-16 -7 9 11.17 6.14
23 -16 9 2.61 6.32
23 -15 -10 35.93 4.09
23 -15 -7 200.21 15.48
-15 -8 -7 130.45 15.38
23 -15 -4 85.5 10.65
-15 -8 -4 70.78 11.38
23 -15 -1 70.49 21.45
-15 -8 -1 30.7 7.68
-15 -8 -1 37.63 25.59
23 -15 -1 29.34 9.86
-15 -8 2 281.33 29.69
23 -15 2 316.7 26.48
23 -15 2 324 29.68
23 -15 2 378.04 26.69
-15 -8 5 221.85 20.06
23 -15 5 227.57 24.86
23 -15 5 195.61 19.61
-15 -8 5 188.46 26.9
23 -15 5 266.37 19.83
23 -15 5 269.92 21.04
-15 -8 8 36.5 7.42
23 -15 8 32.51 7.65
23 -15 8 30.85 5.79
23 -14 -8 16.19 6.73
-14 -9 -8 3.86 5.57
23 -14 -5 15.08 8.23
-14 -9 -5 12.43 8.63
-14 -9 -2 7.63 7.9
23 -14 -2 2.58 16.13
-14 -9 -2 5.32 22.91
23 -14 -2 2.97 12.16
-14 -9 1 6.97 7.09
-14 -9 1 28.03 25.88
23 -14 1 26.63 11.81
23 -14 1 34.22 6.78
23 -14 1 47.21 22.83
-14 -9 4 19.65 8.13
23 -14 4 3.84 9.98
23 -14 4 18.45 9.21
-14 -9 4 15.68 16.7
23 -14 4 29.33 11.33
23 -14 4 32.89 6.96
23 -14 4 27.98 8.27
-14 -9 7 7.16 7.81
23 -14 7 12.74 5.89
23 -14 7 11.56 7.96
-14 -9 10 3.3 3.56
-13 -10 -3 3.61 18.64
-13 -10 -3 11.99 10.15
-13 -10 -3 14.6 11.64
-13 -10 0 17.41 7.03
-13 -10 0 42.51 23.7
23 -13 0 28.22 7.96
-13 -10 3 20.12 8.96
-13 -10 3 34.34 19.56
23 -13 3 17.8 8.63
23 -13 6 2.76 7.63
23 -13 6 -2.62 5.68
-13 -10 9 4.38 6.18
23 -13 9 -1.73 3.76
-12 -11 -7 134.93 14.54
-12 -11 -4 62.96 11.29
-12 -11 -1 63.41 9.17
-12 -11 -1 72.24 21.29
-12 -11 2 315.55 28.57
-12 -11 5 215.71 18.6
23 -12 5 207.25 18.7
-12 -11 5 178.32 26.36
23 -12 5 199.5 18.23
-12 -11 8 37.82 7.73
23 -12 8 35.31 6.44
23 -11 -8 11.92 6.94
-11 -12 -8 9.25 6.42
23 -11 -5 40.15 8.96
-11 -12 -5 36.48 9.54
-11 -12 -5 18.63 7.56
-11 -12 -2 19.82 10.83
23 -11 -2 37.45 17.4
-11 -12 -2 27.56 20.77
23 -11 -2 30.25 14.38
-11 -12 -2 20.45 15.9
-11 -12 1 7.25 6.7
-11 -12 1 21.86 26.63
23 -11 1 12.12 8.08
23 -11 1 7.95 10.81
23 -11 1 7.19 5.75
23 -11 1 25.38 24
23 -11 4 10.72 8
-11 -12 4 14.45 7.85
23 -11 4 10.75 8.5
-11 -12 4 7.17 17.68
23 -11 4 13.87 6.53
23 -11 4 -1.31 10.19
23 -11 4 27.03 11.29
-11 -12 7 11.58 8.25
23 -11 7 3.97 6.46
23 -11 7 -6.65 8.12
23 -10 -9 9.24 6.05
-10 -13 -9 5.18 4.92
23 -10 -6 15.16 8.38
-10 -13 -6 3.67 6.76
23 -10 -3 52.46 19.04
-10 -13 -3 32.46 21.56
23 -10 -3 73.79 11.93
-10 -13 -3 58.99 12.81
-10 -13 -3 52.89 10.91
-10 -13 0 91.25 11.18
-10 -13 0 95.14 25.71
23 -10 0 112.25 11.49
23 -10 0 112.2 12.33
23 -10 0 146.42 25.63
-10 -13 3 38.36 11
-10 -13 3 38.77 20.88
23 -10 3 56.51 9.95
23 -10 3 55.12 14.74
23 -10 3 44.79 7.96
-10 -13 6 0.4 7.84
23 -10 6 6 8.44
23 -10 6 -6.18 7.88
23 -10 9 4.91 4.48
23 -10 9 10.53 6.35
23 -10 9 0.44 3.72
23 -9 -10 28.15 4.02
23 -9 -7 132.38 13.03
-9 -14 -7 112.91 13.82
23 -9 -4 77.6 10.29
-9 -14 -4 63.4 11.23
-9 -14 -4 58.27 10.18
23 -9 -1 12.49 22.94
-9 -14 -1 26.3 9.2
-9 -14 -1 41.07 22.56
23 -9 -1 30.84 10.04
-9 -14 2 246.61 23.02
23 -9 2 248.17 25.83
23 -9 2 248.21 21.63
23 -9 2 259.62 21.02
-9 -14 5 225.43 18.61
23 -9 5 174.69 22.7
23 -9 5 206.97 19.01
23 -9 5 189.13 18.38
23 -9 5 200.25 18.67
23 -9 8 30.5 6.4
23 -9 8 19.21 5.6
23 -9 8 36.85 7.59
23 -8 -8 3.15 6.58
-8 -15 -8 7.32 5.54
-8 -15 -8 9.36 6.61
23 -8 -5 39.21 8.94
-8 -15 -5 44.1 9.96
-8 -15 -5 32.59 8.71
-8 -15 -2 101.49 14.08
23 -8 -2 67.87 19.06
23 -8 -2 89.85 13.14
-8 -15 -2 86.52 25.75
-8 -15 1 37.39 12.86
-8 -15 1 48.55 23.74
23 -8 1 26.47 9.12
23 -8 1 31.99 16.41
23 -8 1 23.46 6.46
23 -8 1 26.26 20.89
23 -8 4 7.63 10.42
23 -8 4 23.8 8.35
23 -8 4 -1.32 10.11
23 -8 4 10.9 6.13
23 -8 7 22.47 8.09
23 -8 7 30.93 8.28
-8 -15 10 14.86 3.73
23 -7 -9 18.85 6.13
-7 -16 -9 6.05 5.83
23 -7 -6 3.88 7.82
-7 -16 -6 13.88 9.17
-7 -16 -6 13.82 7.41
23 -7 -3 81.34 21.87
23 -7 -3 87.98 12.84
-7 -16 -3 97.83 13.8
-7 -16 0 114.05 17.33
-7 -16 0 157.47 29.72
23 -7 0 142.89 15.24
23 -7 0 147.89 15.83
-7 -16 0 142.3 18.24
23 -7 0 163.83 26.64
-7 -16 3 24.04 22.95
23 -7 3 35.51 9.97
23 -7 3 49.57 13.66
23 -7 3 32.14 6.73
23 -7 6 7.49 8.07
23 -7 6 4.1 5.61
23 -7 6 3.35 7.54
-7 -16 9 27.05 6.67
23 -7 9 23.53 5.77
23 -7 9 24.82 6.75
23 -6 -7 72.4 9.48
-6 -17 -7 66.41 9.8
-6 -17 -7 60.25 10.61
23 -6 -4 34.77 15.23
-6 -17 -4 26.2 8.6
23 -6 -4 34.35 8.5
23 -6 -1 16 16.67
-6 -17 -1 39.76 11.24
-6 -17 -1 -2.96 21.69
23 -6 -1 48.44 14.41
-6 -17 -1 54.57 13.3
23 -6 2 191.69 19.1
23 -6 2 180.19 19.09
23 -6 2 201.22 16.91
-6 -17 5 108.26 12.76
23 -6 5 103.22 13.29
23 -6 5 116.06 12.89
23 -6 5 117.9 12.72
23 -6 5 99.51 11.27
23 -6 5 97.56 16.47
-6 -17 8 13.07 6.67
23 -6 8 14.16 5.82
23 -6 8 23.98 6.87
23 -6 8 13.53 4.89
23 -5 -8 13.01 5.99
-5 -18 -8 3.47 5.62
-5 -18 -8 16.94 7.09
23 -5 -5 39.54 8.65
-5 -18 -5 25.49 8.35
-5 -18 -2 77.43 14.33
23 -5 -2 91.12 19.01
-5 -18 -2 56.89 19.3
23 -5 -2 110.09 11.9
-5 -18 -2 100.07 14.02
23 -5 1 75.2 12.92
23 -5 1 60.29 14.77
-5 -18 1 67.82 20.77
23 -5 1 40.28 16.75
23 -5 1 55.06 8.1
-5 -18 4 4.31 7.69
23 -5 4 7.57 10.06
23 -5 4 20.76 11.45
23 -5 4 7.71 5.83
23 -5 7 9.09 5.24
23 -5 7 17.04 7.18
23 -4 -9 17.08 4.87
23 -4 -6 21.71 7.76
-4 -19 -6 5.21 9.15
-4 -19 -6 4.51 7.69
23 -4 -3 110.83 12.05
-4 -19 -3 135.27 13.52
-4 -19 -3 112.81 12.99
-4 -19 0 225.9 30.41
23 -4 0 256.03 22.43
23 -4 0 237.73 27.36
-4 -19 3 92.65 11.23
23 -4 3 83.72 11.25
23 -4 3 90.36 12.61
23 -4 3 84.53 9.7
-4 -19 6 19.18 7.96
23 -4 6 0.68 5.2
23 -4 6 4.9 7.56
-4 -19 9 13.62 5.45
23 -4 9 19.04 4.89
23 -3 -7 37.75 7.15
-3 -20 -7 34.4 8.32
-3 -20 -7 44.43 8.51
23 -3 -4 34.11 13.39
23 -3 -4 28.61 7.8
-3 -20 -4 28.9 8.86
-3 -20 -4 27.2 8.25
-3 -20 -1 1.2 9.44
23 -3 -1 6.44 7.74
23 -3 -1 -8.32 13.22
-3 -20 2 13.69 7.72
23 -3 2 14.96 10.59
23 -3 2 24.55 12.29
23 -3 2 26.16 6.27
-3 -20 5 31.27 8.04
23 -3 5 11.38 8.08
23 -3 5 19.35 6.17
23 -3 5 28.41 7.87
-3 -20 8 3.07 5.63
23 -3 8 8.54 5.36
23 -3 8 11.46 5.61
23 -3 8 5.26 3.87
23 -2 -8 2.91 4.68
-2 -21 -8 8.72 5.63
-2 -21 -8 16.25 6.2
23 -2 -5 31.96 7.51
-2 -21 -5 29.03 9.22
-2 -21 -5 20.36 8.31
-2 -21 -2 175.92 16.58
23 -2 -2 184.7 15.68
23 -2 1 188.52 20.59
-2 -21 1 177.3 17.5
-2 -21 1 199.09 18.09
-2 -21 1 214.35 18.06
-2 -21 4 45.38 8.41
23 -2 4 41.39 8.89
23 -2 4 26.17 6.49
23 -2 4 40.76 8.23
-2 -21 7 5.16 6.23
23 -2 7 4.97 7.05
23 -2 7 16.12 6.2
23 -2 7 2.55 4.41
23 -1 -9 18.22 5.25
23 -1 -6 3.34 6.67
-1 -22 -6 11.83 8.04
-1 -22 -6 -2.97 7.91
-1 -22 -6 6.21 6.99
23 -1 -3 67.68 8.97
-1 -22 -3 79.82 10.32
23 -1 0 168.11 18.6
-1 -22 0 166.25 16.53
23 -1 0 122.45 21.46
-1 -22 0 190.74 16.43
-1 -22 3 82.5 10.3
-1 -22 3 96.03 10.45
23 -1 3 87.71 10.99
23 -1 3 76.96 11.4
23 -1 3 68 8.88
-1 -22 6 1.58 6.85
23 -1 6 -1.98 7.6
23 -1 6 -3.4 6.65
23 -1 6 2.82 4.61
23 0 -7 8.35 4.97
0 -23 -7 6.34 6.7
23 0 -4 8.47 6.55
0 -23 -4 18.08 8.26
0 -23 -4 27.07 8.21
23 0 -1 89.98 12.84
23 0 -1 88.08 12.17
0 -23 -1 86.94 11.23
0 -23 -1 107.03 11.77
0 -23 2 97.34 10.76
23 0 2 101.5 11.44
23 0 2 69.42 11.52
0 -23 2 92.29 10.98
0 -23 5 1.3 6.14
0 -23 5 14.38 6.95
23 0 5 16.4 8.93
23 0 5 9.34 6.26
23 0 5 3.81 4.74
23 1 -8 20.84 7.61
1 -24 -8 8.29 5.99
1 -24 -5 10.01 8.49
1 -24 -5 5.5 7.45
23 1 -2 51.79 11.39
1 -24 -2 59.26 9.14
1 -24 -2 53.35 9.66
23 1 1 93.02 13.13
1 -24 1 88.87 10.29
1 -24 1 98.34 11.23
1 -24 4 29.55 7.07
1 -24 4 38.74 7.57
23 1 4 26.44 8.15
23 1 4 29.34 6.72
23 1 7 5.26 6.32
2 -25 -6 11.51 7.3
2 -25 -6 -4.49 6.48
23 2 -3 88.47 11.9
2 -25 -3 60.68 9.58
2 -25 -3 63.94 10.29
23 2 0 159.34 15.94
2 -25 0 125.24 13.51
2 -25 0 173.6 14.91
2 -25 3 40.81 7.89
23 2 3 47.78 8.54
23 2 6 0.33 6.79
23 3 -7 11.06 7.15
3 -26 -7 12.22 6.05
3 -26 -7 6 5.39
23 3 -4 40.4 11.25
3 -26 -4 42.99 8.49
3 -26 -4 42.81 9.1
23 3 -1 62.97 11.34
3 -26 -1 56.13 9.33
3 -26 -1 44.45 7.8
3 -26 -1 44.1 8.72
3 -26 -1 59.78 9.19
3 -26 2 16.01 6.86
23 3 2 15.85 7.39
23 3 5 12.58 7.28
23 3 8 14.96 4.02
4 -27 -5 6.21 6.93
4 -27 -5 7.41 5.87
23 4 -5 9.73 8.63
23 4 -2 49.27 10.38
4 -27 -2 31.98 7.64
4 -27 -2 34.29 6.58
4 -27 -2 31.97 8.13
23 4 1 86.12 10.45
23 4 1 95.94 12.85
4 -27 1 63.31 9.76
4 -27 1 101.91 10.44
23 4 4 45.42 8.8
23 5 -6 5.74 6.55
5 -28 -6 8.41 4.93
23 5 -3 27.78 10.52
5 -28 -3 29.83 8.49
5 -28 -3 22.8 6.07
5 -28 -3 47.04 8.59
23 5 0 99.6 10.3
23 5 0 97.56 12.38
5 -28 0 69.49 10.98
5 -28 0 71.77 9.82
23 5 3 45.15 8.5
23 5 6 -1.21 5.65
5 -28 6 -0.96 6.13
23 6 -4 78.23 10.34
6 -29 -4 57.35 8.99
23 6 -1 50.38 10.59
6 -29 -1 39.25 8.35
6 -29 -1 25.73 6.3
6 -29 -1 29.67 7.28
23 6 2 16.99 7.07
23 6 5 19.32 6.35
6 -29 5 17.55 7.07
23 7 -5 13.89 6.66
7 -30 -5 5.76 5.7
23 7 -2 46.38 9.48
7 -30 -2 36.08 7.59
7 -30 -2 27.06 6.86
7 -30 -2 18.28 6.62
7 -30 1 60.3 9.7
23 7 1 53.55 8.33
23 7 4 19.78 6.49
23 7 7 5.59 3.24
8 -31 -6 3.38 4.23
23 8 -3 16.09 8.09
8 -31 -3 5.29 5.36
8 -31 0 35.88 8.11
23 8 3 32.65 6.8
8 -31 3 25.23 7.94
8 -31 6 7.81 5.04
9 -32 -4 48.44 6.44
9 -32 -1 45.19 7.81
9 -32 2 -4.32 6.7
9 -32 5 22.48 6.82
10 -33 1 12.62 6.54
10 -33 4 11.36 6.94
11 -34 0 14.1 6.32
12 -35 2 8.38 6.47
24 -24 -6 46.36 6.5
24 -24 -3 7.63 5.79
24 -24 3 157.83 14.39
24 -23 -7 -0.79 4.3
24 -23 -4 22.3 5.36
24 -23 -4 20.01 6.43
24 -23 -1 107.23 12.84
24 -23 2 47.44 10.27
24 -23 5 6.34 6.41
24 -23 5 -2.1 4.15
24 -22 -5 48 7.78
24 -22 -5 65.52 8.29
24 -22 -2 57.27 8.67
-22 -2 -2 59.89 9.59
24 -22 -2 69.58 14.61
24 -22 1 9.04 9.71
24 -22 4 28.98 7.61
24 -22 4 17.42 5.44
-22 -2 7 12.72 4.97
24 -21 -6 25.08 6.35
24 -21 -6 20.56 6.67
24 -21 -3 9.69 7.1
24 -21 -3 4.86 11.6
-21 -3 -3 5.06 7.74
24 -21 0 6.65 10.35
24 -21 0 3.7 14.77
-21 -3 3 17.7 16.6
24 -21 3 43.9 10.56
24 -21 3 38.73 6.28
-21 -3 6 22.5 6.49
24 -21 6 26.25 7.54
24 -21 6 12.46 4.9
24 -20 -7 3.62 5.13
24 -20 -7 2.57 5.65
24 -20 -4 49.97 14.46
24 -20 -4 69.34 9.2
-20 -4 -4 48.69 9.48
24 -20 -1 155.41 15.44
24 -20 -1 176.11 24.02
-20 -4 2 62.87 19.76
24 -20 2 93.34 12.8
24 -20 2 83.45 9.16
-20 -4 5 12.63 6.75
24 -20 5 6.72 4.83
24 -20 5 1.97 7.25
-20 -4 8 11.7 5.04
24 -20 8 15.11 5.55
24 -19 -8 1.08 4.46
24 -19 -8 5.22 4.99
24 -19 -5 15.1 7.49
-19 -5 -5 12.4 7.63
24 -19 -2 23.1 15.54
-19 -5 -2 40.1 9.81
24 -19 -2 33.21 8.47
-19 -5 1 15.69 7.78
-19 -5 1 1.75 18.29
24 -19 1 33.79 14.17
-19 -5 4 0.34 6.62
-19 -5 4 -5.11 14.72
24 -19 4 -1.02 4.91
-19 -5 7 1.64 5.91
24 -19 7 7.36 6.74
24 -19 7 1.89 4.26
24 -18 -9 11.1 3.97
24 -18 -6 2.93 7.82
-18 -6 -6 -1.88 6.9
24 -18 -3 31.66 14.13
24 -18 -3 20.49 7.97
-18 -6 -3 20.47 15.01
-18 -6 -3 18.59 8.59
-18 -6 0 81.64 22.8
24 -18 0 67.86 18.05
-18 -6 3 40.02 8.55
-18 -6 3 68.35 19.46
24 -18 3 59.05 11.54
24 -18 3 53.67 7.45
-18 -6 6 11.34 7.66
24 -18 6 19.3 5.61
24 -18 6 5.63 8.15
-18 -6 9 6.86 4.44
24 -17 -7 12.15 6.78
-17 -7 -7 16.99 6.24
24 -17 -4 38.21 14.21
24 -17 -4 35.74 8.5
-17 -7 -4 44.82 9.4
-17 -7 -1 235.99 30.47
24 -17 -1 283.31 22.32
24 -17 -1 235.32 28.82
-17 -7 -1 241.95 24.08
-17 -7 2 216.08 21.13
-17 -7 2 208.21 31.13
24 -17 2 243.64 20.37
24 -17 2 252.63 23.38
24 -17 2 270.93 20.36
-17 -7 5 23.72 7.61
24 -17 5 20.23 6
24 -17 5 40.2 8.76
-17 -7 8 18.55 6.19
24 -17 8 14.48 6.54
24 -17 8 7.4 4.19
24 -16 -8 7.58 5.79
24 -16 -5 -1.22 7.85
-16 -8 -5 3.07 8.33
-16 -8 -2 31.49 9.46
24 -16 -2 26.57 18.34
-16 -8 -2 15.76 14.94
24 -16 -2 19.24 11.21
-16 -8 1 27.33 10.84
-16 -8 1 18.36 18.89
24 -16 1 22.16 12.09
24 -16 1 19.78 5.97
24 -16 1 -12.03 15.33
-16 -8 4 -3.73 7.01
24 -16 4 -6.3 6.69
-16 -8 4 -15.98 16.56
24 -16 4 3.38 6.51
24 -16 4 6.84 5.49
-16 -8 7 -6.48 6.67
24 -16 7 -0.63 4.9
24 -16 7 5.71 7.22
24 -15 -9 5.19 5.16
24 -15 -6 8.14 8.35
24 -15 -3 24.6 15.2
-15 -9 -3 8.84 13.24
24 -15 -3 28.32 8.4
-15 -9 -3 20.84 9.17
-15 -9 -3 9.36 9.7
24 -15 0 38.37 10.26
-15 -9 0 35.53 14.72
-15 -9 0 18.92 18.9
24 -15 0 55.44 17.55
-15 -9 3 16.2 7.87
24 -15 3 5.13 7.3
-15 -9 3 3.53 17.51
24 -15 3 16.15 8.95
24 -15 3 30.94 11.32
24 -15 3 19.36 6.35
-15 -9 6 11.52 7.87
24 -15 6 -0.72 5.41
24 -15 6 11.64 8.31
-15 -9 9 11.94 5.52
24 -15 9 4.69 6.04
-14 -10 -7 -1.52 7.01
24 -14 -4 144.14 22.15
-14 -10 -4 128.93 14.8
-14 -10 -1 400.67 44.75
24 -14 -1 553.06 45.84
-14 -10 -1 507.38 40.3
-14 -10 2 351.45 28.01
24 -14 2 331.43 27.7
-14 -10 5 44.71 9
24 -14 5 39.47 8.54
-14 -10 5 22.51 15.33
24 -14 5 22.59 11.47
-14 -10 8 6.24 6.13
24 -14 8 6.7 4.6
-13 -11 -8 2.22 5.52
-13 -11 -5 9.87 8.85
-13 -11 -5 -4.14 6.98
-13 -11 -2 31.84 9.88
-13 -11 -2 21.92 15.98
-13 -11 -2 43.02 11.24
-13 -11 1 42.65 12.57
-13 -11 1 39.16 19.37
-13 -11 4 33.04 8.64
24 -13 4 18.05 8.06
-13 -11 4 7.3 15.67
24 -13 4 22.74 8.21
-13 -11 7 6.33 7.25
24 -13 7 8.36 5.72
24 -12 -6 32.96 8.8
-12 -12 -6 12.73 6.42
-12 -12 -3 50.43 10.41
-12 -12 -3 50.2 12.06
-12 -12 0 19.38 14.63
-12 -12 0 23.31 18.58
24 -12 0 29.96 9.06
-12 -12 3 14.57 8
-12 -12 3 7.25 18.5
24 -12 3 4.26 8.94
-12 -12 6 11.36 8.18
24 -12 6 0.79 7.59
-12 -12 9 11.89 6.19
24 -11 -7 11.16 7.66
-11 -13 -7 21.16 8.19
24 -11 -4 75.49 17.97
24 -11 -4 88.05 11.23
-11 -13 -4 75.7 11.81
24 -11 -1 335.8 27.29
-11 -13 -1 248.33 34.53
24 -11 -1 360.86 34.69
-11 -13 -1 347.8 28.42
-11 -13 2 266.68 23.19
24 -11 2 246.37 23.31
24 -11 2 249.56 25.25
24 -11 2 289.69 22.2
-11 -13 5 21.93 8.76
24 -11 5 22.84 8.71
-11 -13 5 11.07 16.11
24 -11 5 22.34 8.14
24 -11 5 26.53 6.63
24 -11 5 32.52 8.72
24 -11 5 27.2 11.94
-11 -13 8 8.29 6.63
24 -11 8 18 5.27
24 -11 8 13.42 6.71
24 -11 8 8.79 4.68
24 -10 -8 21.17 6.75
-10 -14 -8 7.8 6.36
24 -10 -5 20.74 8.29
-10 -14 -5 19.76 8.86
-10 -14 -5 3.04 7.04
-10 -14 -2 12.09 9.28
24 -10 -2 -1.34 16.94
-10 -14 -2 -33.27 17.19
24 -10 -2 5.52 10.89
-10 -14 -2 10.68 11.98
-10 -14 1 47.14 10.16
-10 -14 1 8.39 18.72
24 -10 1 37.5 12.7
24 -10 1 52.59 12.02
24 -10 1 37.39 7.32
24 -10 1 60.76 17.37
-10 -14 4 32.23 8.8
-10 -14 4 20.79 17.82
24 -10 4 37.3 11.48
24 -10 4 30.6 8.61
24 -10 4 45.36 12.71
24 -10 4 40.55 7.26
24 -10 7 20.06 7.75
24 -10 7 6.99 5.85
24 -10 7 3.34 5.4
24 -10 7 16.37 7.49
24 -9 -9 8.07 5.45
24 -9 -6 68.44 9.94
-9 -15 -6 53.74 10.79
-9 -15 -6 45.26 8.72
24 -9 -3 82.12 18.55
24 -9 -3 78 10.88
-9 -15 -3 78.47 11.67
-9 -15 -3 67.86 11.07
-9 -15 0 16.49 9.07
-9 -15 0 12.27 9.59
-9 -15 0 20.76 18.32
24 -9 0 23.86 14.81
24 -9 0 3.55 9.11
24 -9 0 5.21 15.74
-9 -15 3 34.5 8.25
-9 -15 3 20.58 17.62
24 -9 3 15.59 8.36
24 -9 3 34.48 11.23
24 -9 3 22.28 6.47
24 -9 6 20.21 9.25
24 -9 6 39.67 7.04
24 -9 6 38.84 9.04
24 -9 9 5.83 4.71
24 -9 9 9.56 6.15
24 -8 -7 20.89 7.46
-8 -16 -7 12.93 7.99
24 -8 -4 48.02 16.24
24 -8 -4 60.8 9.81
-8 -16 -4 53.96 10.68
-8 -16 -4 52.61 9.57
-8 -16 -1 215.45 30.49
24 -8 -1 287.13 23.22
24 -8 -1 306.91 30.85
-8 -16 -1 273.37 23.73
-8 -16 2 200.3 19.68
24 -8 2 213.31 19.93
24 -8 2 212.71 22.24
24 -8 2 226.51 18.46
24 -8 5 8.47 8.46
24 -8 5 15.23 8.24
24 -8 5 19.21 6.24
24 -8 5 12.59 8.07
-8 -16 8 8.77 6.26
24 -8 8 0.26 4.95
24 -8 8 15.75 6.3
24 -8 8 4.87 4.36
24 -7 -8 12.58 6.19
-7 -17 -8 11.52 5.47
-7 -17 -8 29.31 6.62
24 -7 -5 51.13 9.11
-7 -17 -5 30.18 8.65
-7 -17 -2 17.45 8.78
24 -7 -2 -17.04 18.02
-7 -17 -2 17.17 14.87
24 -7 -2 1.5 8.99
-7 -17 -2 6.21 8.71
-7 -17 1 34.92 20.91
24 -7 1 36.44 11.42
24 -7 1 12.43 12.81
24 -7 1 15.55 15.58
24 -7 1 29.83 6.93
24 -7 4 54.28 11.58
24 -7 4 60.17 8.16
24 -7 4 44.91 9.37
-7 -17 7 23.53 7.29
24 -7 7 19.45 7.75
24 -7 7 8.38 5.26
24 -7 7 25.09 7.21
24 -6 -9 12.19 4.41
24 -6 -6 94.94 10.74
-6 -18 -6 91.72 12.31
24 -6 -3 152.64 21.78
24 -6 -3 158.92 14.99
-6 -18 -3 154.44 15.77
-6 -18 0 20.22 18.12
24 -6 0 39.94 13.23
24 -6 0 38.32 16.04
-6 -18 3 9.99 17.26
24 -6 3 21.97 10.23
24 -6 3 27.38 6.35
-6 -18 6 64.4 10.1
24 -6 6 60.69 10.59
24 -6 6 43.83 7.47
24 -6 6 54.34 9.66
-6 -18 9 19.29 5.14
24 -6 9 20.73 4.41
24 -6 9 15.67 5.2
24 -5 -7 15.78 6.55
-5 -19 -7 -3.23 6.72
-5 -19 -7 10.54 7.61
24 -5 -4 21.06 13.42
24 -5 -4 26.58 8.21
-5 -19 -4 28.79 8.61
-5 -19 -1 69.73 21.49
24 -5 -1 73.52 12.24
24 -5 -1 101.29 13.26
-5 -19 -1 100.57 12.42
-5 -19 -1 103.51 12.02
24 -5 -1 63.14 19.97
-5 -19 2 55.61 9.89
24 -5 2 69 11.99
24 -5 2 72.08 12.1
24 -5 2 73.9 8.94
-5 -19 5 24.42 8.17
24 -5 5 13.83 5.85
24 -5 5 12.7 7.69
-5 -19 8 -0.49 5.62
24 -5 8 6.75 5.07
24 -5 8 4.55 5.55
24 -5 8 -0.86 3.78
24 -4 -8 25.12 5.27
-4 -20 -8 17.55 6.39
24 -4 -5 44.99 8.33
-4 -20 -5 38.16 8.91
24 -4 -2 27.57 13.84
24 -4 -2 36.6 8.09
-4 -20 -2 25.81 8.37
-4 -20 -2 29.17 8.7
-4 -20 1 12.92 7.78
-4 -20 1 1.52 7.46
24 -4 1 18.17 10.64
24 -4 1 22.58 11.06
-4 -20 4 58.39 9.59
24 -4 4 53.82 9.85
24 -4 4 42.95 7.37
-4 -20 7 46.56 7.25
24 -4 7 38.46 7.03
24 -3 -9 11.38 5.01
24 -3 -6 78.89 8.98
-3 -21 -6 50.54 9.27
24 -3 -3 121.67 12.27
-3 -21 -3 139.64 13.61
-3 -21 -3 110.98 13.58
-3 -21 0 10.63 7.92
24 -3 0 21.45 10.49
-3 -21 0 41.72 8.38
24 -3 0 14.44 14.83
-3 -21 3 21.27 8.13
24 -3 3 30.1 8.62
24 -3 3 35.03 9.93
24 -3 3 32.33 6.6
-3 -21 6 86.29 9.65
24 -3 6 66.73 10.09
24 -3 6 69.8 9.19
24 -3 6 50.94 7.65
24 -3 9 30.44 4.58
24 -2 -7 9.69 5.45
-2 -22 -7 3.31 6.54
24 -2 -4 43.41 7.95
-2 -22 -4 31.58 8.8
-2 -22 -1 43.76 8.71
24 -2 -1 23.53 13.26
-2 -22 -1 47.8 9.14
-2 -22 2 2.45 6.93
-2 -22 2 22.08 7.52
24 -2 2 0.36 9.85
24 -2 2 15.01 8
24 -2 2 16.95 9.28
24 -2 2 12.22 5.6
-2 -22 5 5.9 7.33
24 -2 5 2.98 8.94
24 -2 5 5.58 8.17
24 -2 5 9.81 6.52
24 -2 5 6.27 4.97
24 -2 8 10.25 4.59
-1 -23 -8 26.15 6.42
24 -1 -5 98.17 10.09
-1 -23 -5 108.91 12.54
-1 -23 -5 71.3 11.33
24 -1 -2 84.04 10.24
24 -1 -2 99.48 13.37
-1 -23 -2 113.03 11.74
-1 -23 -2 91.45 11.76
-1 -23 -2 103.47 12.23
-1 -23 1 5.78 7.32
24 -1 1 19.88 9.3
-1 -23 1 18.29 6.96
-1 -23 4 8.44 6.87
-1 -23 4 16.83 7.09
24 -1 4 28.82 8.28
24 -1 4 26.3 7.12
24 -1 4 8.24 5.11
-1 -23 7 26.84 6.17
24 -1 7 40.58 7.29
24 -1 7 29.06 5.88
24 0 -6 89.44 9.19
0 -24 -6 90.34 11.33
0 -24 -6 102.52 10.91
24 0 -3 161.66 14.67
24 0 -3 181.96 17.16
0 -24 0 47.51 9.27
24 0 0 69.43 11.42
0 -24 0 55.57 8.77
0 -24 3 14.21 6.86
0 -24 3 4.52 6.92
24 0 3 9.67 7.84
0 -24 6 55.4 7.44
24 0 6 52.65 8.49
24 0 6 39.06 6.88
24 1 -7 28.15 7.31
1 -25 -7 9.79 6.36
1 -25 -7 23.07 6.12
24 1 -4 39.8 11.16
1 -25 -4 29.27 8.54
24 1 -1 17.27 10.24
1 -25 -1 23.7 7.21
1 -25 -1 17.34 7.56
1 -25 -1 17.87 7.92
1 -25 2 5.33 6.88
24 1 2 -2.77 7.3
1 -25 5 20.32 6.3
24 1 5 12.79 7.52
24 1 8 12.01 3.99
2 -26 -8 6.9 3.84
24 2 -5 36.08 9.34
2 -26 -5 33.13 7.6
24 2 -2 74.11 11.42
2 -26 -2 42.79 8.13
2 -26 -2 54.05 9.19
24 2 1 25.99 8.05
24 2 1 44.7 10.67
2 -26 1 22.29 7.56
24 2 4 7.13 7.24
24 3 -6 67.76 9.15
3 -27 -6 57.43 7.77
24 3 -3 124.39 13.97
3 -27 -3 98.94 11.24
3 -27 -3 104.04 12.31
24 3 0 30 10.18
3 -27 0 20.29 7.16
3 -27 0 24.26 7.65
24 3 3 14.46 7.6
3 -27 3 3.06 5.89
24 3 6 52.56 7.81
4 -28 -7 31.9 5.59
24 4 -4 31.29 9.26
4 -28 -4 23.7 7.53
4 -28 -4 19.61 6.13
4 -28 -4 25.24 7.26
24 4 -1 10.96 9.94
4 -28 -1 7.36 6.99
4 -28 -1 4.46 6.15
24 4 2 39.34 8.17
4 -28 2 29.37 7.18
24 4 5 26.8 6.92
24 5 -5 24.87 7.72
5 -29 -5 25.58 6.72
24 5 -2 48.75 10.54
5 -29 -2 39.28 7.92
5 -29 -2 44.27 8.25
5 -29 -2 38.57 7.84
24 5 1 28.25 7.42
5 -29 1 18.21 8.71
24 5 4 -2.47 6.28
24 5 7 5.39 3.64
6 -30 -6 23.02 5.6
24 6 -3 53.47 9.38
6 -30 -3 42.26 7.58
6 -30 -3 47.13 7.62
24 6 0 40.38 7.46
6 -30 0 30.32 8.2
6 -30 3 -5.94 7.07
6 -30 6 28.04 6.45
24 7 -4 14.23 7.32
7 -31 -4 17.27 5.56
24 7 -1 2.59 5.34
7 -31 -1 6.33 6.4
24 7 -1 18.71 8.44
7 -31 -1 4.9 5.24
24 7 2 38.73 6.46
7 -31 2 32.15 8.1
24 7 5 37.1 6.11
7 -31 5 30.8 7.31
8 -32 -5 5.58 4.72
24 8 -2 36.61 8.17
8 -32 1 16.36 7.07
24 8 4 9.04 4.86
9 -33 0 30.84 7.1
24 9 3 0.73 4.71
9 -33 3 -2.56 6.21
24 10 2 46.52 6.54
10 -34 2 85.01 8.74
10 -34 5 29.17 4.6
11 -35 1 6.08 6.4
11 -35 4 4.21 4.37
25 -24 -2 0.81 8.5
25 -24 1 18.43 8.87
25 -24 4 29.74 6.73
25 -23 -6 0.85 4.51
25 -23 -3 42.15 7.68
25 -23 0 142.85 14.97
25 -22 -7 27.28 5.28
25 -22 -4 52.81 8.23
25 -22 -1 24.94 9.75
25 -22 -1 8.55 11.86
-22 -3 2 40.24 17.66
25 -22 2 17.63 9.92
-22 -3 5 36.74 7.29
25 -22 5 46.11 8.31
25 -22 5 40.72 6.13
25 -21 -5 17.47 6
25 -21 -5 25.41 7.49
25 -21 -2 5.93 7.16
-21 -4 -2 0.82 7.72
25 -21 -2 -8.81 12.54
-21 -4 1 5.46 17.05
25 -21 1 9.42 10.01
-21 -4 4 24.91 6.83
25 -21 4 14.67 5.27
25 -21 4 19.63 7.7
-21 -4 7 8.74 5.04
25 -21 7 17.9 6.12
25 -21 7 4.37 3.84
25 -20 -6 5.55 5.68
25 -20 -6 8.81 6.5
25 -20 -3 40.92 14.49
-20 -5 -3 22.59 13.38
25 -20 -3 31.11 8.09
-20 -5 -3 34.61 8.78
-20 -5 0 50.85 17.85
25 -20 0 49.78 11.46
25 -20 0 49.53 15.83
-20 -5 3 12.79 6.62
25 -20 3 26.49 10.31
25 -20 3 16.52 5.38
-20 -5 6 2.27 6.39
25 -20 6 4.61 6.94
25 -20 6 5.18 4.68
25 -19 -7 38.02 6.67
25 -19 -7 54.22 7.18
25 -19 -4 143.92 19.56
25 -19 -4 143.71 13.15
-19 -6 -4 101.65 13.44
25 -19 -1 72.4 10.21
-19 -6 -1 72.73 19.51
25 -19 -1 91.44 17.45
-19 -6 2 4.92 6.75
-19 -6 2 -7.21 16.9
25 -19 2 13.74 10.32
25 -19 2 6.57 5.46
-19 -6 5 48.71 8.46
25 -19 5 59.22 7.38
25 -19 5 48.5 9.36
-19 -6 8 33.29 6.37
25 -19 8 49.05 6.91
25 -18 -8 -8.9 4.41
25 -18 -8 10.42 5.18
25 -18 -5 18.53 7.58
-18 -7 -5 5.2 7.53
25 -18 -2 42.91 15.39
-18 -7 -2 48.51 16.81
25 -18 -2 38.25 8.64
-18 -7 -2 33.64 9.41
-18 -7 1 30.36 10.23
-18 -7 1 24.64 17.54
25 -18 1 28.11 11.55
-18 -7 4 0.35 6.94
-18 -7 4 -19.49 16.75
25 -18 4 -0.35 10.14
25 -18 4 11.25 5.85
-18 -7 7 8.33 6.05
25 -18 7 5.36 6.82
25 -18 7 -2.72 4.4
25 -17 -9 1.11 3.66
25 -17 -6 41.32 8.25
-17 -8 -6 18.91 8.62
25 -17 -3 98.21 18.75
25 -17 -3 88.28 11.34
-17 -8 -3 89.1 12.06
-17 -8 0 60.36 20.29
25 -17 0 71.08 19.82
-17 -8 3 9.4 7.12
-17 -8 3 30.65 17.35
25 -17 3 9.1 6.69
25 -17 3 13.57 10.77
25 -17 3 9.33 5.76
-17 -8 6 6.79 7.55
25 -17 6 6.87 5.24
25 -17 6 18.92 8.17
-17 -8 9 7.04 4.23
25 -17 9 11.1 4.51
25 -16 -7 84.35 9.23
-16 -9 -7 58.58 8.83
25 -16 -4 298.76 22.93
-16 -9 -4 239.72 23.41
25 -16 -4 278.67 29.64
-16 -9 -1 205.15 28.56
25 -16 -1 214.95 18.27
-16 -9 -1 172.71 18.47
25 -16 -1 236.45 27.4
-16 -9 2 8.65 7.7
25 -16 2 3.08 8.6
25 -16 2 5.74 10.74
25 -16 2 10.86 5.84
-16 -9 5 78.58 10.39
25 -16 5 69.69 9.41
25 -16 5 78.36 9.05
25 -16 5 77.87 11.08
-16 -9 8 80.92 8.05
25 -16 8 93.15 8.77
25 -15 -8 2.58 5.66
-15 -10 -8 7.46 4.69
25 -15 -5 33.14 8.51
-15 -10 -5 20.64 8.73
-15 -10 -2 53.77 11.99
25 -15 -2 63.3 16.54
25 -15 -2 50.14 9.62
-15 -10 -2 36.47 10.09
-15 -10 1 16.95 10.39
-15 -10 1 10.14 19.9
25 -15 1 13.66 11.98
25 -15 1 5.57 17.47
25 -15 1 13.14 6.07
25 -15 4 -3.62 6.8
-15 -10 4 5.4 7.51
25 -15 4 2.85 7.01
25 -15 4 14.27 10.86
25 -15 4 15.15 6.11
-15 -10 7 24.27 7.15
25 -15 7 5.52 7.16
25 -15 7 6.05 4.94
-14 -11 -3 28.15 9.21
-14 -11 -3 12.45 7.62
-14 -11 0 9.85 8.88
-14 -11 0 6.47 18.44
25 -14 0 8.3 9.7
-14 -11 3 12.33 7.59
-14 -11 3 14.85 16.81
25 -14 3 21.78 7.72
-14 -11 6 26.37 8.64
25 -14 6 20.26 7.62
25 -14 6 14.42 5.19
-14 -11 9 -0.86 4.47
-13 -12 -7 71.24 9.87
-13 -12 -4 232.6 21.14
-13 -12 -1 153.37 25.37
-13 -12 -1 184.15 18.19
-13 -12 2 17.45 8.32
25 -13 2 -2.67 8.59
-13 -12 5 67.87 10.24
25 -13 5 58.09 9.82
-13 -12 8 59.85 8.17
25 -12 -8 7.14 6.03
-12 -13 -8 10.11 5.75
25 -12 -5 35.6 8.84
-12 -13 -5 35.33 9.46
-12 -13 -5 25.21 7.98
-12 -13 -2 70.42 11.19
25 -12 -2 51.13 17.69
-12 -13 -2 67.98 19.05
25 -12 -2 84.44 10.69
-12 -13 -2 72.69 11.24
-12 -13 1 47.19 12.28
-12 -13 1 46.96 23.21
25 -12 1 54.03 10.82
25 -12 1 58.19 13.72
25 -12 1 36.62 7.45
25 -12 1 26.35 19.32
-12 -13 4 7.64 7.54
25 -12 4 1.23 7.55
-12 -13 4 15.14 17.34
25 -12 4 5.85 10.64
25 -12 4 6.06 5.62
25 -12 4 1.6 7.33
-12 -13 7 8.09 7.14
25 -12 7 1.33 5.18
25 -12 7 0.31 5.09
25 -12 7 21.29 7.48
25 -11 -9 6.9 4.36
25 -11 -6 23.19 8.95
-11 -14 -6 22.74 9.83
-11 -14 -6 20.44 7.03
25 -11 -3 5.61 13.94
25 -11 -3 12.41 8.02
-11 -14 -3 11.91 8.9
-11 -14 -3 -5.65 7.59
-11 -14 0 31.76 11.74
-11 -14 0 11.42 11.56
-11 -14 0 24.89 20
25 -11 0 36.43 11.31
25 -11 0 37.02 10.44
25 -11 0 9.58 18.63
-11 -14 3 53.7 9.57
-11 -14 3 47.61 18.32
25 -11 3 63.44 9.84
25 -11 3 59.1 12.22
25 -11 3 56.7 8.4
-11 -14 6 22.56 8.46
25 -11 6 26.96 9.03
25 -11 6 20.9 6.12
25 -11 6 37.96 9.32
25 -11 9 10.86 4.93
25 -10 -7 62.48 8.74
-10 -15 -7 48.8 8.98
25 -10 -4 180.02 23.54
25 -10 -4 189.51 16.3
-10 -15 -4 185.32 17.34
-10 -15 -4 141.76 16.28
25 -10 -1 172.88 24.1
-10 -15 -1 114.44 23.31
25 -10 -1 141.43 14.84
-10 -15 -1 139.83 15.37
-10 -15 2 9.76 7.76
25 -10 2 7 12.14
25 -10 2 -0.71 10.77
25 -10 2 12.08 6.06
-10 -15 5 51.97 9.31
25 -10 5 46.26 9.53
25 -10 5 47.76 9.11
25 -10 5 47.06 7.71
25 -10 5 45.69 9.42
25 -10 8 44.42 5.89
25 -10 8 53.28 7.55
25 -9 -8 -1.84 5.64
-9 -16 -8 7.95 4.69
-9 -16 -8 -1.13 5.79
25 -9 -5 5.45 8.16
-9 -16 -5 1.89 8.32
-9 -16 -5 2.03 6.89
-9 -16 -2 31.23 9.1
25 -9 -2 32.73 15.72
-9 -16 -2 24.76 17.67
25 -9 -2 37.08 8.98
-9 -16 1 27.57 9.1
-9 -16 1 16.08 18.49
25 -9 1 50.96 13.52
25 -9 1 39.49 11.94
25 -9 1 38.18 17.71
25 -9 1 42.48 7.53
-9 -16 4 8.13 8.04
-9 -16 4 -4.01 17.43
25 -9 4 8.85 10.46
25 -9 4 10.55 7.87
25 -9 4 21.23 6.47
25 -9 7 12.14 7.31
25 -9 7 2.36 5.49
25 -9 7 12.38 6.95
25 -9 7 7.82 5.01
25 -8 -9 36.81 4.98
-8 -17 -6 49.18 10.33
-8 -17 -6 34.64 9.04
25 -8 -3 21.92 14.29
25 -8 -3 3.11 8.12
-8 -17 -3 1.37 8.1
-8 -17 0 47.29 9.2
-8 -17 0 17.01 19.5
25 -8 0 38.12 12.39
25 -8 0 51.12 17.89
25 -8 3 105.07 11.99
25 -8 3 91.71 13.31
25 -8 3 98.11 10.64
25 -8 6 9.67 8.39
25 -8 6 24.79 5.99
25 -8 6 27.43 8.29
-8 -17 9 7.71 4.47
25 -8 9 3.87 3.29
25 -8 9 4.97 4.31
25 -7 -7 30.43 6.98
-7 -18 -7 22.03 7.15
-7 -18 -7 30.21 7.99
25 -7 -4 67.57 16.44
25 -7 -4 98.45 11.05
-7 -18 -4 80.43 11.51
-7 -18 -1 64 9.95
25 -7 -1 51.19 9.48
25 -7 -1 60.9 11.61
-7 -18 -1 72.93 10.43
25 -7 -1 49.17 16.8
-7 -18 2 -9.74 17.59
25 -7 2 13.74 9.72
25 -7 2 5.79 10.4
25 -7 2 1.14 5.7
25 -7 5 41.43 9.3
25 -7 5 24.86 8.54
25 -7 5 34.81 6.87
25 -7 5 40.87 8.55
-7 -18 8 32.66 6.61
25 -7 8 38.17 5.57
25 -7 8 38.86 6.41
25 -6 -8 20.36 5.46
-6 -19 -8 14.98 6.3
25 -6 -5 12.14 7.9
-6 -19 -5 14.48 7.82
25 -6 -2 64.51 15.94
25 -6 -2 53.29 9.68
-6 -19 -2 67.87 10.54
-6 -19 -2 78.88 10.71
-6 -19 1 68.52 21.25
25 -6 1 92.32 12.8
25 -6 1 90.37 12.95
-6 -19 4 41.19 8.41
25 -6 4 29.07 10.6
25 -6 4 27.48 6.57
-6 -19 7 1.2 6.67
25 -6 7 0.34 6.79
25 -6 7 0.31 6.24
25 -6 7 0.54 4.36
25 -5 -6 47.37 8.06
-5 -20 -6 49.47 9.71
-5 -20 -6 34.2 8.37
25 -5 -3 18.11 12.95
25 -5 -3 1.75 7.42
-5 -20 -3 3.68 8.26
-5 -20 -3 10.61 7.85
-5 -20 -3 0.46 8.05
25 -5 0 85.7 12.68
25 -5 0 83.92 12.89
-5 -20 0 91.46 11.4
25 -5 0 89.4 17.18
-5 -20 3 169.4 15.37
25 -5 3 163.88 16.06
25 -5 3 135.36 13.85
-5 -20 6 54.78 8.58
25 -5 6 53.36 8.3
25 -5 6 32.07 6.59
25 -5 9 6.68 3.29
25 -4 -7 16.82 6.05
-4 -21 -7 27.74 7.06
-4 -21 -7 28.68 7.42
25 -4 -4 47.11 8.38
-4 -21 -4 37.3 9.32
-4 -21 -4 39.66 8.95
-4 -21 -1 16.12 8.29
25 -4 -1 6.27 13.07
-4 -21 2 17.75 7.7
-4 -21 2 5.05 7.39
25 -4 2 13.14 9.82
25 -4 2 16.11 7.83
25 -4 2 -1.25 9.54
25 -4 2 5.48 5.61
-4 -21 5 14.05 8.47
25 -4 5 13.57 8.79
25 -4 5 17.55 7.63
25 -4 5 4.56 5.14
-4 -21 8 11.08 5.95
25 -4 8 12.02 5.54
25 -4 8 17.56 5.36
25 -3 -8 17.99 4.83
-3 -22 -8 12.16 5.57
-3 -22 -8 19.43 6.04
25 -3 -5 13.35 7.36
-3 -22 -5 18.58 8.69
-3 -22 -5 1.99 7.55
25 -3 -2 23.78 7.34
-3 -22 -2 32.79 8.69
25 -3 -2 13.39 12.32
-3 -22 1 97.11 11.18
25 -3 1 82.75 12.42
25 -3 1 86.77 11.98
-3 -22 1 77.55 10.62
-3 -22 4 66.77 8.96
25 -3 4 62.13 9.43
25 -3 4 41.44 8.4
25 -3 4 32.85 6.75
-3 -22 7 13.1 5.71
25 -3 7 11.39 6.58
25 -3 7 11.15 5.39
25 -3 7 0.63 3.72
25 -2 -6 74.51 8.14
-2 -23 -6 52.71 9.73
-2 -23 -6 73.37 9.91
-2 -23 -3 7.63 7.7
25 -2 -3 8.86 6.79
-2 -23 0 82.37 10.89
25 -2 0 64.33 11.48
-2 -23 0 88.86 10.51
-2 -23 3 158.38 14.14
25 -2 3 150.99 14.53
25 -2 3 129.13 14.57
-2 -23 3 134.53 12.9
25 -2 3 113.39 12.51
-2 -23 3 166.78 14.24
-2 -23 6 66.9 7.96
25 -2 6 67.99 8.77
25 -2 6 70.42 7.73
-1 -24 -7 12.53 5.87
-1 -24 -7 5.2 5.85
25 -1 -4 11.57 6.35
-1 -24 -4 14.04 8.81
-1 -24 -4 6.13 8.15
25 -1 -1 6.16 9.87
25 -1 -1 9.51 9.05
-1 -24 -1 11.26 7.46
-1 -24 -1 14.88 8.13
-1 -24 2 52.34 8.62
25 -1 2 47.24 8.86
25 -1 2 33.53 9.31
-1 -24 2 32.19 6.96
-1 -24 5 29.35 6.94
-1 -24 5 36.68 7.24
25 -1 5 10.38 7.78
25 -1 5 30.19 6.82
25 -1 5 18.87 5.22
25 0 -8 15.02 4.86
0 -25 -8 13.79 4.07
0 -25 -5 19.98 7.32
0 -25 -5 20.19 7.03
0 -25 -2 1.14 7.05
0 -25 -2 -5.72 7.6
0 -25 1 21.86 7.83
25 0 1 36.62 8.25
0 -25 1 28.48 6.62
0 -25 4 31.18 7.36
0 -25 4 29.94 7.83
25 0 4 27.11 8.14
25 0 4 26.92 6.67
25 1 -6 73.62 9.82
1 -26 -6 66.34 9.21
1 -26 -6 72.03 8.67
25 1 -3 19.53 10.74
1 -26 -3 4.56 6.77
1 -26 -3 4.96 7.98
25 1 0 71.21 11.79
1 -26 0 63.91 8.41
1 -26 0 43.04 8.87
1 -26 0 83.43 9.98
25 1 3 134.47 14.57
1 -26 3 149.89 13.85
25 1 6 59.52 8.39
25 2 -7 10.01 6.61
2 -27 -7 2.96 4.97
25 2 -4 8.4 8.88
2 -27 -4 0.85 6.97
2 -27 -4 3.01 6.13
25 2 -1 26.01 10.29
2 -27 -1 17.97 7.28
2 -27 -1 27.45 7.65
25 2 2 23.54 7.75
2 -27 2 11.9 5.61
2 -27 2 20.03 7.13
25 2 5 19.24 6.85
25 3 -5 24.86 8.11
3 -28 -5 24.62 6.87
3 -28 -5 18.05 5.77
25 3 -2 4.45 9.75
3 -28 -2 2.26 6.98
25 3 1 10.7 7.58
3 -28 1 6.94 5.98
3 -28 1 10.72 6.9
25 3 4 25.01 7.25
25 3 7 12.09 3.92
25 4 -6 42.12 7.79
4 -29 -6 34.76 6.85
25 4 -3 21.04 8.76
4 -29 -3 9.52 6.27
4 -29 -3 2.86 6.04
25 4 0 34 7.97
4 -29 0 28.72 8.33
25 4 0 33.43 9.83
4 -29 0 20.87 7.08
25 4 3 72.51 8.98
25 4 6 29.41 6.45
4 -29 6 24.19 7.06
25 5 -4 19.48 7.38
5 -30 -4 12.17 5.9
25 5 -1 50.04 7.55
5 -30 -1 48.46 8.1
25 5 -1 57.69 10.01
5 -30 -1 41.14 7.43
25 5 2 30.48 6.74
5 -30 2 43.21 8.24
25 5 5 10.66 5.46
5 -30 5 12.15 6.37
25 6 -5 14.36 6.86
6 -31 -5 18.66 5.86
25 6 -2 11.88 5.26
25 6 -2 16.76 8.2
6 -31 -2 0.78 5.18
6 -31 -2 3.03 5.19
25 6 1 16.53 5.84
6 -31 1 2.75 6.73
25 6 4 7.12 5.62
25 7 -3 8.99 6.75
25 7 0 -0.62 4.81
7 -32 0 2.4 6.11
25 7 3 24.5 6.02
7 -32 3 23.37 7.01
8 -33 -1 56.45 7.41
25 8 2 35.44 6.4
8 -33 2 40.59 7.43
8 -33 5 3.49 4.42
9 -34 1 11.88 6.08
10 -35 3 4.56 4.82
11 -36 2 33.45 5.6
26 -25 0 52.74 9.14
26 -24 -4 7.29 5.87
26 -24 -1 25.1 9.26
26 -24 2 62.12 10.51
26 -23 -5 6.93 5.87
-23 -3 -2 15.88 7.75
26 -23 1 56.67 10.73
26 -23 4 40.83 7.97
26 -23 4 26.69 5.44
26 -22 -6 31.13 5.63
26 -22 -6 33.1 6.21
26 -22 -3 77.25 9.36
-22 -4 -3 63.27 9.96
-22 -4 0 28.68 16.32
26 -22 0 38.63 10.47
26 -22 3 11.77 9.58
26 -22 3 2.2 4.84
-22 -4 6 23.15 5.71
26 -22 6 19 6.43
26 -22 6 13.79 4.45
26 -21 -7 17.39 4.72
26 -21 -7 29.31 5.5
26 -21 -4 7.45 7.11
-21 -5 -4 8.44 7.3
-21 -5 -1 57.9 17.2
26 -21 -1 67.42 15.42
-21 -5 2 136.85 24.72
26 -21 2 161.51 16.38
-21 -5 5 47.95 7.96
26 -21 5 57.38 8.91
26 -21 5 35.55 6.34
-21 -5 8 3.07 4.26
26 -20 -8 15.69 4.98
26 -20 -5 23.06 7.97
-20 -6 -2 7.81 13.31
26 -20 -2 15.06 7.42
-20 -6 -2 12.12 8.03
26 -20 -2 3.96 12.92
-20 -6 1 9.09 16.5
26 -20 1 4.11 10.17
-20 -6 4 23.98 6.89
26 -20 4 14.92 5.49
26 -20 4 21.24 7.9
-20 -6 7 16.99 5.56
26 -20 7 8.24 5.81
26 -20 7 0.45 3.88
26 -19 -6 38.68 7.44
-19 -7 -6 36.6 7.59
26 -19 -3 35.79 14.53
26 -19 -3 62.41 9.28
-19 -7 -3 43.29 9.75
-19 -7 0 -6.19 7.09
-19 -7 0 10.48 15.86
26 -19 0 10.2 10.74
26 -19 0 4.1 13.18
-19 -7 3 30.93 8.09
-19 -7 3 27.21 17.05
26 -19 3 35.44 11.2
26 -19 3 42.17 6.84
-19 -7 6 28.91 6.87
26 -19 6 16.94 5.39
26 -18 -7 63.36 7.94
26 -18 -4 54.38 9.05
-18 -8 -4 32.12 9.27
-18 -8 -1 8.81 7.21
-18 -8 -1 13.12 15.05
26 -18 -1 20.47 8.28
26 -18 -1 11.04 13.9
-18 -8 2 114.64 12.99
-18 -8 2 133.5 23.11
26 -18 2 113.6 12.45
26 -18 2 146.26 15.4
26 -18 2 157.83 12.86
-18 -8 5 104.68 11.98
26 -18 5 120.31 13.03
26 -18 5 105.74 10.84
-18 -8 8 15.58 5.99
26 -18 8 15.85 6.32
26 -17 -8 28.69 6.09
26 -17 -5 28.82 8.77
-17 -9 -5 40.4 9.08
-17 -9 -2 7.11 7.24
26 -17 -2 -2.77 13.99
-17 -9 -2 -2.99 13.56
-17 -9 -2 11.47 8.63
26 -17 -2 5.34 8.1
-17 -9 1 7.84 7.29
-17 -9 1 3.54 16.51
26 -17 1 2.91 10.85
-17 -9 4 9.91 7.5
26 -17 4 24.66 10.79
26 -17 4 10.06 5.65
-17 -9 7 9.07 6.43
26 -17 7 10.12 6.67
26 -17 7 8 4.56
26 -16 -9 15.62 3.78
26 -16 -6 25.86 7.77
-16 -10 -6 10.76 7.63
26 -16 -3 6.97 13.6
26 -16 -3 16.13 8.33
-16 -10 -3 14.46 8.7
-16 -10 -3 10.22 7.08
-16 -10 0 15.9 7.93
-16 -10 0 11.75 15.12
26 -16 0 8.49 14.68
-16 -10 3 48.94 8.66
26 -16 3 31.5 7.43
-16 -10 3 20.67 17.13
26 -16 3 56.44 11.63
26 -16 3 39.22 7.85
26 -16 3 37.06 7.13
-16 -10 6 18.95 7.45
26 -16 6 19.67 5.58
26 -16 6 24.04 8.18
-16 -10 9 5.99 4.08
26 -16 9 4.85 4.2
-15 -11 -7 80.76 9.55
26 -15 -4 40.26 14.67
-15 -11 -4 56.2 10.16
-15 -11 -4 31.13 8.22
-15 -11 -1 20.9 8.06
-15 -11 -1 15.97 15.91
26 -15 -1 43.54 10.7
26 -15 -1 11.3 14.68
-15 -11 2 206.84 18.26
26 -15 2 199.59 18.06
-15 -11 5 171.56 14.95
26 -15 5 128.78 14.04
26 -15 5 151.35 13.77
-15 -11 8 16.35 6.17
26 -15 8 20.83 6.56
26 -15 8 9.49 4.05
-14 -12 -8 9.63 4.74
-14 -12 -5 9.88 8.51
-14 -12 -5 21.94 7.08
-14 -12 -2 11.58 7.99
-14 -12 -2 5.99 13.78
-14 -12 -2 1.88 8.33
-14 -12 1 31.22 8.31
-14 -12 1 30.59 17.8
-14 -12 4 52.32 9.29
26 -14 4 45.57 8.81
-14 -12 4 41.36 17.42
26 -14 4 48.99 8.8
-14 -12 7 10.69 6.62
26 -13 -6 3.53 7.78
-13 -13 -6 12.15 8.22
-13 -13 -6 10.33 6.24
-13 -13 -3 21.11 8.92
-13 -13 -3 10.14 7.57
-13 -13 0 51.51 9.46
-13 -13 0 51.49 18.89
26 -13 0 49.84 12.41
-13 -13 3 56.71 9.59
-13 -13 3 34.66 17.46
26 -13 3 61.77 9.48
-13 -13 6 17.31 7.62
26 -13 6 20.35 7.74
26 -13 6 10.99 5.53
-13 -13 9 4.99 4.18
26 -12 -7 78.07 9.4
-12 -14 -7 72.1 9.73
26 -12 -4 56.07 15.59
26 -12 -4 47.2 9.61
-12 -14 -4 65.9 10.46
-12 -14 -4 29.81 8.45
-12 -14 -1 2.55 7.57
-12 -14 -1 8.08 15.55
26 -12 -1 11.45 8.15
26 -12 -1 15.25 9.72
26 -12 -1 2.82 14.04
-12 -14 2 123.89 13.26
26 -12 2 124.18 13.11
26 -12 2 109.38 13.49
26 -12 2 123.63 14.94
26 -12 2 129.16 12.48
-12 -14 5 124.63 12.51
26 -12 5 118.84 12.22
26 -12 5 83.78 10.63
26 -12 5 105.22 12.52
-12 -14 8 9.86 6.1
26 -12 8 1.77 3.82
26 -11 -8 14.35 5.97
-11 -15 -8 14.55 5.63
26 -11 -5 23.85 8.75
-11 -15 -5 14.33 7.39
-11 -15 -2 18.89 8.16
26 -11 -2 8.43 13.58
-11 -15 -2 11.93 13.67
26 -11 -2 21.06 8.63
-11 -15 -2 23.52 8.89
-11 -15 1 -0.4 7.23
-11 -15 1 14.61 16.42
26 -11 1 4.28 9.53
26 -11 1 10.6 11.11
-11 -15 4 16.18 7.96
26 -11 4 13.78 8.34
-11 -15 4 3.93 15.75
26 -11 4 30.91 11.2
26 -11 4 13.46 8.01
26 -11 4 20.44 6.21
-11 -15 7 17.17 6.91
26 -11 7 7.66 5.03
26 -11 7 15.28 6.93
26 -11 7 8.54 4.77
26 -10 -9 8.87 3.8
26 -10 -6 19.68 7.66
-10 -16 -6 11.02 8.42
-10 -16 -6 10.61 6.61
26 -10 -3 61.53 16.62
26 -10 -3 70.31 10.21
-10 -16 -3 65.02 10.91
-10 -16 -3 42.17 9.81
-10 -16 0 71.31 20.32
26 -10 0 117.16 13.4
-10 -16 0 111.31 12.5
26 -10 0 100.82 19.07
-10 -16 3 32.77 8.28
-10 -16 3 21.8 17.35
26 -10 3 20.89 8.36
26 -10 3 44 11.28
26 -10 3 34.11 6.87
26 -10 6 4.11 7.4
26 -10 6 -0.33 5.15
26 -10 6 0.39 7.15
26 -10 9 5.57 4.2
26 -9 -7 45.33 7.57
-9 -17 -7 47.41 7.59
-9 -17 -7 46.06 8.33
26 -9 -4 43.53 9.27
-9 -17 -4 49.14 9.98
-9 -17 -4 37.45 8.86
-9 -17 -1 -0.89 7.8
-9 -17 -1 -14.73 14.93
26 -9 -1 15.85 8.25
26 -9 -1 9.45 9.56
-9 -17 -1 15.5 8.36
26 -9 -1 -5.54 13.87
-9 -17 2 68.74 10.52
-9 -17 2 68.3 20.57
26 -9 2 78.78 11.64
26 -9 2 60.93 10.43
26 -9 2 64.49 12.33
26 -9 2 80.34 9.56
26 -9 5 63.05 10.47
26 -9 5 53.1 9.7
26 -9 5 54.73 7.98
26 -9 5 65.79 10.29
26 -9 8 11.1 4.6
26 -9 8 6.57 6.14
26 -8 -8 14.56 5.93
-8 -18 -8 7.26 4.36
26 -8 -5 54.97 9.47
-8 -18 -5 44.18 8.96
26 -8 -2 43.78 15.64
-8 -18 -2 72.26 16.92
26 -8 -2 51.76 9.55
-8 -18 -2 58.6 10.41
-8 -18 -2 58.18 10
-8 -18 1 23.67 8.06
-8 -18 1 3.78 15.86
26 -8 1 19.79 9.78
26 -8 1 10.58 10.65
26 -8 4 26.87 10.61
26 -8 4 18.87 8.13
26 -8 4 2.97 5.79
-8 -18 7 6.47 6.54
26 -8 7 -1.56 6.43
26 -8 7 13.47 5.25
26 -8 7 10.45 6.26
26 -8 7 1.05 4.39
26 -7 -6 3.41 6.83
-7 -19 -6 6.32 8.06
-7 -19 -6 6.34 6.47
26 -7 -3 61.46 15.79
26 -7 -3 67.83 9.86
-7 -19 -3 61.88 10.53
-7 -19 0 145.57 24.59
26 -7 0 145.51 16.3
26 -7 0 163.16 16.64
-7 -19 0 157.23 15.74
26 -7 0 149.12 21.66
-7 -19 0 166.21 15.76
26 -7 3 61.58 11.26
26 -7 3 32.74 7.24
-7 -19 6 10.2 6.67
26 -7 6 -0.37 7.12
26 -7 6 2.1 6.69
26 -7 6 2.45 4.91
26 -6 -7 10.74 5.85
-6 -20 -7 14.79 6.43
-6 -20 -7 12.11 6.71
26 -6 -4 4.26 7.35
-6 -20 -4 11.27 7.56
-6 -20 -1 12.23 8.33
26 -6 -1 17.06 9.82
26 -6 -1 24.09 8
-6 -20 -1 34.78 8.56
26 -6 -1 13.18 13.68
-6 -20 2 36.87 8.82
26 -6 2 61.85 10.66
26 -6 2 53.89 10.99
26 -6 2 38.06 7.32
-6 -20 5 40.27 8.5
26 -6 5 27.67 9.4
26 -6 5 37.84 8.58
26 -6 5 16.93 6.03
-6 -20 8 3.75 5.87
26 -6 8 5.23 5.01
26 -6 8 6.11 5.84
26 -5 -8 5.01 4.62
-5 -21 -8 10.39 4.92
-5 -21 -8 4.94 5.32
26 -5 -5 37.76 8.3
-5 -21 -5 30.66 8.66
26 -5 -2 51.86 9.13
-5 -21 -2 49.2 9.8
-5 -21 -2 56.86 10
26 -5 -2 46.24 14.54
-5 -21 1 13.52 7.98
26 -5 1 16.26 9.91
26 -5 1 32.82 10.29
-5 -21 1 17.4 7.72
-5 -21 4 -2.64 7.24
26 -5 4 -3.03 7.24
26 -5 4 -4.14 5.24
-5 -21 7 13.24 5.85
26 -5 7 11.95 5.69
26 -5 7 6.09 3.95
26 -4 -6 8.22 5.89
-4 -22 -6 21.71 7.42
-4 -22 -6 3.23 6.13
26 -4 -3 118.84 11.88
-4 -22 -3 102.97 12.79
-4 -22 -3 107.79 12.84
26 -4 0 173.98 17.84
26 -4 0 171.94 17.69
-4 -22 0 191.93 17.04
-4 -22 0 185.92 17.24
-4 -22 3 59.02 9.33
-4 -22 3 57.74 9.39
26 -4 3 52.08 9.41
26 -4 3 56.33 10.61
26 -4 3 46.82 7.41
-4 -22 6 6.94 6.12
-4 -22 6 2.34 6.31
26 -4 6 0.86 6.01
26 -4 6 4.36 4.44
26 -3 -7 8.04 4.47
-3 -23 -7 8.91 5.88
26 -3 -4 4.33 6.73
-3 -23 -4 -1.31 8.79
-3 -23 -4 5.63 8.14
26 -3 -1 42.73 10.13
-3 -23 -1 25.46 8.19
-3 -23 2 42.68 8.95
26 -3 2 42.73 9.07
26 -3 2 53.48 10.88
26 -3 2 32.99 10.08
-3 -23 2 52.44 8.29
-3 -23 5 10.12 6.78
-3 -23 5 14.69 6.86
26 -3 5 16.7 6.58
26 -3 5 6.18 4.72
26 -3 8 3.17 3.58
26 -2 -8 12.63 5.15
-2 -24 -8 2.12 3.47
26 -2 -5 8.73 5.68
-2 -24 -5 14.61 7.09
-2 -24 -5 12.97 6.79
26 -2 -2 57.75 11.26
-2 -24 -2 62.37 9.29
-2 -24 -2 46.69 9.55
-2 -24 1 50.33 8.97
26 -2 1 41.98 9.77
-2 -24 1 37.7 8.04
-2 -24 4 22.67 7.47
-2 -24 4 13.27 7.45
26 -2 4 -3.03 7.52
26 -2 4 8.56 6.89
26 -2 4 7.54 4.84
26 -2 7 1.82 4.25
-1 -25 -6 1.05 6.41
-1 -25 -6 0.6 5.91
26 -1 -3 125.27 14.69
-1 -25 -3 112.12 12.91
26 -1 0 265.74 22.28
-1 -25 0 259.11 22.06
-1 -25 0 274.93 22.71
26 -1 3 102.35 12.12
26 -1 3 91.66 10.63
-1 -25 3 113.58 11.65
-1 -25 6 1.95 5.14
26 -1 6 -1.17 6.16
26 0 -7 14.29 6.53
0 -26 -7 2.55 4.92
0 -26 -7 2.38 4.87
26 0 -4 20.54 9.21
0 -26 -4 16.23 7
26 0 -1 38.81 10.62
0 -26 -1 18.86 7.15
0 -26 -1 15.46 7
0 -26 -1 16.74 7.62
0 -26 -1 16.23 7.9
0 -26 2 13.34 7.21
26 0 2 -9.08 7.62
26 0 5 6.88 6.79
26 1 -5 1.68 8.11
1 -27 -5 8.78 6.7
1 -27 -5 11.02 5.84
26 1 -2 44.97 10.64
1 -27 -2 18.49 6.83
1 -27 -2 29.29 8.24
26 1 1 34.65 8.55
26 1 1 30.15 11.15
1 -27 1 36.31 7.42
1 -27 1 37.1 8.28
26 1 4 24.45 7.53
26 1 4 0.32 6.49
1 -27 7 -1.84 4.38
26 2 -6 1.6 7.51
2 -28 -6 7.84 5.24
26 2 -3 71.65 10.53
2 -28 -3 67.76 8.24
2 -28 -3 48.17 8.66
26 2 0 149.12 14.12
26 2 0 162.22 15.45
2 -28 0 147.24 14.72
2 -28 0 112.08 13.73
2 -28 0 148.92 14.22
26 2 3 48.59 7.99
26 2 6 5.96 6.36
3 -29 -7 2.36 3.02
26 3 -4 31.62 8.59
3 -29 -4 26.84 6.79
26 3 -1 34.14 9.76
3 -29 -1 18.49 6.97
3 -29 -1 20.28 6.79
26 3 2 9.56 6.19
3 -29 2 1.99 5.84
26 3 5 13.61 5.92
26 4 -5 27.66 7.23
4 -30 -5 -6.76 5.63
26 4 -2 14.54 8.36
4 -30 -2 10.44 5.86
4 -30 -2 17.45 5.87
26 4 1 22.24 6.48
4 -30 1 26.76 7.64
26 4 4 18.97 6.31
5 -31 -6 8.74 3.73
26 5 -3 32.38 7.83
5 -31 -3 26.5 5.83
26 5 0 77.05 8.29
5 -31 0 52.07 8.77
26 5 3 27.94 6.78
5 -31 3 41.78 7.66
5 -31 6 3.34 3.9
26 6 -4 46.67 7.8
6 -32 -4 35.8 5.87
26 6 -1 20.79 5.48
6 -32 -1 39.88 6.34
6 -32 2 4.83 6.36
26 6 5 14.37 4.04
6 -32 5 10.95 5.14
7 -33 1 14.18 6.13
26 7 4 -0.67 4.36
8 -34 0 25.37 5.94
26 8 3 16.65 4.95
8 -34 3 13.3 5.88
9 -35 2 6.56 5.17
27 -25 -2 23.95 8.2
27 -25 1 23.2 8.41
27 -24 0 38.45 9.88
27 -24 3 99.07 10.89
27 -23 -4 43.09 7.76
27 -23 -1 99.69 12.81
27 -23 2 43.53 10.2
27 -23 5 -8.53 6.15
27 -23 5 3.44 4.14
27 -22 -5 -1.07 5.74
27 -22 -2 33.46 7.82
-22 -5 -2 26.98 8.55
27 -22 1 44.57 10.77
27 -22 4 22.94 7.77
27 -22 4 15.69 5.03
-22 -5 7 6.05 4.1
27 -21 -6 27.01 6.26
-21 -6 -3 -4.03 7.49
27 -21 -3 7.98 7.15
-21 -6 0 44.31 17.99
27 -21 0 59.9 11.68
-21 -6 3 34.06 7.69
27 -21 3 63.73 11.07
27 -21 3 56.46 7.22
-21 -6 6 10.35 5.73
27 -21 6 0.25 4.14
27 -20 -7 4.91 4.96
27 -20 -4 66.95 9.36
-20 -7 -4 54.74 9.63
-20 -7 -1 103.76 20.96
27 -20 -1 155.41 20.52
-20 -7 2 71.84 9.72
-20 -7 2 80.01 19.65
27 -20 2 89.07 12.51
-20 -7 5 14.35 6.8
27 -20 5 6.99 7.2
27 -20 5 13.91 5.12
-20 -7 8 5.01 3.86
27 -20 8 8.56 4.27
27 -19 -8 6.36 4.18
27 -19 -5 7.73 7.17
-19 -8 -2 -1.52 13.31
27 -19 -2 12.75 8.04
-19 -8 -2 10.31 8.35
27 -19 -2 24.49 14.21
-19 -8 1 32.58 17.73
27 -19 1 35.19 11.06
-19 -8 4 17.65 7.36
27 -19 4 24.09 5.98
-19 -8 7 0.88 5.55
27 -19 7 4.89 5.84
27 -19 7 1.56 3.78
27 -18 -6 20.55 6.83
-18 -9 -6 6.41 6.51
27 -18 -3 11.87 7.83
-18 -9 -3 10.37 8.26
-18 -9 0 54.17 9.48
-18 -9 0 81.6 19.38
27 -18 0 88.09 12.62
27 -18 0 74.72 17.2
-18 -9 3 82.32 9.75
27 -18 3 49.92 8.15
27 -18 3 80.66 12.28
27 -18 3 67.8 8.64
-18 -9 6 2.35 6.44
27 -18 6 9.18 7.03
27 -18 6 7.81 4.81
27 -17 -7 6.12 5.68
-17 -10 -7 10.56 5.33
27 -17 -4 48.22 8.94
-17 -10 -4 49.49 9.59
-17 -10 -4 26.23 7.34
-17 -10 -1 166.79 24.83
27 -17 -1 192.83 17.53
-17 -10 -1 186.65 17.26
27 -17 -1 225.25 25.5
-17 -10 2 170.67 16.01
27 -17 2 141.82 15.28
27 -17 2 196.8 17.92
27 -17 2 191.63 15.61
-17 -10 5 19.97 7.98
27 -17 5 6.36 5.43
27 -17 5 9.78 8.13
-17 -10 8 12.47 5.91
27 -17 8 18.3 6.29
27 -16 -8 14.69 5.48
27 -16 -5 1.68 8.05
-16 -11 -5 3.31 8.87
27 -16 -2 56.55 15.83
-16 -11 -2 41.33 15.68
27 -16 -2 67.79 9.87
-16 -11 -2 50.25 10.29
-16 -11 -2 45.23 9.16
-16 -11 1 76.03 10.3
-16 -11 1 51.43 18.51
27 -16 1 67.89 12.59
-16 -11 4 26.5 7.99
27 -16 4 11.49 6.35
27 -16 4 13.46 6.59
27 -16 4 29.89 11.08
27 -16 4 7.24 5.78
-16 -11 7 6.36 5.89
27 -16 7 2.47 6.44
27 -16 7 -4.06 4.22
-15 -12 -6 28.55 7.96
27 -15 -3 57.48 15.62
-15 -12 -3 47.9 9.78
-15 -12 -3 32.31 8.49
-15 -12 0 60.89 9.57
-15 -12 0 37.02 18.05
27 -15 0 47.43 9.52
-15 -12 3 10.43 7.47
27 -15 3 5.25 6.94
-15 -12 3 9.59 16.5
27 -15 3 19.12 7.3
-15 -12 6 2.64 6.69
-15 -12 9 4.17 3.03
-14 -13 -7 5.99 4.92
-14 -13 -7 12.76 6.29
-14 -13 -4 36.89 9.49
-14 -13 -4 25.59 7.66
-14 -13 -1 127.63 23.09
27 -14 -1 148.54 15.22
-14 -13 -1 162.5 15.34
-14 -13 2 112.42 12.74
27 -14 2 113.51 12.5
-14 -13 5 4.83 8.21
27 -14 5 5.84 7.13
-14 -13 8 5.76 6.16
27 -13 -8 8.61 5.82
-13 -14 -8 9.44 5.39
27 -13 -5 -2.01 8.49
-13 -14 -5 -0.88 9.11
-13 -14 -5 12.14 6.84
27 -13 -2 27.11 15.26
-13 -14 -2 12.15 13.65
27 -13 -2 27 8.88
-13 -14 -2 23.81 9.18
-13 -14 -2 32.34 8.4
-13 -14 1 56.97 10.02
-13 -14 1 29.74 18.02
27 -13 1 62.54 10.23
27 -13 1 74.22 12.64
-13 -14 4 13.37 7.85
27 -13 4 33.53 8.13
27 -13 4 22.17 11.1
27 -13 4 27.57 7.86
27 -13 4 26.39 6.53
-13 -14 7 2.27 6.37
27 -13 7 4.11 6.35
27 -13 7 -0.79 4.31
27 -12 -9 7.16 2.73
27 -12 -6 17.4 7.35
-12 -15 -6 16.88 8.07
-12 -15 -6 9.5 5.82
27 -12 -3 23.88 14.55
27 -12 -3 40.3 9.37
-12 -15 -3 30.36 9.82
-12 -15 -3 37.81 9.06
-12 -15 0 20.05 8.36
-12 -15 0 21.31 16.77
27 -12 0 24.54 9.72
27 -12 0 18.87 11.02
27 -12 0 4.32 14.42
-12 -15 3 6.42 7.62
-12 -15 3 -1.97 17.01
27 -12 3 9.66 7.35
27 -12 3 13.39 10.71
27 -12 3 15.32 6.44
-12 -15 6 30.11 7.42
27 -12 6 25.77 7.38
27 -12 6 23.16 7.58
27 -12 6 10.39 5.44
27 -11 -7 6.27 6.08
-11 -16 -7 6.94 5.51
-11 -16 -7 10.29 6.45
27 -11 -4 27.68 8.5
-11 -16 -4 22.13 9.05
-11 -16 -4 17.97 7.81
-11 -16 -1 99.81 20.48
27 -11 -1 112.35 12.7
27 -11 -1 118.98 13.58
-11 -16 -1 121.05 13.23
27 -11 -1 108.15 19.55
-11 -16 2 105.85 12.55
27 -11 2 105.86 12.14
27 -11 2 109.48 12.68
27 -11 2 121.03 14.34
27 -11 2 102.45 11.43
-11 -16 5 13.23 8.33
27 -11 5 11.06 8.44
27 -11 5 17.11 5.93
27 -11 5 13.52 8.23
27 -11 8 11.48 6.22
27 -10 -8 9.15 5.55
-10 -17 -8 24.17 6.05
27 -10 -5 25.38 8.35
-10 -17 -5 0.47 7.41
27 -10 -2 18.21 14.09
-10 -17 -2 19.84 13.39
27 -10 -2 6.6 8.11
-10 -17 -2 0.45 7.94
-10 -17 1 27.46 8.49
-10 -17 1 26.76 8.49
-10 -17 1 15.13 15.87
27 -10 1 37.4 11.15
27 -10 1 35.81 9.87
-10 -17 4 22.97 8
27 -10 4 15.32 8.07
27 -10 4 16.96 7.7
27 -10 4 19.61 10.55
27 -10 4 12.17 6.24
27 -10 7 -0.44 4.52
27 -10 7 10.38 6.32
27 -10 7 5.02 4.29
27 -9 -6 61.14 8.45
-9 -18 -6 60.16 9.47
-9 -18 -6 38.81 7.82
27 -9 -3 113.76 12.25
-9 -18 -3 102.39 12.76
-9 -18 0 45.1 9.32
-9 -18 0 14.45 16.15
27 -9 0 61.33 10.54
27 -9 0 43.75 11.47
27 -9 0 23.67 14.55
27 -9 3 6.69 7.84
27 -9 3 6.56 10.24
27 -9 3 4.93 5.78
27 -9 6 46.31 8.29
27 -9 6 43.32 8.03
27 -9 6 31.68 6.15
27 -8 -7 6.33 5.73
-8 -19 -7 3.37 5.66
-8 -19 -7 5.24 6.55
27 -8 -4 26.15 8.17
-8 -19 -4 4.7 7.78
-8 -19 -1 46.38 9.68
-8 -19 -1 49.86 17.12
27 -8 -1 46.54 9.05
27 -8 -1 47.43 10.88
-8 -19 -1 58.13 9.78
27 -8 -1 52.1 15.84
-8 -19 2 56.96 19.13
27 -8 2 41.59 10.51
27 -8 2 48.23 9.34
27 -8 2 46.98 11.44
27 -8 2 33.3 7.41
27 -8 5 13.72 7.98
27 -8 5 0.75 7.21
27 -8 5 -2.32 5.28
-8 -19 8 7.23 5
27 -8 8 9.83 4.04
27 -8 8 15.89 5.24
-7 -20 -8 10.51 3.96
-7 -20 -8 14.8 4.88
27 -7 -5 38.64 8.06
-7 -20 -5 23.34 7.64
27 -7 -2 1.48 7.44
27 -7 -2 -3.51 9.51
-7 -20 -2 2.29 8.12
-7 -20 -2 -8.23 7.77
27 -7 -2 -11.99 13.03
27 -7 1 21.24 10.14
27 -7 1 28.87 10.7
-7 -20 4 33.85 8.98
27 -7 4 24.9 9.14
27 -7 4 19.24 6.11
-7 -20 7 26.75 6.42
27 -7 7 6.07 4.84
27 -7 7 21.85 5.94
27 -7 7 10.44 4.05
27 -6 -6 64.61 8.15
-6 -21 -6 57.35 8.41
27 -6 -3 128.06 12.67
-6 -21 -3 136.88 13.8
-6 -21 -3 99.79 13.49
27 -6 0 47.45 11.09
27 -6 0 35.02 10.78
-6 -21 0 33.6 8.79
-6 -21 3 20.14 7.79
-6 -21 3 22.85 7.8
27 -6 3 29.18 10.08
27 -6 3 8.6 5.86
-6 -21 6 79.61 8.57
27 -6 6 54.05 8.6
27 -6 6 66.34 8
27 -5 -7 -0.27 4.73
-5 -22 -7 3.36 5.59
-5 -22 -7 2.15 6.32
27 -5 -4 27.4 8.06
-5 -22 -4 22.72 8.21
27 -5 -1 41.52 10.92
27 -5 -1 46.81 10.82
-5 -22 -1 49.52 9.3
-5 -22 2 18.69 8.02
-5 -22 2 25.18 8.04
27 -5 2 21.24 8.24
27 -5 2 23.06 9.9
-5 -22 2 9.41 7.39
-5 -22 5 18.39 6.88
-5 -22 5 7.2 6.72
27 -5 5 7.34 6.45
27 -5 5 1.16 4.7
-5 -22 8 5.05 3.74
27 -5 8 2.59 3.28
27 -4 -8 14.36 5.01
-4 -23 -8 6.67 3.21
27 -4 -5 22.81 6.6
-4 -23 -5 32.36 7.86
-4 -23 -5 24.09 7.31
-4 -23 -2 1.68 7.54
-4 -23 1 7.3 7.57
27 -4 1 3.5 9.88
27 -4 1 4.17 9.33
-4 -23 1 13.99 7.44
-4 -23 4 12.05 7.27
-4 -23 4 18.23 7.3
27 -4 4 17.48 7.55
27 -4 4 8.53 7.13
27 -4 4 -1.22 4.96
-4 -23 7 2.83 5.54
27 -4 7 7.14 5.2
27 -4 7 12.15 4.76
27 -3 -6 79.2 8.16
27 -3 -6 90.68 10.38
-3 -24 -6 74.41 9.83
-3 -24 -6 92.47 9.67
27 -3 -3 147.18 14.16
27 -3 -3 160.94 16.64
-3 -24 -3 174.95 15.89
27 -3 0 54.1 10.53
-3 -24 0 65.19 9.22
-3 -24 0 46.95 9.5
-3 -24 3 12.13 7.68
27 -3 3 1.55 7.87
-3 -24 6 47.38 6.81
27 -3 6 40.17 7.44
27 -3 6 35.79 6.26
-2 -25 -7 5.47 5.06
-2 -25 -7 14.87 5.17
27 -2 -4 14.91 5.91
27 -2 -4 23.34 9.16
-2 -25 -4 21.13 7.18
-2 -25 -4 7.79 6.62
27 -2 -1 6.07 8.76
-2 -25 -1 5.57 7.2
-2 -25 -1 13.2 7.34
-2 -25 -1 11.5 7.94
-2 -25 2 6.59 7.59
27 -2 2 1.94 7.95
27 -2 2 12.96 8.57
-2 -25 5 5.79 5.83
27 -2 5 14.54 7.02
27 -2 5 3.69 5.14
27 -1 -5 24.31 8.12
-1 -26 -5 18.72 6.44
-1 -26 -5 9.88 6.19
27 -1 -2 24.64 10.04
-1 -26 -2 6.66 7.45
-1 -26 -2 12.16 7.51
27 -1 1 -7.93 7.93
-1 -26 1 1.56 7.68
-1 -26 4 10.53 6.24
27 -1 4 0.71 6.93
27 -1 4 4.61 6.48
27 -1 4 6.96 5.39
27 -1 7 1.76 3.62
27 0 -6 68.88 9.23
0 -27 -6 62.06 8.44
0 -27 -6 50.43 7.48
27 0 -3 146.37 14.32
0 -27 -3 133.57 12.99
0 -27 -3 126.72 13.58
0 -27 0 37.99 8.68
0 -27 0 42.67 9.25
0 -27 3 7.11 6.24
27 0 3 12.74 6.99
27 0 6 46.48 7.87
1 -28 -7 10.41 3.51
27 1 -4 13.38 8.03
1 -28 -4 3.99 6.17
1 -28 -4 6.27 5.36
27 1 -1 5.62 9.15
1 -28 -1 14.83 6.96
1 -28 -1 3.02 6.26
27 1 2 27.26 7.07
1 -28 2 17.98 6.8
27 1 5 15.01 6.15
27 2 -5 14.56 7.2
2 -29 -5 -2.79 5.64
27 2 -2 34.89 9.05
2 -29 -2 24.27 6.78
27 2 1 18.34 6.69
2 -29 1 10.77 7.15
2 -29 1 17.55 6.66
27 2 4 3.92 6.09
3 -30 -6 29.08 4.67
27 3 -3 107.43 10.89
3 -30 -3 76.58 9.28
3 -30 -3 82.66 9.48
3 -30 0 26.22 7.05
3 -30 0 15.67 5.9
27 3 3 6.91 6.25
3 -30 3 2.96 6.62
3 -30 6 11.86 4.59
27 4 -4 16.75 7.3
4 -31 -4 3.91 5.11
27 4 -1 7.1 5.47
27 4 -1 -0.25 7.81
4 -31 -1 1.09 5.36
4 -31 -1 6.21 5.26
27 4 2 15.32 5.66
4 -31 2 22.72 6.93
27 4 5 9.89 4.57
4 -31 5 8.74 5.3
5 -32 -5 5.56 3.32
27 5 -2 11.07 4.64
27 5 -2 18.72 7.67
27 5 1 0.21 4.71
5 -32 1 7.66 5.99
27 5 4 5.39 5.75
27 6 0 12.9 4.4
6 -33 0 13.26 5.54
27 6 3 9.23 5.87
6 -33 3 -0.53 6.32
27 7 2 24.74 5.9
7 -34 2 28.29 6.94
27 8 1 6.25 4.47
8 -35 1 6.17 5
28 -25 -1 9 8.29
-25 -3 -1 7.26 7.27
28 -25 2 14.19 8.64
28 -24 -2 44.41 9.84
-24 -4 -2 41.86 8.47
28 -24 1 4.15 8.91
28 -24 4 16.38 6.38
28 -23 -3 52.31 8.29
-23 -5 -3 42.17 8.69
28 -23 0 102.3 13.08
28 -22 -4 55.53 8.44
-22 -6 -4 60.79 9.33
28 -22 -1 23.81 9.99
-22 -6 -1 50.15 9.33
28 -22 2 26.43 10.06
-22 -6 5 28.24 6.04
28 -22 5 25.16 6.75
28 -22 5 23 5.07
28 -21 -5 35.65 7.07
28 -21 -2 64.92 9.37
-21 -7 -2 68.28 10.37
28 -21 1 26.2 10.52
-21 -7 4 6.49 6.69
28 -21 4 8.48 7.45
28 -21 4 6.09 5.03
-21 -7 7 17.34 5.01
28 -21 7 28.88 6.07
28 -20 -6 8.46 5.72
-20 -8 -6 4.35 5.34
28 -20 -3 32.5 8.22
-20 -8 -3 37.49 8.98
-20 -8 0 38.09 7.8
28 -20 0 34.4 11.11
-20 -8 3 -1.27 6.35
28 -20 3 10.24 10
28 -20 3 10.76 5.35
-20 -8 6 10.81 5.81
28 -20 6 15.49 6.52
28 -20 6 7.63 4.36
28 -19 -7 36.15 6.2
28 -19 -4 103.45 12.01
-19 -9 -4 108.77 12.86
-19 -9 -1 60.06 9.1
-19 -9 -1 41.25 16.44
28 -19 -1 77.53 16.62
-19 -9 2 2.39 6.93
28 -19 2 2.78 10.39
-19 -9 5 41.36 7.8
28 -19 5 48.97 8.59
28 -19 5 38.68 6.46
-19 -9 8 20.76 4.18
28 -19 8 27.42 4.74
28 -18 -8 6.19 3.7
28 -18 -5 34.15 7.9
28 -18 -2 52.45 9.4
-18 -10 -2 67.59 10.33
-18 -10 -2 41.77 8.55
-18 -10 1 12.86 15.8
28 -18 1 8.07 6.45
28 -18 1 16.96 10.88
-18 -10 4 12.21 7.65
28 -18 4 14.98 5.84
-18 -10 7 15.55 5.71
28 -18 7 5.57 3.86
28 -17 -6 19.94 6.72
-17 -11 -6 16.37 6.9
28 -17 -3 50.61 9.56
-17 -11 -3 64.71 10.29
-17 -11 0 17.78 7.84
-17 -11 0 -10.67 16.61
28 -17 0 12.86 11.14
28 -17 0 -4.32 13.61
-17 -11 3 -0.36 7.25
28 -17 3 3.26 6.29
28 -17 3 8.84 10.57
28 -17 3 11.28 5.97
-17 -11 6 33.25 6.88
28 -17 6 22.33 7.24
28 -17 6 15.1 4.98
-16 -12 -7 11.02 5.4
-16 -12 -4 94.58 11.56
-16 -12 -4 62.08 9.72
-16 -12 -1 72.77 10.08
-16 -12 -1 68.85 18.45
28 -16 -1 57.13 10
28 -16 -1 71.89 17.43
-16 -12 2 1.14 7.18
28 -16 2 0.36 6.83
28 -16 2 7.54 6.06
-16 -12 5 39.69 8.22
28 -16 5 32.37 6.39
-16 -12 8 35.42 5.63
28 -16 8 35.45 5.87
-15 -13 -5 29.36 7.24
-15 -13 -2 44.95 10.15
-15 -13 -2 59.27 9.59
-15 -13 1 14.31 7.86
-15 -13 1 -7.52 16.74
-15 -13 4 17.46 8.07
28 -15 4 0.66 6.71
28 -15 4 14.43 7.14
-15 -13 7 26.86 6.48
-14 -14 -6 27.52 7.81
-14 -14 -3 20.32 8.77
-14 -14 -3 13.09 7.81
-14 -14 0 14.65 7.69
-14 -14 0 -5.38 15.42
28 -14 0 3.37 8.28
-14 -14 3 46.27 8.88
28 -14 3 25.68 7.91
28 -14 3 33.43 8.11
-14 -14 6 29.95 7.4
28 -13 -7 24.36 6.16
-13 -15 -7 21.42 5.32
-13 -15 -7 18.87 6.23
28 -13 -4 101.99 11.87
-13 -15 -4 80.06 12.13
-13 -15 -4 81.09 11.12
-13 -15 -1 58.09 10.53
-13 -15 -1 85.6 18.99
28 -13 -1 83.37 11.47
28 -13 -1 65.93 10.88
-13 -15 -1 77.69 11.28
28 -13 -1 97.84 18.13
-13 -15 2 9.16 7.57
28 -13 2 3.15 7.2
28 -13 2 1.46 10.67
28 -13 2 13.13 6.44
-13 -15 5 34.63 8.14
28 -13 5 31.52 7.72
28 -13 5 27.65 8.22
28 -13 5 11.35 5.64
-13 -15 8 13.92 4.83
28 -13 8 23.88 5.23
28 -12 -8 -1.21 4.16
-12 -16 -8 3.05 3.97
28 -12 -5 36.71 8.22
-12 -16 -5 20.67 7.22
28 -12 -2 52.56 9.61
28 -12 -2 60.6 10.54
-12 -16 -2 56.94 10.45
-12 -16 -2 56.24 9.75
28 -12 -2 46.72 15.5
-12 -16 1 25.67 8.59
-12 -16 1 -7.59 16.6
28 -12 1 12.73 9.24
28 -12 1 23.16 11.19
-12 -16 4 6.14 8.34
28 -12 4 -4.53 7.45
28 -12 4 8.32 7.67
28 -12 4 5.79 11.29
28 -12 4 -6.13 5.59
-12 -16 7 9.4 6.07
28 -12 7 13 6.21
28 -12 7 3.26 4.04
28 -11 -6 43.9 7.39
-11 -17 -6 33.95 8.15
28 -11 -3 0.3 7.98
-11 -17 -3 3.3 8.39
-11 -17 -3 2.18 7.65
-11 -17 0 29.39 8.87
-11 -17 0 47.05 17.73
28 -11 0 25.66 9.86
28 -11 0 22.28 11.35
28 -11 0 18.56 15.12
-11 -17 3 85.8 11.22
28 -11 3 82.6 10.8
28 -11 3 107.21 13.24
28 -11 3 80.96 9.93
-11 -17 6 32.87 7.78
28 -11 6 47.5 7.95
28 -11 6 24.56 5.86
28 -10 -7 8.7 5.67
-10 -18 -7 9.84 5.3
-10 -18 -7 11.75 6.14
28 -10 -4 40.96 9.39
-10 -18 -4 33.57 10.21
-10 -18 -4 35.41 8.89
-10 -18 -1 52.81 9.42
28 -10 -1 60.23 10.39
-10 -18 -1 31.47 9.33
28 -10 -1 33.72 14.63
-10 -18 2 4.44 7.98
28 -10 2 3.71 7.49
28 -10 2 10.14 10.59
28 -10 5 11.87 7.33
28 -10 5 18.99 7.65
28 -10 5 12.31 5.4
-10 -18 8 12.96 4.48
28 -10 8 17.86 4.75
28 -9 -8 1.89 3.65
-9 -19 -8 2.8 4
28 -9 -5 12.78 7.09
-9 -19 -5 5.24 6.35
28 -9 -2 43.26 9.35
28 -9 -2 52.25 10.98
-9 -19 -2 55.01 9.96
-9 -19 1 29.82 8.83
-9 -19 1 17.71 16.52
28 -9 1 41.66 10.2
28 -9 1 27.58 10.76
28 -9 4 14.3 8.4
28 -9 4 13.95 8.28
28 -9 4 10.08 5.67
-9 -19 7 2.37 5.98
28 -9 7 4.21 4.14
28 -9 7 11.24 5.92
28 -8 -6 66.15 7.89
-8 -20 -6 49.65 8.68
-8 -20 -6 45.59 7.65
28 -8 -3 27.49 8.3
-8 -20 -3 9.59 7.98
-8 -20 0 48.54 9.28
28 -8 0 37.2 10.23
28 -8 0 35.49 11.04
-8 -20 0 36.89 9.04
28 -8 3 136.07 13.61
28 -8 3 145.5 14.81
28 -8 3 111.68 12.08
-8 -20 6 81.82 8.8
28 -8 6 73.34 8.82
28 -8 6 77.85 8.7
28 -7 -7 19.3 5.56
-7 -21 -7 26.46 6.26
-7 -21 -7 22.32 7.13
28 -7 -4 19.43 7.4
-7 -21 -4 10.78 7.48
28 -7 -1 17.18 10.15
28 -7 -1 10.31 10.06
-7 -21 -1 20.17 8.45
-7 -21 -1 12.62 8.48
-7 -21 2 13.76 7.94
28 -7 2 9.59 9.73
-7 -21 5 24.84 7.15
28 -7 5 28.13 7.6
28 -7 5 23.78 6.93
28 -7 5 6.72 4.9
-7 -21 8 12 3.85
28 -7 8 8.15 3.66
28 -6 -8 12.35 4.42
28 -6 -5 6.39 6.17
-6 -22 -5 -5.89 6.22
28 -6 -2 10.57 10.06
-6 -22 -2 21.59 8.24
-6 -22 -2 16.04 8.45
28 -6 1 21.99 9.76
28 -6 1 18.78 9.98
-6 -22 1 29.06 8.06
-6 -22 4 -0.75 6.96
-6 -22 4 4.18 7.07
28 -6 4 6.24 7.55
28 -6 4 1.03 6.62
28 -6 4 5.62 5.16
-6 -22 7 -0.77 5.79
28 -6 7 1.78 4.76
28 -6 7 4.39 5.34
28 -5 -6 70.62 7.41
28 -5 -6 64.94 9.28
-5 -23 -6 59.76 8.81
28 -5 -3 11.02 7.26
-5 -23 -3 5.29 8.21
-5 -23 -3 13.19 7.72
28 -5 0 61.47 11.4
28 -5 0 69.69 11.09
-5 -23 0 60.47 9.75
-5 -23 3 172.28 14.86
28 -5 3 152.42 14.78
28 -5 3 150.86 15.73
-5 -23 3 130.43 13.75
-5 -23 3 139.81 14.76
-5 -23 6 59.59 7.76
-5 -23 6 67.34 8.22
28 -5 6 69.12 7.8
28 -4 -7 15.38 5.87
-4 -24 -7 -1.08 4.55
28 -4 -4 14.85 6.18
28 -4 -4 11.47 8.56
-4 -24 -4 16.61 7.6
-4 -24 -4 1.81 6.51
28 -4 -1 23.67 9.56
-4 -24 -1 7.45 7.47
-4 -24 2 21.12 8.29
28 -4 2 10.15 8.13
28 -4 2 8.88 9.42
-4 -24 2 13.42 6.52
-4 -24 5 25.62 6.36
-4 -24 5 17.63 6.42
28 -4 5 12.85 5.81
28 -3 -5 4.89 7.75
-3 -25 -5 5.39 6.31
-3 -25 -5 2.25 5.99
28 -3 -2 2.04 9.42
-3 -25 -2 25.95 8.18
-3 -25 -2 2.96 7.24
-3 -25 1 22.51 8.47
28 -3 1 20.73 8.54
28 -3 1 22.58 10.74
28 -3 1 25.01 8.87
-3 -25 1 19.17 7.28
-3 -25 4 7.8 6.2
28 -3 4 -1.33 6.63
28 -3 4 6.25 5.62
28 -3 7 9.99 3.78
28 -2 -6 62.43 9.33
-2 -26 -6 55.03 8.32
-2 -26 -6 59.24 7.93
28 -2 -3 30.62 9.06
28 -2 -3 13.35 8.42
-2 -26 -3 8.11 6.55
28 -2 0 37.12 9.18
-2 -26 0 39.53 7.8
-2 -26 0 41.97 8.65
-2 -26 0 31.37 8.88
28 -2 3 124.18 12.65
28 -2 3 118.31 11.73
-2 -26 3 133.75 12.59
28 -2 6 74.65 9.27
-1 -27 -7 0.44 3.34
28 -1 -4 10.35 7.86
-1 -27 -4 -3.55 5.65
28 -1 -1 12.23 8.97
-1 -27 -1 9.56 6.64
-1 -27 -1 13.77 6.82
-1 -27 -1 11.25 6.62
28 -1 2 34.06 7.59
-1 -27 2 9.47 6.21
-1 -27 2 27.4 7.21
28 -1 5 9.83 6.2
28 0 -5 6.64 7.59
0 -28 -5 4.63 6.02
0 -28 -5 2.84 4.85
28 0 -2 7.47 8.49
0 -28 -2 -6.67 6.31
28 0 1 2.95 6.42
0 -28 1 0.75 5.74
0 -28 1 8.43 6.86
28 0 4 9.31 6.23
28 1 -6 43.83 6.16
28 1 -3 11.8 7.87
1 -29 -3 17.38 6.29
1 -29 -3 -3.63 5.61
28 1 0 29.67 6.95
28 1 0 15 8.78
1 -29 0 23.63 6.87
1 -29 0 20.92 6.43
28 1 3 101.29 10.39
1 -29 6 24.72 5.24
28 2 -4 18.18 7.43
2 -30 -4 4 5.35
28 2 -1 18 6.07
28 2 -1 28.42 8.48
2 -30 -1 15.02 5.77
2 -30 -1 28.51 6.17
28 2 2 24.58 6.37
2 -30 2 26.16 7.14
28 2 5 4.18 4.96
28 3 -5 3.22 5.39
3 -31 -5 7.91 3.95
28 3 -2 8.43 5
28 3 -2 9.64 7.7
3 -31 -2 -0.91 4.98
28 3 1 2.86 5.23
3 -31 1 2.26 6.1
28 3 4 7.99 6.02
3 -31 4 -0.83 6.65
28 4 -3 5.42 4.03
28 4 -3 12.38 7.46
28 4 0 17.64 5.03
4 -32 0 10.83 5.59
28 4 3 20.9 6.47
4 -32 3 47.84 7.95
28 5 -1 28.51 4.9
28 5 2 27.86 6.74
5 -33 2 45.22 7.58
6 -34 1 4.19 5.9
7 -35 3 11.57 4.15
29 -25 0 35.29 9.43
29 -24 -1 24.08 9.63
-24 -5 -1 29.38 8.47
-24 -5 2 36.08 7.55
29 -24 2 47.48 10.31
29 -23 -5 19.66 5.39
29 -23 -2 9.3 9.69
-23 -6 -2 6.64 7.86
-23 -6 1 33.73 7.4
29 -23 1 56.08 10.82
29 -23 4 56.9 8.29
29 -22 -6 25.12 5.2
29 -22 -3 21.77 7.34
-22 -7 -3 33.22 8.75
29 -22 0 6.58 9.78
-22 -7 3 11.78 6.47
-22 -7 6 15.09 4.9
29 -22 6 21.53 5.62
29 -21 -7 25.68 4.85
29 -21 -4 13.66 6.56
-21 -8 -4 3.02 7.03
29 -21 -1 32.56 10.34
-21 -8 -1 32.53 9.11
29 -21 2 116.89 14.31
-21 -8 5 49.83 7.26
29 -21 5 45.08 7.87
29 -21 5 44.78 6.27
29 -20 -5 20.52 6.55
-20 -9 -2 4.7 7.92
-20 -9 1 37.76 8.21
29 -20 1 45.21 11.32
-20 -9 4 51.57 7.99
29 -20 4 52.84 8.68
29 -20 4 44.91 6.83
-20 -9 7 10.9 5.28
29 -20 7 6.09 5.73
29 -19 -6 16.48 5.85
-19 -10 -6 8.08 5.47
29 -19 -3 9.49 8.17
-19 -10 -3 8.86 9.07
-19 -10 0 14.28 7.41
29 -19 0 14.74 10.63
-19 -10 3 25.58 7.95
29 -19 3 45.83 11.99
-19 -10 6 12.09 5.84
29 -19 6 27.32 6.5
29 -19 6 10.52 4.34
29 -18 -7 32.74 6.11
-18 -11 -7 13.7 4.49
29 -18 -4 23.14 7.82
-18 -11 -4 12.33 8.11
-18 -11 -4 15.36 6.61
-18 -11 -1 14.08 7.49
29 -18 -1 17.69 10.64
-18 -11 -1 19.74 8.66
-18 -11 2 82.19 10.47
29 -18 2 80.51 9.55
29 -18 2 91.39 12.91
-18 -11 5 62.47 8.83
29 -18 5 63.42 7.69
29 -18 5 77.76 9.52
-18 -11 8 8.46 3.63
29 -18 8 13.07 4.06
29 -17 -8 14.04 3.67
29 -17 -5 28.57 7.5
29 -17 -2 7.6 8.22
29 -17 -2 -3.46 7.19
-17 -12 -2 6.86 8.3
-17 -12 -2 7.18 7.24
-17 -12 1 42.68 8.98
29 -17 1 35.61 7.73
29 -17 1 45.75 11.59
-17 -12 4 44.62 8.51
29 -17 4 51.84 7.27
-17 -12 7 19.53 6.6
29 -17 7 14.97 6.64
-16 -13 -6 11.8 6.68
-16 -13 -3 13.56 9.07
-16 -13 0 62.69 9.91
-16 -13 3 36.96 8.84
29 -16 3 41.34 7.23
29 -16 3 56.54 8.23
-16 -13 6 16.59 6.24
-15 -14 -7 24.76 5.91
-15 -14 -4 26.48 8.86
-15 -14 -4 15.13 7.64
-15 -14 -1 4.62 7.89
29 -15 -1 10.6 8.44
-15 -14 -1 8.46 8.41
-15 -14 2 63.47 9.86
29 -15 2 68.15 9.32
-15 -14 5 55.39 8.73
-15 -14 8 10.86 4.31
29 -14 -8 16.3 3.93
29 -14 -5 34.24 7.68
-14 -15 -5 17.09 6.31
29 -14 -2 8.33 8.37
29 -14 -2 11.05 8.65
-14 -15 -2 6.08 8.4
-14 -15 -2 8.77 7.66
-14 -15 1 14.73 8.18
29 -14 1 20.3 7.99
-14 -15 4 53.87 9.47
29 -14 4 55.7 9.02
29 -14 4 43.13 8.64
29 -14 4 48.31 7.47
-14 -15 7 10.37 6.4
29 -14 7 16.8 6.61
29 -13 -6 9.16 6.35
-13 -16 -6 10.89 6.89
29 -13 -3 20.13 8.93
-13 -16 -3 33.56 9.76
-13 -16 0 74.26 10.75
29 -13 0 72.91 10.91
29 -13 0 79.56 12.99
-13 -16 3 38.33 9.05
29 -13 3 37.63 8.42
29 -13 3 41.06 8.51
29 -13 3 48.03 11.88
29 -13 3 49.05 7.46
-13 -16 6 1.43 6.19
29 -13 6 7.83 6.54
29 -13 6 3.98 4.41
29 -12 -7 23.11 6.38
-12 -17 -7 12.75 5.03
29 -12 -4 20.87 8.02
-12 -17 -4 9.9 8.3
-12 -17 -4 11.61 7.48
-12 -17 -1 5.73 8.24
29 -12 -1 12.92 9.08
-12 -17 2 46.6 9.66
29 -12 2 59.31 9.39
29 -12 2 66.72 12.08
-12 -17 5 65.99 8.66
29 -12 5 43.3 8.05
29 -12 5 61.7 8.63
29 -12 5 31.24 6.51
-12 -17 8 4.77 4.01
29 -12 8 10.48 4.2
29 -11 -8 17.73 3.66
-11 -18 -8 10.41 3.58
29 -11 -5 40.86 7.78
-11 -18 -5 26.12 7.18
29 -11 -2 9.59 8.12
29 -11 -2 17.39 9.11
-11 -18 -2 31.47 8.6
-11 -18 1 10.58 8.1
29 -11 1 15 9.07
29 -11 1 21.79 10.69
-11 -18 4 26.22 8
29 -11 4 34.31 8.42
29 -11 4 26.41 7.91
29 -11 4 36.57 6.63
29 -11 7 24.23 6.88
29 -10 -6 8.65 5.96
-10 -19 -6 -3.31 6.64
29 -10 -3 45.39 9.47
29 -10 -3 50.38 11.05
-10 -19 -3 48.4 9.69
29 -10 0 167.77 16.88
29 -10 0 187.69 17.93
-10 -19 0 176.08 17.04
-10 -19 0 173.95 17.01
-10 -19 3 105.78 12.38
29 -10 3 119.13 12.31
29 -10 3 125.55 14.45
29 -10 3 82.83 10.43
29 -10 6 5.95 5.96
29 -10 6 8 5.95
29 -10 6 7.19 4.23
29 -9 -7 11.89 5.38
-9 -20 -7 4.8 5.58
-9 -20 -7 10.8 5.97
29 -9 -4 1.77 7.04
-9 -20 -4 -7.47 7.22
29 -9 -1 19.24 9.77
29 -9 -1 5.75 10.04
-9 -20 -1 8.89 8.33
-9 -20 -1 20.91 8.26
29 -9 2 34.01 8.94
29 -9 2 51.75 11.05
29 -9 5 31.67 7.42
29 -9 5 37.56 7.3
29 -9 5 15.76 5.36
29 -8 -5 14.2 6.37
-8 -21 -5 25.94 6.64
29 -8 -2 33.84 10.42
-8 -21 -2 6.11 8.58
-8 -21 -2 19.69 8.81
29 -8 1 2.56 9.4
29 -8 1 16.12 9.83
-8 -21 1 8.65 7.72
-8 -21 4 15.7 7.31
29 -8 4 11.36 7.7
29 -8 4 18.61 7.2
29 -8 4 8.7 6.93
29 -8 4 18.38 5.47
-8 -21 7 12.83 5.29
29 -8 7 10.34 5.36
29 -7 -6 8.27 5.17
-7 -22 -6 -12.95 6.25
29 -7 -3 84.23 10.14
29 -7 -3 72.99 11.66
-7 -22 -3 90.1 11.03
-7 -22 -3 79.88 10.85
29 -7 0 265.99 22.32
29 -7 0 232.19 22.13
-7 -22 0 262.55 22.03
-7 -22 3 112.17 12.7
29 -7 3 124.34 13.97
-7 -22 3 123.7 12.84
-7 -22 6 11.64 5.54
-7 -22 6 3.37 5.7
29 -7 6 1.03 6.14
29 -7 6 6.48 5.41
29 -6 -7 7.97 5.43
-6 -23 -7 9.67 4.24
-6 -23 -7 10.85 4.6
29 -6 -4 7.69 6.11
-6 -23 -4 6.58 7.44
-6 -23 -4 8.37 6.7
29 -6 -1 7.21 10.53
29 -6 -1 20.29 10.18
-6 -23 -1 18.23 8.63
-6 -23 2 24.19 8.25
29 -6 2 19.49 10.14
-6 -23 2 16.77 7.55
-6 -23 5 10.46 6.09
-6 -23 5 6.13 6.21
29 -6 5 -2.47 6.37
29 -6 5 11.04 5.83
29 -5 -5 18.32 5.36
29 -5 -5 15.6 7.69
-5 -24 -5 22.38 7
-5 -24 -5 12.61 6.12
29 -5 -2 2.71 9.61
-5 -24 -2 11.9 7.6
-5 -24 1 20.41 8.42
29 -5 1 13.44 10.12
29 -5 1 0.38 7.78
29 -5 1 20.7 9.95
-5 -24 1 10.58 7.45
-5 -24 4 11.62 6.46
29 -5 4 -0.98 6.39
29 -5 4 -0.28 5.72
29 -5 7 9.16 3.37
29 -4 -6 2.25 7.58
29 -4 -6 1.32 6.46
-4 -25 -6 8.72 6.42
-4 -25 -6 9.86 5.94
29 -4 -3 93.66 11.38
29 -4 0 210.18 18.7
29 -4 0 189.13 18.45
-4 -25 0 193.52 17.74
-4 -25 0 203.54 18.1
29 -4 3 100.23 10.73
29 -4 3 76.91 9.66
-4 -25 3 96.89 10.69
29 -4 6 6.39 4.24
29 -3 -7 3.92 3.99
-3 -26 -7 6.78 3.04
29 -3 -4 17.76 7.99
29 -3 -4 9.45 7.17
-3 -26 -4 5.28 6.1
-3 -26 -4 3.85 5.88
29 -3 -1 25.12 8.85
-3 -26 -1 1.65 6.83
-3 -26 -1 16.56 7.15
-3 -26 -1 12.89 7.55
-3 -26 2 10.94 7.03
29 -3 2 12.43 6.98
29 -3 5 -2.63 6.07
29 -3 5 1.81 4.3
29 -2 -5 11.92 7.63
-2 -27 -5 4.19 5.3
-2 -27 -2 2.16 5.76
-2 -27 -2 6.83 6.36
29 -2 1 20.54 7.01
-2 -27 1 15.52 6.33
-2 -27 1 8.1 6.87
29 -2 4 5.27 6.1
29 -1 -6 1.5 5.03
-1 -28 -6 -1.51 3.33
29 -1 -3 52.55 9.12
-1 -28 -3 47.7 6.98
-1 -28 -3 50.79 7.84
-1 -28 0 119.81 12.44
-1 -28 0 104.37 12.5
29 -1 3 75.72 8.57
-1 -28 3 56.63 8.1
-1 -28 6 2.76 4.74
29 0 -4 27.07 7.68
0 -29 -4 13.53 5.95
29 0 -1 16.3 8.28
29 0 -1 19.55 6.09
0 -29 -1 9.92 5.73
29 0 2 0.28 5.85
0 -29 2 1.34 5.69
29 0 5 9.44 5.23
29 1 -5 18.2 5.42
1 -30 -5 3.09 4.14
29 1 -2 17.24 7.82
29 1 -2 10.14 5.54
1 -30 -2 7.21 5.16
1 -30 -2 1.95 5.28
29 1 1 23.43 6.19
1 -30 1 16.03 6.59
29 1 4 12.27 6.52
1 -30 4 18.95 7.34
29 2 -3 44.91 6.23
29 2 -3 51.56 8.68
2 -31 -3 38.56 6.19
29 2 0 80.42 8.61
2 -31 0 73.48 8.59
29 2 3 22.69 6.83
2 -31 3 25.91 7.07
29 3 -4 24.47 5.67
3 -32 -4 15.94 3.67
29 3 -1 26.01 5.44
3 -32 2 2.16 6.22
29 4 1 6.48 4.5
4 -33 1 6.86 5.86
4 -33 4 7.61 4.23
5 -34 0 25.02 5.35
5 -34 3 9.31 4.32
6 -35 2 0.3 3.88
-27 -3 0 31.27 7.07
-26 -4 -1 12.26 6.47
30 -25 -2 40.37 8.35
-25 -5 -2 35.31 7.64
30 -25 1 60.37 9.94
30 -24 -3 -0.23 7.74
-24 -6 -3 5.04 6.38
30 -24 0 38.1 9.95
30 -24 3 43.26 7.43
30 -23 -1 86.71 11.94
-23 -7 -1 67.47 10.75
-23 -7 2 38.15 7.95
30 -23 2 41.9 9.8
30 -23 5 2.6 5.48
30 -22 -5 5.81 5.03
-22 -8 -5 7.9 5.18
30 -22 -2 89.23 11.72
-22 -8 -2 69.69 10.82
-22 -8 1 77.66 10.26
30 -22 1 117.39 13.36
-22 -8 4 12.43 5.66
30 -22 4 25.21 6.81
30 -21 -6 11.47 5.15
30 -21 -3 12 6.99
-21 -9 -3 8.83 7.51
-21 -9 0 22.34 7.14
30 -21 0 39.41 11.26
30 -21 3 39.78 10.38
-21 -9 6 6.46 4.8
30 -21 6 7.13 5.53
30 -20 -7 0.91 3.6
30 -20 -4 46.47 7.74
-20 -10 -4 46.37 8.32
30 -20 -1 132.03 14.73
-20 -10 -1 138.7 13.87
-20 -10 -1 96.03 11.83
30 -20 2 102.14 13.77
-20 -10 5 13.36 5.69
30 -20 5 10.83 6.63
30 -20 5 5.28 4.28
30 -19 -5 8.07 6.11
-19 -11 -2 71.74 10.76
-19 -11 -2 52.75 8.93
30 -19 1 75.42 9.24
30 -19 1 106.12 13.53
-19 -11 1 98.58 10.99
-19 -11 4 26.57 6.81
30 -19 4 21.93 7.29
-19 -11 7 3.09 4.25
30 -19 7 3.98 4.58
30 -18 -6 11.19 5.53
-18 -12 -6 8.58 5.47
30 -18 -3 9.78 7.63
-18 -12 -3 14.99 8.48
-18 -12 0 33.5 8.49
30 -18 0 36.78 11.44
-18 -12 3 8.24 7.35
30 -18 3 30.54 10.42
-18 -12 6 3.11 5.57
30 -18 6 2.95 5.92
30 -18 6 6.06 4
30 -17 -7 7.58 4.57
-17 -13 -7 -3.94 4.41
-17 -13 -4 22.37 8.01
-17 -13 -4 27.13 6.79
-17 -13 -1 90.48 11.14
-17 -13 -1 88.88 12.15
30 -17 2 63.86 8.79
-17 -13 5 11.08 6.28
30 -17 5 17.59 6.77
30 -17 5 2.79 4.49
-16 -14 -5 10.27 5.31
30 -16 -2 39.77 9.4
-16 -14 -2 54.42 10.92
-16 -14 -2 58.13 9.17
-16 -14 1 80.74 11.06
30 -16 1 89.42 10.42
-16 -14 4 14.48 7.27
-16 -14 7 5.53 4.97
-15 -15 -6 21.05 6.61
30 -15 -3 46.04 10.04
-15 -15 -3 64.13 10.43
-15 -15 0 37.98 8.87
30 -15 0 33.22 8.18
-15 -15 3 1.44 7.47
30 -15 3 -4.55 6.46
30 -15 3 9.64 7.41
-15 -15 6 11 6.18
30 -14 -7 6.86 4.81
-14 -16 -7 10.33 5.14
30 -14 -4 9.02 7.46
-14 -16 -4 15.7 8.03
-14 -16 -4 16.26 6.66
-14 -16 -1 86.01 11.92
30 -14 -1 91.65 11.79
30 -14 -1 112.2 13.9
-14 -16 -1 111.05 12.83
-14 -16 2 86.56 11.72
30 -14 2 78.12 10.59
30 -14 2 96.05 13.79
-14 -16 2 103.33 12.12
-14 -16 5 18.26 6.84
30 -14 5 17.24 5.98
30 -14 5 12.4 6.73
30 -14 5 4.01 4.79
30 -14 8 6.79 2.9
30 -13 -5 8.93 6.65
-13 -17 -5 4.77 5.6
30 -13 -2 40.89 9.75
30 -13 -2 33.47 9.61
-13 -17 -2 52.34 10.48
-13 -17 -2 41.3 9.38
-13 -17 1 76.12 10.73
30 -13 1 68.5 10.29
30 -13 1 62 9.88
30 -13 1 78.22 12.55
-13 -17 4 9.25 7.09
30 -13 4 12.15 6.58
30 -13 4 16.2 6.75
30 -13 4 24.33 7.53
30 -13 4 19.93 5.62
-13 -17 7 3.75 5.17
30 -13 7 0.41 5.1
30 -12 -6 36.6 6.58
-12 -18 -6 34.29 7.3
30 -12 -3 101.86 11.28
30 -12 -3 84.9 12.06
-12 -18 -3 113.59 12.41
-12 -18 -3 77.78 11.27
-12 -18 0 69.98 10.86
30 -12 0 73.71 11.08
30 -12 0 87 13.05
-12 -18 0 83.98 11.56
-12 -18 3 12.83 7.43
30 -12 3 0.7 7.38
30 -12 3 10.41 7.25
30 -12 3 2.54 10.08
-12 -18 6 19.43 6.25
30 -12 6 16.86 6.17
30 -12 6 11.03 4.31
30 -11 -7 0.47 4.12
30 -11 -7 5.84 5.42
-11 -19 -7 6.24 4.02
-11 -19 -7 4.12 4.78
30 -11 -4 18.87 7.34
30 -11 -4 16.66 8.28
-11 -19 -4 9.44 7.74
-11 -19 -4 19.91 7.07
30 -11 -1 40.02 10.34
30 -11 -1 55.21 12.21
-11 -19 -1 52.32 10.3
-11 -19 -1 73.66 10.48
-11 -19 2 56.24 10.01
30 -11 2 71.27 12.19
-11 -19 5 10.22 6.38
30 -11 5 14.01 6.31
30 -11 5 2.5 6.18
30 -11 5 -3.83 4.49
30 -10 -5 14.71 6.26
-10 -20 -5 14.33 7.26
-10 -20 -5 12.77 6.12
30 -10 -2 15.75 9.81
-10 -20 -2 18.11 8.85
-10 -20 1 45.68 9.88
30 -10 1 57.15 10.5
30 -10 1 46.92 9.67
30 -10 1 52.46 12.29
-10 -20 1 45.92 9.77
-10 -20 4 36.56 7.67
30 -10 4 24.26 7.42
30 -10 4 9.65 6.79
30 -10 4 19.94 7.2
-10 -20 7 1 4.32
30 -10 7 1.87 4.33
30 -9 -6 58.25 7.15
-9 -21 -6 49.93 7.94
-9 -21 -6 53.97 8.35
30 -9 -3 165.71 14.11
30 -9 -3 138.38 14.95
-9 -21 -3 139.68 14.63
-9 -21 0 84.14 12.43
30 -9 0 89.71 13.13
30 -9 0 116.87 13.8
-9 -21 0 109.82 12.61
-9 -21 3 7.38 7.44
30 -9 3 3.96 6.87
30 -9 3 0.86 9.23
-9 -21 6 38.69 6.84
-9 -21 6 39.29 7.34
30 -9 6 40.53 6.97
30 -9 6 28.35 6.69
-8 -22 -7 4.78 3.66
-8 -22 -7 0.51 4.18
30 -8 -4 16.7 6.48
-8 -22 -4 4.61 6.56
30 -8 -1 35.29 10
30 -8 -1 31.05 10.99
-8 -22 -1 21.31 8.82
-8 -22 -1 26.17 8.69
30 -8 2 3.18 9.55
-8 -22 2 27.54 8.02
-8 -22 5 -3.77 5.93
-8 -22 5 9.27 5.99
30 -8 5 4.8 5.97
30 -8 5 2.64 5.71
30 -7 -5 2.31 5.11
-7 -23 -5 0.94 6.47
-7 -23 -5 8.07 5.6
30 -7 -2 3.91 9.02
30 -7 -2 4.46 9.24
-7 -23 -2 11.67 7.69
-7 -23 -2 0.97 6.98
30 -7 1 6.62 9.14
30 -7 1 22.86 9.79
-7 -23 1 20.51 8
-7 -23 4 21.44 6.86
30 -7 4 17.75 6.85
30 -7 4 14.28 6.25
30 -6 -6 58.84 8.52
-6 -24 -6 52.24 7.96
30 -6 -3 156.4 14.63
-6 -24 -3 161.44 14.22
-6 -24 -3 123.66 13.91
30 -6 0 70.69 11.04
30 -6 0 70.53 10.96
-6 -24 0 58.82 9.77
-6 -24 3 14.59 6.99
30 -6 3 19.45 6.53
30 -6 6 39.48 6.93
30 -6 6 49.55 6.06
30 -6 6 46.89 6.48
30 -5 -4 3.03 7.42
-5 -25 -4 1.26 6.06
-5 -25 -4 6.37 5.76
30 -5 -1 4.47 8.75
30 -5 -1 20.16 8.73
-5 -25 -1 10.75 7.05
-5 -25 -1 12.98 7.11
-5 -25 2 6.12 6.67
30 -5 2 11.3 6.79
30 -5 2 3.94 8.19
-5 -25 5 7.07 5.35
30 -5 5 6.83 4.68
30 -4 -5 10.13 7.83
-4 -26 -5 7.64 5.97
30 -4 -2 15.99 7.89
-4 -26 -2 7.61 6.56
-4 -26 -2 8.16 6.55
30 -4 1 -5.4 6.46
30 -4 1 -0.87 7.76
-4 -26 1 3.96 6.83
-4 -26 4 2.83 5.56
30 -4 4 5.14 4.64
30 -3 -6 44.05 6.2
-3 -27 -6 42.03 5.66
-3 -27 -6 38.63 5.09
30 -3 -3 119.06 11.88
-3 -27 -3 98.25 10.63
30 -3 0 58.77 8.23
30 -3 0 55.6 8.57
-3 -27 0 33.93 7.29
-3 -27 0 40.1 7.72
-3 -27 0 46.85 8.3
30 -3 3 4.86 5.94
30 -3 3 5.64 4.85
-3 -27 3 13.07 6.07
30 -3 6 33.13 4.39
30 -2 -4 2.17 7.34
-2 -28 -4 3.76 5.77
-2 -28 -4 7.79 4.8
-2 -28 -1 2.29 5.96
30 -2 2 7.15 6.01
-2 -28 2 7.74 5.97
30 -2 5 4.28 5.03
30 -1 -5 14.66 5.77
-1 -29 -5 9.66 4.67
30 -1 -2 11.98 7.66
-1 -29 -2 2.04 5.48
30 -1 1 0.27 5.7
-1 -29 1 4.34 5.94
-1 -29 1 9.03 5.15
30 -1 4 7.08 6.46
0 -30 -3 79.46 8.81
0 -30 -3 73.94 9.22
0 -30 0 27.61 6.01
0 -30 0 22.15 5.82
30 0 3 7.51 6.48
0 -30 3 9.48 6.67
30 1 -4 1.07 3.39
30 1 -4 6.94 5.44
1 -31 -4 6.8 3.75
30 1 -1 2.91 5.1
1 -31 -1 9.21 4.88
30 1 2 14.93 5.41
1 -31 2 14.59 6.23
30 1 5 7.04 3.13
30 2 -2 7.44 4.81
30 2 1 5.9 5.03
2 -32 1 10.27 5.6
30 2 4 5.53 4
2 -32 4 11.36 4.52
30 3 0 16.65 4.99
3 -33 0 14.81 5.06
30 3 3 7.41 4.03
3 -33 3 7.82 4.34
30 4 2 20.98 4.24
4 -34 2 18.19 4.57
-26 -5 0 63.17 8.77
31 -25 -1 13.17 7.52
-25 -6 -1 8.03 6.73
31 -24 -2 38.14 8.73
-24 -7 -2 45.53 7.89
31 -24 1 23.44 8.63
31 -24 4 11.05 5.44
31 -23 -3 46.97 8.9
-23 -8 -3 32.25 7.2
31 -23 0 62.86 10.08
-23 -8 0 35.31 8.69
-23 -8 3 9.97 5.95
31 -23 3 19.49 6.62
31 -22 -1 38.63 9.75
-22 -9 -1 21.75 8.13
-22 -9 2 7.08 6.26
31 -22 2 6.61 8.85
31 -22 5 17.8 5.7
31 -21 -5 59.54 7.05
-21 -10 -5 47.79 7.13
31 -21 -2 84.4 11.6
-21 -10 -2 75.93 10.55
-21 -10 1 13.73 7.33
31 -21 1 32.55 9.86
31 -21 4 17.48 6.59
31 -20 -6 10.08 5.27
-20 -11 -6 3.45 4.44
-20 -11 -3 13.83 7.56
-20 -11 -3 12 5.84
-20 -11 0 6.77 7.58
31 -20 0 27.34 10.18
31 -20 3 14.56 9.51
-20 -11 6 11.68 5.7
31 -20 6 6.9 6.1
31 -19 -4 52.26 8.16
-19 -12 -4 63.68 9.16
31 -19 -1 31.69 10.44
-19 -12 -1 24.47 8.7
-19 -12 -1 17.28 7.76
-19 -12 2 13.43 7.6
31 -19 2 4.03 9.28
-19 -12 5 13.64 5.84
31 -19 5 18.12 6.46
31 -18 -5 53.62 7.45
-18 -13 -2 79.26 11.5
-18 -13 -2 82.5 11.04
-18 -13 1 25.3 8.26
31 -18 1 28.11 6.95
31 -18 1 16.61 10.4
-18 -13 4 11.94 6.46
31 -18 4 22.7 7.16
-18 -13 7 15.29 4.44
31 -18 7 34.68 4.95
-17 -14 -6 12.97 6
-17 -14 -3 11.59 7.87
-17 -14 -3 10.7 6.5
-17 -14 0 1.16 7.89
-17 -14 0 24.58 9.01
-17 -14 3 32.18 7.43
31 -17 3 21.2 6.5
-17 -14 6 24.1 6.47
-16 -15 -7 10.58 3.48
31 -16 -4 41.13 7.93
-16 -15 -4 48.97 8.57
-16 -15 -4 43.8 7.34
-16 -15 -1 40.71 9.89
-16 -15 -1 45.1 9.13
-16 -15 2 -2.36 7.31
31 -16 2 2.84 7.01
-16 -15 5 11.41 6.12
31 -15 -5 28.06 7.19
-15 -16 -5 24.4 5.75
31 -15 -2 50.18 10.04
-15 -16 -2 64.98 10.12
-15 -16 -2 54.92 9.63
-15 -16 1 10.1 8.26
31 -15 1 6.81 7.2
-15 -16 4 27.33 7.38
31 -15 4 29.91 7.6
-15 -16 7 17.05 4.74
31 -15 7 27.56 5.02
31 -14 -6 39.29 6.87
31 -14 -6 30.43 7.36
-14 -17 -6 36.93 7.51
31 -14 -3 16.02 7.59
31 -14 -3 24.01 8.25
-14 -17 -3 24.86 8.09
-14 -17 -3 10.23 6.73
-14 -17 0 17.61 8.87
31 -14 0 16.75 8.31
31 -14 0 21.07 11.11
-14 -17 3 52.62 8.63
-14 -17 3 38.55 8.43
31 -14 3 37.22 7.6
31 -14 3 43.96 7.79
31 -14 3 56.13 10.51
-14 -17 6 23.54 6.96
31 -14 6 28.55 6.88
31 -13 -7 7.68 3.82
31 -13 -7 15.12 4.66
-13 -18 -7 10.5 4.03
31 -13 -4 44.85 7.86
31 -13 -4 45.19 8.83
-13 -18 -4 57.93 8.85
-13 -18 -4 26.27 7.17
31 -13 -1 40.19 9.9
31 -13 -1 45.51 11.04
-13 -18 -1 41.09 9.26
-13 -18 2 16.86 7.65
31 -13 2 14.57 7.02
31 -13 2 6.6 9.66
-13 -18 5 -3.02 5.91
31 -13 5 3.24 5.32
31 -13 5 -0.88 6.08
31 -12 -5 30.86 6.56
31 -12 -5 41.52 7.81
-12 -19 -5 52.14 8.03
-12 -19 -5 19.76 5.92
31 -12 -2 58.68 10.37
31 -12 -2 77.18 11.49
-12 -19 -2 52.19 9.76
-12 -19 1 7.39 7.99
31 -12 1 13.73 7.22
31 -12 1 18.42 10.21
-12 -19 1 -2.07 7.9
-12 -19 4 -0.94 6.66
31 -12 4 9.42 6.21
31 -12 4 6.54 6.27
31 -12 4 9.54 6.68
-12 -19 7 10.76 4.2
31 -12 7 12.11 4.31
31 -11 -6 41.45 6.7
31 -11 -6 40.12 8.07
-11 -20 -6 37.04 7.32
-11 -20 -6 57.95 7.93
31 -11 -3 28.95 8.54
-11 -20 -3 14.32 6.98
-11 -20 0 21.11 8.18
31 -11 0 21.78 9.51
31 -11 0 26.42 10.55
-11 -20 0 22.32 8.59
31 -11 3 91.89 10.58
31 -11 3 90.29 10.56
31 -11 3 101.91 12.24
-11 -20 6 44.14 7.68
31 -11 6 48.95 7.36
31 -10 -7 13.69 4.78
-10 -21 -7 1.82 3.8
31 -10 -4 17.46 6.32
31 -10 -4 20.58 8.14
-10 -21 -4 14.68 6.36
31 -10 -1 7.66 8.92
31 -10 -1 13.93 9.77
-10 -21 -1 10.58 7.99
-10 -21 -1 19.5 7.94
31 -10 2 10.19 7.01
31 -10 2 12.65 9.26
-10 -21 2 5.13 7.2
-10 -21 5 3.64 5.86
31 -10 5 10.08 6.05
31 -10 5 8.98 5.76
31 -9 -5 15.59 7.35
-9 -22 -5 12.99 5.68
31 -9 -2 25.03 8.65
31 -9 -2 24.8 9.37
-9 -22 -2 16.99 7.77
-9 -22 -2 11.75 7.3
31 -9 1 10.03 7.13
31 -9 1 17.93 9.47
-9 -22 1 14.84 7.52
-9 -22 4 7.32 6.44
31 -9 4 0.87 6.15
31 -9 4 8.77 6.15
31 -9 4 7.96 6.05
31 -8 -6 88.51 8.35
-8 -23 -6 54.3 7.55
31 -8 -3 27.97 8.55
31 -8 -3 35.03 8.65
-8 -23 -3 15.35 7.21
-8 -23 -3 22.87 7.02
31 -8 0 37.06 9.48
31 -8 0 43.84 9.84
-8 -23 0 43.58 8.52
31 -8 3 90.01 11.25
-8 -23 3 110.95 11.02
-8 -23 3 119.15 11.71
-8 -23 6 27.67 5.6
31 -8 6 51.19 5.76
31 -7 -4 4.48 7.35
-7 -24 -4 0.62 6.19
-7 -24 -4 7.47 5.87
31 -7 -1 4.76 8.4
31 -7 -1 1.78 8.9
-7 -24 -1 10.28 7.17
-7 -24 -1 4.6 7.14
-7 -24 2 0.72 6.75
31 -7 2 6.24 8.07
-7 -24 2 2.08 6.08
-7 -24 5 3.82 5.74
31 -7 5 11.47 6.27
31 -7 5 6.16 5.04
31 -6 -5 7.89 6.52
-6 -25 -5 6.08 6.67
-6 -25 -5 1.89 6.08
31 -6 -2 5.56 8
31 -6 -2 2.89 7.79
-6 -25 -2 11.04 6.5
31 -6 1 29.12 6.93
31 -6 1 15.38 8.3
-6 -25 1 -1.81 6.24
-6 -25 1 15.5 7.2
-6 -25 4 10 6.04
31 -6 4 8.04 6.18
31 -6 4 6.99 5.12
31 -5 -6 36.19 5.58
-5 -26 -6 28.78 4.82
-5 -26 -6 35.64 4.83
31 -5 -3 16.08 7.31
-5 -26 -3 5.83 5.8
-5 -26 -3 7.4 5.98
31 -5 0 44.59 9.3
31 -5 0 53.5 8.04
31 -5 0 46.5 8.42
-5 -26 0 23.23 6.83
-5 -26 0 41.7 7.4
-5 -26 0 45.22 7.82
-5 -26 0 44.85 8.06
31 -5 3 99.73 10.28
31 -5 3 92.31 9.55
-5 -26 3 105.48 10.48
31 -4 -4 8.6 7.45
-4 -27 -4 -1.44 6.14
-4 -27 -4 4.55 5.21
-4 -27 -4 6.54 5.83
31 -4 -1 16.18 7.21
-4 -27 -1 -2.69 5.76
-4 -27 -1 10.85 6.32
31 -4 2 -1.14 5.89
31 -4 2 1.64 4.81
-4 -27 2 10.99 5.36
-4 -27 2 2.37 6.1
31 -3 -5 8.42 5.29
-3 -28 -5 3.02 3.48
-3 -28 -2 6.59 5.59
31 -3 1 9.72 5.86
-3 -28 1 2.34 5.66
-3 -28 1 2.57 5.29
-3 -28 1 0.3 5.88
31 -2 -3 10.87 7.72
-2 -29 -3 2.85 5.47
-2 -29 -3 16.39 6.15
31 -2 0 32.63 6.31
-2 -29 0 15.28 5.42
-2 -29 0 23.07 5.75
31 -2 3 66.38 8.78
31 -1 -4 8.32 3.72
31 -1 -4 9.26 5.37
-1 -30 -4 3.56 3.95
31 -1 -1 11.76 5.47
-1 -30 -1 13.06 5.28
31 -1 2 11.16 5.72
-1 -30 2 10.51 6.13
31 -1 5 5.42 3.13
31 0 -2 3.94 5.3
0 -31 -2 0.24 5.44
31 0 1 9.29 5.48
0 -31 1 5.28 5.24
31 0 4 8.01 4.1
0 -31 4 4.26 4.6
31 1 0 26.09 5.96
31 1 3 40.39 5.5
1 -32 3 33.39 5.71
31 2 -1 15.06 3.96
31 2 2 7.67 4.34
2 -33 2 10.9 4.29
31 3 1 3.59 3.8
-29 -3 1 12.12 4.76
-28 -4 0 20.28 5.57
-27 -5 -1 3.23 5.15
-26 -6 -2 1.28 5.13
-26 -6 1 20.52 6.8
32 -25 0 11.45 7.7
-25 -7 0 11.02 6.57
-25 -7 3 5.55 4.96
32 -24 -1 23.09 8.24
-24 -8 -1 20.83 6.95
-24 -8 2 6.45 5.27
-24 -8 5 12.58 5.52
32 -23 -2 0.94 8.08
-23 -9 -2 14.42 7.05
-23 -9 1 36.05 7.18
32 -23 1 67.15 9.56
-23 -9 4 52.76 7.24
32 -23 4 60.65 7.42
32 -22 -3 8.43 7.86
-22 -10 -3 9.11 6.41
32 -22 0 10.17 8.66
-22 -10 0 -0.74 7.25
-22 -10 0 1.07 5.81
-22 -10 3 7.72 6.13
32 -22 3 15.12 6.33
-22 -10 6 9.85 4.19
32 -22 6 15.06 4
32 -21 -4 2.1 7.39
32 -21 -1 17.54 9.19
-21 -11 -1 12.75 7.51
-21 -11 -1 3.22 5.98
-21 -11 2 39.34 7.38
32 -21 2 37.37 9.7
32 -21 5 26.01 6.32
-20 -12 -5 35.72 6.56
32 -20 -2 6.36 8.78
-20 -12 -2 0.37 7.27
-20 -12 1 48.07 8.41
32 -20 1 73.79 10.71
32 -20 4 85.35 9.59
-19 -13 -6 4.97 4.1
32 -19 -3 3.67 8.64
-19 -13 -3 3.14 7.07
-19 -13 -3 0.34 5.47
-19 -13 0 9.12 7.09
32 -19 0 12.37 9.4
-19 -13 0 29.57 8.66
-19 -13 3 21.85 7.1
32 -19 6 11.91 4.8
32 -18 -7 13.75 3.92
-18 -14 -4 15.52 6.96
-18 -14 -4 -0.54 4.79
-18 -14 -1 7.29 7.77
-18 -14 -1 9.74 7.05
-18 -14 2 33.1 7.81
-18 -14 5 23.7 5.98
32 -18 5 19.5 6.36
-17 -15 -5 26.47 6.85
-17 -15 -2 1.59 7.45
-17 -15 -2 11.7 6.68
-17 -15 1 53.36 8.76
32 -17 1 44.28 7.58
-16 -16 -6 2.77 4.36
-16 -16 -6 3.38 5.05
-16 -16 -3 21.54 7.75
-16 -16 -3 15.96 6.47
-16 -16 0 47.66 9.19
32 -16 0 64.38 8.63
-16 -16 0 66.32 10.02
-16 -16 3 28.76 7.62
32 -16 3 32.54 6.56
-16 -16 6 3.55 4.79
32 -15 -7 20.9 4.24
32 -15 -4 19.37 6.44
32 -15 -4 11.04 6.93
-15 -17 -4 13.83 7.11
-15 -17 -4 11.09 5.5
32 -15 -1 0.62 9.41
-15 -17 -1 -7.81 7.9
-15 -17 -1 -3.71 7.34
-15 -17 2 33.89 7.93
32 -15 2 25.06 6.93
32 -15 2 35.21 9.88
-15 -17 5 15.42 6.31
-15 -17 5 19.26 6.32
32 -15 5 30.59 6.68
32 -14 -5 27.47 6.09
32 -14 -5 16.01 6.56
-14 -18 -5 16.36 6.66
-14 -18 -5 14.23 5.09
32 -14 -2 0.46 7.47
32 -14 -2 2.05 9
-14 -18 -2 10.36 7.59
-14 -18 -2 2.86 6.76
-14 -18 1 38.12 8.43
32 -14 1 36.34 7.51
32 -14 1 20.91 10.03
-14 -18 1 46.43 8.83
-14 -18 4 47.52 7.85
32 -14 4 40.82 7.74
-14 -18 7 11.67 3.42
32 -14 7 12.7 3.27
32 -13 -6 4.07 5.11
-13 -19 -6 2.38 4.52
-13 -19 -6 -0.62 4.91
32 -13 -3 28.99 8.01
32 -13 -3 31.45 9.02
-13 -19 -3 23.47 7.78
-13 -19 -3 22.38 6.79
-13 -19 0 84.42 11.24
32 -13 0 77.74 11.12
32 -13 0 101.28 12.73
-13 -19 0 117.56 11.89
-13 -19 3 44.33 8.31
32 -13 3 48.67 7.72
32 -13 3 61.37 8.06
32 -13 3 61.55 10
-13 -19 6 9.89 5.08
32 -13 6 2.08 4.76
32 -12 -4 5.58 6.88
-12 -20 -4 13.38 6.02
32 -12 -1 3.97 7.8
32 -12 -1 13.46 9.25
-12 -20 -1 0.39 7.56
-12 -20 -1 12.97 7.39
-12 -20 2 17.81 7.16
32 -12 2 10.55 6.71
32 -12 2 12.53 9.08
-12 -20 2 19.44 7.43
-12 -20 5 11.97 6.06
32 -12 5 8.79 5.24
32 -12 5 15.58 6.01
32 -11 -5 25.49 7.32
-11 -21 -5 21.03 7.18
-11 -21 -5 9.19 5.27
32 -11 -2 5.94 7.77
32 -11 -2 -0.27 8.91
-11 -21 -2 7.99 6.7
-11 -21 1 18.67 7.49
32 -11 1 21.95 7.13
32 -11 1 39.09 9.54
-11 -21 1 26.46 7.83
-11 -21 4 26.93 6.89
32 -11 4 29.55 6.42
-11 -21 4 19.73 6.37
32 -11 4 32.8 6.62
32 -10 -6 6.6 5.05
32 -10 -6 10.41 5.3
-10 -22 -6 7.52 4.21
-10 -22 -6 5.14 4.57
32 -10 -3 49.45 8.88
32 -10 -3 66.71 9.55
-10 -22 -3 39.15 7.94
32 -10 0 137.81 12.71
32 -10 0 115.35 13.15
32 -10 0 133.37 13.74
-10 -22 0 130.86 13.22
-10 -22 0 117.95 13
32 -10 3 53.97 8.28
32 -10 3 59.58 8.42
-10 -22 3 74.54 8.71
-10 -22 6 13.94 4.41
32 -10 6 5.71 3.96
32 -9 -4 3.64 7.19
32 -9 -4 17.45 7.31
-9 -23 -4 2.4 6.26
-9 -23 -4 8.83 5.67
32 -9 -1 8.91 8.28
32 -9 -1 14.24 8.61
-9 -23 -1 -3.53 6.83
-9 -23 -1 6.62 6.75
32 -9 2 7.77 6.45
32 -9 2 8.9 8.51
-9 -23 2 -2.13 6.23
-9 -23 5 7.02 6.29
32 -9 5 4.72 5.92
32 -9 5 15.95 5.94
32 -8 -5 10.5 6.97
-8 -24 -5 8.18 5.71
-8 -24 -5 13.53 5.83
32 -8 -2 9.74 7.96
32 -8 -2 -4.96 7.81
-8 -24 -2 11.33 6.57
-8 -24 -2 -5.71 6.06
32 -8 1 15.69 8.21
-8 -24 1 6.19 6.49
-8 -24 4 4.41 5.75
32 -8 4 18.03 6.01
32 -8 4 8.82 5.26
-7 -25 -6 0.88 3.28
-7 -25 -6 2.34 3.3
32 -7 -3 49.46 8.78
32 -7 -3 64.86 8.54
-7 -25 -3 57.73 7.85
-7 -25 -3 40.06 7.47
32 -7 0 138.54 12.44
32 -7 0 131.52 13.08
32 -7 0 129.77 12.87
-7 -25 0 127.82 12.18
-7 -25 0 96.21 12.1
-7 -25 3 46 7.73
32 -7 3 39.95 7.45
32 -7 3 56.64 6.95
32 -6 -4 5.61 6.63
-6 -26 -4 10.33 5.99
-6 -26 -4 3.38 6.08
32 -6 -1 8.15 7.83
32 -6 -1 16.44 7.56
-6 -26 -1 4.48 6.08
-6 -26 -1 1.54 5.95
32 -6 2 8.32 5.79
32 -6 2 13.12 5.6
-6 -26 2 7.75 6.18
32 -6 5 3.53 4.46
-5 -27 -5 2.5 3.63
32 -5 -2 14.89 6.81
-5 -27 -2 1.71 5.04
32 -5 1 7.94 5.65
-5 -27 1 4.97 5.58
-5 -27 1 17.94 6.31
-5 -27 4 4.76 5.41
32 -4 0 103.92 10.07
-4 -28 0 89.15 10
32 -4 3 42.57 7.04
-4 -28 3 29.99 6.39
32 -3 -4 7.36 5.11
-3 -29 -4 -0.57 3.83
32 -3 -1 -1.36 5.29
-3 -29 -1 3.53 5.06
32 -3 2 5.03 5.8
-3 -29 2 2.97 5.8
-3 -29 5 3.6 3.31
32 -2 -2 -0.18 5.59
32 -2 -2 0.52 7.21
-2 -30 -2 6.48 5.48
32 -2 1 2.07 5.7
-2 -30 1 3.05 4.89
32 -2 4 -1.27 3.99
-2 -30 4 -1.78 4.26
32 -1 -3 31.22 4.53
32 -1 0 87.7 9.15
32 -1 3 18.36 4.71
-1 -31 3 20.48 4.82
32 0 -1 4.26 3.86
32 0 2 10.88 4.31
0 -32 2 3.65 3.92
32 1 1 4.32 4.05
32 2 0 15.41 3.7
-29 -4 2 8.38 5.1
-28 -5 1 33.96 6.07
-27 -6 0 20.45 5.77
-26 -7 -1 16.33 5.93
-25 -8 -2 34.71 6.57
33 -25 1 78.71 9.24
-25 -8 1 66.16 8.88
-25 -8 4 9.6 4.97
33 -24 -3 6.86 6.64
-24 -9 -3 2.66 5.22
33 -24 0 20.65 7.59
-24 -9 0 17.96 6.81
-24 -9 3 19.39 5.21
33 -24 3 20.71 5.52
33 -23 -4 11.23 7.26
33 -23 -1 23.31 8.14
-23 -10 -1 18.74 6.79
-23 -10 2 7.73 5.52
33 -23 2 14.08 7.75
-23 -10 5 0.47 4.21
33 -23 5 0.43 4.13
33 -22 -5 16.24 6.1
-22 -11 -5 3.3 4.32
33 -22 -2 109.12 11.32
-22 -11 -2 86.47 10.44
33 -22 1 137.63 12.47
-22 -11 1 123.39 12.02
-22 -11 4 21.15 5.87
33 -22 4 21.83 5.9
33 -21 -6 8.73 4.57
33 -21 -3 13.87 8.01
-21 -12 -3 17.85 6.37
33 -21 0 13.41 8.52
-21 -12 0 19.24 7.28
-21 -12 0 16.73 6.08
-21 -12 3 10.64 5.95
33 -21 3 17.4 6.33
-21 -12 6 0.54 3.83
33 -21 6 8.2 3.46
33 -20 -4 19.23 7.58
33 -20 -1 36.74 9.2
-20 -13 -1 23.67 7.73
-20 -13 -1 26.09 6.65
-20 -13 2 18.16 6.7
33 -20 2 13.74 8.75
-20 -13 5 -4.2 5.93
33 -20 5 7.44 5.56
33 -19 -5 17 7.4
-19 -14 -5 11.86 6.07
33 -19 -2 94.24 11.24
-19 -14 -2 79.13 10.5
33 -19 1 126.53 12.72
-19 -14 1 122.64 12.23
-19 -14 1 88.15 11.33
-19 -14 4 21.75 6.42
33 -19 4 22.89 6.37
-18 -15 -6 1.73 3.35
-18 -15 -3 29.08 7.3
-18 -15 -3 12.69 5.73
-18 -15 0 14.36 7.14
33 -18 0 26.03 6.19
-18 -15 0 38.36 8.4
-18 -15 3 -3.05 6.14
-18 -15 6 5.15 4.33
33 -18 6 16.6 4.24
-17 -16 -4 12.88 4.78
-17 -16 -1 41.22 8.26
-17 -16 -1 21.61 7.32
-17 -16 2 29.26 7.44
33 -17 2 29.45 6.22
-17 -16 5 1.17 6.24
-16 -17 -5 7.54 6.61
-16 -17 -2 72.92 9.94
-16 -17 1 57.48 8.88
33 -16 1 66.5 8.2
-16 -17 4 22.4 6.61
33 -16 4 13.51 6.16
33 -15 -6 21.26 5.3
-15 -18 -6 18.11 4.47
33 -15 -3 51.7 9.16
-15 -18 -3 68.86 8.55
-15 -18 0 11.65 7.3
33 -15 0 28.15 6.64
33 -15 0 28.4 9.09
-15 -18 3 1.6 6.38
33 -15 3 6.79 5.47
33 -15 6 13.9 4.17
33 -14 -4 11.53 6.39
33 -14 -4 11.17 7.43
-14 -19 -4 -2.58 4.97
33 -14 -1 29.34 9.27
-14 -19 -1 22.14 7.37
-14 -19 2 32.9 7.69
33 -14 2 36.64 6.81
33 -14 2 29 9.11
-14 -19 2 29.17 7.74
-14 -19 5 4.83 5.96
33 -14 5 2.56 5.73
33 -13 -5 17.39 6.72
33 -13 -5 13.08 7.26
-13 -20 -5 11.49 6.14
-13 -20 -5 6.34 4.85
33 -13 -2 37.02 7.8
33 -13 -2 55.43 9.38
-13 -20 -2 37.36 7.61
-13 -20 1 50.36 8.95
33 -13 1 68.87 8.45
33 -13 1 60.56 10.4
-13 -20 1 69.33 9.4
-13 -20 4 14.97 5.86
33 -13 4 21.23 6.02
33 -12 -6 17.46 4.57
33 -12 -6 25.95 5.16
-12 -21 -6 20.89 3.9
-12 -21 -6 16.31 4.19
33 -12 -3 46.98 8.38
33 -12 -3 67.01 9.41
-12 -21 -3 57.46 8.17
33 -12 0 28.33 7.85
33 -12 0 24.14 6.72
33 -12 0 28.91 9.18
-12 -21 0 38.95 8
-12 -21 0 18.05 7.47
33 -12 3 1.18 5.38
33 -12 3 10.06 5.81
-12 -21 3 6.43 5.93
33 -12 3 19.27 6.15
-12 -21 6 10.51 4.11
33 -12 6 14.86 3.92
33 -11 -4 8.75 6.83
33 -11 -4 -3.8 7.43
-11 -22 -4 12.33 5.59
33 -11 -1 4.64 7.57
33 -11 -1 15.26 8.49
-11 -22 -1 18.49 7.2
-11 -22 -1 13.38 6.92
33 -11 2 13.81 6.26
33 -11 2 10.74 8.26
-11 -22 2 15.87 6.67
-11 -22 5 14.05 5.41
33 -11 5 5.67 4.44
33 -11 5 6.93 4.79
33 -10 -5 7.46 5.3
33 -10 -5 11.83 5.77
-10 -23 -5 5.2 4.75
33 -10 -2 13.94 7.22
33 -10 -2 16.99 8.02
-10 -23 -2 13.48 6.71
-10 -23 -2 13.4 6.07
33 -10 1 23.05 6.67
33 -10 1 17.31 8.29
-10 -23 1 22.45 7.02
-10 -23 1 21.19 7.14
-10 -23 4 9.89 6.17
33 -10 4 -3.23 5.49
33 -10 4 7.51 5.5
33 -9 -3 92.7 9.34
33 -9 -3 65.41 9.31
-9 -24 -3 71.49 8.81
-9 -24 -3 62.26 8.69
33 -9 0 23.8 8.3
-9 -24 0 34.79 7.3
-9 -24 0 41.45 7.72
-9 -24 3 -3.31 5.84
33 -9 3 8.29 5.59
33 -9 3 -3.43 5.6
33 -9 3 7.65 5.19
33 -8 -4 7.44 6.58
33 -8 -4 9.52 7.22
-8 -25 -4 0.22 5.69
-8 -25 -4 5.13 5.34
33 -8 -1 5.63 7.17
33 -8 -1 2.15 7.33
-8 -25 -1 6.2 6.12
-8 -25 2 3.78 6.05
33 -8 5 9.08 3.98
-8 -25 5 4.19 3.86
-7 -26 -5 1.22 3.82
-7 -26 -5 4.06 3.57
33 -7 -2 8.18 6.99
33 -7 -2 8.62 6.56
-7 -26 -2 7.49 5.32
33 -7 1 -0.26 5.68
33 -7 1 20.39 7.17
-7 -26 1 4.97 5.62
-7 -26 1 3.52 6.23
33 -7 4 5.08 4.79
33 -7 4 3.98 4.27
-7 -26 4 2.6 5.09
33 -6 -3 76.27 8.04
-6 -27 -3 61.7 7.65
-6 -27 -3 55.48 7.99
33 -6 0 19.23 5.98
33 -6 0 27.98 6.81
-6 -27 0 29.28 6.39
33 -6 3 -0.21 5.8
33 -6 3 5.77 4.28
-6 -27 3 3.19 6.12
-5 -28 -4 4.48 4.06
33 -5 -1 14.78 5.92
-5 -28 -1 14.18 6.04
33 -5 2 6.18 6.36
33 -5 2 10.05 6.1
-5 -28 2 1.34 5.54
-5 -28 2 2.7 5.89
33 -4 -2 11.07 5.33
-4 -29 -2 10.1 5.15
-4 -29 -2 4.01 5.01
33 -4 1 -0.62 5.98
-4 -29 1 5.1 4.71
-4 -29 4 7 4.34
33 -3 -3 38.92 5.08
-3 -30 -3 40.64 4.85
33 -3 0 22.67 5.71
-3 -30 0 14.69 5.12
-3 -30 3 1.18 4.07
33 -2 -1 4.79 4.03
-2 -31 -1 6.92 3.7
33 -2 2 4.57 4.22
-2 -31 2 6.13 3.79
33 -1 1 5.2 4.16
-28 -6 2 10.27 5.21
-27 -7 1 6.73 5.55
-27 -7 4 5.89 4.01
-26 -8 0 26.26 6.15
-25 -9 -1 -0.7 5.72
-25 -9 2 13.97 6.37
34 -24 -2 95.45 9.2
-24 -10 -2 58.44 8.4
34 -24 1 12.57 7.02
-24 -10 1 6.07 6.19
-24 -10 4 8.53 4.58
34 -23 -3 15.76 7.25
-23 -11 -3 10.27 5.52
34 -23 0 17.6 7.48
-23 -11 0 9.97 6.6
-23 -11 3 2.48 4.98
34 -23 3 10.26 5.28
34 -22 -4 7.13 7.12
34 -22 -1 3.2 7.47
-22 -12 -1 -0.6 6.44
-22 -12 2 -0.69 5.19
-22 -12 5 8.64 3.98
34 -22 5 4.13 3.63
34 -21 -5 59.95 6.16
-21 -13 -5 33.63 4.9
34 -21 -2 96.89 9.61
-21 -13 -2 71.97 8.83
-21 -13 1 9.06 5.81
34 -21 1 15.73 7.79
-21 -13 1 8.66 6.81
-21 -13 4 14.61 6.38
34 -21 4 11.25 5.86
34 -20 -3 16.07 7.52
-20 -14 -3 10.49 6.24
-20 -14 -3 10.32 4.44
34 -20 0 16.06 8.47
-20 -14 0 3.99 6.9
-20 -14 0 5.22 5.83
-20 -14 3 -2.73 5.66
34 -20 3 5.78 5.66
34 -19 -4 17.03 8.02
-19 -15 -1 20.32 7.25
-19 -15 -1 12.41 5.97
-19 -15 2 3.92 6.02
-19 -15 5 2.35 4.33
34 -19 5 10.24 4.35
-18 -16 -5 43.4 5.89
-18 -16 -2 76.55 8.89
-18 -16 -2 43.25 7.67
-18 -16 1 23.33 6.84
-18 -16 1 11.83 7.12
-18 -16 4 11.34 6.59
-17 -17 -3 14.95 6.51
-17 -17 -3 5.15 5.05
34 -17 0 2.58 5.25
-17 -17 0 7.59 6.95
-17 -17 0 6.39 6.36
-17 -17 3 29.83 6.7
-17 -17 6 6.69 3.05
34 -16 -4 10.7 7.97
-16 -18 -4 8.27 4.64
34 -16 -1 14.57 5.64
34 -16 -1 17.52 8.39
-16 -18 -1 22.82 7.18
-16 -18 -1 12.83 6.54
-16 -18 2 4.55 6.2
34 -16 2 3.78 5.07
34 -16 2 11.09 8.09
-16 -18 2 10.73 6.75
-16 -18 5 3.67 4.58
-16 -18 5 6.47 4.56
34 -16 5 6.93 4.4
34 -15 -5 32.69 6.2
-15 -19 -5 31.52 5.69
-15 -19 -2 45.11 7.98
-15 -19 -2 29.61 7.08
-15 -19 1 6.99 6.56
34 -15 1 5.48 5.44
34 -15 1 10.73 8.22
-15 -19 1 3.29 6.87
-15 -19 4 14.11 6.69
-15 -19 4 16.31 6.56
34 -15 4 23.65 6.44
34 -14 -3 6.1 7.41
-14 -20 -3 4.26 6.43
-14 -20 -3 2.45 5.15
34 -14 0 13.3 5.88
34 -14 0 17.18 8.37
-14 -20 0 21.61 7.07
-14 -20 0 21.02 6.96
-14 -20 3 39.1 7.26
-14 -20 3 41.35 7.14
34 -14 3 35.17 6.89
34 -13 -4 9.93 6.92
34 -13 -4 9.97 7.91
-13 -21 -4 13.58 5.69
34 -13 -1 18.07 5.86
34 -13 -1 19.8 8.16
-13 -21 -1 6.76 6.82
-13 -21 -1 11.43 6.47
-13 -21 2 2.11 6.07
34 -13 2 4.85 5.3
34 -13 2 17.93 8.01
-13 -21 2 11.97 6.29
-13 -21 5 0.53 4.17
34 -13 5 4.2 4
34 -12 -5 16 5.01
34 -12 -5 14.93 5.33
-12 -22 -5 11.74 4.2
-12 -22 -5 21.98 4.73
34 -12 -2 23.13 6.95
34 -12 -2 27.4 8.25
-12 -22 -2 36.48 7.29
-12 -22 -2 23.64 6.4
34 -12 1 7.23 5.57
34 -12 1 17.14 7.87
-12 -22 1 4.73 6.21
-12 -22 1 16.16 6.52
34 -12 4 12.15 5.53
34 -11 -3 4.99 6.77
34 -11 -3 13.1 7.93
-11 -23 -3 3.24 5.71
34 -11 0 21.02 6.14
34 -11 0 28.88 8.13
-11 -23 0 30.46 7.04
-11 -23 0 18.5 6.63
34 -11 3 48.71 7.06
34 -11 3 58.51 7.6
34 -11 3 56.62 7.52
34 -10 -4 5.98 5.31
34 -10 -4 2.09 5.93
-10 -24 -4 12.97 4.87
-10 -24 -4 10.35 4.47
34 -10 -1 6.29 6.76
34 -10 -1 10.13 7.19
-10 -24 -1 16.44 6.39
34 -10 2 8.93 5.53
34 -10 2 19.9 5.82
-10 -24 2 10.52 5.44
-10 -24 5 5.01 3.77
-9 -25 -5 4.09 3.21
-9 -25 -5 8.68 3.15
34 -9 -2 2.43 6.93
34 -9 -2 9.25 7.29
-9 -25 -2 3.41 6.01
34 -9 1 14.75 7.12
-9 -25 1 14.67 5.58
34 -9 4 12 4.15
34 -9 4 4.65 3.82
-9 -25 4 7.1 4.51
34 -8 -3 8.7 6.36
34 -8 -3 13.21 7.12
-8 -26 -3 10.02 5.13
-8 -26 -3 6.55 4.88
34 -8 0 34.6 6.99
-8 -26 0 16.64 5.72
-8 -26 0 18.08 6.01
34 -8 3 35.85 6.18
34 -8 3 45.57 5.9
-8 -26 3 38.04 6.61
-7 -27 -4 11.08 4.1
-7 -27 -4 4.61 3.33
34 -7 -1 8.71 5.97
34 -7 -1 4.51 6.39
-7 -27 -1 13.18 6.24
34 -7 2 3.74 5.63
-7 -27 2 1.52 5.38
34 -7 2 16.07 4.66
-7 -27 2 4.37 5.19
-7 -27 2 11.07 6.21
34 -6 -2 -1.6 4.61
34 -6 -2 -2.39 5.93
34 -6 1 1.79 5.5
-6 -28 1 4.35 5.06
34 -6 4 -0.11 3.2
-6 -28 4 5.46 3.43
34 -5 -3 11.16 3.82
-5 -29 -3 2.4 3.44
34 -5 0 17.14 5.13
-5 -29 0 11.83 4.9
34 -5 3 29.15 4.75
-5 -29 3 25.66 4.65
34 -4 -1 5.16 4.06
-4 -30 -1 5.49 3.89
34 -3 -2 6.22 3.19
34 -3 1 1.67 3.73
34 -2 0 13.12 3.34
-27 -8 -1 8.15 4.71
-27 -8 2 0.32 4.3
-26 -9 1 23.8 6.46
-26 -9 4 24.79 4.18
-25 -10 0 3.47 6
-25 -10 3 8.14 4.86
35 -24 -1 19.94 7.04
-24 -11 -1 9.6 6.27
-24 -11 2 -2.06 6.68
35 -24 2 14.97 5.39
35 -23 -2 13.43 7.16
-23 -12 -2 2.77 6.18
35 -23 1 65.38 8.22
-23 -12 1 53.4 7.73
-23 -12 4 29.7 4.98
35 -23 4 45.35 5.06
-23 -12 4 46.76 5.89
35 -22 -3 9.65 6.86
35 -22 0 9.72 7.39
-22 -13 0 8.21 6.4
-22 -13 0 2.27 4.46
-22 -13 3 6.2 5.61
-22 -13 3 1.61 6.19
35 -22 3 8.04 5.26
35 -21 -4 4.84 5.29
-21 -14 -4 5.57 4.26
35 -21 -1 9.76 7.38
-21 -14 -1 3.59 6.18
-21 -14 2 17.5 5.65
-21 -14 2 16.56 6.97
-21 -14 5 10.17 3.77
35 -20 -5 11.24 4.26
35 -20 -2 -2.84 7.41
-20 -15 -2 5.22 6.29
-20 -15 -2 3.28 4.89
35 -20 1 45.76 8.37
-20 -15 1 35.68 7.23
-20 -15 1 22.05 6.2
-20 -15 4 29.22 5.65
35 -20 4 47.69 5.75
-19 -16 -3 8.56 6.86
-19 -16 -3 9.07 4.61
-19 -16 0 15.61 6.74
-19 -16 0 0.97 5.19
-19 -16 3 9.35 6.38
-18 -17 -4 10.81 5.04
-18 -17 -1 6.25 6.5
-18 -17 2 -1.52 5.74
-18 -17 5 2.71 3.88
-18 -17 5 10.12 3.99
-17 -18 -5 19.91 3.98
35 -17 -2 3.42 4.52
-17 -18 -2 10.54 6.6
-17 -18 -2 5.88 5.4
-17 -18 1 27.2 6.7
-17 -18 4 20.91 5.38
-17 -18 4 28.21 5.69
35 -17 4 26.89 5.35
35 -16 -3 11.01 7.83
-16 -19 -3 12.83 5.67
35 -16 0 30.87 5.75
35 -16 0 45.71 8.34
-16 -19 3 14.58 6.82
-16 -19 3 21.48 7.13
35 -16 3 20.28 6.44
35 -15 -4 13.42 5.69
-15 -20 -4 0.63 4.88
-15 -20 -4 2.6 3.64
35 -15 -1 3.81 4.99
35 -15 -1 2.48 7.32
-15 -20 -1 6.4 5.64
-15 -20 2 6.87 6.05
35 -15 2 5.75 4.8
-15 -20 2 3.64 6.37
35 -15 5 9.06 3.59
35 -14 -5 15.37 4.21
-14 -21 -5 13.16 3.4
35 -14 -2 1.4 5.1
35 -14 -2 16.41 7.91
-14 -21 -2 13.28 5.99
35 -14 1 19.31 5.66
35 -14 1 31.58 7.9
-14 -21 1 20.83 6.81
-14 -21 1 22.58 6.53
35 -14 4 22.12 4.9
35 -13 -3 42.19 7.58
-13 -22 -3 12.62 5.91
35 -13 0 61.53 7.69
35 -13 0 75.7 9.22
-13 -22 0 63.72 8.58
-13 -22 0 54.18 8.26
-13 -22 3 32.43 6.5
35 -13 3 33.28 6.33
35 -12 -4 12.35 5.15
-12 -23 -4 5.09 3.64
35 -12 -1 7.08 5.51
35 -12 -1 8.07 7.63
-12 -23 -1 22.07 6.65
-12 -23 -1 2.53 6.11
35 -12 2 0.99 5.66
-12 -23 2 5.78 5.86
-12 -23 2 3.49 6.56
35 -11 -2 11.6 7.02
35 -11 -2 9.3 5.63
35 -11 -2 8.17 7.53
-11 -24 -2 -0.83 5.72
35 -11 1 7.49 5.07
35 -11 1 13.5 5.76
35 -11 1 17.12 7.62
-11 -24 1 5.11 5.82
-11 -24 1 8.21 6.53
35 -11 4 12.92 3.75
-11 -24 4 14.45 4.46
35 -10 -3 20.39 5.51
35 -10 -3 30.9 5.98
-10 -25 -3 24.17 5.04
-10 -25 -3 25.34 5.04
35 -10 0 65.3 8.31
35 -10 0 85.38 9.39
-10 -25 0 66.83 8.37
-10 -25 0 53.38 8.51
35 -10 3 20.44 4.52
35 -10 3 27.15 4.58
-10 -25 3 27.19 5.31
35 -9 -1 18.54 7.28
35 -9 2 2.42 4.67
-9 -26 2 1.28 4.29
35 -9 2 5.32 4.41
-9 -26 2 -2.33 4.39
-9 -26 2 6.89 5.22
35 -8 -2 2.59 4.15
35 -8 1 9.67 4.73
35 -8 1 8.65 4.35
-8 -27 1 5.14 4.44
35 -7 -3 23.3 3.85
-7 -28 -3 13.69 3.67
-7 -28 -3 19.21 3.84
35 -7 0 63.16 6.22
-7 -28 0 34.31 5.85
35 -7 3 13.25 3.71
35 -6 -1 6.65 3.93
-6 -29 -1 -2.6 3.69
35 -6 2 6.97 3.77
35 -5 -2 -0.1 2.85
35 -5 1 3.17 3.82
35 -5 1 2.12 3.58
35 -4 0 36.07 4.27
-26 -10 -1 -0.49 3.78
-26 -10 2 4.69 4.19
-25 -11 1 46.22 6.48
36 -24 0 9.79 6.51
-24 -12 0 8.25 5.78
-24 -12 3 8.86 4.47
36 -23 -1 14.01 7.05
-23 -13 -1 14.26 5.95
-23 -13 -1 6.34 4.86
-23 -13 2 6.93 5.26
36 -23 2 4.3 4.32
-23 -13 2 4.84 4.35
-22 -14 -2 48.15 6.61
-22 -14 -2 26.92 5.19
36 -22 1 75.56 9.03
-22 -14 1 71.2 8.44
36 -21 -3 11.08 5.29
36 -21 0 7.79 7.96
-21 -15 0 4.15 7.07
-21 -15 3 3.82 4.15
36 -21 3 2.71 4.1
36 -20 -4 8.31 4.8
-20 -16 -4 6.27 3.74
36 -20 -1 4.43 7.68
-20 -16 -1 3.39 6.84
-20 -16 -1 6.76 5.73
36 -20 2 15.2 5.33
-20 -16 2 3.2 5.43
-19 -17 -2 39.44 6.85
-19 -17 -2 24.85 5.84
-19 -17 1 56.4 8.53
-19 -17 1 39.88 7.03
-19 -17 4 9.18 4.18
-19 -17 4 17.33 4.49
-18 -18 -3 9.01 3.69
-18 -18 0 12.93 7.14
-18 -18 0 9.61 5.79
-18 -18 3 1.12 4.71
-18 -18 3 -1.95 4.96
36 -17 -4 8.43 4.83
-17 -19 -4 -0.31 3.99
36 -17 -1 3.52 7.72
-17 -19 -1 10.51 7.13
-17 -19 -1 5.01 6.12
-17 -19 2 15.6 6.2
36 -17 2 3.89 5.41
-17 -19 2 4.53 6.11
36 -16 -2 18.65 5
36 -16 -2 29.94 7.12
-16 -20 -2 14.06 6.19
-16 -20 -2 10.94 5.39
36 -16 1 45.44 8.65
-16 -20 1 25.71 7.69
-16 -20 1 32.21 7.23
-16 -20 4 6.93 4.14
36 -16 4 8.05 3.86
36 -15 -3 17.82 3.98
-15 -21 -3 14.29 4.13
36 -15 0 9.18 5.06
36 -15 0 19.04 8.2
-15 -21 0 11.72 7.15
-15 -21 0 8.32 6.58
-15 -21 3 7.76 4.33
36 -15 3 -0.83 4.2
-15 -21 3 -1.14 4.47
36 -14 -4 10.9 4.53
36 -14 -1 8.11 5.23
-14 -22 -1 3.9 6.32
-14 -22 -1 -3.01 5.83
36 -14 2 7.55 4.47
-14 -22 2 7.14 5.35
36 -14 2 7.36 4.81
-14 -22 2 5.57 5.32
36 -13 -2 18.47 4.56
-13 -23 -2 12.48 4.7
36 -13 1 17.61 5.32
-13 -23 1 22.88 6.35
-13 -23 1 8.98 5.97
36 -12 -3 19.7 4.34
36 -12 -3 32.76 5.39
-12 -24 -3 37.9 5.03
-12 -24 -3 23.55 4.52
36 -12 0 8.9 4.94
36 -12 0 21.56 7.05
-12 -24 0 10.95 5.67
36 -12 3 7.62 3.64
-12 -24 3 7.72 3.52
36 -11 -1 4.26 4.25
36 -11 -1 9.73 5.81
36 -11 2 9.18 3.74
-11 -25 2 5.39 4
-10 -26 -2 8.95 3.12
-10 -26 -2 13.35 4.33
36 -10 1 8.68 3.83
36 -10 1 11.03 4.16
36 -10 1 13.41 3.83
-10 -26 1 6.8 4.18
-9 -27 0 10.52 4.17
36 -8 -1 4.1 3.67
-8 -28 -1 -0.34 3.74
36 -7 1 -0.45 2.94
-25 -12 2 9.07 3.82
-24 -13 1 11.1 4.54
37 -24 1 4.34 3.31
37 -23 0 9.6 5.2
-23 -14 0 3.15 4.55
-23 -14 0 -1.32 3.48
-23 -14 3 0.5 3.24
37 -22 -1 8.35 5.49
-22 -15 -1 1.74 4.62
-22 -15 -1 0.6 3.36
-22 -15 2 7.63 4.59
37 -22 2 5.02 3.75
37 -21 -2 36.49 5.95
-21 -16 -2 33.96 5.42
-21 -16 1 11.31 5.22
-20 -17 -3 2.18 3.82
-20 -17 0 1.44 4.91
37 -20 3 5.74 3.49
-20 -17 3 8.83 3.72
-19 -18 -1 -0.8 4.87
-19 -18 -1 3.88 4.16
-19 -18 2 6.11 4.25
-18 -19 -2 15.76 3.97
-18 -19 1 5.32 4.72
37 -17 -3 4.54 4.54
-17 -20 -3 7.15 3.94
37 -17 0 13.37 5.91
-17 -20 0 0.95 4.51
-17 -20 3 13.09 4.06
37 -17 3 6.55 3.66
-17 -20 3 6.82 4.04
37 -16 -1 12.72 5.63
-16 -21 -1 0.22 4.21
-16 -21 2 11.12 4.56
37 -16 2 10.04 4.19
-16 -21 2 8.24 4.51
37 -15 -2 11.43 3.36
37 -15 -2 16.63 5.31
-15 -22 -2 7.68 3.9
-15 -22 1 3.16 4.52
-15 -22 1 -3.8 4.49
-14 -23 -3 2.21 2.85
37 -14 0 9.16 3.68
-14 -23 0 5.2 4.56
-14 -23 0 8.6 4.44
-14 -23 3 10.43 3.51
37 -13 -1 5.44 3.45
37 -13 -1 -1.26 4.98
-13 -24 -1 2.78 4.11
37 -13 2 9.02 3.5
-13 -24 2 4.81 3.43
-13 -24 2 -2.3 4.1
37 -12 -2 5 2.99
-12 -25 -2 5.09 3.3
37 -12 1 3.88 3.5
37 -12 1 4.68 3.33
-12 -25 1 3.71 3.82
37 -11 0 9.55 3.59
-11 -26 0 10.08 3.72
-23 -15 1 17.98 3.76
-22 -16 0 1.09 3.84
38 -21 -1 2.32 4.45
-21 -17 -1 2.39 3.72
-20 -18 1 13.5 3.88
-19 -19 0 3.06 4.26
-19 -19 0 5.07 3.59
38 -18 -1 9.59 4.56
-18 -20 -1 6.31 4.07
-18 -20 -1 11.92 3.51
38 -18 2 2.5 2.66
38 -17 -2 6.26 3.43
-17 -21 1 16.12 4.3
38 -17 1 21.35 3.71
-17 -21 1 17.41 3.8
-16 -22 0 16.27 4.24
-16 -22 0 16.84 3.84
-15 -23 -1 7.1 2.91
loop_
_platon_missing_refln_index_h
_platon_missing_refln_index_k
_platon_missing_refln_index_l
_platon_missing_refln_theta
0 2 4 18.220
