#------------------------------------------------------------------------------
#$Date: 2021-02-05 00:27:37 +0200 (Fri, 05 Feb 2021) $
#$Revision: 261525 $
#$URL: file:///home/coder/svn-repositories/cod/cif/7/12/75/7127529.cif $
#------------------------------------------------------------------------------
#
# This file is available in the Crystallography Open Database (COD),
# http://www.crystallography.net/
#
# All data on this site have been placed in the public domain by the
# contributors.
#
data_7127529
loop_
_publ_author_name
'Chen, Xi'
'Zhang, Zhongyue'
'Chen, Jin'
'Sapchenko, Sergei'
'Han, Xue'
'da-Silva, Ivan'
'Li, Ming'
'Vitorica-Yrezabal, Inigo J'
'Whitehead, George'
'Tang, Chiu C.'
'Awaga, Kunio'
'Yang, Sihai'
'Schr\"oder, Martin'
_publ_section_title
;
 Enhanced proton conductivity in a flexible metal-organic framework
 promoted by single-crystal-to-single-crystal transformation.
;
_journal_issue                   1
_journal_name_full
'Chemical communications (Cambridge, England)'
_journal_page_first              65
_journal_page_last               68
_journal_paper_doi               10.1039/d0cc05270a
_journal_volume                  57
_journal_year                    2021
_chemical_formula_moiety         'C8 H3 O4 Pb'
_chemical_formula_sum            'C8 H3 O4 Pb'
_chemical_formula_weight         370.30
_chemical_name_mineral           Pb_based_MOF
_space_group_IT_number           12
_space_group_name_Hall           '-C 2y'
_space_group_name_H-M_alt        'C 1 2/m 1'
_symmetry_cell_setting           monoclinic
_symmetry_space_group_name_Hall  '-C 2y'
_symmetry_space_group_name_H-M   'C 1 2/m 1'
_audit_update_record
;
2020-07-23 deposited with the CCDC.	2020-11-17 downloaded from the CCDC.
;
_cell_angle_alpha                90
_cell_angle_beta                 118.995(5)
_cell_angle_gamma                90
_cell_formula_units_Z            4
_cell_length_a                   9.3908(7)
_cell_length_b                   18.8473(8)
_cell_length_c                   4.6739(3)
_cell_measurement_temperature    298
_cell_volume                     723.55(9)
_diffrn_ambient_temperature      298
_diffrn_measurement_device_type  'Diamond I11 Powder Diffractometer'
_diffrn_radiation_type           synchrotron
_diffrn_radiation_wavelength     0.824869
_diffrn_source                   Synchrotron
_exptl_crystal_density_diffrn    3.39939
_pd_meas_scan_method             continuous
_pd_proc_ls_prof_R_factor        1.33439581
_pd_proc_ls_prof_wR_expected     1.14771012
_pd_proc_ls_prof_wR_factor       1.78731384
_pd_spec_mounting                'borosilicate capillary'
_pd_spec_mount_mode              transmission
_pd_spec_shape                   cylinder
_refine_ls_goodness_of_fit_all   1.55728682
_refine_ls_R_factor_all          0.775186427
_refine_ls_shift/su_max          0.001
_cod_data_source_file            d0cc05270a2.cif
_cod_data_source_block           Pb_based_MOF
_cod_depositor_comments
'Adding full bibliography for 7127527--7127529.cif.'
_cod_original_cell_volume        723.55(8)
_cod_original_sg_symbol_H-M      C2/m
_cod_database_code               7127529
loop_
_space_group_symop_id
_space_group_symop_operation_xyz
1 x,y,z
2 -x,y,-z
3 -x,-y,-z
4 x,-y,z
5 1/2+x,1/2+y,z
6 1/2-x,1/2+y,-z
7 1/2-x,1/2-y,-z
8 1/2+x,1/2-y,z
loop_
_atom_site_label
_atom_site_type_symbol
_atom_site_symmetry_multiplicity
_atom_site_fract_x
_atom_site_fract_y
_atom_site_fract_z
_atom_site_occupancy
_atom_site_B_iso_or_equiv
Pb1 Pb 4 0.5 0.72324(6) 1 1 0.81(4)
C1 C 4 0.2982(7) 0.5 1.3349(14) 1 0.5(2)
C2 C 8 0.2390(5) 0.5645(3) 1.1690(7) 1 0.5(2)
C3 C 8 0.1205(3) 0.5645(3) 0.8372(7) 1 0.5(2)
C4 C 4 0.0612(5) 0.5 0.6714(14) 1 0.5(2)
C7 C 8 0.3044(7) 0.6357(5) 1.3522(13) 1 0.5(2)
O1 O 8 0.3777(15) 0.6337(5) 1.670(2) 1 0.5(2)
O2 O 8 0.2809(13) 0.6920(5) 1.1739(15) 1 0.5(2)
H1 H 4 0.3911(8) 0.5 1.5949(14) 1 0.6(2)
H3 H 8 0.0740(3) 0.6150(3) 0.7072(7) 1 0.6(2)
loop_
_geom_angle_atom_site_label_1
_geom_angle_atom_site_label_2
_geom_angle_atom_site_label_3
_geom_angle
_geom_angle_site_symmetry_1
_geom_angle_site_symmetry_2
_geom_angle_site_symmetry_3
_geom_angle_publ_flag
O1 Pb1 O2 79.8(4) 1_554 . . no
O2 Pb1 O2 154.0(3) . . 2_657 no
O1 Pb1 O2 80.3(4) 2_658 . . no
O2 Pb1 O2 57.0(3) . . 7_567 no
O2 Pb1 O2 142.8(2) . . 8_565 no
O1 Pb1 O2 80.3(4) 1_554 . 2_657 no
O1 Pb1 O1 79.7(3) 1_554 . 2_658 no
O1 Pb1 O2 97.7(4) 1_554 . 7_567 no
O1 Pb1 O2 136.8(4) 1_554 . 8_565 no
O1 Pb1 O2 79.8(4) 2_658 . 2_657 no
O2 Pb1 O2 142.8(2) 2_657 . 7_567 no
O2 Pb1 O2 57.0(3) 2_657 . 8_565 no
O1 Pb1 O2 136.8(4) 2_658 . 7_567 no
O1 Pb1 O2 97.7(4) 2_658 . 8_565 no
O2 Pb1 O2 111.7(3) 7_567 . 8_565 no
Pb1 O1 C7 125.9(7) 1_556 . . no
Pb1 O2 C7 117.9(8) . . . no
Pb1 O2 Pb1 123.0(3) . . 7_567 no
Pb1 O2 C7 119.2(8) 7_567 . . no
C2 C1 C2 120.0(5) . . 4_565 no
C1 C2 C3 120.0(5) . . . no
C1 C2 C7 120.0(4) . . . no
C3 C2 C7 120.0(5) . . . no
C2 C3 C4 120.0(5) . . . no
C3 C4 C4 120.0(3) . . 2_556 no
C3 C4 C3 120.0(5) . . 4_565 no
C3 C4 C4 120.0(3) 4_565 . 2_556 no
O1 C7 O2 126.0(9) . . . no
O1 C7 C2 117.1(7) . . . no
O2 C7 C2 117.0(5) . . . no
C2 C1 H1 120.0(3) . . . no
C2 C1 H1 120.0(3) 4_565 . . no
C2 C3 H3 120.0(5) . . . no
C4 C3 H3 120.0(4) . . . no
loop_
_geom_bond_atom_site_label_1
_geom_bond_atom_site_label_2
_geom_bond_distance
_geom_bond_site_symmetry_1
_geom_bond_site_symmetry_2
_geom_bond_publ_flag
Pb1 O2 2.620(12) . . no
Pb1 O1 2.197(9) . 1_554 no
Pb1 O2 2.620(12) . 2_657 no
Pb1 O1 2.197(9) . 2_658 no
Pb1 O2 2.845(11) . 7_567 no
Pb1 O2 2.845(11) . 8_565 no
O1 C7 1.300(10) . . no
O2 C7 1.300(12) . . no
C1 C2 1.404(6) . . no
C1 C2 1.404(6) . 4_565 no
C2 C3 1.404(4) . . no
C2 C7 1.550(10) . . no
C3 C4 1.404(6) . . no
C4 C4 1.450(8) . 2_556 no
C1 H1 1.100(8) . . no
C3 H3 1.099(7) . . no
loop_
_geom_torsion_atom_site_label_1
_geom_torsion_atom_site_label_2
_geom_torsion_atom_site_label_3
_geom_torsion_atom_site_label_4
_geom_torsion
_geom_torsion_site_symmetry_1
_geom_torsion_site_symmetry_2
_geom_torsion_site_symmetry_3
_geom_torsion_site_symmetry_4
_geom_torsion_publ_flag
O1 Pb1 O2 C7 75.0(6) 1_554 . . . no
O2 Pb1 O2 C7 34.4(9) 2_657 . . . no
O1 Pb1 O2 C7 -6.2(6) 2_658 . . . no
O2 Pb1 O2 C7 -178.9(7) 7_567 . . . no
O2 Pb1 O2 C7 -96.1(7) 8_565 . . . no
Pb1 O1 C7 O2 -5.1(18) 1_556 . . . no
Pb1 O1 C7 C2 175.0(7) 1_556 . . . no
Pb1 O2 C7 O1 92.1(11) . . . . no
Pb1 O2 C7 C2 93.2(7) 7_567 . . . no
Pb1 O2 C7 C2 -87.9(7) . . . . no
Pb1 O2 C7 O1 -86.8(12) 7_567 . . . no
C2 C1 C2 C3 0.0(9) 4_565 . . . no
C2 C1 C2 C7 -180.0(6) 4_565 . . . no
C1 C2 C3 C4 0.0(7) . . . . no
C1 C2 C7 O2 161.7(8) . . . . no
C7 C2 C3 C4 -180.0(5) . . . . no
C1 C2 C7 O1 -18.3(11) . . . . no
C3 C2 C7 O1 161.6(9) . . . . no
C3 C2 C7 O2 -18.4(10) . . . . no
C2 C3 C4 C3 -0.1(7) . . . 4_565 no
C2 C3 C4 C4 -180.0(5) . . . 2_556 no
loop_
_pd_meas_2theta_scan
_pd_proc_intensity_total
_pd_calc_intensity_total
_pd_proc_ls_weight
2.50000 8928.39961 8904.69250 0.00011
2.50400 8840.02033 8903.72578 0.00011
2.50800 9004.86507 8902.76317 0.00011
2.51200 9045.79411 8901.80462 0.00011
2.51600 9002.03253 8900.85011 0.00011
2.52000 8987.97421 8899.89963 0.00011
2.52400 8874.34351 8898.95315 0.00011
2.52800 8933.13833 8898.01064 0.00011
2.53200 9030.95937 8897.07208 0.00011
2.53600 8971.78093 8896.13745 0.00011
2.54000 8929.44829 8895.20672 0.00011
2.54400 8801.92540 8894.27986 0.00011
2.54800 9017.70196 8893.35687 0.00011
2.55200 8913.48034 8892.43771 0.00011
2.55600 9000.14122 8891.52235 0.00011
2.56000 8977.82684 8890.61079 0.00011
2.56400 8799.42338 8889.70298 0.00011
2.56800 8866.58877 8888.79892 0.00011
2.57200 8991.22649 8887.89857 0.00011
2.57600 8893.42730 8887.00192 0.00011
2.58000 8945.53346 8886.10894 0.00011
2.58400 8910.69167 8885.21961 0.00011
2.58800 8861.78560 8884.33390 0.00011
2.59200 8891.94136 8883.45179 0.00011
2.59600 8997.10599 8882.57327 0.00011
2.60000 8985.09515 8881.69831 0.00011
2.60400 8931.02399 8880.82688 0.00011
2.60800 9019.17860 8879.95896 0.00011
2.61200 9044.41594 8879.09454 0.00011
2.61600 8977.58828 8878.23358 0.00011
2.62000 8942.90740 8877.37608 0.00011
2.62400 9010.17461 8876.52199 0.00011
2.62800 9006.36137 8875.67131 0.00011
2.63200 8945.74387 8874.82401 0.00011
2.63600 8841.57095 8873.98007 0.00011
2.64000 8842.01865 8873.41965 0.00011
2.64400 8826.23869 8872.58313 0.00011
2.64800 8989.86597 8871.74991 0.00011
2.65200 8800.46412 8870.91997 0.00011
2.65600 9031.84382 8870.09328 0.00011
2.66000 8924.86038 8869.26983 0.00011
2.66400 8853.75493 8868.44958 0.00011
2.66800 8993.01973 8867.63253 0.00011
2.67200 8851.99149 8866.81865 0.00011
2.67600 8855.53625 8866.00793 0.00011
2.68000 8867.36952 8865.20036 0.00011
2.68400 9221.82718 8864.39594 0.00011
2.68800 8943.61056 8863.59465 0.00011
2.69200 8913.95629 8862.79650 0.00011
2.69600 8887.35391 8862.00158 0.00011
2.70000 8871.42013 8861.20998 0.00011
2.70400 8925.52701 8860.42127 0.00011
2.70800 8942.54845 8859.63498 0.00011
2.71200 8938.69375 8858.85165 0.00011
2.71600 8754.46516 8858.07126 0.00011
2.72000 8735.46695 8857.29379 0.00011
2.72400 8932.77212 8856.51922 0.00011
2.72800 8850.87377 8855.74754 0.00011
2.73200 8860.28030 8854.97871 0.00011
2.73600 8815.53648 8854.21273 0.00011
2.74000 8897.42018 8853.44957 0.00011
2.74400 8810.07675 8852.68920 0.00011
2.74800 8792.10895 8851.93162 0.00011
2.75200 8860.07540 8851.17681 0.00011
2.75600 8873.69818 8850.42473 0.00011
2.76000 8791.66829 8849.67538 0.00011
2.76400 8789.03084 8848.92873 0.00011
2.76800 8867.59758 8848.18476 0.00011
2.77200 8871.56626 8847.44345 0.00011
2.77600 8789.10926 8846.70479 0.00011
2.78000 8784.67669 8845.96876 0.00011
2.78400 9003.46171 8845.23533 0.00011
2.78800 9007.69607 8844.50449 0.00011
2.79200 9053.51371 8843.77622 0.00011
2.79600 8813.74728 8843.05050 0.00011
2.80000 8753.28699 8842.32730 0.00011
2.80400 8880.07338 8841.60662 0.00011
2.80800 8911.12586 8840.88843 0.00011
2.81200 8893.06428 8840.17272 0.00011
2.81600 8735.23516 8839.45945 0.00011
2.82000 8771.24656 8838.74863 0.00011
2.82400 8859.14682 8838.04022 0.00011
2.82800 8891.28346 8837.33422 0.00011
2.83200 8987.42140 8836.63059 0.00011
2.83600 8761.00097 8835.92933 0.00011
2.84000 8775.11551 8835.23041 0.00011
2.84400 8641.88929 8834.53381 0.00012
2.84800 8689.48841 8833.83953 0.00012
2.85200 8848.96425 8833.14753 0.00011
2.85600 8845.00404 8832.45781 0.00011
2.86000 9065.01226 8831.77034 0.00011
2.86400 8782.73599 8831.08511 0.00011
2.86800 8757.01235 8830.40209 0.00011
2.87200 8839.96087 8829.72128 0.00011
2.87600 8869.16438 8829.04265 0.00011
2.88000 8815.05546 8828.36618 0.00011
2.88400 8696.51671 8827.69187 0.00011
2.88800 8805.39083 8827.01968 0.00011
2.89200 8903.67946 8826.34961 0.00011
2.89600 8893.85111 8825.68163 0.00011
2.90000 8825.12680 8825.01573 0.00011
2.90400 8764.14388 8824.35189 0.00011
2.90800 8932.15801 8823.69009 0.00011
2.91200 8814.15747 8823.03032 0.00011
2.91600 8743.97717 8822.37257 0.00011
2.92000 8842.65673 8821.71680 0.00011
2.92400 8762.99654 8821.06301 0.00011
2.92800 8745.62145 8820.41118 0.00011
2.93200 8717.20782 8819.76129 0.00011
2.93600 8803.74154 8819.11333 0.00011
2.94000 8668.13838 8818.46727 0.00012
2.94400 8920.19339 8817.82311 0.00011
2.94800 8775.48974 8817.18082 0.00011
2.95200 8782.55200 8816.54239 0.00011
2.95600 8866.56363 8815.91458 0.00011
2.96000 8774.67892 8815.30132 0.00011
2.96400 8777.64855 8814.70386 0.00011
2.96800 8649.38825 8814.12404 0.00012
2.97200 8906.69248 8813.56414 0.00011
2.97600 8733.16680 8813.02703 0.00011
2.98000 8682.06557 8812.51642 0.00012
2.98400 8725.57913 8812.03726 0.00011
2.98800 8807.60635 8811.59644 0.00011
2.99200 8997.19078 8811.20400 0.00011
2.99600 8840.67375 8810.87580 0.00011
3.00000 8817.94695 8810.63998 0.00011
3.00400 8931.95911 8810.55961 0.00011
3.00800 8871.24356 8810.84006 0.00011
3.01200 8850.57995 8811.58996 0.00011
3.01600 8828.76605 8811.69176 0.00011
3.02000 8938.45700 8811.10114 0.00011
3.02400 8924.70026 8810.51222 0.00011
3.02800 8993.47974 8809.92498 0.00011
3.03200 8759.21292 8809.33942 0.00011
3.03600 8840.04809 8808.75550 0.00011
3.04000 8801.29842 8808.17323 0.00011
3.04400 8689.31404 8807.59259 0.00012
3.04800 8724.33040 8807.01356 0.00011
3.05200 8796.78417 8806.43612 0.00011
3.05600 8809.30048 8805.86028 0.00011
3.06000 8736.63654 8805.28600 0.00011
3.06400 8837.23148 8804.71328 0.00011
3.06800 8754.91151 8804.14211 0.00011
3.07200 8739.63506 8803.57247 0.00011
3.07600 8740.05039 8803.00434 0.00011
3.08000 8746.08705 8802.43772 0.00011
3.08400 8959.24427 8801.87259 0.00011
3.08800 8776.62748 8801.30894 0.00011
3.09200 8844.82738 8800.74675 0.00011
3.09600 8752.84433 8800.18601 0.00011
3.10000 8695.10551 8799.62671 0.00012
3.10400 8621.70165 8799.06884 0.00012
3.10800 8849.38150 8798.51238 0.00011
3.11200 8857.27567 8797.95759 0.00011
3.11600 8863.18593 8797.40568 0.00011
3.12000 8743.14133 8796.85834 0.00011
3.12400 8857.37281 8796.31998 0.00011
3.12800 8846.86894 8795.79731 0.00011
3.13200 8757.95039 8795.27488 0.00011
3.13600 8627.04102 8794.74730 0.00012
3.14000 8698.35925 8794.23325 0.00011
3.14400 8710.10496 8793.73782 0.00011
3.14800 8789.39957 8793.27170 0.00011
3.15200 8715.61383 8792.86673 0.00011
3.15600 8633.53889 8792.56988 0.00012
3.16000 8842.20275 8792.25912 0.00011
3.16400 8832.57425 8791.72216 0.00011
3.16800 8743.49965 8791.18643 0.00011
3.17200 8677.92714 8790.65192 0.00012
3.17600 8646.05637 8790.11861 0.00012
3.18000 8723.73701 8789.58650 0.00011
3.18400 8654.77465 8789.05745 0.00012
3.18800 8726.89137 8788.52771 0.00011
3.19200 8811.23362 8787.99913 0.00011
3.19600 8765.96645 8787.47169 0.00011
3.20000 8649.46232 8786.94540 0.00012
3.20400 8603.10895 8786.42023 0.00012
3.20800 8774.60390 8785.89618 0.00011
3.21200 8674.04289 8785.37323 0.00012
3.21600 8608.73983 8784.85137 0.00012
3.22000 8604.06819 8784.33060 0.00012
3.22400 8768.30916 8783.81090 0.00011
3.22800 8778.24151 8783.29226 0.00011
3.23200 8900.59331 8782.77467 0.00011
3.23600 8797.50594 8782.25811 0.00011
3.24000 8797.36745 8781.74259 0.00011
3.24400 8643.21311 8781.22809 0.00012
3.24800 8628.23437 8780.71460 0.00012
3.25200 8875.96011 8780.20211 0.00011
3.25600 8689.36224 8779.69060 0.00012
3.26000 8609.20564 8779.18007 0.00012
3.26400 8667.89720 8778.67051 0.00012
3.26800 8764.18087 8778.16191 0.00011
3.27200 8774.33865 8777.65426 0.00011
3.27600 8758.81408 8777.14754 0.00011
3.28000 8734.85669 8776.64175 0.00011
3.28400 8727.41467 8776.13688 0.00011
3.28800 8638.31569 8775.63292 0.00012
3.29200 8666.74774 8775.12986 0.00012
3.29600 8643.46572 8774.62769 0.00012
3.30000 8687.45320 8774.12641 0.00012
3.30400 8659.01865 8773.62599 0.00012
3.30800 8736.87664 8773.12644 0.00011
3.31200 8656.62394 8772.62773 0.00012
3.31600 8681.22023 8772.12988 0.00012
3.32000 8691.07944 8771.63286 0.00012
3.32400 8799.54555 8771.13666 0.00011
3.32800 8765.91788 8770.64128 0.00011
3.33200 8714.19393 8770.14672 0.00011
3.33600 8726.98692 8769.65293 0.00011
3.34000 8851.14045 8769.16100 0.00011
3.34400 8787.84501 8768.67465 0.00011
3.34800 8714.11695 8768.20188 0.00011
3.35200 8685.70112 8767.75165 0.00012
3.35600 8682.54278 8767.29376 0.00012
3.36000 8710.25218 8766.80466 0.00011
3.36400 8707.66871 8766.31631 0.00011
3.36800 8808.76596 8765.82868 0.00011
3.37200 8788.65948 8765.34178 0.00011
3.37600 8706.53604 8764.85560 0.00011
3.38000 8635.84122 8764.37013 0.00012
3.38400 8592.45939 8763.88537 0.00012
3.38800 8688.13339 8763.40129 0.00012
3.39200 8786.21571 8762.91791 0.00011
3.39600 8756.94056 8762.43521 0.00011
3.40000 8795.85769 8761.95317 0.00011
3.40400 8829.33768 8761.47181 0.00011
3.40800 8872.73950 8760.99110 0.00011
3.41200 8795.23779 8760.51104 0.00011
3.41600 8811.72357 8760.03163 0.00011
3.42000 8759.78637 8759.55285 0.00011
3.42400 8664.07641 8759.07471 0.00012
3.42800 8714.71691 8758.59719 0.00011
3.43200 8874.71973 8758.12028 0.00011
3.43600 8588.79973 8757.64399 0.00012
3.44000 8659.20911 8757.16830 0.00012
3.44400 8533.38615 8756.69321 0.00012
3.44800 8654.25715 8756.21871 0.00012
3.45200 8761.94035 8755.74479 0.00011
3.45600 8752.05344 8755.27146 0.00011
3.46000 8662.65380 8754.79870 0.00012
3.46400 8622.01530 8754.32650 0.00012
3.46800 8656.51220 8753.85486 0.00012
3.47200 8744.99281 8753.38379 0.00011
3.47600 8730.56097 8752.91326 0.00011
3.48000 8718.58535 8752.44327 0.00011
3.48400 8699.13573 8751.97383 0.00011
3.48800 8695.89694 8751.50492 0.00011
3.49200 8695.26036 8751.03653 0.00012
3.49600 8671.03169 8750.56867 0.00012
3.50000 8633.02716 8750.10133 0.00012
3.50400 8590.49972 8749.63450 0.00012
3.50800 8688.98375 8749.16818 0.00012
3.51200 8637.01471 8748.70236 0.00012
3.51600 8607.50292 8748.23705 0.00012
3.52000 8530.33617 8747.77222 0.00012
3.52400 8608.68522 8747.30789 0.00012
3.52800 8724.96858 8746.84404 0.00011
3.53200 8718.89140 8746.38068 0.00011
3.53600 8709.22908 8745.91779 0.00011
3.54000 8661.71585 8745.45537 0.00012
3.54400 8602.54487 8744.99342 0.00012
3.54800 8571.76071 8744.53195 0.00012
3.55200 8591.35872 8744.07093 0.00012
3.55600 8598.24661 8743.61038 0.00012
3.56000 8723.17496 8743.15029 0.00011
3.56400 8664.27696 8742.69067 0.00012
3.56800 8613.26843 8742.23155 0.00012
3.57200 8634.53184 8741.77295 0.00012
3.57600 8584.79601 8741.31498 0.00012
3.58000 8788.03879 8740.85779 0.00011
3.58400 8708.10694 8740.40169 0.00011
3.58800 8651.26659 8739.94727 0.00012
3.59200 8703.63382 8739.49554 0.00011
3.59600 8688.34115 8739.04831 0.00012
3.60000 8585.29880 8738.60866 0.00012
3.60400 8578.55875 8738.18174 0.00012
3.60800 8683.56991 8737.77595 0.00012
3.61200 8647.45316 8737.40468 0.00012
3.61600 8697.98988 8737.08873 0.00011
3.62000 8714.54332 8736.85958 0.00011
3.62400 8611.11479 8736.76378 0.00012
3.62800 8794.96809 8736.86819 0.00011
3.63200 8684.62583 8737.26639 0.00012
3.63600 8692.06867 8738.08551 0.00012
3.64000 8703.57896 8739.49317 0.00011
3.64400 8705.65863 8741.70334 0.00011
3.64800 8648.61739 8744.97976 0.00012
3.65200 8759.09321 8749.63527 0.00011
3.65600 8742.42038 8756.02495 0.00011
3.66000 8764.73102 8764.53157 0.00011
3.66400 8741.21539 8775.54168 0.00011
3.66800 8721.16356 8789.41211 0.00011
3.67200 8747.10367 8806.42778 0.00011
3.67600 8905.59361 8826.75334 0.00011
3.68000 8929.47901 8850.38310 0.00011
3.68400 8875.64353 8877.09530 0.00011
3.68800 8986.85752 8906.41783 0.00011
3.69200 8836.94227 8937.61239 0.00011
3.69600 8834.82876 8969.68359 0.00011
3.70000 9157.69453 9001.41639 0.00011
3.70400 9140.61342 9031.44252 0.00011
3.70800 8991.32011 9058.33203 0.00011
3.71200 9022.43017 9080.70219 0.00011
3.71600 8994.24570 9097.33242 0.00011
3.72000 9139.53262 9107.27227 0.00011
3.72400 9354.06957 9109.92896 0.00011
3.72800 9130.38019 9105.12341 0.00011
3.73200 9035.09960 9093.10740 0.00011
3.73600 9018.43992 9074.53953 0.00011
3.74000 8916.69816 9050.42308 0.00011
3.74400 8957.26516 9022.01421 0.00011
3.74800 8963.76942 8990.71182 0.00011
3.75200 9046.65380 8957.94267 0.00011
3.75600 8970.65128 8925.05484 0.00011
3.76000 8984.57124 8893.22991 0.00011
3.76400 8811.48002 8863.42141 0.00011
3.76800 8834.68245 8836.32221 0.00011
3.77200 8866.69702 8812.36017 0.00011
3.77600 8753.61796 8791.71744 0.00011
3.78000 8878.23302 8774.36733 0.00011
3.78400 8742.30831 8760.12117 0.00011
3.78800 8684.33554 8748.67853 0.00012
3.79200 8800.03374 8739.67477 0.00011
3.79600 8806.82629 8732.72188 0.00011
3.80000 8653.80855 8727.44039 0.00012
3.80400 8734.16570 8723.48160 0.00011
3.80800 8699.82694 8720.54077 0.00011
3.81200 8566.70960 8718.36270 0.00012
3.81600 8603.72391 8716.74165 0.00012
3.82000 8517.15100 8715.51734 0.00012
3.82400 8528.12141 8714.56886 0.00012
3.82800 8639.45891 8713.80766 0.00012
3.83200 8719.05831 8713.17076 0.00011
3.83600 8521.41378 8712.61453 0.00012
3.84000 8745.26837 8712.10958 0.00011
3.84400 8796.39630 8711.63660 0.00011
3.84800 8744.03649 8711.18319 0.00011
3.85200 8614.75905 8710.74164 0.00012
3.85600 8664.02509 8710.30721 0.00012
3.86000 8722.40016 8709.87709 0.00011
3.86400 8747.27713 8709.44966 0.00011
3.86800 8681.69249 8709.02398 0.00012
3.87200 8642.38497 8708.59956 0.00012
3.87600 8726.57615 8708.17612 0.00011
3.88000 8740.87364 8707.75351 0.00011
3.88400 8788.92582 8707.33168 0.00011
3.88800 8571.91613 8706.91059 0.00012
3.89200 8570.23163 8706.49024 0.00012
3.89600 8488.66562 8706.07063 0.00012
3.90000 8532.47897 8705.65177 0.00012
3.90400 8802.68237 8705.23368 0.00011
3.90800 8688.69888 8704.81636 0.00012
3.91200 8619.48002 8704.39982 0.00012
3.91600 8698.43717 8703.98410 0.00011
3.92000 8660.89191 8703.56920 0.00012
3.92400 8624.31607 8703.15513 0.00012
3.92800 8697.37780 8702.74192 0.00011
3.93200 8763.07252 8702.32957 0.00011
3.93600 8671.00107 8701.91812 0.00012
3.94000 8674.85703 8701.50757 0.00012
3.94400 8695.37780 8701.09795 0.00012
3.94800 8702.84744 8700.68927 0.00011
3.95200 8573.69684 8700.28155 0.00012
3.95600 8557.63152 8699.87482 0.00012
3.96000 8579.70847 8699.46909 0.00012
3.96400 8573.07559 8699.06438 0.00012
3.96800 8726.57987 8698.66072 0.00011
3.97200 8669.43557 8698.25813 0.00012
3.97600 8795.58158 8697.85663 0.00011
3.98000 8699.98642 8697.45625 0.00011
3.98400 8666.06629 8697.05701 0.00012
3.98800 8588.24681 8696.65893 0.00012
3.99200 8691.14452 8696.26203 0.00012
3.99600 8553.96699 8695.86637 0.00012
4.00000 8539.38327 8695.47194 0.00012
4.00400 8752.42843 8695.07878 0.00011
4.00800 8656.48243 8694.68692 0.00012
4.01200 8813.37061 8694.29640 0.00011
4.01600 8578.10277 8693.90723 0.00012
4.02000 8696.00909 8693.51946 0.00011
4.02400 8735.78355 8693.13311 0.00011
4.02800 8685.78248 8692.74822 0.00012
4.03200 8626.24826 8692.36481 0.00012
4.03600 8569.17787 8691.98295 0.00012
4.04000 8537.22604 8691.60264 0.00012
4.04400 8687.21432 8691.22394 0.00012
4.04800 8760.29526 8690.84688 0.00011
4.05200 8600.76997 8690.47150 0.00012
4.05600 8617.97631 8690.09785 0.00012
4.06000 8745.40432 8689.72597 0.00011
4.06400 8609.64377 8689.35591 0.00012
4.06800 8638.49281 8688.98772 0.00012
4.07200 8792.67066 8688.62143 0.00011
4.07600 8694.15096 8688.25711 0.00012
4.08000 8666.00612 8687.89481 0.00012
4.08400 8640.10840 8687.53459 0.00012
4.08800 8670.98030 8687.17651 0.00012
4.09200 8546.04286 8686.82062 0.00012
4.09600 8587.84212 8686.46701 0.00012
4.10000 8637.64191 8686.11573 0.00012
4.10400 8633.97701 8685.76686 0.00012
4.10800 8664.23110 8685.42048 0.00012
4.11200 8715.50905 8685.07668 0.00011
4.11600 8691.89776 8684.73555 0.00012
4.12000 8735.18711 8684.39719 0.00011
4.12400 8622.54846 8684.06171 0.00012
4.12800 8566.55378 8683.72925 0.00012
4.13200 8613.00746 8683.39996 0.00012
4.13600 8727.14350 8683.07410 0.00011
4.14000 8652.74845 8682.75203 0.00012
4.14400 8670.00905 8682.43446 0.00012
4.14800 8602.24867 8682.12272 0.00012
4.15200 8634.60197 8681.81940 0.00012
4.15600 8633.97444 8681.52960 0.00012
4.16000 8606.01997 8681.26307 0.00012
4.16400 8741.12354 8681.03804 0.00011
4.16800 8636.50905 8680.88731 0.00012
4.17200 8607.73043 8680.86797 0.00012
4.17600 8619.26438 8681.07557 0.00012
4.18000 8748.31177 8681.66365 0.00011
4.18400 8620.19969 8682.86874 0.00012
4.18800 8664.66001 8685.03912 0.00012
4.19200 8768.46486 8688.66348 0.00011
4.19600 8740.98110 8694.39256 0.00011
4.20000 8660.41547 8703.04343 0.00012
4.20400 8718.56230 8715.57432 0.00011
4.20800 8799.61182 8733.01782 0.00011
4.21200 8774.95793 8756.36436 0.00011
4.21600 8773.90069 8786.39673 0.00011
4.22000 8776.16747 8823.48871 0.00011
4.22400 8883.13069 8867.39643 0.00011
4.22800 8883.95101 8917.08331 0.00011
4.23200 8933.70288 8970.62646 0.00011
4.23600 8997.29872 9025.24724 0.00011
4.24000 9163.01835 9077.49134 0.00011
4.24400 9132.02476 9123.55577 0.00011
4.24800 9153.86954 9159.72744 0.00011
4.25200 9175.53647 9182.86906 0.00011
4.25600 9154.57508 9190.86963 0.00011
4.26000 9157.45527 9182.96841 0.00011
4.26400 9284.23823 9159.87615 0.00011
4.26800 9192.20928 9123.66182 0.00011
4.27200 9040.79553 9077.43447 0.00011
4.27600 8906.67412 9024.89569 0.00011
4.28000 8926.54180 8969.85341 0.00011
4.28400 8853.98775 8915.78049 0.00011
4.28800 8892.55638 8865.48311 0.00011
4.29200 8889.26544 8820.91534 0.00011
4.29600 8886.40286 8783.14371 0.00011
4.30000 8762.56858 8752.43721 0.00011
4.30400 8654.52609 8728.44024 0.00012
4.30800 8679.31949 8710.38094 0.00012
4.31200 8764.24318 8697.27328 0.00011
4.31600 8723.16693 8688.08417 0.00011
4.32000 8761.22539 8681.85168 0.00011
4.32400 8724.24789 8677.75348 0.00011
4.32800 8652.27902 8675.13332 0.00012
4.33200 8560.77236 8673.49743 0.00012
4.33600 8708.46211 8672.49344 0.00011
4.34000 8615.11981 8671.88172 0.00012
4.34400 8627.03646 8671.50660 0.00012
4.34800 8629.14910 8671.27118 0.00012
4.35200 8745.89989 8671.11760 0.00011
4.35600 8764.12775 8671.01269 0.00011
4.36000 8796.86581 8670.93818 0.00011
4.36400 8542.43003 8670.88439 0.00012
4.36800 8617.44897 8670.84645 0.00012
4.37200 8726.92492 8670.82200 0.00011
4.37600 8661.11754 8670.81003 0.00012
4.38000 8733.76165 8670.81018 0.00011
4.38400 8707.19436 8670.82240 0.00011
4.38800 8518.87966 8670.84681 0.00012
4.39200 8517.40793 8670.88360 0.00012
4.39600 8549.13768 8670.93303 0.00012
4.40000 8641.72577 8670.99537 0.00012
4.40400 8722.64963 8671.07089 0.00011
4.40800 8696.60229 8671.15993 0.00011
4.41200 8607.35107 8671.26281 0.00012
4.41600 8736.23163 8671.37987 0.00011
4.42000 8813.74041 8671.51148 0.00011
4.42400 8864.36901 8671.65802 0.00011
4.42800 8700.80558 8671.81988 0.00011
4.43200 8686.03653 8671.99748 0.00012
4.43600 8605.54766 8672.19125 0.00012
4.44000 8634.42152 8672.40163 0.00012
4.44400 8639.33145 8672.62910 0.00012
4.44800 8616.30112 8672.87413 0.00012
4.45200 8673.54260 8673.13723 0.00012
4.45600 8587.59035 8673.41892 0.00012
4.46000 8628.29207 8673.71974 0.00012
4.46400 8646.37992 8674.04026 0.00012
4.46800 8677.96593 8674.38106 0.00012
4.47200 8848.26301 8674.74275 0.00011
4.47600 8706.33227 8675.12596 0.00011
4.48000 8692.16028 8675.53135 0.00012
4.48400 8577.26218 8675.95959 0.00012
4.48800 8623.45181 8676.41140 0.00012
4.49200 8649.17464 8676.88750 0.00012
4.49600 8706.20132 8677.38867 0.00011
4.50000 8532.11182 8677.91569 0.00012
4.50400 8767.08626 8678.46940 0.00011
4.50800 8659.34918 8679.05064 0.00012
4.51200 8682.12327 8679.66031 0.00012
4.51600 8658.11656 8680.29934 0.00012
4.52000 8773.53059 8680.96869 0.00011
4.52400 8690.36423 8681.66937 0.00012
4.52800 8653.99601 8682.40242 0.00012
4.53200 8812.56424 8683.16894 0.00011
4.53600 8836.06838 8683.97005 0.00011
4.54000 8690.78062 8684.80695 0.00012
4.54400 8718.43492 8685.68086 0.00011
4.54800 8717.95128 8686.59307 0.00011
4.55200 8758.69169 8687.54493 0.00011
4.55600 8728.17727 8688.53782 0.00011
4.56000 8627.54286 8689.57321 0.00012
4.56400 8657.04625 8690.65263 0.00012
4.56800 8842.56258 8691.77767 0.00011
4.57200 8628.47604 8692.94999 0.00012
4.57600 8704.35982 8694.17134 0.00011
4.58000 8825.74856 8695.44353 0.00011
4.58400 8823.81949 8696.76846 0.00011
4.58800 8691.17461 8698.14814 0.00012
4.59200 8508.17838 8699.58465 0.00012
4.59600 8773.06569 8701.08017 0.00011
4.60000 8794.02871 8702.63700 0.00011
4.60400 8718.06709 8704.25753 0.00011
4.60800 8678.92531 8705.94428 0.00012
4.61200 8720.72257 8707.69990 0.00011
4.61600 8799.95847 8709.52716 0.00011
4.62000 8813.86718 8711.42897 0.00011
4.62400 8815.40016 8713.40841 0.00011
4.62800 8757.20554 8715.46867 0.00011
4.63200 8751.76817 8717.61316 0.00011
4.63600 8808.39563 8719.84545 0.00011
4.64000 8733.42652 8722.16928 0.00011
4.64400 8751.02129 8724.58860 0.00011
4.64800 8709.25772 8727.10760 0.00011
4.65200 8697.48560 8729.73066 0.00011
4.65600 8794.36401 8732.46242 0.00011
4.66000 8764.88578 8735.30779 0.00011
4.66400 8845.87889 8738.27195 0.00011
4.66800 8855.94329 8741.36036 0.00011
4.67200 8817.95314 8744.57883 0.00011
4.67600 8968.39393 8747.93350 0.00011
4.68000 8897.13259 8751.43084 0.00011
4.68400 8843.38001 8755.07775 0.00011
4.68800 8905.87506 8758.88153 0.00011
4.69200 8902.21432 8762.84994 0.00011
4.69600 8872.96266 8766.99122 0.00011
4.70000 8862.70926 8771.31413 0.00011
4.70400 8909.57086 8775.82798 0.00011
4.70800 8889.82671 8780.54269 0.00011
4.71200 8829.84975 8785.46883 0.00011
4.71600 8829.92993 8790.61769 0.00011
4.72000 8899.60170 8796.00128 0.00011
4.72400 8951.23755 8801.63248 0.00011
4.72800 8982.60247 8807.52504 0.00011
4.73200 8867.80032 8813.69365 0.00011
4.73600 9027.82268 8820.15409 0.00011
4.74000 8939.48949 8826.92324 0.00011
4.74400 9088.93877 8834.01927 0.00011
4.74800 9066.98234 8841.46165 0.00011
4.75200 8941.04119 8849.27136 0.00011
4.75600 8867.88531 8857.47097 0.00011
4.76000 8856.42093 8866.08481 0.00011
4.76400 8949.48935 8875.13915 0.00011
4.76800 8997.34895 8884.66236 0.00011
4.77200 9227.20021 8894.68517 0.00011
4.77600 9226.11727 8905.24081 0.00011
4.78000 9156.63371 8916.36535 0.00011
4.78400 9119.36635 8928.09798 0.00011
4.78800 9179.94196 8940.48131 0.00011
4.79200 9301.02369 8953.56175 0.00011
4.79600 9164.63578 8967.38995 0.00011
4.80000 9257.21626 8982.02120 0.00011
4.80400 9376.17146 8997.51605 0.00011
4.80800 9325.29625 9013.94086 0.00011
4.81200 9389.58333 9031.36851 0.00011
4.81600 9457.95607 9049.87915 0.00011
4.82000 9479.91061 9069.56113 0.00011
4.82400 9479.27439 9090.51202 0.00011
4.82800 9600.62407 9112.83980 0.00010
4.83200 9640.54528 9136.66419 0.00010
4.83600 9592.14111 9162.11825 0.00010
4.84000 9706.35966 9189.35024 0.00010
4.84400 9688.12294 9218.52570 0.00010
4.84800 9976.71991 9249.82998 0.00010
4.85200 9924.71592 9283.47112 0.00010
4.85600 10015.10655 9319.68338 0.00010
4.86000 9930.59094 9358.73162 0.00010
4.86400 9925.91693 9400.91602 0.00010
4.86800 9957.60756 9446.57747 0.00010
4.87200 10009.57183 9496.10509 0.00010
4.87600 10119.50639 9549.94633 0.00010
4.88000 10207.94223 9608.61593 0.00010
4.88400 10170.44311 9672.68835 0.00010
4.88800 10305.72391 9742.82699 0.00010
4.89200 10409.80431 9819.84606 0.00010
4.89600 10291.45834 9904.67335 0.00010
4.90000 10250.03940 9998.39975 0.00010
4.90400 10456.74654 10102.31523 0.00010
4.90800 10419.34310 10217.95454 0.00010
4.91200 10515.52609 10347.15552 0.00010
4.91600 10719.03408 10492.13480 0.00009
4.92000 10929.82190 10655.58494 0.00009
4.92400 11258.83913 10840.79778 0.00009
4.92800 11219.85277 11051.84669 0.00009
4.93200 11272.92107 11293.80089 0.00009
4.93600 11530.56576 11573.02132 0.00009
4.94000 11843.08706 11897.54599 0.00008
4.94400 12218.60071 12277.58049 0.00008
4.94800 12642.96566 12726.09068 0.00008
4.95200 13257.41635 13259.43915 0.00008
4.95600 13663.38545 13897.88115 0.00007
4.96000 14424.17838 14665.52571 0.00007
4.96400 15166.92013 15589.20434 0.00007
4.96800 16217.06286 16695.98183 0.00006
4.97200 17590.90415 18010.10775 0.00006
4.97600 19165.65256 19551.23488 0.00005
4.98000 21161.85863 21335.09430 0.00005
4.98400 23726.32933 23375.72780 0.00004
4.98800 26101.04526 25687.14374 0.00004
4.99200 28820.80676 28282.69618 0.00003
4.99600 31758.11422 31171.09229 0.00003
5.00000 34807.35943 34347.54884 0.00003
5.00400 38076.13419 37777.35942 0.00003
5.00800 41171.11620 41367.83289 0.00002
5.01200 44166.12220 44925.59886 0.00002
5.01600 47089.02875 48106.04257 0.00002
5.02000 49353.07671 50390.11448 0.00002
5.02400 50480.14164 51165.20780 0.00002
5.02800 50393.11076 49974.45864 0.00002
5.03200 48056.18743 46835.72819 0.00002
5.03600 43659.06014 42334.89094 0.00002
5.04000 38243.53062 37336.34705 0.00003
5.04400 33113.92013 32567.16264 0.00003
5.04800 28722.71113 28417.26943 0.00003
5.05200 25346.24121 24988.55004 0.00004
5.05600 22181.86954 22226.84918 0.00005
5.06000 19882.94276 20023.04348 0.00005
5.06400 17876.08096 18264.40409 0.00006
5.06800 16620.82322 16853.69036 0.00006
5.07200 15463.49867 15713.04715 0.00006
5.07600 14632.53781 14782.20859 0.00007
5.08000 13937.72886 14015.19948 0.00007
5.08400 13328.23935 13377.10257 0.00008
5.08800 12844.01890 12841.35990 0.00008
5.09200 12449.78408 12387.66584 0.00008
5.09600 12018.87806 12000.37630 0.00008
5.10000 11668.37006 11667.32983 0.00009
5.10400 11321.43714 11378.98125 0.00009
5.10800 11102.31097 11127.76655 0.00009
5.11200 10936.37806 10907.63626 0.00009
5.11600 10742.57274 10713.70997 0.00009
5.12000 10669.76837 10542.01838 0.00009
5.12400 10516.79899 10389.30880 0.00010
5.12800 10269.59878 10252.89694 0.00010
5.13200 10171.45900 10130.55294 0.00010
5.13600 10057.37262 10020.41286 0.00010
5.14000 9809.70974 9920.90968 0.00010
5.14400 10001.15282 9830.71860 0.00010
5.14800 9829.31230 9748.71388 0.00010
5.15200 9895.31709 9673.93418 0.00010
5.15600 9809.74095 9605.55477 0.00010
5.16000 9762.78687 9542.86502 0.00010
5.16400 9550.71432 9485.25002 0.00010
5.16800 9554.67696 9432.17569 0.00010
5.17200 9425.00000 9383.17627 0.00011
5.17600 9439.88232 9337.84432 0.00011
5.18000 9586.66001 9295.82205 0.00010
5.18400 9313.59337 9256.79442 0.00011
5.18800 9431.71501 9220.48303 0.00011
5.19200 9369.20793 9186.64125 0.00011
5.19600 9345.91906 9155.04997 0.00011
5.20000 9313.89271 9125.51400 0.00011
5.20400 9329.08229 9097.85919 0.00011
5.20800 9269.69702 9071.93044 0.00011
5.21200 9039.94089 9047.59026 0.00011
5.21600 9091.61995 9024.71559 0.00011
5.22000 9075.93271 9003.18507 0.00011
5.22400 9025.56123 8982.88819 0.00011
5.22800 9067.71033 8963.74202 0.00011
5.23200 9040.99095 8945.66264 0.00011
5.23600 8889.60532 8928.57391 0.00011
5.24000 9118.01757 8912.40658 0.00011
5.24400 8986.32242 8897.09767 0.00011
5.24800 9054.76146 8882.58968 0.00011
5.25200 9057.25160 8868.83019 0.00011
5.25600 8949.00240 8855.77126 0.00011
5.26000 8741.58322 8843.36905 0.00011
5.26400 8870.38259 8831.58337 0.00011
5.26800 9026.82801 8820.37743 0.00011
5.27200 9046.21355 8809.71745 0.00011
5.27600 8859.79606 8799.57247 0.00011
5.28000 8899.70435 8789.91460 0.00011
5.28400 8913.80884 8780.72133 0.00011
5.28800 8943.62673 8771.97203 0.00011
5.29200 8731.00716 8763.65064 0.00011
5.29600 8717.12992 8755.75812 0.00011
5.30000 8714.42412 8748.28202 0.00011
5.30400 8781.67191 8741.06866 0.00011
5.30800 8774.37167 8734.19385 0.00011
5.31200 8664.04010 8727.64840 0.00012
5.31600 8803.56390 8721.41954 0.00011
5.32000 8793.90263 8715.49580 0.00011
5.32400 8619.55911 8709.86689 0.00012
5.32800 8780.37071 8704.52369 0.00011
5.33200 8760.23589 8699.45634 0.00011
5.33600 8682.27888 8694.66169 0.00012
5.34000 8681.73749 8690.13209 0.00012
5.34400 8624.63257 8685.86280 0.00012
5.34800 8674.43504 8681.85026 0.00012
5.35200 8686.68020 8678.09195 0.00012
5.35600 8732.56177 8674.58652 0.00011
5.36000 8688.92568 8671.33377 0.00012
5.36400 8725.71060 8668.33468 0.00011
5.36800 8721.29968 8665.59152 0.00011
5.37200 8669.28621 8663.10777 0.00012
5.37600 8714.36088 8660.88841 0.00011
5.38000 8662.14553 8658.94068 0.00012
5.38400 8625.50117 8657.27391 0.00012
5.38800 8663.21486 8655.89949 0.00012
5.39200 8681.05043 8654.83474 0.00012
5.39600 8538.33067 8654.09789 0.00012
5.40000 8509.57848 8653.66859 0.00012
5.40400 8673.95288 8653.55703 0.00012
5.40800 8562.82796 8653.80221 0.00012
5.41200 8604.40105 8654.42287 0.00012
5.41600 8702.03328 8655.43943 0.00011
5.42000 8637.38130 8656.87385 0.00012
5.42400 8528.14909 8658.74962 0.00012
5.42800 8649.80718 8661.09168 0.00012
5.43200 8537.00894 8663.92623 0.00012
5.43600 8670.81126 8667.28064 0.00012
5.44000 8685.34718 8671.18329 0.00012
5.44400 8557.54659 8675.66325 0.00012
5.44800 8679.46341 8680.75011 0.00012
5.45200 8677.91374 8686.47363 0.00012
5.45600 8662.51306 8692.86330 0.00012
5.46000 8649.81123 8699.94799 0.00012
5.46400 8651.19467 8707.75536 0.00012
5.46800 8706.03925 8716.31117 0.00011
5.47200 8657.56659 8725.63861 0.00012
5.47600 8662.53674 8735.75724 0.00012
5.48000 8758.52597 8746.68187 0.00011
5.48400 8524.53882 8758.42121 0.00012
5.48800 8616.19888 8770.97605 0.00012
5.49200 8735.23169 8784.33725 0.00011
5.49600 8684.56550 8798.48326 0.00012
5.50000 8734.96303 8813.37715 0.00011
5.50400 8858.11451 8828.96324 0.00011
5.50800 9010.12537 8845.16337 0.00011
5.51200 9043.62726 8861.87271 0.00011
5.51600 8943.30493 8878.95564 0.00011
5.52000 8829.29564 8896.24187 0.00011
5.52400 9016.54739 8913.52328 0.00011
5.52800 8960.28043 8930.55224 0.00011
5.53200 8977.27762 8947.04223 0.00011
5.53600 9098.18069 8962.67143 0.00011
5.54000 9160.32117 8977.09026 0.00011
5.54400 9067.42491 8989.93319 0.00011
5.54800 9090.95671 9000.83493 0.00011
5.55200 9000.15238 9009.45005 0.00011
5.55600 8840.74700 9015.47467 0.00011
5.56000 9020.80812 9018.66793 0.00011
5.56400 9003.73582 9018.87043 0.00011
5.56800 8891.31760 9016.01710 0.00011
5.57200 8953.83339 9010.14267 0.00011
5.57600 8999.21624 9001.37867 0.00011
5.58000 8908.31281 8989.94252 0.00011
5.58400 8891.95553 8976.12048 0.00011
5.58800 8920.44538 8960.24682 0.00011
5.59200 8975.23782 8942.68190 0.00011
5.59600 8871.56058 8923.79174 0.00011
5.60000 8902.40506 8903.93072 0.00011
5.60400 8730.17621 8883.42845 0.00011
5.60800 8918.92795 8862.58104 0.00011
5.61200 8969.59281 8841.64631 0.00011
5.61600 8909.60406 8820.84250 0.00011
5.62000 8880.67297 8800.34935 0.00011
5.62400 8857.96794 8780.31082 0.00011
5.62800 8819.11105 8760.83885 0.00011
5.63200 8843.20651 8742.01751 0.00011
5.63600 8788.73316 8723.90713 0.00011
5.64000 8744.29586 8706.54818 0.00011
5.64400 8593.88525 8689.96477 0.00012
5.64800 8608.05273 8674.16794 0.00012
5.65200 8519.21243 8659.15901 0.00012
5.65600 8571.31718 8644.93239 0.00012
5.66000 8591.28956 8631.47532 0.00012
5.66400 8640.60879 8618.75459 0.00012
5.66800 8607.15217 8606.74722 0.00012
5.67200 8641.96245 8595.43150 0.00012
5.67600 8683.31945 8584.77816 0.00012
5.68000 8666.13880 8574.75643 0.00012
5.68400 8732.21198 8565.33465 0.00011
5.68800 8601.00080 8556.48075 0.00012
5.69200 8427.77930 8548.16262 0.00012
5.69600 8552.49507 8540.34840 0.00012
5.70000 8682.62227 8533.00682 0.00012
5.70400 8447.17356 8526.10739 0.00012
5.70800 8551.09933 8519.62063 0.00012
5.71200 8550.25479 8513.51816 0.00012
5.71600 8523.14807 8507.77287 0.00012
5.72000 8604.35706 8502.35898 0.00012
5.72400 8463.90401 8497.25211 0.00012
5.72800 8555.15313 8492.42931 0.00012
5.73200 8512.73342 8487.86909 0.00012
5.73600 8324.54647 8483.55145 0.00012
5.74000 8467.17284 8479.45774 0.00012
5.74400 8488.08704 8475.57074 0.00012
5.74800 8528.53262 8471.87459 0.00012
5.75200 8478.06495 8468.35468 0.00012
5.75600 8473.97485 8464.99764 0.00012
5.76000 8370.98402 8461.79127 0.00012
5.76400 8341.21562 8458.72441 0.00012
5.76800 8473.41438 8455.78695 0.00012
5.77200 8490.19696 8452.96969 0.00012
5.77600 8335.86760 8450.26429 0.00012
5.78000 8450.80689 8447.66321 0.00012
5.78400 8427.20384 8445.15960 0.00012
5.78800 8315.52889 8442.74732 0.00012
5.79200 8458.72523 8440.42076 0.00012
5.79600 8443.10546 8438.17487 0.00012
5.80000 8376.01231 8436.00510 0.00012
5.80400 8343.52523 8433.90731 0.00012
5.80800 8356.69001 8431.87776 0.00012
5.81200 8279.17900 8429.91309 0.00012
5.81600 8449.18477 8428.01022 0.00012
5.82000 8464.66209 8426.16637 0.00012
5.82400 8376.05619 8424.37902 0.00012
5.82800 8418.55661 8422.64587 0.00012
5.83200 8276.39674 8420.96484 0.00012
5.83600 8282.27964 8419.33403 0.00012
5.84000 8309.96698 8417.75172 0.00012
5.84400 8242.40556 8416.21635 0.00012
5.84800 8431.90155 8414.72650 0.00012
5.85200 8226.28174 8413.28089 0.00012
5.85600 8503.62264 8411.87835 0.00012
5.86000 8358.54852 8410.51784 0.00012
5.86400 8317.55215 8409.19841 0.00012
5.86800 8349.36665 8407.91921 0.00012
5.87200 8349.84630 8406.67949 0.00012
5.87600 8302.88080 8405.47861 0.00012
5.88000 8289.42302 8404.31597 0.00012
5.88400 8256.89438 8403.19110 0.00012
5.88800 8371.69074 8402.10357 0.00012
5.89200 8450.42862 8401.05305 0.00012
5.89600 8434.10964 8400.03927 0.00012
5.90000 8372.85953 8399.06203 0.00012
5.90400 8403.85322 8398.12121 0.00012
5.90800 8393.54692 8397.21677 0.00012
5.91200 8293.34967 8396.34871 0.00012
5.91600 8440.30460 8395.51711 0.00012
5.92000 8309.10454 8394.72211 0.00012
5.92400 8221.21916 8393.96394 0.00012
5.92800 8319.34088 8393.24287 0.00012
5.93200 8241.84495 8392.55925 0.00012
5.93600 8366.69615 8391.91351 0.00012
5.94000 8364.02368 8391.30614 0.00012
5.94400 8319.14278 8390.73769 0.00012
5.94800 8354.36388 8390.20880 0.00012
5.95200 8382.19907 8389.72019 0.00012
5.95600 8312.20525 8389.27263 0.00012
5.96000 8229.11028 8388.86700 0.00012
5.96400 8347.05674 8388.50425 0.00012
5.96800 8221.98218 8388.18541 0.00012
5.97200 8449.44756 8387.91160 0.00012
5.97600 8355.27384 8387.68404 0.00012
5.98000 8298.64526 8387.50405 0.00012
5.98400 8352.02916 8387.37304 0.00012
5.98800 8353.30581 8387.29252 0.00012
5.99200 8391.35488 8387.26413 0.00012
5.99600 8406.11454 8387.28961 0.00012
6.00000 8411.27773 8387.37084 0.00012
6.00400 8362.79907 8387.50982 0.00012
6.00800 8389.73146 8387.70867 0.00012
6.01200 8306.54235 8387.96968 0.00012
6.01600 8259.42950 8388.29528 0.00012
6.02000 8384.93873 8388.68805 0.00012
6.02400 8409.06414 8389.15075 0.00012
6.02800 8364.80020 8389.68632 0.00012
6.03200 8366.38827 8390.29789 0.00012
6.03600 8277.11827 8390.98877 0.00012
6.04000 8185.06354 8391.76250 0.00012
6.04400 8368.45871 8392.62284 0.00012
6.04800 8355.20737 8393.57378 0.00012
6.05200 8427.38253 8394.61955 0.00012
6.05600 8343.81726 8395.76467 0.00012
6.06000 8314.70470 8397.01391 0.00012
6.06400 8357.45750 8398.37235 0.00012
6.06800 8350.13878 8399.84536 0.00012
6.07200 8416.00533 8401.43864 0.00012
6.07600 8412.29222 8403.15823 0.00012
6.08000 8340.11343 8405.01054 0.00012
6.08400 8270.58935 8407.00234 0.00012
6.08800 8259.33724 8409.14078 0.00012
6.09200 8376.56200 8411.43344 0.00012
6.09600 8383.62440 8413.88828 0.00012
6.10000 8507.90473 8416.51373 0.00012
6.10400 8309.41396 8419.31865 0.00012
6.10800 8376.77154 8422.31235 0.00012
6.11200 8501.34833 8425.50461 0.00012
6.11600 8260.24294 8428.90567 0.00012
6.12000 8415.80704 8432.52622 0.00012
6.12400 8337.37917 8436.37741 0.00012
6.12800 8347.71977 8440.47081 0.00012
6.13200 8420.69566 8444.81839 0.00012
6.13600 8487.34544 8449.43248 0.00012
6.14000 8402.14645 8454.32571 0.00012
6.14400 8422.26425 8459.51091 0.00012
6.14800 8304.39894 8465.00103 0.00012
6.15200 8324.71445 8470.80903 0.00012
6.15600 8493.14624 8476.94768 0.00012
6.16000 8454.38887 8483.42940 0.00012
6.16400 8244.23708 8490.26599 0.00012
6.16800 8491.40501 8497.46837 0.00012
6.17200 8551.97997 8505.04622 0.00012
6.17600 8468.91841 8513.00758 0.00012
6.18000 8368.58878 8521.35835 0.00012
6.18400 8531.83489 8530.10181 0.00012
6.18800 8548.15687 8539.23791 0.00012
6.19200 8567.53046 8548.76267 0.00012
6.19600 8692.75195 8558.66731 0.00012
6.20000 8612.24477 8568.93750 0.00012
6.20400 8524.90719 8579.55240 0.00012
6.20800 8617.80918 8590.48375 0.00012
6.21200 8727.05755 8601.69492 0.00011
6.21600 8773.62872 8613.13998 0.00011
6.22000 8605.03807 8624.76517 0.00012
6.22400 8902.07552 8636.50787 0.00011
6.22800 8848.28080 8648.29329 0.00011
6.23200 8894.04503 8660.03610 0.00011
6.23600 8917.28378 8671.64542 0.00011
6.24000 8759.35227 8683.04265 0.00011
6.24400 8919.24023 8694.12773 0.00011
6.24800 9030.94484 8704.58961 0.00011
6.25200 9012.32915 8714.31072 0.00011
6.25600 9096.09168 8723.24023 0.00011
6.26000 9116.57623 8731.24140 0.00011
6.26400 9118.66480 8738.18210 0.00011
6.26800 9224.86154 8743.93901 0.00011
6.27200 9289.52037 8748.40187 0.00011
6.27600 9314.21396 8751.47772 0.00011
6.28000 9466.49342 8753.09452 0.00011
6.28400 9302.36538 8753.20426 0.00011
6.28800 9274.97462 8751.78507 0.00011
6.29200 9243.78018 8748.84239 0.00011
6.29600 9313.43401 8744.40883 0.00011
6.30000 9242.46893 8738.54292 0.00011
6.30400 9141.62701 8731.32676 0.00011
6.30800 9194.51936 8722.86265 0.00011
6.31200 9100.06725 8713.26920 0.00011
6.31600 9088.79485 8702.67695 0.00011
6.32000 8991.15255 8691.22381 0.00011
6.32400 8804.33198 8679.05078 0.00011
6.32800 8811.02798 8666.29783 0.00011
6.33200 8635.33033 8653.10063 0.00012
6.33600 8741.62668 8639.58828 0.00011
6.34000 8645.32342 8625.88192 0.00012
6.34400 8444.90317 8612.09269 0.00012
6.34800 8526.46339 8598.31280 0.00012
6.35200 8484.15481 8584.61119 0.00012
6.35600 8588.22020 8571.07263 0.00012
6.36000 8418.05817 8557.75757 0.00012
6.36400 8580.15357 8544.71557 0.00012
6.36800 8306.63629 8531.98627 0.00012
6.37200 8506.14321 8519.60032 0.00012
6.37600 8364.14438 8507.58041 0.00012
6.38000 8299.28829 8495.94224 0.00012
6.38400 8291.21227 8484.69556 0.00012
6.38800 8375.15347 8473.84506 0.00012
6.39200 8331.11656 8463.39123 0.00012
6.39600 8257.19913 8453.33100 0.00012
6.40000 8298.31454 8443.65855 0.00012
6.40400 8419.04397 8434.36584 0.00012
6.40800 8354.36021 8425.44306 0.00012
6.41200 8432.68436 8416.87908 0.00012
6.41600 8309.23958 8408.66188 0.00012
6.42000 8371.89802 8400.77883 0.00012
6.42400 8244.73460 8393.21682 0.00012
6.42800 8342.10566 8385.96260 0.00012
6.43200 8282.99605 8379.00292 0.00012
6.43600 8189.02975 8372.32466 0.00012
6.44000 8342.92960 8365.91486 0.00012
6.44400 8266.44303 8359.76089 0.00012
6.44800 8079.54257 8353.85253 0.00012
6.45200 8243.16986 8348.18015 0.00012
6.45600 8294.85777 8342.73344 0.00012
6.46000 8251.24361 8337.50342 0.00012
6.46400 8181.51659 8332.48325 0.00012
6.46800 8131.55444 8327.67162 0.00012
6.47200 8291.97974 8323.08982 0.00012
6.47600 8272.98586 8318.73246 0.00012
6.48000 8246.75017 8314.39190 0.00012
6.48400 8157.99269 8310.19510 0.00012
6.48800 8192.92843 8306.14371 0.00012
6.49200 8234.35915 8302.23029 0.00012
6.49600 8157.17897 8298.44784 0.00012
6.50000 8264.87980 8294.78979 0.00012
6.50400 8116.86512 8291.24980 0.00012
6.50800 8112.05038 8287.82196 0.00012
6.51200 8140.11893 8284.50072 0.00012
6.51600 8193.34741 8281.28072 0.00012
6.52000 8149.07817 8278.15698 0.00012
6.52400 8224.16861 8275.12480 0.00012
6.52800 8272.89599 8272.17967 0.00012
6.53200 8225.87210 8269.31740 0.00012
6.53600 8070.95628 8266.53401 0.00012
6.54000 8181.07946 8263.82571 0.00012
6.54400 8130.23754 8261.18897 0.00012
6.54800 8134.27845 8258.62043 0.00012
6.55200 8259.94500 8256.11687 0.00012
6.55600 8098.06623 8253.67535 0.00012
6.56000 8160.20556 8251.29299 0.00012
6.56400 8240.33317 8248.96710 0.00012
6.56800 8236.26786 8246.69519 0.00012
6.57200 8240.78758 8244.47479 0.00012
6.57600 8177.84062 8242.30367 0.00012
6.58000 8124.04759 8240.17967 0.00012
6.58400 8110.49747 8238.10071 0.00012
6.58800 8051.24574 8236.06494 0.00012
6.59200 8201.76191 8234.07045 0.00012
6.59600 8102.47350 8232.11552 0.00012
6.60000 8106.30735 8230.19889 0.00012
6.60400 8121.31869 8228.32118 0.00012
6.60800 8140.08077 8226.48663 0.00012
6.61200 8158.49707 8224.69953 0.00012
6.61600 8053.80694 8222.93623 0.00012
6.62000 8098.27425 8221.18696 0.00012
6.62400 8089.96945 8219.46731 0.00012
6.62800 8175.65165 8217.77621 0.00012
6.63200 8061.81394 8216.11248 0.00012
6.63600 8194.50637 8214.47528 0.00012
6.64000 8137.71432 8212.86393 0.00012
6.64400 8193.47341 8211.27802 0.00012
6.64800 8128.52962 8209.71649 0.00012
6.65200 8129.79659 8208.17511 0.00012
6.65600 8050.12340 8206.65562 0.00012
6.66000 8234.95534 8205.15718 0.00012
6.66400 8011.12921 8203.67908 0.00012
6.66800 8012.57298 8202.22059 0.00012
6.67200 7997.03541 8200.78103 0.00013
6.67600 8234.98350 8199.35978 0.00012
6.68000 8178.35763 8197.95617 0.00012
6.68400 8048.73784 8196.56968 0.00012
6.68800 7981.76687 8195.19967 0.00013
6.69200 8177.32244 8193.84565 0.00012
6.69600 8205.48435 8192.50706 0.00012
6.70000 8152.18286 8191.18345 0.00012
6.70400 8096.45129 8189.87430 0.00012
6.70800 8098.03084 8188.57918 0.00012
6.71200 8120.13676 8187.29764 0.00012
6.71600 8084.34377 8186.02928 0.00012
6.72000 8182.51601 8184.77369 0.00012
6.72400 7990.38093 8183.53046 0.00013
6.72800 8083.92303 8182.29928 0.00012
6.73200 8198.41408 8181.07973 0.00012
6.73600 8060.39148 8179.87153 0.00012
6.74000 8169.72997 8178.67429 0.00012
6.74400 8177.98401 8177.48777 0.00012
6.74800 8117.34760 8176.31160 0.00012
6.75200 8212.79414 8175.14555 0.00012
6.75600 8015.49808 8173.98928 0.00012
6.76000 7938.50626 8172.84259 0.00013
6.76400 8091.89549 8171.70515 0.00012
6.76800 8066.85421 8170.57680 0.00012
6.77200 8123.26384 8169.45721 0.00012
6.77600 8031.44915 8168.34623 0.00012
6.78000 8114.96095 8167.24357 0.00012
6.78400 8215.47016 8166.14908 0.00012
6.78800 8107.45461 8165.06250 0.00012
6.79200 8153.62134 8163.98369 0.00012
6.79600 8082.80472 8162.91241 0.00012
6.80000 8125.48622 8161.84850 0.00012
6.80400 8149.16798 8160.79179 0.00012
6.80800 8114.40295 8159.74209 0.00012
6.81200 8152.25493 8158.69926 0.00012
6.81600 8046.04719 8157.66310 0.00012
6.82000 8081.24800 8156.63352 0.00012
6.82400 8041.51558 8155.61030 0.00012
6.82800 8079.01607 8154.59339 0.00012
6.83200 8065.35774 8153.58254 0.00012
6.83600 7999.77278 8152.57773 0.00013
6.84000 8045.89528 8151.57874 0.00012
6.84400 8029.35145 8150.58550 0.00012
6.84800 8135.85102 8149.59788 0.00012
6.85200 8114.57154 8148.61574 0.00012
6.85600 8062.14375 8147.63901 0.00012
6.86000 7889.64183 8146.66752 0.00013
6.86400 8015.13343 8145.70125 0.00012
6.86800 8073.39977 8144.74002 0.00012
6.87200 8061.85203 8143.78380 0.00012
6.87600 8023.45823 8142.83244 0.00012
6.88000 8048.28269 8141.88586 0.00012
6.88400 8103.58611 8140.94401 0.00012
6.88800 7899.29032 8140.00673 0.00013
6.89200 8093.88536 8139.07404 0.00012
6.89600 8265.11650 8138.14576 0.00012
6.90000 8083.78352 8137.22187 0.00012
6.90400 7972.62490 8136.30229 0.00013
6.90800 7978.62917 8135.38690 0.00013
6.91200 8114.47774 8134.47571 0.00012
6.91600 8278.19088 8133.56858 0.00012
6.92000 8123.09624 8132.66547 0.00012
6.92400 7894.87840 8131.76634 0.00013
6.92800 8101.09891 8130.87106 0.00012
6.93200 7915.85977 8129.97966 0.00013
6.93600 7843.39856 8129.09201 0.00013
6.94000 7939.26633 8128.20807 0.00013
6.94400 8113.04399 8127.32782 0.00012
6.94800 7977.01893 8126.45115 0.00013
6.95200 7959.61610 8125.57805 0.00013
6.95600 8045.09091 8124.70846 0.00012
6.96000 8274.69333 8123.84230 0.00012
6.96400 8006.74434 8122.97959 0.00012
6.96800 8087.91202 8122.12023 0.00012
6.97200 8033.25813 8121.26416 0.00012
6.97600 7943.94295 8120.41141 0.00013
6.98000 7967.54839 8119.56187 0.00013
6.98400 8017.06560 8118.71562 0.00012
6.98800 8125.35057 8117.87034 0.00012
6.99200 7934.16213 8117.01954 0.00013
6.99600 8244.24474 8116.15922 0.00012
7.00000 7906.48000 8115.28822 0.00013
7.00400 8114.89416 8114.40471 0.00012
7.00800 8004.00000 8113.50653 0.00012
7.01200 8029.04160 8112.59091 0.00012
7.01600 8205.18742 8111.65424 0.00012
7.02000 8104.59093 8110.69175 0.00012
7.02400 8028.61867 8109.69681 0.00012
7.02800 7903.30739 8108.66020 0.00013
7.03200 7967.25440 8107.56980 0.00013
7.03600 7996.04320 8106.40523 0.00013
7.04000 8058.70755 8105.10808 0.00012
7.04400 8111.34933 8103.43105 0.00012
7.04800 8048.73600 8102.14950 0.00012
7.05200 8107.42400 8099.82179 0.00012
7.05600 7998.16316 8099.04675 0.00013
7.06000 8059.70293 8098.27424 0.00012
7.06400 7989.72800 8097.50418 0.00013
7.06800 7968.07307 8096.73653 0.00013
7.07200 8018.48053 8095.97132 0.00012
7.07600 8052.87360 8095.20853 0.00012
7.08000 7961.25993 8094.44810 0.00013
7.08400 7971.21173 8093.69001 0.00013
7.08800 8063.36213 8092.93430 0.00012
7.09200 8153.13333 8092.18287 0.00012
7.09600 8130.38883 8091.44457 0.00012
7.10000 8065.49120 8090.72582 0.00012
7.10400 8124.04693 8090.03533 0.00012
7.10800 8264.42320 8089.39354 0.00012
7.11200 7998.81951 8088.87231 0.00013
7.11600 8114.45627 8088.48908 0.00012
7.12000 8010.28080 8087.78488 0.00012
7.12400 8001.56124 8087.05063 0.00012
7.12800 8071.70480 8086.31855 0.00012
7.13200 7802.66132 8085.58868 0.00013
7.13600 8045.74400 8084.86095 0.00012
7.14000 8146.64783 8084.13535 0.00012
7.14400 7999.74880 8083.41187 0.00013
7.14800 7956.40469 8082.69053 0.00013
7.15200 8043.11040 8081.97130 0.00012
7.15600 8062.15196 8081.25415 0.00012
7.16000 7974.95015 8080.53907 0.00013
7.16400 7939.76320 8079.82607 0.00013
7.16800 7987.44228 8079.11515 0.00013
7.17200 7966.43988 8078.40626 0.00013
7.17600 8211.60000 8077.69940 0.00012
7.18000 7931.63423 8076.99456 0.00013
7.18400 7991.01466 8076.29178 0.00013
7.18800 7979.07040 8075.59100 0.00013
7.19200 7997.45454 8074.89221 0.00013
7.19600 8173.93548 8074.19540 0.00012
7.20000 8167.86297 8073.50059 0.00012
7.20400 7962.19621 8072.80777 0.00013
7.20800 7943.82671 8072.11691 0.00013
7.21200 7901.52853 8071.42800 0.00013
7.21600 7922.73794 8070.74104 0.00013
7.22000 7828.94428 8070.05603 0.00013
7.22400 8159.28606 8069.37297 0.00012
7.22800 8087.51106 8068.69184 0.00012
7.23200 8098.49267 8068.01263 0.00012
7.23600 7977.67955 8067.33536 0.00013
7.24000 7812.60037 8066.66054 0.00013
7.24400 8192.35191 8065.98926 0.00012
7.24800 8024.68763 8065.32155 0.00012
7.25200 8038.38016 8064.65188 0.00012
7.25600 8011.09891 8063.98408 0.00012
7.26000 8022.76300 8063.31815 0.00012
7.26400 7951.64170 8062.65412 0.00013
7.26800 8026.52733 8061.99198 0.00012
7.27200 8094.81556 8061.33169 0.00012
7.27600 8077.89976 8060.67327 0.00012
7.28000 8100.05758 8060.01669 0.00012
7.28400 8120.52359 8059.36197 0.00012
7.28800 8147.76866 8058.70908 0.00012
7.29200 8166.64356 8058.05808 0.00012
7.29600 8146.40469 8057.40891 0.00012
7.30000 8224.75073 8056.76158 0.00012
7.30400 8133.46414 8056.11607 0.00012
7.30800 8191.44723 8055.47238 0.00012
7.31200 7949.42149 8054.83052 0.00013
7.31600 7919.83156 8054.19048 0.00013
7.32000 7890.92189 8053.55228 0.00013
7.32400 7833.17675 8052.91590 0.00013
7.32800 8041.52239 8052.28133 0.00012
7.33200 8075.94455 8051.64857 0.00012
7.33600 7921.82196 8051.01761 0.00013
7.34000 8021.05321 8050.38845 0.00012
7.34400 7985.17749 8049.76109 0.00013
7.34800 8135.67691 8049.13553 0.00012
7.35200 7915.56305 8048.51178 0.00013
7.35600 7940.57168 8047.88983 0.00013
7.36000 8046.49880 8047.26968 0.00012
7.36400 8021.82964 8046.65131 0.00012
7.36800 8106.27444 8046.03473 0.00012
7.37200 8033.30898 8045.41994 0.00012
7.37600 7977.90791 8044.80693 0.00013
7.38000 7906.58422 8044.19570 0.00013
7.38400 7929.54235 8043.58625 0.00013
7.38800 7949.32898 8042.97858 0.00013
7.39200 7991.08278 8042.37268 0.00013
7.39600 7951.01110 8041.76859 0.00013
7.40000 7840.01944 8041.16627 0.00013
7.40400 7935.95905 8040.56572 0.00013
7.40800 7929.93691 8039.96695 0.00013
7.41200 8054.15850 8039.36998 0.00012
7.41600 7823.42770 8038.77590 0.00013
7.42000 7975.95533 8038.18706 0.00013
7.42400 8098.68998 8037.60873 0.00012
7.42800 8079.59765 8037.04550 0.00012
7.43200 8027.39094 8036.47127 0.00012
7.43600 7986.53123 8035.88495 0.00013
7.44000 7953.50814 8035.30037 0.00013
7.44400 8025.74589 8034.71756 0.00012
7.44800 7995.56999 8034.13651 0.00013
7.45200 7850.38793 8033.55723 0.00013
7.45600 7943.53940 8032.97972 0.00013
7.46000 8019.15271 8032.40397 0.00012
7.46400 7866.76697 8031.82999 0.00013
7.46800 8012.13467 8031.25778 0.00012
7.47200 8018.54637 8030.68734 0.00012
7.47600 8044.48003 8030.11867 0.00012
7.48000 7950.60152 8029.55176 0.00013
7.48400 7919.99474 8028.98661 0.00013
7.48800 8045.18490 8028.42323 0.00012
7.49200 8040.05403 8027.86162 0.00012
7.49600 8104.46164 8027.30177 0.00012
7.50000 7950.24895 8026.74369 0.00013
7.50400 7942.67170 8026.18737 0.00013
7.50800 7955.37501 8025.63282 0.00013
7.51200 8104.65565 8025.08004 0.00012
7.51600 7881.96907 8024.52903 0.00013
7.52000 7919.70034 8023.97979 0.00013
7.52400 8004.93454 8023.43232 0.00012
7.52800 8066.90032 8022.88662 0.00012
7.53200 7897.10054 8022.34268 0.00013
7.53600 7930.48700 8021.80052 0.00013
7.54000 7881.03507 8021.26013 0.00013
7.54400 7948.32809 8020.72152 0.00013
7.54800 7936.98322 8020.18468 0.00013
7.55200 7994.41532 8019.64961 0.00013
7.55600 8018.66483 8019.11632 0.00012
7.56000 7914.40950 8018.58481 0.00013
7.56400 8010.28172 8018.05507 0.00012
7.56800 8086.23713 8017.52712 0.00012
7.57200 7863.30864 8017.00096 0.00013
7.57600 7969.10739 8016.47657 0.00013
7.58000 8020.97120 8015.95397 0.00012
7.58400 8008.71588 8015.43315 0.00012
7.58800 7981.42819 8014.91412 0.00013
7.59200 7820.35272 8014.39688 0.00013
7.59600 7942.17224 8013.88142 0.00013
7.60000 7965.84056 8013.36775 0.00013
7.60400 8015.67995 8012.85587 0.00012
7.60800 7896.36025 8012.34578 0.00013
7.61200 7904.96316 8011.83749 0.00013
7.61600 8033.81743 8011.33099 0.00012
7.62000 8027.81926 8010.82629 0.00012
7.62400 8103.57510 8010.32339 0.00012
7.62800 7978.05873 8009.82228 0.00013
7.63200 7957.32471 8009.32297 0.00013
7.63600 7832.35970 8008.82547 0.00013
7.64000 7942.00517 8008.32980 0.00013
7.64400 8003.00348 8007.83593 0.00012
7.64800 7871.74178 8007.34388 0.00013
7.65200 8079.14266 8006.85363 0.00012
7.65600 7992.45077 8006.36519 0.00013
7.66000 7877.17795 8005.87857 0.00013
7.66400 7892.69492 8005.39376 0.00013
7.66800 7944.27580 8004.91077 0.00013
7.67200 7891.95331 8004.42960 0.00013
7.67600 7964.00012 8003.95024 0.00013
7.68000 7917.84433 8003.47273 0.00013
7.68400 7884.10318 8002.99706 0.00013
7.68800 8013.08015 8002.52322 0.00012
7.69200 7960.00351 8002.05121 0.00013
7.69600 7959.99452 8001.58103 0.00013
7.70000 8006.55457 8001.11268 0.00012
7.70400 7963.36614 8000.64617 0.00013
7.70800 8004.86971 8000.18150 0.00012
7.71200 7951.63085 7999.71867 0.00013
7.71600 7804.48235 7999.25772 0.00013
7.72000 7887.54776 7998.79862 0.00013
7.72400 7771.07558 7998.34136 0.00013
7.72800 7807.86370 7997.88596 0.00013
7.73200 7910.80218 7997.43241 0.00013
7.73600 8039.41647 7996.98071 0.00012
7.74000 8028.70230 7996.53087 0.00012
7.74400 7931.91218 7996.08293 0.00013
7.74800 7876.57367 7995.63686 0.00013
7.75200 7947.66972 7995.19266 0.00013
7.75600 7999.22474 7994.75032 0.00013
7.76000 7978.78623 7994.30986 0.00013
7.76400 7798.15402 7993.87129 0.00013
7.76800 7857.06981 7993.43486 0.00013
7.77200 7892.64558 7993.00077 0.00013
7.77600 7938.88356 7992.56933 0.00013
7.78000 7795.81833 7992.14176 0.00013
7.78400 7893.43130 7991.71842 0.00013
7.78800 7948.90194 7991.29145 0.00013
7.79200 7858.65221 7990.86616 0.00013
7.79600 7929.73858 7990.44278 0.00013
7.80000 8004.57341 7990.02131 0.00012
7.80400 7978.42151 7989.60173 0.00013
7.80800 7907.54250 7989.18406 0.00013
7.81200 7921.21053 7988.76980 0.00013
7.81600 7939.13715 7988.36327 0.00013
7.82000 7905.11804 7987.96858 0.00013
7.82400 8063.17367 7987.59243 0.00012
7.82800 7785.49556 7987.25716 0.00013
7.83200 7791.43832 7986.98112 0.00013
7.83600 8022.68722 7986.64767 0.00012
7.84000 8003.75462 7986.24594 0.00012
7.84400 7910.92432 7985.84615 0.00013
7.84800 7983.25282 7985.44829 0.00013
7.85200 8037.35883 7985.05244 0.00012
7.85600 7874.88981 7984.65855 0.00013
7.86000 7881.40823 7984.26661 0.00013
7.86400 7993.98490 7983.87662 0.00013
7.86800 7941.14792 7983.48862 0.00013
7.87200 7912.13758 7983.10263 0.00013
7.87600 7894.34731 7982.71861 0.00013
7.88000 7865.50519 7982.33656 0.00013
7.88400 7840.58647 7981.95649 0.00013
7.88800 7915.10019 7981.57848 0.00013
7.89200 7932.33440 7981.20244 0.00013
7.89600 7946.28725 7980.82839 0.00013
7.90000 8116.88432 7980.45634 0.00012
7.90400 8026.87333 7980.08636 0.00012
7.90800 7971.31730 7979.71838 0.00013
7.91200 8097.13134 7979.35241 0.00012
7.91600 8047.05186 7978.98845 0.00012
7.92000 7851.26605 7978.62659 0.00013
7.92400 7941.03519 7978.26673 0.00013
7.92800 8046.04954 7977.90890 0.00012
7.93200 8019.85750 7977.55314 0.00012
7.93600 7887.92302 7977.19946 0.00013
7.94000 8067.15272 7976.84781 0.00012
7.94400 8001.57125 7976.49820 0.00012
7.94800 7852.89562 7976.15072 0.00013
7.95200 7772.35564 7975.80531 0.00013
7.95600 7855.08338 7975.46268 0.00013
7.96000 7890.60372 7975.12795 0.00013
7.96400 7936.39266 7974.80621 0.00013
7.96800 7885.57827 7974.50602 0.00013
7.97200 7939.53969 7974.25717 0.00013
7.97600 7761.36837 7974.07086 0.00013
7.98000 7840.48795 7973.75974 0.00013
7.98400 7881.51911 7973.43144 0.00013
7.98800 7880.71882 7973.10533 0.00013
7.99200 7880.51810 7972.78134 0.00013
7.99600 7842.42508 7972.45946 0.00013
8.00000 7929.07918 7972.13975 0.00013
8.00400 7924.72776 7971.82222 0.00013
8.00800 7912.70957 7971.50681 0.00013
8.01200 7870.33644 7971.19358 0.00013
8.01600 7889.63006 7970.88255 0.00013
8.02000 8058.70918 7970.57367 0.00012
8.02400 7897.78743 7970.26698 0.00013
8.02800 7858.46986 7969.96252 0.00013
8.03200 7967.24747 7969.66022 0.00013
8.03600 7909.36539 7969.36015 0.00013
8.04000 7867.91103 7969.06232 0.00013
8.04400 7854.81046 7968.76666 0.00013
8.04800 7932.15490 7968.47327 0.00013
8.05200 8033.79915 7968.18213 0.00012
8.05600 8052.07890 7967.89319 0.00012
8.06000 7901.27757 7967.60656 0.00013
8.06400 7966.36357 7967.32217 0.00013
8.06800 7885.96285 7967.04000 0.00013
8.07200 7861.60714 7966.76020 0.00013
8.07600 7936.16950 7966.48264 0.00013
8.08000 7898.31167 7966.20736 0.00013
8.08400 7986.12777 7965.93443 0.00013
8.08800 7840.18753 7965.66376 0.00013
8.09200 7970.45307 7965.39545 0.00013
8.09600 7851.80767 7965.12946 0.00013
8.10000 7859.73422 7964.86576 0.00013
8.10400 7902.99978 7964.60450 0.00013
8.10800 8035.66740 7964.34557 0.00012
8.11200 7968.81822 7964.08995 0.00013
8.11600 7947.42114 7963.84024 0.00013
8.12000 7915.20778 7963.60160 0.00013
8.12400 8051.76307 7963.38021 0.00012
8.12800 7942.59532 7963.15498 0.00013
8.13200 7785.43127 7962.91041 0.00013
8.13600 8054.17402 7962.66830 0.00012
8.14000 7972.65489 7962.42934 0.00013
8.14400 7880.15500 7962.19616 0.00013
8.14800 7819.49947 7961.97181 0.00013
8.15200 7746.83714 7961.76369 0.00013
8.15600 7972.46355 7961.58257 0.00013
8.16000 7854.06212 7961.39963 0.00013
8.16400 7926.81567 7961.17493 0.00013
8.16800 7909.41103 7960.95268 0.00013
8.17200 7873.37881 7960.73302 0.00013
8.17600 7890.50224 7960.51585 0.00013
8.18000 7893.21909 7960.30124 0.00013
8.18400 8031.00646 7960.08920 0.00012
8.18800 7913.07320 7959.87970 0.00013
8.19200 7969.52781 7959.67283 0.00013
8.19600 7887.77215 7959.46849 0.00013
8.20000 7954.98253 7959.26686 0.00013
8.20400 7792.15792 7959.06776 0.00013
8.20800 7791.28663 7958.87137 0.00013
8.21200 7814.92125 7958.67758 0.00013
8.21600 7978.80156 7958.48648 0.00013
8.22000 7936.63704 7958.29805 0.00013
8.22400 7859.89854 7958.11231 0.00013
8.22800 7894.67429 7957.92929 0.00013
8.23200 7901.13930 7957.74896 0.00013
8.23600 7860.10206 7957.57141 0.00013
8.24000 7873.05752 7957.39656 0.00013
8.24400 7895.43379 7957.22454 0.00013
8.24800 7963.30714 7957.05523 0.00013
8.25200 7989.69055 7956.88880 0.00013
8.25600 7892.92528 7956.72510 0.00013
8.26000 7853.23635 7956.56432 0.00013
8.26400 7800.93182 7956.40629 0.00013
8.26800 7905.16295 7956.25123 0.00013
8.27200 7875.31195 7956.09895 0.00013
8.27600 7992.47527 7955.94967 0.00013
8.28000 7968.81152 7955.80320 0.00013
8.28400 7892.90493 7955.65977 0.00013
8.28800 7947.23086 7955.51920 0.00013
8.29200 7794.43624 7955.38170 0.00013
8.29600 7869.98736 7955.24710 0.00013
8.30000 7991.81332 7955.11559 0.00013
8.30400 7899.46178 7954.98704 0.00013
8.30800 7899.71557 7954.86161 0.00013
8.31200 7866.78216 7954.73919 0.00013
8.31600 8013.54840 7954.61991 0.00012
8.32000 7780.81491 7954.50371 0.00013
8.32400 7853.52548 7954.39067 0.00013
8.32800 7970.88895 7954.28077 0.00013
8.33200 7923.86517 7954.17405 0.00013
8.33600 7975.26232 7954.07054 0.00013
8.34000 7772.92756 7953.97023 0.00013
8.34400 7902.64877 7953.87321 0.00013
8.34800 7811.78162 7953.77940 0.00013
8.35200 7871.67317 7953.68896 0.00013
8.35600 7959.12998 7953.60176 0.00013
8.36000 7967.06924 7953.51799 0.00013
8.36400 7883.82778 7953.43753 0.00013
8.36800 7915.50702 7953.36051 0.00013
8.37200 7871.94714 7953.28689 0.00013
8.37600 7872.54177 7953.21671 0.00013
8.38000 7829.30919 7953.15004 0.00013
8.38400 7925.45647 7953.08681 0.00013
8.38800 7985.07661 7953.02722 0.00013
8.39200 7934.39334 7952.97111 0.00013
8.39600 8039.32224 7952.91864 0.00012
8.40000 7875.02843 7952.86978 0.00013
8.40400 7882.90413 7952.82454 0.00013
8.40800 7823.52461 7952.78305 0.00013
8.41200 7915.37603 7952.74520 0.00013
8.41600 7871.42128 7952.71118 0.00013
8.42000 7945.55118 7952.68090 0.00013
8.42400 7898.69614 7952.65443 0.00013
8.42800 7912.79849 7952.63185 0.00013
8.43200 7955.56120 7952.61309 0.00013
8.43600 7856.49005 7952.59833 0.00013
8.44000 7767.05859 7952.58748 0.00013
8.44400 7860.30330 7952.58062 0.00013
8.44800 7953.20737 7952.57784 0.00013
8.45200 7831.16618 7952.57906 0.00013
8.45600 7919.52863 7952.58446 0.00013
8.46000 7871.64101 7952.59399 0.00013
8.46400 7916.88252 7952.60888 0.00013
8.46800 7978.13422 7952.63188 0.00013
8.47200 7899.73885 7952.66871 0.00013
8.47600 7863.31188 7952.72389 0.00013
8.48000 7828.78722 7952.76617 0.00013
8.48400 7876.28838 7952.80149 0.00013
8.48800 7877.56069 7952.84132 0.00013
8.49200 7945.65393 7952.88563 0.00013
8.49600 7846.56618 7952.65557 0.00013
8.50000 7904.78769 7952.70982 0.00013
8.50400 7833.93451 7952.76868 0.00013
8.50800 7871.73449 7952.83218 0.00013
8.51200 7935.51076 7952.90053 0.00013
8.51600 7851.86902 7952.97362 0.00013
8.52000 7828.39734 7953.05153 0.00013
8.52400 7974.26060 7953.13444 0.00013
8.52800 7950.64153 7953.22226 0.00013
8.53200 7937.57827 7953.31507 0.00013
8.53600 7970.58019 7953.41304 0.00013
8.54000 8042.98668 7953.51611 0.00012
8.54400 7993.25630 7953.62434 0.00013
8.54800 7846.53838 7953.73792 0.00013
8.55200 7918.00479 7953.85679 0.00013
8.55600 8000.30666 7953.98101 0.00012
8.56000 7895.18466 7954.11078 0.00013
8.56400 7881.16853 7954.24604 0.00013
8.56800 8049.66338 7954.38686 0.00012
8.57200 7941.91653 7954.53340 0.00013
8.57600 8001.32362 7954.68568 0.00012
8.58000 7950.11661 7954.84439 0.00013
8.58400 8041.08437 7955.01202 0.00012
8.58800 7910.53530 7955.19440 0.00013
8.59200 8025.22311 7955.39730 0.00012
8.59600 8058.07560 7955.59843 0.00012
8.60000 8017.69140 7955.79056 0.00012
8.60400 7928.01331 7955.98525 0.00013
8.60800 7940.80740 7956.18629 0.00013
8.61200 7970.20208 7956.39383 0.00013
8.61600 8008.30796 7956.60796 0.00012
8.62000 7863.34664 7956.82872 0.00013
8.62400 7983.78961 7957.05620 0.00013
8.62800 7951.97284 7957.29059 0.00013
8.63200 7953.80545 7957.53193 0.00013
8.63600 7930.04766 7957.78028 0.00013
8.64000 7885.27646 7958.03577 0.00013
8.64400 8016.42652 7958.29860 0.00012
8.64800 8012.06782 7958.56877 0.00012
8.65200 8040.21273 7958.84639 0.00012
8.65600 8056.18057 7959.13160 0.00012
8.66000 8051.61715 7959.42460 0.00012
8.66400 8014.46605 7959.72540 0.00012
8.66800 7984.32748 7960.03414 0.00013
8.67200 8147.74119 7960.35093 0.00012
8.67600 8045.17520 7960.67602 0.00012
8.68000 8043.99947 7961.00943 0.00012
8.68400 8093.06750 7961.35130 0.00012
8.68800 8028.81150 7961.70176 0.00012
8.69200 8088.52863 7962.06103 0.00012
8.69600 7879.83133 7962.42923 0.00013
8.70000 8145.62859 7962.80645 0.00012
8.70400 8013.10500 7963.19287 0.00012
8.70800 8055.16374 7963.58865 0.00012
8.71200 7962.28701 7963.99403 0.00013
8.71600 8004.79667 7964.40908 0.00012
8.72000 8015.16374 7964.83397 0.00012
8.72400 8071.36928 7965.26889 0.00012
8.72800 8013.82470 7965.71403 0.00012
8.73200 8080.56549 7966.16963 0.00012
8.73600 8002.70190 7966.63579 0.00012
8.74000 7935.61928 7968.77248 0.00013
8.74400 7858.71965 7969.30624 0.00013
8.74800 8063.66720 7969.85311 0.00012
8.75200 7877.07660 7970.41347 0.00013
8.75600 8048.51796 7970.98758 0.00012
8.76000 8088.22471 7971.57578 0.00012
8.76400 8044.24654 7972.17843 0.00012
8.76800 8024.59357 7972.79593 0.00012
8.77200 7892.29473 7973.42871 0.00013
8.77600 8030.51970 7974.07717 0.00012
8.78000 8018.54553 7974.74171 0.00012
8.78400 8033.37856 7975.42279 0.00012
8.78800 7974.41374 7976.12089 0.00013
8.79200 7969.00213 7976.83651 0.00013
8.79600 7967.39855 7977.57025 0.00013
8.80000 7971.15442 7978.32263 0.00013
8.80400 7993.20776 7979.09423 0.00013
8.80800 7931.36198 7979.88617 0.00013
8.81200 7989.63685 7980.70082 0.00013
8.81600 8049.41986 7981.54104 0.00012
8.82000 8042.03687 7982.41350 0.00012
8.82400 7989.86502 7983.32383 0.00013
8.82800 8040.94637 7984.24073 0.00012
8.83200 7982.85383 7985.16697 0.00013
8.83600 7953.35863 7986.11874 0.00013
8.84000 8093.26613 7987.09711 0.00012
8.84400 8023.76518 7988.10322 0.00012
8.84800 8051.39164 7989.13829 0.00012
8.85200 8129.24786 7990.20370 0.00012
8.85600 8075.61661 7991.30090 0.00012
8.86000 7966.99896 7992.43143 0.00013
8.86400 8043.41880 7993.59703 0.00012
8.86800 8037.07029 7994.79959 0.00012
8.87200 8002.21635 7996.04120 0.00012
8.87600 8066.04153 7997.32416 0.00012
8.88000 7920.80472 7998.65101 0.00013
8.88400 7974.93530 8000.02460 0.00013
8.88800 7957.71086 8001.44811 0.00013
8.89200 7881.02822 8002.92511 0.00013
8.89600 8066.51467 8004.45956 0.00012
8.90000 8111.14510 8006.05599 0.00012
8.90400 7982.91606 8007.71956 0.00013
8.90800 8028.29819 8009.45615 0.00012
8.91200 7975.96511 8011.27252 0.00013
8.91600 8004.79446 8013.17647 0.00012
8.92000 8040.81980 8015.17710 0.00012
8.92400 8057.49867 8017.28501 0.00012
8.92800 8224.48167 8019.51270 0.00012
8.93200 8086.20447 8021.87498 0.00012
8.93600 8103.82010 8024.38953 0.00012
8.94000 8165.30564 8027.07765 0.00012
8.94400 8166.14553 8029.96513 0.00012
8.94800 8168.54233 8033.08357 0.00012
8.95200 7961.48181 8036.47202 0.00013
8.95600 8095.83290 8040.17925 0.00012
8.96000 8078.72205 8044.26683 0.00012
8.96400 8126.14869 8048.81347 0.00012
8.96800 8191.62194 8053.92112 0.00012
8.97200 8110.76127 8059.72377 0.00012
8.97600 7966.74097 8066.40037 0.00013
8.98000 8123.07003 8074.19428 0.00012
8.98400 8175.99569 8083.44316 0.00012
8.98800 8259.31709 8094.62621 0.00012
8.99200 8083.51983 8108.44127 0.00012
8.99600 8072.20873 8125.93495 0.00012
9.00000 8273.86701 8148.73118 0.00012
9.00400 8180.31363 8179.45321 0.00012
9.00800 8171.11650 8222.57388 0.00012
9.01200 8214.18094 8286.50259 0.00012
9.01600 8535.54132 8390.00011 0.00012
9.02000 8550.91613 8580.36824 0.00012
9.02400 8842.45165 8963.34849 0.00011
9.02800 9698.42374 9696.65443 0.00010
9.03200 10861.89563 10774.54376 0.00009
9.03600 11141.95087 11267.63620 0.00009
9.04000 10540.76901 10404.48523 0.00009
9.04400 9379.19204 9411.53365 0.00011
9.04800 8719.13587 8819.07984 0.00011
9.05200 8478.02574 8522.99180 0.00012
9.05600 8301.40199 8375.71825 0.00012
9.06000 8276.20029 8294.27541 0.00012
9.06400 8232.62728 8244.12456 0.00012
9.06800 8269.36523 8211.27865 0.00012
9.07200 8219.88525 8189.06004 0.00012
9.07600 8293.98722 8173.77019 0.00012
9.08000 8227.75398 8163.19596 0.00012
9.08400 8262.10304 8155.94920 0.00012
9.08800 8207.76417 8151.12631 0.00012
9.09200 8190.18734 8148.12036 0.00012
9.09600 8244.00871 8146.51257 0.00012
9.10000 8173.26595 8146.00730 0.00012
9.10400 8216.71223 8146.39172 0.00012
9.10800 8185.64670 8147.51007 0.00012
9.11200 8233.69470 8149.24680 0.00012
9.11600 8172.81539 8151.51526 0.00012
9.12000 7953.58040 8154.24997 0.00013
9.12400 8027.33670 8157.40119 0.00012
9.12800 8253.97773 8160.93129 0.00012
9.13200 8322.63343 8164.81261 0.00012
9.13600 8135.56877 8169.02512 0.00012
9.14000 8138.96779 8173.55062 0.00012
9.14400 8144.10863 8178.37384 0.00012
9.14800 8223.40903 8183.49380 0.00012
9.15200 8172.04498 8188.91203 0.00012
9.15600 8314.93557 8194.63070 0.00012
9.16000 8408.37450 8200.61917 0.00012
9.16400 8399.94524 8206.89276 0.00012
9.16800 8260.05696 8213.46129 0.00012
9.17200 8439.84327 8220.33057 0.00012
9.17600 8315.29823 8227.50788 0.00012
9.18000 8269.67953 8235.00193 0.00012
9.18400 8304.16267 8242.82279 0.00012
9.18800 8443.41343 8250.98184 0.00012
9.19200 8388.76667 8259.49174 0.00012
9.19600 8442.50812 8268.36649 0.00012
9.20000 8417.46166 8277.62145 0.00012
9.20400 8486.52089 8287.27334 0.00012
9.20800 8392.12002 8297.34037 0.00012
9.21200 8293.24035 8307.84259 0.00012
9.21600 8391.44036 8318.80198 0.00012
9.22000 8426.12031 8330.24048 0.00012
9.22400 8546.70414 8342.18061 0.00012
9.22800 8437.51797 8354.65078 0.00012
9.23200 8304.18985 8367.67953 0.00012
9.23600 8399.47144 8381.29759 0.00012
9.24000 8451.89749 8395.53796 0.00012
9.24400 8430.53234 8410.43620 0.00012
9.24800 8614.80475 8426.03054 0.00012
9.25200 8527.09001 8442.36221 0.00012
9.25600 8604.17221 8459.47554 0.00012
9.26000 8533.73763 8477.41833 0.00012
9.26400 8636.62896 8496.24214 0.00012
9.26800 8663.86981 8516.00265 0.00012
9.27200 8747.25153 8536.75999 0.00011
9.27600 8837.48230 8558.57917 0.00011
9.28000 8820.22528 8581.53059 0.00011
9.28400 8834.39686 8605.69035 0.00011
9.28800 8810.82668 8631.14105 0.00011
9.29200 8838.95821 8657.97224 0.00011
9.29600 8965.56969 8686.28120 0.00011
9.30000 8892.41922 8716.17363 0.00011
9.30400 8911.31568 8747.76458 0.00011
9.30800 9027.41826 8781.17916 0.00011
9.31200 9070.63481 8816.55374 0.00011
9.31600 9086.15853 8854.03696 0.00011
9.32000 9266.40697 8893.79103 0.00011
9.32400 9295.96194 8935.99309 0.00011
9.32800 9395.68371 8980.83651 0.00011
9.33200 9281.73729 9028.53254 0.00011
9.33600 9518.10274 9077.71095 0.00011
9.34000 9522.29813 9131.86829 0.00011
9.34400 9578.75592 9189.63604 0.00010
9.34800 9533.13096 9251.31590 0.00010
9.35200 9659.46938 9317.23741 0.00010
9.35600 9493.14932 9387.76043 0.00011
9.36000 9732.40461 9463.27754 0.00010
9.36400 9921.01145 9544.21648 0.00010
9.36800 9832.15811 9631.04244 0.00010
9.37200 9887.41389 9724.26026 0.00010
9.37600 10063.39617 9824.41636 0.00010
9.38000 9948.94943 9932.10011 0.00010
9.38400 10068.04711 10047.94412 0.00010
9.38800 10325.08775 10172.62325 0.00010
9.39200 10469.90764 10306.85221 0.00010
9.39600 10608.48757 10451.38031 0.00009
9.40000 10928.95422 10606.98300 0.00009
9.40400 10910.02243 10774.44827 0.00009
9.40800 11052.47724 10954.55783 0.00009
9.41200 11348.87836 11148.06018 0.00009
9.41600 11655.40298 11355.63518 0.00009
9.42000 11672.50599 11577.84668 0.00009
9.42400 11949.53617 11815.07287 0.00008
9.42800 12237.49589 12067.41958 0.00008
9.43200 12378.60660 12334.66238 0.00008
9.43600 12693.29705 12616.09880 0.00008
9.44000 12983.25978 12910.43225 0.00008
9.44400 13350.53573 13215.63666 0.00007
9.44800 13572.89027 13528.82386 0.00007
9.45200 14127.62603 13846.12851 0.00007
9.45600 14565.72664 14162.63301 0.00007
9.46000 14728.72284 14472.35597 0.00007
9.46400 14985.48709 14768.33573 0.00007
9.46800 15305.80463 15042.83240 0.00007
9.47200 15648.61033 15287.65752 0.00006
9.47600 15807.92557 15494.63635 0.00006
9.48000 16132.38408 15656.17196 0.00006
9.48400 16346.70083 15765.85859 0.00006
9.48800 16453.19377 15819.06446 0.00006
9.49200 16211.45450 15813.39711 0.00006
9.49600 16315.46287 15748.94308 0.00006
9.50000 16098.46580 15628.26000 0.00006
9.50400 15709.19889 15456.23604 0.00006
9.50800 15379.15651 15239.56053 0.00007
9.51200 14941.31564 14986.10723 0.00007
9.51600 14727.29758 14704.30400 0.00007
9.52000 14200.27389 14402.53261 0.00007
9.52400 13621.99021 14088.64098 0.00007
9.52800 13258.82406 13769.60074 0.00008
9.53200 12764.71525 13451.31253 0.00008
9.53600 12166.98190 13138.54252 0.00008
9.54000 12014.65425 12834.95712 0.00008
9.54400 11686.51823 12543.22335 0.00009
9.54800 11407.23309 12265.14490 0.00009
9.55200 11233.47345 12001.81125 0.00009
9.55600 10965.74527 11753.74173 0.00009
9.56000 10565.85467 11521.01725 0.00009
9.56400 10388.10301 11303.39373 0.00010
9.56800 10282.51584 11100.39547 0.00010
9.57200 10015.27365 10911.39048 0.00010
9.57600 9886.68427 10735.64949 0.00010
9.58000 9855.45329 10572.38987 0.00010
9.58400 9864.03487 10420.80910 0.00010
9.58800 9599.79745 10280.10874 0.00010
9.59200 9533.20057 10149.51024 0.00010
9.59600 9521.31408 10028.26682 0.00011
9.60000 9336.04375 9915.67012 0.00011
9.60400 9392.79771 9811.05384 0.00011
9.60800 9213.76577 9713.79609 0.00011
9.61200 9145.50459 9623.31876 0.00011
9.61600 9219.23503 9539.08702 0.00011
9.62000 9164.02555 9460.60779 0.00011
9.62400 9227.14613 9387.42707 0.00011
9.62800 9024.58850 9319.12828 0.00011
9.63200 8828.08491 9255.32940 0.00011
9.63600 8923.37903 9195.68129 0.00011
9.64000 8942.32501 9139.86601 0.00011
9.64400 8873.49243 9087.59478 0.00011
9.64800 8735.19058 9038.60526 0.00011
9.65200 8893.38328 8992.63434 0.00011
9.65600 8760.43253 8949.44241 0.00011
9.66000 8676.73756 8908.84690 0.00012
9.66400 8753.22571 8870.66228 0.00011
9.66800 8743.87151 8834.71181 0.00011
9.67200 8812.16769 8800.83485 0.00011
9.67600 8778.63189 8768.89223 0.00011
9.68000 8887.02635 8738.75267 0.00011
9.68400 8794.37184 8710.29650 0.00011
9.68800 8615.83027 8683.41554 0.00012
9.69200 8677.43465 8658.01219 0.00012
9.69600 8669.38834 8633.98583 0.00012
9.70000 8708.92946 8611.22852 0.00011
9.70400 8708.05111 8589.67997 0.00011
9.70800 8721.78386 8569.26717 0.00011
9.71200 8668.97312 8549.92248 0.00012
9.71600 8635.74926 8531.58396 0.00012
9.72000 8810.82486 8514.19401 0.00011
9.72400 8680.16689 8497.69984 0.00012
9.72800 8634.45851 8482.05241 0.00012
9.73200 8590.56242 8467.20662 0.00012
9.73600 8525.42374 8453.12071 0.00012
9.74000 8548.53230 8439.75609 0.00012
9.74400 8512.78667 8427.07724 0.00012
9.74800 8648.09822 8415.05116 0.00012
9.75200 8633.04392 8403.64768 0.00012
9.75600 8490.30769 8392.83864 0.00012
9.76000 8569.95948 8382.59852 0.00012
9.76400 8425.42469 8372.90339 0.00012
9.76800 8469.36066 8363.73181 0.00012
9.77200 8505.58797 8355.06361 0.00012
9.77600 8513.30535 8346.88091 0.00012
9.78000 8483.42720 8339.16701 0.00012
9.78400 8638.12297 8331.90723 0.00012
9.78800 8532.94807 8325.08800 0.00012
9.79200 8428.39577 8318.69762 0.00012
9.79600 8648.95236 8312.72542 0.00012
9.80000 8785.08491 8307.16252 0.00011
9.80400 8611.39207 8302.00100 0.00012
9.80800 8659.13394 8297.23470 0.00012
9.81200 8561.48736 8292.86125 0.00012
9.81600 8557.54480 8288.88312 0.00012
9.82000 8643.06060 8285.31041 0.00012
9.82400 8640.70908 8282.14633 0.00012
9.82800 8695.52196 8279.30787 0.00012
9.83200 8647.28933 8276.85542 0.00012
9.83600 8479.91828 8274.79230 0.00012
9.84000 8698.22758 8273.12399 0.00011
9.84400 8539.15912 8271.85721 0.00012
9.84800 8562.23054 8271.00093 0.00012
9.85200 8626.26484 8270.56580 0.00012
9.85600 8514.97738 8270.56481 0.00012
9.86000 8620.20495 8271.01313 0.00012
9.86400 8547.69675 8271.92855 0.00012
9.86800 8437.10274 8273.33165 0.00012
9.87200 8339.01783 8275.24595 0.00012
9.87600 8445.76471 8277.69866 0.00012
9.88000 8344.82992 8280.72041 0.00012
9.88400 8435.76684 8284.34653 0.00012
9.88800 8430.77701 8288.61664 0.00012
9.89200 8420.85760 8293.57617 0.00012
9.89600 8386.28951 8299.27636 0.00012
9.90000 8461.96620 8305.77550 0.00012
9.90400 8411.25446 8313.13982 0.00012
9.90800 8438.03885 8321.44506 0.00012
9.91200 8377.50093 8330.77988 0.00012
9.91600 8344.42002 8341.24411 0.00012
9.92000 8410.37933 8352.93807 0.00012
9.92400 8449.87863 8365.99084 0.00012
9.92800 8516.11709 8380.55402 0.00012
9.93200 8483.70929 8396.79838 0.00012
9.93600 8554.31169 8414.92012 0.00012
9.94000 8458.36906 8435.13065 0.00012
9.94400 8459.43173 8457.68325 0.00012
9.94800 8568.45355 8482.88982 0.00012
9.95200 8715.88343 8511.10084 0.00011
9.95600 8710.48762 8542.72490 0.00011
9.96000 8762.48776 8578.23976 0.00011
9.96400 8628.61272 8618.20377 0.00012
9.96800 8723.14133 8663.27045 0.00011
9.97200 8853.31089 8714.20410 0.00011
9.97600 8821.56135 8771.89661 0.00011
9.98000 8830.26586 8837.38605 0.00011
9.98400 8940.75274 8911.87317 0.00011
9.98800 9058.71115 8996.73503 0.00011
9.99200 9167.91136 9093.53022 0.00011
9.99600 9398.92515 9203.98574 0.00011
10.00000 9458.42454 9329.95560 0.00011
10.00400 9686.75319 9473.32875 0.00010
10.00800 9931.29598 9635.86112 0.00010
10.01200 10047.44165 9818.90065 0.00010
10.01600 10294.30610 10022.97239 0.00010
10.02000 10419.52716 10247.20861 0.00010
10.02400 10686.41097 10488.64266 0.00009
10.02800 10999.91459 10741.44444 0.00009
10.03200 11292.94943 10996.26371 0.00009
10.03600 11798.07348 11239.94357 0.00008
10.04000 11975.94331 11455.95735 0.00008
10.04400 12030.92607 11625.92937 0.00008
10.04800 12300.83577 11732.39448 0.00008
10.05200 12296.47790 11762.42992 0.00008
10.05600 12414.20655 11711.08544 0.00008
10.06000 12346.34922 11583.13265 0.00008
10.06400 12026.79373 11392.12618 0.00008
10.06800 11677.45875 11157.05210 0.00009
10.07200 11348.80156 10898.03168 0.00009
10.07600 10889.87836 10632.75735 0.00009
10.08000 10657.99840 10374.57566 0.00009
10.08400 10327.69444 10132.16252 0.00010
10.08800 10089.94454 9910.19944 0.00010
10.09200 9871.11924 9710.42356 0.00010
10.09600 9603.79651 9532.65039 0.00010
10.10000 9508.11685 9375.58514 0.00011
10.10400 9278.16667 9237.37947 0.00011
10.10800 9257.15956 9115.99411 0.00011
10.11200 9223.84855 9009.41017 0.00011
10.11600 9098.38934 8915.74080 0.00011
10.12000 8951.21504 8833.28249 0.00011
10.12400 8899.00262 8760.52987 0.00011
10.12800 8824.04072 8696.17064 0.00011
10.13200 8797.64057 8639.07088 0.00011
10.13600 8507.22385 8588.25640 0.00012
10.14000 8500.14789 8542.89313 0.00012
10.14400 8495.20128 8502.26779 0.00012
10.14800 8523.50093 8465.77106 0.00012
10.15200 8368.70069 8432.88226 0.00012
10.15600 8470.58094 8403.15584 0.00012
10.16000 8560.97418 8376.20972 0.00012
10.16400 8415.68264 8351.71580 0.00012
10.16800 8336.68807 8329.39158 0.00012
10.17200 8333.98296 8308.99305 0.00012
10.17600 8303.63259 8290.30873 0.00012
10.18000 8305.86204 8273.15495 0.00012
10.18400 8424.11235 8257.37170 0.00012
10.18800 8337.32992 8242.81908 0.00012
10.19200 8356.37636 8229.37427 0.00012
10.19600 8321.35969 8216.92937 0.00012
10.20000 8347.62289 8205.38924 0.00012
10.20400 8298.23233 8194.66980 0.00012
10.20800 8324.98500 8184.69634 0.00012
10.21200 8304.42830 8175.40253 0.00012
10.21600 8284.95793 8166.72931 0.00012
10.22000 8396.45489 8158.62406 0.00012
10.22400 8329.03569 8151.03989 0.00012
10.22800 8202.51464 8143.93661 0.00012
10.23200 8163.92971 8137.27720 0.00012
10.23600 8137.98422 8131.01741 0.00012
10.24000 8201.75315 8125.13296 0.00012
10.24400 8250.87773 8119.59590 0.00012
10.24800 8179.88250 8114.38102 0.00012
10.25200 8223.18664 8109.46549 0.00012
10.25600 8211.61725 8104.82863 0.00012
10.26000 8147.43770 8100.45169 0.00012
10.26400 8081.60830 8096.31746 0.00012
10.26800 8185.78062 8092.41040 0.00012
10.27200 8153.74025 8088.71631 0.00012
10.27600 8070.47977 8085.22229 0.00012
10.28000 8017.62177 8081.91665 0.00012
10.28400 8230.72819 8078.78854 0.00012
10.28800 8077.65051 8075.82814 0.00012
10.29200 8047.15389 8073.02651 0.00012
10.29600 8234.32012 8070.37550 0.00012
10.30000 8156.64617 8067.86770 0.00012
10.30400 8145.24892 8065.49637 0.00012
10.30800 8185.23003 8063.25529 0.00012
10.31200 8066.68861 8061.13885 0.00012
10.31600 8127.19169 8059.14198 0.00012
10.32000 8179.00479 8057.26007 0.00012
10.32400 8116.09312 8055.48897 0.00012
10.32800 8184.30138 8053.82499 0.00012
10.33200 8035.29898 8052.26465 0.00012
10.33600 8166.92598 8050.80487 0.00012
10.34000 8182.38172 8049.44284 0.00012
10.34400 8109.14586 8048.17602 0.00012
10.34800 8034.62274 8047.00203 0.00012
10.35200 8124.36342 8045.91864 0.00012
10.35600 8154.45154 8044.92374 0.00012
10.36000 8093.00213 8044.01506 0.00012
10.36400 8185.89517 8043.19032 0.00012
10.36800 8217.08014 8042.44704 0.00012
10.37200 8196.91270 8041.78241 0.00012
10.37600 8104.21299 8041.19319 0.00012
10.38000 8123.57402 8040.67554 0.00012
10.38400 8091.57302 8040.22491 0.00012
10.38800 8112.31230 8039.83590 0.00012
10.39200 8169.54567 8039.50195 0.00012
10.39600 8085.29500 8039.21541 0.00012
10.40000 8023.34185 8038.96740 0.00012
10.40400 8188.91227 8038.74775 0.00012
10.40800 8330.50000 8038.54509 0.00012
10.41200 8137.73335 8038.34698 0.00012
10.41600 8112.92732 8038.14022 0.00012
10.42000 8138.89404 8037.91116 0.00012
10.42400 8085.06408 8037.64630 0.00012
10.42800 8126.77050 8037.33288 0.00012
10.43200 8175.86582 8036.95940 0.00012
10.43600 8069.03293 8036.51639 0.00012
10.44000 8138.70075 8035.99693 0.00012
10.44400 8196.04686 8035.39710 0.00012
10.44800 7985.63578 8034.71615 0.00013
10.45200 8189.87287 8033.95656 0.00012
10.45600 8196.77428 8033.12378 0.00012
10.46000 8321.16294 8032.22582 0.00012
10.46400 8235.58230 8031.27265 0.00012
10.46800 8269.01464 8030.27557 0.00012
10.47200 8141.36453 8029.24653 0.00012
10.47600 8077.10931 8028.19771 0.00012
10.48000 8315.09664 8027.14503 0.00012
10.48400 8287.40309 8026.10634 0.00012
10.48800 8153.59309 8025.10909 0.00012
10.49200 8106.69036 8024.17140 0.00012
10.49600 8203.83346 8023.19006 0.00012
10.50000 8292.76092 8022.22422 0.00012
10.50400 8282.22205 8021.29431 0.00012
10.50800 8285.74920 8020.40340 0.00012
10.51200 8142.59809 8019.55352 0.00012
10.51600 8221.38595 8018.74593 0.00012
10.52000 8226.73109 8017.98115 0.00012
10.52400 8270.88019 8017.25921 0.00012
10.52800 8117.34212 8016.57965 0.00012
10.53200 8207.08557 8015.94172 0.00012
10.53600 8172.74867 8015.34441 0.00012
10.54000 8188.90724 8014.78655 0.00012
10.54400 8212.06521 8014.26683 0.00012
10.54800 8122.70287 8013.78391 0.00012
10.55200 8178.16204 8013.33639 0.00012
10.55600 8157.57959 8012.92288 0.00012
10.56000 8129.48083 8012.54200 0.00012
10.56400 8183.65229 8012.19251 0.00012
10.56800 8160.15823 8011.87412 0.00012
10.57200 8115.16081 8011.58876 0.00012
10.57600 8168.37049 8011.34074 0.00012
10.58000 8109.70500 8011.13846 0.00012
10.58400 8087.29386 8010.96654 0.00012
10.58800 8238.29766 8010.77958 0.00012
10.59200 8133.49763 8010.61605 0.00012
10.59600 8045.11874 8010.47509 0.00012
10.60000 8232.03986 8010.35586 0.00012
10.60400 8118.61340 8010.25759 0.00012
10.60800 8017.12194 8010.17955 0.00012
10.61200 8080.66877 8010.12109 0.00012
10.61600 8244.46112 8010.08157 0.00012
10.62000 8072.81203 8010.06042 0.00012
10.62400 8061.19524 8010.05710 0.00012
10.62800 8089.62011 8010.07112 0.00012
10.63200 8139.66494 8010.10201 0.00012
10.63600 8095.98119 8010.14933 0.00012
10.64000 8033.49794 8010.21267 0.00012
10.64400 8176.12886 8010.29169 0.00012
10.64800 7990.46113 8010.38602 0.00013
10.65200 8276.42630 8010.49537 0.00012
10.65600 7981.20767 8010.61944 0.00013
10.66000 8058.87880 8010.75797 0.00012
10.66400 8191.27047 8010.91071 0.00012
10.66800 8213.74973 8011.07743 0.00012
10.67200 8093.70812 8011.25795 0.00012
10.67600 8177.39614 8011.45206 0.00012
10.68000 8136.37806 8011.65960 0.00012
10.68400 8085.29491 8011.88043 0.00012
10.68800 8189.82362 8012.11445 0.00012
10.69200 7953.30004 8012.36150 0.00013
10.69600 8115.99068 8012.62146 0.00012
10.70000 8085.14350 8012.89423 0.00012
10.70400 7983.57049 8013.17975 0.00013
10.70800 7947.96556 8013.47792 0.00013
10.71200 8086.24767 8013.78870 0.00012
10.71600 8152.34764 8014.11204 0.00012
10.72000 8125.15258 8014.44789 0.00012
10.72400 7970.19635 8014.79623 0.00013
10.72800 8054.62082 8015.15710 0.00012
10.73200 8115.77547 8015.53045 0.00012
10.73600 8031.73470 8015.91626 0.00012
10.74000 8029.47717 8016.31454 0.00012
10.74400 8061.77257 8016.72531 0.00012
10.74800 8191.63405 8017.14860 0.00012
10.75200 8081.52631 8017.58443 0.00012
10.75600 8150.59867 8018.03284 0.00012
10.76000 7980.85069 8018.49397 0.00013
10.76400 8164.52091 8018.96781 0.00012
10.76800 8143.68682 8019.45443 0.00012
10.77200 8228.97583 8019.95388 0.00012
10.77600 8178.37656 8020.46630 0.00012
10.78000 8163.38932 8020.99179 0.00012
10.78400 7970.13706 8021.53034 0.00013
10.78800 8101.52676 8022.08207 0.00012
10.79200 8197.04983 8022.64715 0.00012
10.79600 8163.88016 8023.22565 0.00012
10.80000 8176.13357 8023.81770 0.00012
10.80400 8114.86537 8024.42342 0.00012
10.80800 8207.73517 8025.04297 0.00012
10.81200 8189.77468 8025.67653 0.00012
10.81600 8114.32357 8026.32428 0.00012
10.82000 8151.85560 8026.98630 0.00012
10.82400 8205.10972 8027.66278 0.00012
10.82800 8240.96011 8028.35387 0.00012
10.83200 8273.75484 8029.05977 0.00012
10.83600 8067.81758 8029.78075 0.00012
10.84000 8166.84377 8030.51697 0.00012
10.84400 8156.41438 8031.26859 0.00012
10.84800 8120.56467 8032.03583 0.00012
10.85200 8215.13103 8032.81891 0.00012
10.85600 8190.67643 8033.61813 0.00012
10.86000 8258.98794 8034.43373 0.00012
10.86400 8382.74834 8035.26590 0.00012
10.86800 8206.76567 8036.11488 0.00012
10.87200 8192.75516 8036.98096 0.00012
10.87600 8108.59920 8037.86448 0.00012
10.88000 8018.27098 8038.76572 0.00012
10.88400 8126.47805 8039.68491 0.00012
10.88800 8139.14901 8040.62235 0.00012
10.89200 8113.01997 8041.57837 0.00012
10.89600 8182.99569 8042.55342 0.00012
10.90000 8014.48575 8043.54773 0.00012
10.90400 8162.80217 8044.56161 0.00012
10.90800 7982.93683 8045.59545 0.00013
10.91200 7981.31638 8046.64969 0.00013
10.91600 8072.37006 8047.72471 0.00012
10.92000 8080.23569 8048.82082 0.00012
10.92400 8024.92523 8049.93845 0.00012
10.92800 7989.13933 8051.07807 0.00013
10.93200 8008.33955 8052.24017 0.00012
10.93600 7988.74630 8053.42510 0.00013
10.94000 8029.69046 8054.63330 0.00012
10.94400 8206.91267 8055.86534 0.00012
10.94800 8181.86655 8057.12175 0.00012
10.95200 8092.01225 8058.40293 0.00012
10.95600 8062.22845 8059.70941 0.00012
10.96000 8111.37044 8061.04183 0.00012
10.96400 8217.86188 8062.40075 0.00012
10.96800 8298.42801 8063.78666 0.00012
10.97200 8142.62557 8065.20015 0.00012
10.97600 8078.83060 8066.64202 0.00012
10.98000 8165.46400 8068.11276 0.00012
10.98400 8117.13321 8069.61300 0.00012
10.98800 8234.32281 8071.14348 0.00012
10.99200 8285.51849 8072.70500 0.00012
10.99600 8163.43896 8074.29813 0.00012
11.00000 8090.47306 8075.92363 0.00012
11.00400 8136.24265 8077.58244 0.00012
11.00800 8078.12889 8079.27523 0.00012
11.01200 8194.81336 8081.00279 0.00012
11.01600 8150.76694 8082.76619 0.00012
11.02000 8198.02141 8084.56709 0.00012
11.02400 8117.57449 8086.40733 0.00012
11.02800 8145.92756 8088.28558 0.00012
11.03200 8125.53791 8090.20086 0.00012
11.03600 8122.51865 8092.15649 0.00012
11.04000 8163.30661 8094.15353 0.00012
11.04400 8119.95835 8096.19328 0.00012
11.04800 8189.30391 8098.27664 0.00012
11.05200 8083.18129 8100.40476 0.00012
11.05600 8078.06610 8102.57905 0.00012
11.06000 8126.13344 8104.80057 0.00012
11.06400 8161.93131 8107.07058 0.00012
11.06800 8283.93689 8109.39063 0.00012
11.07200 8074.62786 8111.76190 0.00012
11.07600 8057.60426 8114.18581 0.00012
11.08000 8120.39128 8116.66406 0.00012
11.08400 8212.18013 8119.19798 0.00012
11.08800 8290.05193 8121.78915 0.00012
11.09200 8364.89771 8124.43944 0.00012
11.09600 8194.36575 8127.15034 0.00012
11.10000 8146.65697 8129.92369 0.00012
11.10400 8297.36839 8132.76145 0.00012
11.10800 8188.27224 8135.66555 0.00012
11.11200 8309.39591 8138.64016 0.00012
11.11600 8291.98380 8141.69311 0.00012
11.12000 8227.98721 8144.83507 0.00012
11.12400 8127.63939 8148.06027 0.00012
11.12800 8251.21380 8151.32683 0.00012
11.13200 8259.11295 8154.67269 0.00012
11.13600 8214.87028 8158.10056 0.00012
11.14000 8213.93079 8161.61280 0.00012
11.14400 8212.79185 8165.21226 0.00012
11.14800 8241.04901 8168.90174 0.00012
11.15200 8198.92562 8172.68404 0.00012
11.15600 8120.19355 8176.56247 0.00012
11.16000 8219.82898 8180.54018 0.00012
11.16400 8253.41149 8184.62247 0.00012
11.16800 8273.64545 8188.81785 0.00012
11.17200 8134.59088 8193.13436 0.00012
11.17600 8216.88812 8197.55476 0.00012
11.18000 8249.27620 8202.08042 0.00012
11.18400 8122.45605 8206.72730 0.00012
11.18800 8275.43173 8211.49962 0.00012
11.19200 8297.60809 8216.40169 0.00012
11.19600 8191.43889 8221.43836 0.00012
11.20000 8224.88744 8226.61418 0.00012
11.20400 8207.07152 8231.93441 0.00012
11.20800 8283.25960 8237.40415 0.00012
11.21200 8306.81568 8243.02894 0.00012
11.21600 8417.48206 8248.81456 0.00012
11.22000 8344.88919 8254.76687 0.00012
11.22400 8296.35549 8260.89237 0.00012
11.22800 8316.67928 8267.19733 0.00012
11.23200 8318.93183 8273.68903 0.00012
11.23600 8333.20723 8280.37570 0.00012
11.24000 8468.99091 8287.26770 0.00012
11.24400 8475.12920 8294.36978 0.00012
11.24800 8408.21444 8301.68228 0.00012
11.25200 8295.97369 8309.22070 0.00012
11.25600 8225.59561 8316.99392 0.00012
11.26000 8436.02664 8325.01163 0.00012
11.26400 8293.99547 8333.28348 0.00012
11.26800 8319.53471 8341.82019 0.00012
11.27200 8389.09414 8350.63234 0.00012
11.27600 8443.72083 8359.73171 0.00012
11.28000 8266.77286 8369.13001 0.00012
11.28400 8328.99927 8378.84012 0.00012
11.28800 8220.56670 8388.87506 0.00012
11.29200 8214.89280 8399.24890 0.00012
11.29600 8202.62067 8409.97611 0.00012
11.30000 8227.46649 8421.07215 0.00012
11.30400 8325.66862 8432.55305 0.00012
11.30800 8423.42806 8444.43585 0.00012
11.31200 8332.37445 8456.73829 0.00012
11.31600 8299.61676 8469.47918 0.00012
11.32000 8425.01707 8482.67817 0.00012
11.32400 8554.24411 8496.35608 0.00012
11.32800 8470.76079 8510.53466 0.00012
11.33200 8404.97115 8525.23699 0.00012
11.33600 8440.86241 8540.48714 0.00012
11.34000 8382.20381 8556.31074 0.00012
11.34400 8456.45892 8572.73449 0.00012
11.34800 8402.01250 8589.78687 0.00012
11.35200 8393.43592 8607.49747 0.00012
11.35600 8479.50988 8625.89801 0.00012
11.36000 8660.07895 8645.02139 0.00012
11.36400 8493.63519 8664.90291 0.00012
11.36800 8431.68206 8685.57922 0.00012
11.37200 8452.25030 8707.08968 0.00012
11.37600 8552.89223 8729.47527 0.00012
11.38000 8505.60018 8752.77986 0.00012
11.38400 8623.92085 8777.04949 0.00012
11.38800 8547.48301 8802.33374 0.00012
11.39200 8536.81721 8828.68767 0.00012
11.39600 8462.88873 8856.17372 0.00012
11.40000 8543.79821 8884.85788 0.00012
11.40400 8632.69510 8914.77281 0.00012
11.40800 8696.00729 8945.97391 0.00011
11.41200 8586.82873 8978.55460 0.00012
11.41600 8699.36272 9012.59138 0.00011
11.42000 8733.26006 9048.16592 0.00011
11.42400 8744.20370 9085.36649 0.00011
11.42800 8775.60694 9124.28831 0.00011
11.43200 8884.80667 9165.03445 0.00011
11.43600 8866.03310 9207.71733 0.00011
11.44000 8848.19931 9252.45907 0.00011
11.44400 9012.30574 9299.39386 0.00011
11.44800 9041.23422 9348.66878 0.00011
11.45200 8996.30934 9400.44614 0.00011
11.45600 9113.77902 9454.90557 0.00011
11.46000 9080.26140 9512.24601 0.00011
11.46400 9122.73092 9572.68935 0.00011
11.46800 9155.40501 9636.48241 0.00011
11.47200 9425.65247 9703.90129 0.00011
11.47600 9378.18524 9775.25475 0.00011
11.48000 9407.82039 9850.88795 0.00011
11.48400 9558.39704 9931.18737 0.00010
11.48800 9622.71781 10016.58424 0.00010
11.49200 9693.83795 10107.55910 0.00010
11.49600 9828.11562 10204.64533 0.00010
11.50000 9863.61471 10308.43100 0.00010
11.50400 10047.20127 10419.56019 0.00010
11.50800 10288.18853 10538.73013 0.00010
11.51200 10246.82309 10666.68458 0.00010
11.51600 10442.90575 10804.20130 0.00010
11.52000 10764.62101 10952.06924 0.00009
11.52400 10897.53419 11111.05528 0.00009
11.52800 10999.11421 11281.85369 0.00009
11.53200 11305.18140 11465.01486 0.00009
11.53600 11521.42212 11660.84982 0.00009
11.54000 11873.87787 11869.30459 0.00008
11.54400 12057.41201 12089.80428 0.00008
11.54800 12326.30269 12321.06995 0.00008
11.55200 12577.96833 12560.91774 0.00008
11.55600 12856.50835 12806.06249 0.00008
11.56000 13093.43976 13051.96066 0.00008
11.56400 13507.89739 13292.73833 0.00007
11.56800 13545.42428 13521.26346 0.00007
11.57200 13631.75348 13729.41428 0.00007
11.57600 13729.44637 13908.57736 0.00007
11.58000 13984.30816 14050.36657 0.00007
11.58400 14118.62166 14147.49231 0.00007
11.58800 14135.79139 14194.64728 0.00007
11.59200 14008.22095 14189.23377 0.00007
11.59600 14014.85837 14131.76302 0.00007
11.60000 13908.86834 14025.82035 0.00007
11.60400 13704.10425 13877.59667 0.00007
11.60800 13395.06270 13695.09718 0.00007
11.61200 13199.66952 13487.20538 0.00008
11.61600 12830.15332 13262.78678 0.00008
11.62000 12570.72295 13029.95889 0.00008
11.62400 12292.40112 12795.65160 0.00008
11.62800 11953.33679 12565.43868 0.00008
11.63200 11847.09139 12343.47301 0.00008
11.63600 11723.40751 12132.63147 0.00009
11.64000 11496.75191 11934.71064 0.00009
11.64400 11256.15612 11750.64460 0.00009
11.64800 11301.98901 11580.71268 0.00009
11.65200 11136.68177 11424.72038 0.00009
11.65600 10932.69150 11282.14678 0.00009
11.66000 10825.73753 11152.26021 0.00009
11.66400 10724.46441 11034.20430 0.00009
11.66800 10478.66202 10927.06004 0.00010
11.67200 10418.92529 10829.88931 0.00010
11.67600 10382.36307 10741.76494 0.00010
11.68000 10394.33815 10661.79135 0.00010
11.68400 10262.47705 10589.11591 0.00010
11.68800 10251.76657 10522.93925 0.00010
11.69200 10271.48033 10462.51394 0.00010
11.69600 10313.55371 10407.08547 0.00010
11.70000 10233.77031 10355.97492 0.00010
11.70400 10257.83502 10308.61756 0.00010
11.70800 10379.00432 10264.45709 0.00010
11.71200 10340.36200 10222.98493 0.00010
11.71600 10242.65309 10183.73850 0.00010
11.72000 10301.72142 10146.30011 0.00010
11.72400 10256.25843 10110.29560 0.00010
11.72800 10234.55606 10075.39327 0.00010
11.73200 10193.60289 10041.30232 0.00010
11.73600 10173.18843 10007.77155 0.00010
11.74000 10147.96610 9974.58829 0.00010
11.74400 10085.96094 9941.57745 0.00010
11.74800 10003.35653 9908.59854 0.00010
11.75200 9975.96602 9875.53685 0.00010
11.75600 10164.22698 9842.31412 0.00010
11.76000 10004.13478 9808.88079 0.00010
11.76400 9893.67594 9775.21036 0.00010
11.76800 10010.90544 9741.29837 0.00010
11.77200 9961.82657 9707.15926 0.00010
11.77600 9940.57096 9672.82363 0.00010
11.78000 10026.30760 9638.33527 0.00010
11.78400 9826.04266 9603.74842 0.00010
11.78800 9755.05398 9569.12498 0.00010
11.79200 9726.85451 9534.53195 0.00010
11.79600 9620.19084 9500.03949 0.00010
11.80000 9546.93166 9465.71881 0.00010
11.80400 9688.84905 9431.64052 0.00010
11.80800 9552.59831 9397.87326 0.00010
11.81200 9459.54230 9364.48227 0.00011
11.81600 9359.53757 9331.52878 0.00011
11.82000 9331.46683 9299.06925 0.00011
11.82400 9397.63595 9267.15490 0.00011
11.82800 9175.91416 9235.83148 0.00011
11.83200 9060.69471 9205.13921 0.00011
11.83600 9159.10921 9175.11424 0.00011
11.84000 9186.79696 9145.79030 0.00011
11.84400 9135.72667 9117.20123 0.00011
11.84800 9278.38724 9089.37581 0.00011
11.85200 9241.36700 9062.28303 0.00011
11.85600 9038.15723 9035.91844 0.00011
11.86000 9022.19519 9010.32072 0.00011
11.86400 8945.05583 8985.49212 0.00011
11.86800 8768.29779 8961.43173 0.00011
11.87200 8891.80882 8938.13586 0.00011
11.87600 9008.22144 8915.59831 0.00011
11.88000 8736.42492 8893.81076 0.00011
11.88400 8765.90163 8872.76305 0.00011
11.88800 8655.97617 8852.44353 0.00012
11.89200 8641.77292 8832.83911 0.00012
11.89600 8679.45881 8813.93573 0.00012
11.90000 8628.48348 8795.71849 0.00012
11.90400 8639.78886 8778.17188 0.00012
11.90800 8632.93817 8761.27985 0.00012
11.91200 8538.45694 8745.02607 0.00012
11.91600 8670.26066 8729.39405 0.00012
11.92000 8821.63530 8714.36719 0.00011
11.92400 8662.03306 8699.92894 0.00012
11.92800 8760.36567 8686.06282 0.00011
11.93200 8625.15139 8672.75253 0.00012
11.93600 8312.51240 8659.98207 0.00012
11.94000 8544.53852 8647.73571 0.00012
11.94400 8574.92964 8635.99806 0.00012
11.94800 8681.23487 8624.75415 0.00012
11.95200 8658.36097 8613.98935 0.00012
11.95600 8361.62517 8603.68951 0.00012
11.96000 8410.30970 8593.84091 0.00012
11.96400 8556.82698 8584.43027 0.00012
11.96800 8547.22421 8575.44486 0.00012
11.97200 8485.31378 8566.87227 0.00012
11.97600 8286.23301 8558.70064 0.00012
11.98000 8621.26866 8550.91859 0.00012
11.98400 8498.90962 8543.51518 0.00012
11.98800 8289.87843 8536.47994 0.00012
11.99200 8495.54572 8529.80285 0.00012
11.99600 8366.52466 8523.47437 0.00012
12.00000 8496.20208 8517.48538 0.00012
12.00400 8318.32258 8511.82718 0.00012
12.00800 8499.50520 8506.49153 0.00012
12.01200 8358.18129 8501.47056 0.00012
12.01600 8424.39403 8496.75684 0.00012
12.02000 8444.45801 8492.34333 0.00012
12.02400 8412.30019 8488.22337 0.00012
12.02800 8395.63583 8484.39068 0.00012
12.03200 8419.33440 8480.83936 0.00012
12.03600 8346.63290 8477.56385 0.00012
12.04000 8267.19648 8474.55895 0.00012
12.04400 8179.48654 8471.81980 0.00012
12.04800 8393.74194 8469.34187 0.00012
12.05200 8340.03733 8467.12096 0.00012
12.05600 8253.53132 8465.15319 0.00012
12.06000 8312.95868 8463.43499 0.00012
12.06400 8198.33067 8461.96331 0.00012
12.06800 8307.37670 8460.73656 0.00012
12.07200 8460.17222 8459.75312 0.00012
12.07600 8431.81333 8459.00439 0.00012
12.08000 8556.12530 8458.49095 0.00012
12.08400 8553.21013 8458.21184 0.00012
12.08800 8460.73806 8458.16553 0.00012
12.09200 8413.97088 8458.35073 0.00012
12.09600 8514.08533 8458.76642 0.00012
12.10000 8439.78009 8459.41186 0.00012
12.10400 8583.16998 8460.28655 0.00012
12.10800 8384.97941 8461.39029 0.00012
12.11200 8348.80213 8462.72310 0.00012
12.11600 8559.91840 8464.28528 0.00012
12.12000 8412.62560 8466.07739 0.00012
12.12400 8385.69661 8468.10024 0.00012
12.12800 8515.23093 8470.35492 0.00012
12.13200 8465.63840 8472.84277 0.00012
12.13600 8413.26556 8475.56539 0.00012
12.14000 8383.95522 8478.52466 0.00012
12.14400 8483.25600 8481.72272 0.00012
12.14800 8379.14880 8485.16199 0.00012
12.15200 8502.66329 8488.84518 0.00012
12.15600 8486.16000 8492.77526 0.00012
12.16000 8405.10744 8496.95550 0.00012
12.16400 8651.68587 8501.38948 0.00012
12.16800 8486.63396 8506.08105 0.00012
12.17200 8507.67155 8511.03440 0.00012
12.17600 8417.84160 8516.25403 0.00012
12.18000 8333.57451 8521.74474 0.00012
12.18400 8402.90347 8527.51172 0.00012
12.18800 8501.56438 8533.56050 0.00012
12.19200 8416.44000 8539.89691 0.00012
12.19600 8357.33085 8546.52719 0.00012
12.20000 8277.94082 8553.45795 0.00012
12.20400 8472.22400 8560.69621 0.00012
12.20800 8572.68622 8568.24939 0.00012
12.21200 8682.66436 8576.12536 0.00012
12.21600 8698.78667 8584.33243 0.00011
12.22000 8400.46121 8592.87937 0.00012
12.22400 8241.78352 8601.77545 0.00012
12.22800 8346.08265 8611.03073 0.00012
12.23200 8374.80192 8620.65643 0.00012
12.23600 8404.91229 8630.66419 0.00012
12.24000 8550.55345 8641.06156 0.00012
12.24400 8669.57771 8651.86077 0.00012
12.24800 8531.28926 8663.07613 0.00012
12.25200 8520.93280 8674.72098 0.00012
12.25600 8674.10557 8686.80934 0.00012
12.26000 8790.69955 8699.35597 0.00011
12.26400 8790.82431 8712.37639 0.00011
12.26800 8593.89550 8725.88701 0.00012
12.27200 8500.29059 8739.90497 0.00012
12.27600 8989.38470 8754.44834 0.00011
12.28000 8908.39883 8769.53612 0.00011
12.28400 8637.83418 8785.18876 0.00012
12.28800 8672.82485 8801.42869 0.00012
12.29200 8738.25753 8818.27914 0.00011
12.29600 8714.12157 8835.75720 0.00011
12.30000 8813.57238 8853.88897 0.00011
12.30400 8803.04985 8872.70198 0.00011
12.30800 8807.81018 8892.22337 0.00011
12.31200 8904.56237 8912.48174 0.00011
12.31600 8775.07171 8933.50717 0.00011
12.32000 8821.14370 8955.33135 0.00011
12.32400 8939.86937 8977.98772 0.00011
12.32800 9108.14286 9001.51135 0.00011
12.33200 8920.50463 9025.93919 0.00011
12.33600 8758.16727 9051.31020 0.00011
12.34000 8884.89235 9077.66544 0.00011
12.34400 8883.28650 9105.04825 0.00011
12.34800 8838.62670 9133.50449 0.00011
12.35200 8944.37803 9163.08222 0.00011
12.35600 8915.93405 9193.83107 0.00011
12.36000 8865.86132 9225.80423 0.00011
12.36400 8978.13143 9259.05835 0.00011
12.36800 9139.36242 9293.65268 0.00011
12.37200 9262.00422 9329.64956 0.00011
12.37600 9156.05946 9367.11461 0.00011
12.38000 9241.31466 9406.11702 0.00011
12.38400 9342.29214 9446.73027 0.00011
12.38800 9092.13037 9489.03607 0.00011
12.39200 9243.50413 9533.12713 0.00011
12.39600 9418.59458 9579.09766 0.00011
12.40000 9334.98822 9626.97933 0.00011
12.40400 9241.89490 9676.87984 0.00011
12.40800 9411.01904 9728.91656 0.00011
12.41200 9480.75048 9783.19362 0.00011
12.41600 9466.08410 9839.82053 0.00011
12.42000 9536.30525 9898.91226 0.00010
12.42400 9658.66295 9960.58951 0.00010
12.42800 9654.20169 10024.97889 0.00010
12.43200 9726.59102 10092.21276 0.00010
12.43600 9786.63122 10162.42979 0.00010
12.44000 9821.78682 10235.77497 0.00010
12.44400 9852.21424 10312.39986 0.00010
12.44800 9895.35151 10392.46221 0.00010
12.45200 10123.13849 10476.12671 0.00010
12.45600 9973.01061 10563.56453 0.00010
12.46000 10352.65347 10654.95245 0.00010
12.46400 10494.90086 10750.47521 0.00010
12.46800 10488.09578 10850.32360 0.00010
12.47200 10460.80117 10954.69482 0.00010
12.47600 10687.06654 11063.79276 0.00009
12.48000 10705.04308 11177.82728 0.00009
12.48400 10817.25444 11297.01478 0.00009
12.48800 10929.01220 11421.57814 0.00009
12.49200 11199.74897 11551.74695 0.00009
12.49600 11271.48220 11687.75755 0.00009
12.50000 11353.79978 11829.85403 0.00009
12.50400 11680.55037 11978.28911 0.00009
12.50800 11756.83950 12133.32530 0.00009
12.51200 12048.61183 12295.23678 0.00008
12.51600 12332.62594 12464.31205 0.00008
12.52000 12383.82981 12640.85736 0.00008
12.52400 12588.83815 12825.20016 0.00008
12.52800 12919.47817 13017.69443 0.00008
12.53200 13190.69459 13218.72649 0.00008
12.53600 13304.77069 13428.72105 0.00008
12.54000 13549.00355 13648.14800 0.00007
12.54400 13844.41825 13877.52898 0.00007
12.54800 14302.11554 14117.44320 0.00007
12.55200 14696.71295 14368.53057 0.00007
12.55600 14963.81270 14631.48897 0.00007
12.56000 15293.93559 14907.05845 0.00007
12.56400 15798.90762 15196.01657 0.00006
12.56800 16113.55457 15499.13778 0.00006
12.57200 16492.95937 15817.13604 0.00006
12.57600 16814.71239 16150.58452 0.00006
12.58000 17192.16220 16499.80102 0.00006
12.58400 17438.12447 16864.69378 0.00006
12.58800 17910.49516 17244.56206 0.00006
12.59200 18422.02301 17637.85494 0.00005
12.59600 18802.11940 18041.89491 0.00005
12.60000 19033.89425 18452.58721 0.00005
12.60400 19335.06716 18864.15436 0.00005
12.60800 19571.64946 19268.95012 0.00005
12.61200 19665.32095 19657.42755 0.00005
12.61600 19898.85528 20018.34233 0.00005
12.62000 20299.09694 20339.25710 0.00005
12.62400 20448.43913 20607.37891 0.00005
12.62800 20381.63434 20810.68691 0.00005
12.63200 20482.87535 20939.22038 0.00005
12.63600 20444.77513 20986.31797 0.00005
12.64000 20392.90938 20949.55531 0.00005
12.64400 20140.91018 20831.16312 0.00005
12.64800 20003.09024 20637.81740 0.00005
12.65200 19773.93950 20379.83882 0.00005
12.65600 19352.33629 20069.98404 0.00005
12.66000 19187.31388 19722.08932 0.00005
12.66400 18824.52222 19349.81089 0.00005
12.66800 18595.01092 18965.64479 0.00005
12.67200 18242.99397 18580.29983 0.00005
12.67600 17818.86787 18202.41024 0.00006
12.68000 17467.56388 17838.52306 0.00006
12.68400 17401.61699 17493.26520 0.00006
12.68800 16930.80143 17169.61056 0.00006
12.69200 16771.32133 16869.18186 0.00006
12.69600 16301.21563 16592.54087 0.00006
12.70000 16169.24754 16339.44746 0.00006
12.70400 16141.51080 16109.07540 0.00006
12.70800 15702.42652 15900.18421 0.00006
12.71200 15438.11383 15711.25321 0.00006
12.71600 15302.74359 15540.58055 0.00007
12.72000 15245.53198 15386.35908 0.00007
12.72400 15043.64864 15246.73024 0.00007
12.72800 14892.58040 15119.82418 0.00007
12.73200 14637.65865 15003.79094 0.00007
12.73600 14691.64950 14896.82300 0.00007
12.74000 14633.83723 14797.17578 0.00007
12.74400 14424.17434 14703.18345 0.00007
12.74800 14301.85798 14613.27519 0.00007
12.75200 14174.20230 14525.98860 0.00007
12.75600 14262.52343 14439.98370 0.00007
12.76000 14187.16695 14354.05495 0.00007
12.76400 14159.84856 14267.14149 0.00007
12.76800 14163.03448 14178.33653 0.00007
12.77200 13909.20610 14086.89254 0.00007
12.77600 13784.71196 13992.22475 0.00007
12.78000 13674.18436 13893.90954 0.00007
12.78400 13835.73284 13791.68140 0.00007
12.78800 13609.99562 13685.42380 0.00007
12.79200 13510.66986 13575.15893 0.00007
12.79600 13376.79375 13461.03297 0.00007
12.80000 13052.99130 13343.30033 0.00008
12.80400 12951.89319 13222.30522 0.00008
12.80800 13129.98513 13098.46340 0.00008
12.81200 13123.20464 12972.24348 0.00008
12.81600 12815.24780 12844.14896 0.00008
12.82000 12732.76392 12714.70158 0.00008
12.82400 12357.10096 12584.42631 0.00008
12.82800 12252.00303 12453.83854 0.00008
12.83200 12340.49174 12323.43314 0.00008
12.83600 12029.80576 12193.67626 0.00008
12.84000 12194.42899 12064.99843 0.00008
12.84400 11993.28468 11937.79068 0.00008
12.84800 11881.11911 11812.40234 0.00008
12.85200 11709.81183 11689.13967 0.00009
12.85600 11515.82707 11568.26169 0.00009
12.86000 11552.07116 11449.98854 0.00009
12.86400 11370.36177 11334.50184 0.00009
12.86800 11282.96373 11221.94451 0.00009
12.87200 11106.26049 11112.42513 0.00009
12.87600 10903.94458 11006.02114 0.00009
12.88000 10838.28439 10902.78212 0.00009
12.88400 10727.80228 10802.73265 0.00009
12.88800 10674.57980 10705.87610 0.00009
12.89200 10500.81770 10612.19674 0.00010
12.89600 10423.39617 10521.66340 0.00010
12.90000 10511.59869 10434.23104 0.00010
12.90400 10399.67767 10349.84406 0.00010
12.90800 10100.00538 10268.43736 0.00010
12.91200 10122.75200 10189.93912 0.00010
12.91600 10082.69662 10114.27160 0.00010
12.92000 10046.54340 10041.35315 0.00010
12.92400 9978.28024 9971.09914 0.00010
12.92800 9942.05661 9903.42297 0.00010
12.93200 9889.15898 9838.23732 0.00010
12.93600 9868.24052 9775.45425 0.00010
12.94000 9839.75195 9714.98673 0.00010
12.94400 9619.50345 9656.74814 0.00010
12.94800 9591.39335 9600.65361 0.00010
12.95200 9678.85296 9546.61973 0.00010
12.95600 9523.84267 9494.56511 0.00010
12.96000 9603.27077 9444.41101 0.00010
12.96400 9368.41712 9396.08222 0.00011
12.96800 9212.30626 9349.50621 0.00011
12.97200 9231.67704 9304.60300 0.00011
12.97600 9297.40191 9261.30467 0.00011
12.98000 9255.73553 9219.54700 0.00011
12.98400 9210.77864 9179.26555 0.00011
12.98800 9183.29156 9140.39886 0.00011
12.99200 9110.68055 9102.88742 0.00011
12.99600 9152.04438 9066.67455 0.00011
13.00000 9153.86928 9031.70591 0.00011
13.00400 8870.73131 8997.92926 0.00011
13.00800 8884.55168 8965.29502 0.00011
13.01200 8977.06530 8933.75531 0.00011
13.01600 8865.16399 8903.26466 0.00011
13.02000 8891.28652 8873.77969 0.00011
13.02400 8976.59963 8845.25865 0.00011
13.02800 8878.05667 8817.66201 0.00011
13.03200 8835.75043 8790.95180 0.00011
13.03600 8791.77667 8765.09176 0.00011
13.04000 8683.22243 8740.04762 0.00012
13.04400 8858.26074 8715.78621 0.00011
13.04800 8718.16985 8692.27611 0.00011
13.05200 8745.06340 8669.48748 0.00011
13.05600 8716.69228 8647.39146 0.00011
13.06000 8562.80542 8625.96083 0.00012
13.06400 8795.91394 8605.16955 0.00011
13.06800 8618.77693 8584.99257 0.00012
13.07200 8616.66963 8565.40627 0.00012
13.07600 8540.95418 8546.38796 0.00012
13.08000 8556.02733 8527.91586 0.00012
13.08400 8510.09616 8509.96942 0.00012
13.08800 8511.82144 8492.52886 0.00012
13.09200 8558.36867 8475.57521 0.00012
13.09600 8551.37215 8459.09059 0.00012
13.10000 8547.71891 8443.05772 0.00012
13.10400 8480.11814 8427.46007 0.00012
13.10800 8425.13192 8412.28201 0.00012
13.11200 8488.66313 8397.50851 0.00012
13.11600 8474.73338 8383.12508 0.00012
13.12000 8347.79792 8369.11805 0.00012
13.12400 8457.84627 8355.47458 0.00012
13.12800 8464.30208 8342.18456 0.00012
13.13200 8216.55647 8329.24460 0.00012
13.13600 8379.55860 8316.65646 0.00012
13.14000 8350.06287 8304.39694 0.00012
13.14400 8337.04516 8292.39095 0.00012
13.14800 8381.87666 8280.68038 0.00012
13.15200 8364.70563 8269.25540 0.00012
13.15600 8382.71897 8258.10668 0.00012
13.16000 8436.46439 8247.22537 0.00012
13.16400 8313.23551 8236.60298 0.00012
13.16800 8282.42781 8226.23120 0.00012
13.17200 8383.97124 8216.10218 0.00012
13.17600 8217.49093 8206.20853 0.00012
13.18000 8146.54582 8196.54290 0.00012
13.18400 8263.49647 8187.09832 0.00012
13.18800 8177.14901 8177.86815 0.00012
13.19200 8111.95072 8168.84669 0.00012
13.19600 8228.68324 8160.03079 0.00012
13.20000 8055.58152 8151.41705 0.00012
13.20400 8214.57273 8142.98647 0.00012
13.20800 8223.62540 8134.73784 0.00012
13.21200 8227.95782 8126.66956 0.00012
13.21600 8016.84550 8118.77741 0.00012
13.22000 8144.48103 8111.05617 0.00012
13.22400 8231.52385 8103.49682 0.00012
13.22800 8185.09684 8096.09822 0.00012
13.23200 8397.42953 8088.85609 0.00012
13.23600 8201.73282 8081.76636 0.00012
13.24000 8169.37395 8074.82518 0.00012
13.24400 8083.04740 8068.02861 0.00012
13.24800 8126.94750 8061.37304 0.00012
13.25200 8021.72513 8054.85495 0.00012
13.25600 7919.17228 8048.47113 0.00013
13.26000 8077.18594 8042.21822 0.00012
13.26400 8012.94058 8036.09311 0.00012
13.26800 8042.79718 8030.09287 0.00012
13.27200 8208.52877 8024.21524 0.00012
13.27600 8082.77443 8018.45934 0.00012
13.28000 8042.51394 8012.82468 0.00012
13.28400 8049.55303 8007.30352 0.00012
13.28800 8040.25008 8001.88692 0.00012
13.29200 8154.40024 7996.57975 0.00012
13.29600 7963.18775 7991.37979 0.00013
13.30000 7959.04654 7986.28484 0.00013
13.30400 8242.84429 7981.29288 0.00012
13.30800 8108.29374 7976.40204 0.00012
13.31200 8001.00218 7971.61057 0.00012
13.31600 8141.87974 7966.91654 0.00012
13.32000 8079.23805 7962.31822 0.00012
13.32400 8061.18988 7957.81407 0.00012
13.32800 8099.48991 7953.40261 0.00012
13.33200 7898.38322 7949.08238 0.00013
13.33600 7912.40643 7944.85215 0.00013
13.34000 7946.97994 7940.71055 0.00013
13.34400 8020.83382 7936.65637 0.00012
13.34800 8016.78072 7932.68848 0.00012
13.35200 8029.63682 7928.80611 0.00012
13.35600 8034.20586 7925.01038 0.00012
13.36000 7950.26019 7921.30361 0.00013
13.36400 8100.58318 7917.67814 0.00012
13.36800 8011.78790 7914.12749 0.00012
13.37200 8073.89862 7910.65790 0.00012
13.37600 8121.17044 7907.26876 0.00012
13.38000 8105.52943 7903.95962 0.00012
13.38400 8109.49507 7900.73021 0.00012
13.38800 7891.97398 7897.58071 0.00013
13.39200 7940.84101 7894.51110 0.00013
13.39600 7964.26367 7891.51878 0.00013
13.40000 7972.75447 7888.60349 0.00013
13.40400 8047.41383 7885.76637 0.00012
13.40800 8094.69880 7883.00737 0.00012
13.41200 7985.52463 7880.32656 0.00013
13.41600 8165.58650 7877.72410 0.00012
13.42000 8116.59148 7875.20075 0.00012
13.42400 8016.13768 7872.75861 0.00012
13.42800 8063.20338 7870.39759 0.00012
13.43200 8001.26575 7868.11143 0.00012
13.43600 8001.21092 7865.90552 0.00012
13.44000 7862.16787 7863.78052 0.00013
13.44400 7935.91158 7861.73719 0.00013
13.44800 7998.92079 7859.77639 0.00013
13.45200 7942.04607 7857.89909 0.00013
13.45600 7977.85387 7856.10640 0.00013
13.46000 7906.23040 7854.39950 0.00013
13.46400 7964.11957 7852.77967 0.00013
13.46800 7885.76541 7851.24836 0.00013
13.47200 7905.95499 7849.80712 0.00013
13.47600 7926.73183 7848.45766 0.00013
13.48000 7963.77258 7847.20184 0.00013
13.48400 7846.88157 7846.04172 0.00013
13.48800 7835.18722 7844.98017 0.00013
13.49200 7860.59574 7844.02128 0.00013
13.49600 7827.82908 7843.16887 0.00013
13.50000 7826.77550 7842.41686 0.00013
13.50400 7859.53274 7841.77088 0.00013
13.50800 7924.55474 7841.23631 0.00013
13.51200 7857.96062 7840.81692 0.00013
13.51600 7941.10359 7840.51737 0.00013
13.52000 7888.04840 7840.34021 0.00013
13.52400 7907.86445 7840.28702 0.00013
13.52800 7970.38013 7840.36448 0.00013
13.53200 8104.70706 7840.57730 0.00012
13.53600 7987.64434 7840.93052 0.00013
13.54000 7989.33316 7841.42955 0.00013
13.54400 7891.02827 7842.08017 0.00013
13.54800 7955.60806 7842.88857 0.00013
13.55200 7852.98136 7843.86136 0.00013
13.55600 7974.86842 7845.00567 0.00013
13.56000 7947.41306 7846.32923 0.00013
13.56400 8048.71318 7847.84124 0.00012
13.56800 7921.65850 7849.55171 0.00013
13.57200 8031.49387 7851.46635 0.00012
13.57600 7907.23894 7853.59383 0.00013
13.58000 7899.66738 7855.94753 0.00013
13.58400 7923.54368 7858.53907 0.00013
13.58800 7863.62043 7861.38114 0.00013
13.59200 7881.14541 7864.48832 0.00013
13.59600 7845.65234 7867.87734 0.00013
13.60000 7848.84326 7871.56492 0.00013
13.60400 7897.25475 7875.55314 0.00013
13.60800 7900.03489 7879.86957 0.00013
13.61200 8019.89301 7884.53215 0.00012
13.61600 8012.29384 7889.56049 0.00012
13.62000 7900.59068 7894.97870 0.00013
13.62400 7849.05540 7900.81294 0.00013
13.62800 8026.03514 7907.08186 0.00012
13.63200 8010.38918 7913.79053 0.00012
13.63600 8031.04394 7920.95280 0.00012
13.64000 8138.87727 7928.74764 0.00012
13.64400 7957.38978 7936.96647 0.00013
13.64800 8017.94448 7945.95885 0.00012
13.65200 8083.43690 7955.61136 0.00012
13.65600 8182.16751 7965.97239 0.00012
13.66000 8107.51012 7977.09576 0.00012
13.66400 8199.77044 7989.04077 0.00012
13.66800 8112.22524 8001.86691 0.00012
13.67200 8217.19130 8015.63965 0.00012
13.67600 8219.83445 8030.43864 0.00012
13.68000 8019.74953 8046.34682 0.00012
13.68400 8037.87733 8063.45523 0.00012
13.68800 8076.27725 8081.86385 0.00012
13.69200 8122.84984 8101.68242 0.00012
13.69600 8271.80863 8123.03159 0.00012
13.70000 8119.53705 8146.04389 0.00012
13.70400 8174.68690 8170.86492 0.00012
13.70800 8209.46335 8197.65460 0.00012
13.71200 8212.62981 8226.58844 0.00012
13.71600 8370.05234 8257.85905 0.00012
13.72000 8311.06663 8291.67900 0.00012
13.72400 8308.90948 8328.28122 0.00012
13.72800 8433.67945 8367.90981 0.00012
13.73200 8420.40900 8410.83642 0.00012
13.73600 8502.91959 8457.36087 0.00012
13.74000 8655.83099 8507.80177 0.00012
13.74400 8648.43397 8562.49979 0.00012
13.74800 8613.65368 8621.81622 0.00012
13.75200 8656.25107 8686.12950 0.00012
13.75600 8835.07640 8755.82979 0.00011
13.76000 8843.01464 8831.31045 0.00011
13.76400 9042.80423 8912.95549 0.00011
13.76800 9017.38206 9001.12206 0.00011
13.77200 9138.09872 9096.11621 0.00011
13.77600 9236.00160 9198.16066 0.00011
13.78000 9322.79307 9307.35316 0.00011
13.78400 9369.70128 9423.61421 0.00011
13.78800 9541.91258 9546.62387 0.00010
13.79200 9674.45394 9675.74874 0.00010
13.79600 9758.61860 9809.96262 0.00010
13.80000 9889.49814 9947.76738 0.00010
13.80400 10101.91428 10087.12469 0.00010
13.80800 10222.78244 10225.41435 0.00010
13.81200 10434.66427 10359.43673 0.00010
13.81600 10509.32605 10485.47981 0.00010
13.82000 10567.83493 10599.46633 0.00009
13.82400 10743.28754 10697.18722 0.00009
13.82800 10792.36558 10774.61126 0.00009
13.83200 10706.03514 10828.24098 0.00009
13.83600 10878.04446 10855.46536 0.00009
13.84000 10816.27681 10854.84922 0.00009
13.84400 10770.58280 10826.30449 0.00009
13.84800 10768.71938 10771.10548 0.00009
13.85200 10733.55138 10691.74454 0.00009
13.85600 10624.29500 10591.65678 0.00009
13.86000 10447.07188 10474.86774 0.00010
13.86400 10329.94051 10345.62623 0.00010
13.86800 10181.73381 10208.07766 0.00010
13.87200 9949.91693 10066.01316 0.00010
13.87600 10018.15974 9922.70895 0.00010
13.88000 9735.03032 9780.85112 0.00010
13.88400 9736.77156 9642.52944 0.00010
13.88800 9454.09946 9509.27929 0.00011
13.89200 9346.42306 9382.15182 0.00011
13.89600 9189.22006 9261.79563 0.00011
13.90000 9030.93317 9148.53897 0.00011
13.90400 8821.50811 9042.46495 0.00011
13.90800 8678.02875 8943.47617 0.00012
13.91200 8766.46432 8851.34856 0.00011
13.91600 8587.90823 8765.77376 0.00012
13.92000 8562.93717 8686.39191 0.00012
13.92400 8418.35078 8612.81604 0.00012
13.92800 8451.08333 8544.64994 0.00012
13.93200 8396.09638 8481.50092 0.00012
13.93600 8341.20767 8422.98826 0.00012
13.94000 8267.30671 8368.74826 0.00012
13.94400 8278.70297 8318.43703 0.00012
13.94800 8305.03737 8271.73512 0.00012
13.95200 8131.42865 8228.34344 0.00012
13.95600 8091.57961 8187.98846 0.00012
13.96000 8123.95287 8150.41749 0.00012
13.96400 8074.90735 8115.39877 0.00012
13.96800 7923.27316 8082.72032 0.00013
13.97200 7845.87859 8052.18862 0.00013
13.97600 7987.58721 8023.62719 0.00013
13.98000 7898.08759 7996.87507 0.00013
13.98400 7889.44356 7971.78576 0.00013
13.98800 7904.88159 7948.22598 0.00013
13.99200 7800.40948 7926.07439 0.00013
13.99600 7827.07348 7905.22038 0.00013
14.00000 7823.36156 7885.56334 0.00013
14.00400 7782.75639 7867.01248 0.00013
14.00800 7822.14359 7849.48828 0.00013
14.01200 7841.14856 7832.91680 0.00013
14.01600 7756.68903 7817.20963 0.00013
14.02000 7779.22305 7802.31425 0.00013
14.02400 7761.37726 7788.17338 0.00013
14.02800 7797.58067 7774.73387 0.00013
14.03200 7817.67058 7761.94709 0.00013
14.03600 7654.24920 7749.76848 0.00013
14.04000 7612.68637 7738.15693 0.00013
14.04400 7684.35243 7727.07481 0.00013
14.04800 7773.64004 7716.48764 0.00013
14.05200 7691.18633 7706.36336 0.00013
14.05600 7594.85889 7696.67255 0.00013
14.06000 7664.01438 7687.38818 0.00013
14.06400 7595.72764 7678.48513 0.00013
14.06800 7644.74833 7669.94013 0.00013
14.07200 7692.76944 7661.73178 0.00013
14.07600 7639.33500 7653.84022 0.00013
14.08000 7676.52026 7646.24686 0.00013
14.08400 7685.98030 7638.93460 0.00013
14.08800 7657.32323 7631.88762 0.00013
14.09200 7717.76864 7625.09093 0.00013
14.09600 7616.49102 7618.53076 0.00013
14.10000 7538.58493 7612.19439 0.00013
14.10400 7585.07853 7606.06963 0.00013
14.10800 7601.22145 7600.14629 0.00013
14.11200 7564.61821 7594.41713 0.00013
14.11600 7664.46672 7588.87360 0.00013
14.12000 7485.06842 7583.49068 0.00013
14.12400 7526.06922 7578.27029 0.00013
14.12800 7526.52568 7573.20428 0.00013
14.13200 7520.15628 7568.28519 0.00013
14.13600 7533.49361 7563.50600 0.00013
14.14000 7584.80610 7558.85994 0.00013
14.14400 7519.98030 7554.34084 0.00013
14.14800 7529.36306 7549.94565 0.00013
14.15200 7372.02582 7545.67809 0.00014
14.15600 7497.54363 7541.54075 0.00013
14.16000 7599.12586 7537.48792 0.00013
14.16400 7625.37861 7533.52203 0.00013
14.16800 7449.41933 7529.65272 0.00013
14.17200 7499.87105 7525.87566 0.00013
14.17600 7589.41693 7522.18715 0.00013
14.18000 7473.93213 7518.58427 0.00013
14.18400 7419.14004 7515.06532 0.00013
14.18800 7465.19169 7511.62947 0.00013
14.19200 7515.52515 7508.26775 0.00013
14.19600 7440.70287 7504.97008 0.00013
14.20000 7383.74618 7501.74165 0.00014
14.20400 7496.56390 7498.57965 0.00013
14.20800 7516.25898 7495.48174 0.00013
14.21200 7421.82748 7492.44543 0.00013
14.21600 7440.95821 7489.46847 0.00013
14.22000 7590.39916 7486.54906 0.00013
14.22400 7517.85816 7483.68671 0.00013
14.22800 7478.22258 7480.88404 0.00013
14.23200 7511.65504 7478.14265 0.00013
14.23600 7544.01039 7475.44061 0.00013
14.24000 7409.14217 7472.77853 0.00013
14.24400 7429.55204 7470.16279 0.00013
14.24800 7206.60680 7467.59210 0.00014
14.25200 7401.19196 7465.06477 0.00014
14.25600 7439.71413 7462.57966 0.00013
14.26000 7351.70607 7460.13531 0.00014
14.26400 7385.80465 7457.73055 0.00014
14.26800 7357.44952 7455.36421 0.00014
14.27200 7362.81385 7453.03507 0.00014
14.27600 7395.37735 7450.74222 0.00014
14.28000 7396.44693 7448.48442 0.00014
14.28400 7253.56188 7446.26108 0.00014
14.28800 7375.51757 7444.07261 0.00014
14.29200 7486.23842 7441.92060 0.00013
14.29600 7428.27857 7439.79764 0.00013
14.30000 7443.83296 7437.70199 0.00013
14.30400 7394.22823 7435.63625 0.00014
14.30800 7324.18817 7433.59972 0.00014
14.31200 7419.84398 7431.59170 0.00013
14.31600 7438.81155 7429.61147 0.00013
14.32000 7300.16001 7427.65847 0.00014
14.32400 7290.21107 7425.73198 0.00014
14.32800 7390.82641 7423.83156 0.00014
14.33200 7334.70287 7421.95647 0.00014
14.33600 7229.02209 7420.10639 0.00014
14.34000 7229.61981 7418.28059 0.00014
14.34400 7452.04797 7416.47881 0.00013
14.34800 7318.43706 7414.70037 0.00014
14.35200 7342.95744 7412.94506 0.00014
14.35600 7378.87753 7411.21222 0.00014
14.36000 7346.95981 7409.50170 0.00014
14.36400 7351.16032 7407.81288 0.00014
14.36800 7308.59025 7406.14563 0.00014
14.37200 7396.49707 7404.49939 0.00014
14.37600 7369.69710 7402.87405 0.00014
14.38000 7506.52105 7401.26909 0.00013
14.38400 7497.76592 7399.68442 0.00013
14.38800 7362.44550 7398.11959 0.00014
14.39200 7362.74228 7396.57448 0.00014
14.39600 7297.69896 7395.04872 0.00014
14.40000 7278.86893 7393.54219 0.00014
14.40400 7335.50264 7392.05459 0.00014
14.40800 7441.88155 7390.58575 0.00013
14.41200 7465.65974 7389.13548 0.00013
14.41600 7411.36172 7387.70356 0.00013
14.42000 7346.48296 7386.28991 0.00014
14.42400 7340.02566 7384.89423 0.00014
14.42800 7279.15607 7383.51658 0.00014
14.43200 7314.47523 7382.15658 0.00014
14.43600 7356.08251 7380.81438 0.00014
14.44000 7347.51973 7379.48962 0.00014
14.44400 7389.05949 7378.18237 0.00014
14.44800 7334.89660 7376.89244 0.00014
14.45200 7318.39732 7375.61978 0.00014
14.45600 7335.81235 7374.36436 0.00014
14.46000 7380.65495 7373.12601 0.00014
14.46400 7215.89646 7371.90487 0.00014
14.46800 7137.15849 7370.70067 0.00014
14.47200 7513.57089 7369.51358 0.00013
14.47600 7410.89539 7368.34343 0.00013
14.48000 7280.05248 7367.19026 0.00014
14.48400 7224.13509 7366.05412 0.00014
14.48800 7289.00407 7364.93485 0.00014
14.49200 7259.48514 7363.83273 0.00014
14.49600 7227.92465 7362.74752 0.00014
14.50000 7363.86402 7361.67939 0.00014
14.50400 7322.33335 7360.62836 0.00014
14.50800 7431.19723 7359.59438 0.00013
14.51200 7315.61432 7358.57772 0.00014
14.51600 7331.71645 7357.57822 0.00014
14.52000 7385.72052 7356.59609 0.00014
14.52400 7375.47250 7355.63139 0.00014
14.52800 7370.73829 7354.68410 0.00014
14.53200 7229.29583 7353.75455 0.00014
14.53600 7342.07009 7352.84263 0.00014
14.54000 7358.04378 7351.94854 0.00014
14.54400 7452.14843 7351.07246 0.00013
14.54800 7395.24429 7350.21440 0.00014
14.55200 7320.47325 7349.37464 0.00014
14.55600 7391.45515 7348.55327 0.00014
14.56000 7385.96672 7347.75037 0.00014
14.56400 7419.29811 7346.96634 0.00013
14.56800 7222.59670 7346.20114 0.00014
14.57200 7325.91364 7345.45502 0.00014
14.57600 7363.72447 7344.72829 0.00014
14.58000 7296.37460 7344.02101 0.00014
14.58400 7341.93399 7343.33388 0.00014
14.58800 7311.72440 7342.66973 0.00014
14.59200 7166.37220 7342.03103 0.00014
14.59600 7267.45116 7341.40769 0.00014
14.60000 7251.52529 7340.80161 0.00014
14.60400 7167.68938 7340.21648 0.00014
14.60800 7241.60820 7339.65269 0.00014
14.61200 7305.73536 7339.11052 0.00014
14.61600 7288.35560 7338.59022 0.00014
14.62000 7256.26214 7338.09231 0.00014
14.62400 7305.58203 7337.61754 0.00014
14.62800 7469.02821 7337.16626 0.00013
14.63200 7421.75717 7336.73797 0.00013
14.63600 7378.56465 7336.33507 0.00014
14.64000 7234.87787 7335.95442 0.00014
14.64400 7243.45397 7335.59735 0.00014
14.64800 7235.12004 7335.26525 0.00014
14.65200 7324.69728 7334.95843 0.00014
14.65600 7346.62580 7334.67733 0.00014
14.66000 7287.00213 7334.42261 0.00014
14.66400 7301.26123 7334.19458 0.00014
14.66800 7252.00518 7333.99376 0.00014
14.67200 7288.73654 7333.82076 0.00014
14.67600 7309.43501 7333.67610 0.00014
14.68000 7261.51584 7333.56027 0.00014
14.68400 7277.06175 7333.47388 0.00014
14.68800 7353.87407 7333.41766 0.00014
14.69200 7232.78121 7333.39209 0.00014
14.69600 7256.77369 7333.39783 0.00014
14.70000 7212.86425 7333.43563 0.00014
14.70400 7239.27474 7333.50619 0.00014
14.70800 7159.29080 7333.61014 0.00014
14.71200 7073.91056 7333.74826 0.00014
14.71600 7282.76071 7333.92144 0.00014
14.72000 7306.70611 7334.13039 0.00014
14.72400 7239.82129 7334.37592 0.00014
14.72800 7242.85467 7334.65891 0.00014
14.73200 7288.75133 7334.98041 0.00014
14.73600 7280.89619 7335.34120 0.00014
14.74000 7319.58568 7335.74227 0.00014
14.74400 7275.95527 7336.18462 0.00014
14.74800 7187.39446 7336.66944 0.00014
14.75200 7285.31736 7337.19769 0.00014
14.75600 7219.99601 7337.77051 0.00014
14.76000 7245.87608 7338.38906 0.00014
14.76400 7193.28998 7339.05469 0.00014
14.76800 7133.87229 7339.76859 0.00014
14.77200 7323.79793 7340.53207 0.00014
14.77600 7250.33259 7341.34651 0.00014
14.78000 7137.37362 7342.21339 0.00014
14.78400 7293.88310 7343.13426 0.00014
14.78800 7312.25475 7344.11059 0.00014
14.79200 7168.70169 7345.14403 0.00014
14.79600 7365.19750 7346.23628 0.00014
14.80000 7283.38072 7347.38919 0.00014
14.80400 7349.39547 7348.60458 0.00014
14.80800 7271.52581 7349.88436 0.00014
14.81200 7367.25067 7351.23055 0.00014
14.81600 7392.78600 7352.64529 0.00014
14.82000 7267.66533 7354.13087 0.00014
14.82400 7243.57945 7355.68957 0.00014
14.82800 7182.91214 7357.32381 0.00014
14.83200 7231.83577 7359.03614 0.00014
14.83600 7177.79464 7360.82926 0.00014
14.84000 7247.60926 7362.70603 0.00014
14.84400 7262.72045 7364.66971 0.00014
14.84800 7290.64043 7366.72518 0.00014
14.85200 7306.66850 7368.87727 0.00014
14.85600 7257.78046 7371.12152 0.00014
14.86000 7407.89460 7373.46412 0.00013
14.86400 7348.77849 7375.91074 0.00014
14.86800 7342.01263 7378.46539 0.00014
14.87200 7513.18214 7381.13237 0.00013
14.87600 7516.91307 7383.91622 0.00013
14.88000 7359.08721 7386.82178 0.00014
14.88400 7350.43454 7389.85417 0.00014
14.88800 7444.28505 7393.01887 0.00013
14.89200 7361.82139 7396.32167 0.00014
14.89600 7485.17928 7399.76869 0.00013
14.90000 7341.30593 7403.36650 0.00014
14.90400 7322.00905 7407.12211 0.00014
14.90800 7356.22284 7411.04302 0.00014
14.91200 7492.72664 7415.13725 0.00013
14.91600 7278.56709 7419.41344 0.00014
14.92000 7352.31410 7423.88084 0.00014
14.92400 7445.82199 7428.54934 0.00013
14.92800 7364.56348 7433.42966 0.00014
14.93200 7296.64109 7438.53336 0.00014
14.93600 7280.68291 7443.87293 0.00014
14.94000 7258.30130 7449.46190 0.00014
14.94400 7323.17359 7455.31497 0.00014
14.94800 7399.30451 7461.44809 0.00014
14.95200 7390.34525 7467.87870 0.00014
14.95600 7306.82160 7474.62571 0.00014
14.96000 7288.60863 7481.70983 0.00014
14.96400 7330.93102 7489.15372 0.00014
14.96800 7468.48954 7496.98223 0.00013
14.97200 7386.41168 7505.22262 0.00014
14.97600 7384.22639 7513.90484 0.00014
14.98000 7463.79861 7523.06182 0.00013
14.98400 7345.31257 7532.72980 0.00014
14.98800 7432.75127 7542.94868 0.00013
14.99200 7319.40628 7553.76238 0.00014
14.99600 7405.15811 7565.21920 0.00014
15.00000 7418.01171 7577.37219 0.00013
15.00400 7386.02846 7590.27956 0.00014
15.00800 7507.47938 7604.00496 0.00013
15.01200 7560.62176 7618.61770 0.00013
15.01600 7479.61395 7634.19280 0.00013
15.02000 7493.13791 7650.81077 0.00013
15.02400 7771.81262 7668.55704 0.00013
15.02800 7489.84132 7687.52073 0.00013
15.03200 7601.33001 7707.79266 0.00013
15.03600 7669.51038 7729.46214 0.00013
15.04000 7797.23609 7752.61214 0.00013
15.04400 7648.12966 7777.31251 0.00013
15.04800 7819.46781 7803.61047 0.00013
15.05200 7812.69688 7831.51819 0.00013
15.05600 7765.80865 7860.99703 0.00013
15.06000 7889.34984 7891.93885 0.00013
15.06400 7998.55664 7924.14556 0.00013
15.06800 7916.30521 7957.30937 0.00013
15.07200 7996.62844 7990.99777 0.00013
15.07600 8142.88978 8024.64914 0.00012
15.08000 8061.93954 8057.58530 0.00012
15.08400 7963.84052 8089.04705 0.00013
15.08800 8248.49334 8118.25492 0.00012
15.09200 8286.94224 8144.49147 0.00012
15.09600 8314.03488 8167.19350 0.00012
15.10000 8437.45767 8186.03622 0.00012
15.10400 8360.87129 8200.98911 0.00012
15.10800 8357.03994 8212.32849 0.00012
15.11200 8315.88240 8220.60293 0.00012
15.11600 8334.86102 8226.56027 0.00012
15.12000 8176.44611 8231.05501 0.00012
15.12400 8252.06257 8234.95695 0.00012
15.12800 8236.75129 8239.07742 0.00012
15.13200 8349.21672 8244.12301 0.00012
15.13600 8250.97577 8250.67760 0.00012
15.14000 8233.94810 8259.20209 0.00012
15.14400 8177.16294 8270.02847 0.00012
15.14800 8084.86661 8283.30936 0.00012
15.15200 8495.78435 8299.26160 0.00012
15.15600 8325.36846 8317.99012 0.00012
15.16000 8329.71459 8339.56311 0.00012
15.16400 8350.76289 8364.02608 0.00012
15.16800 8238.95820 8391.41276 0.00012
15.17200 8202.39989 8421.75293 0.00012
15.17600 8332.68681 8455.07805 0.00012
15.18000 8426.03674 8491.42513 0.00012
15.18400 8476.37327 8530.83891 0.00012
15.18800 8486.09335 8573.37340 0.00012
15.19200 8519.74528 8619.09226 0.00012
15.19600 8491.89987 8668.06905 0.00012
15.20000 8555.00506 8720.38656 0.00012
15.20400 8733.76677 8776.13608 0.00011
15.20800 8678.80112 8835.41627 0.00012
15.21200 8849.99601 8898.33161 0.00011
15.21600 8865.21507 8964.99083 0.00011
15.22000 8986.22125 9035.50459 0.00011
15.22400 9006.81470 9109.98308 0.00011
15.22800 9105.00587 9188.53326 0.00011
15.23200 9215.96679 9271.25565 0.00011
15.23600 9339.74201 9358.24049 0.00011
15.24000 9299.26585 9449.56376 0.00011
15.24400 9347.65389 9545.28260 0.00011
15.24800 9483.14856 9645.43033 0.00011
15.25200 9794.68392 9750.01224 0.00010
15.25600 9630.00612 9858.99903 0.00010
15.26000 9954.37300 9972.31452 0.00010
15.26400 10045.14883 10089.84335 0.00010
15.26800 10255.16187 10211.41677 0.00010
15.27200 10401.55378 10336.80769 0.00010
15.27600 10625.19755 10465.72624 0.00009
15.28000 10562.59771 10597.81500 0.00009
15.28400 10820.33786 10732.64512 0.00009
15.28800 10822.50719 10869.71508 0.00009
15.29200 10966.61049 11008.45083 0.00009
15.29600 11188.67540 11148.19634 0.00009
15.30000 11395.47737 11288.15790 0.00009
15.30400 11439.44682 11427.42070 0.00009
15.30800 11524.93823 11565.07392 0.00009
15.31200 11816.36691 11700.03689 0.00008
15.31600 11894.43158 11831.10447 0.00008
15.32000 12104.88312 11956.93971 0.00008
15.32400 12384.48862 12076.07140 0.00008
15.32800 12408.13791 12186.90087 0.00008
15.33200 12420.00533 12287.72231 0.00008
15.33600 12594.12460 12376.76089 0.00008
15.34000 12713.09665 12452.23266 0.00008
15.34400 12713.16570 12512.42483 0.00008
15.34800 12521.87940 12555.78870 0.00008
15.35200 12763.76917 12581.05620 0.00008
15.35600 12785.73323 12587.34864 0.00008
15.36000 12663.15415 12574.26468 0.00008
15.36400 12756.77716 12541.94677 0.00008
15.36800 12708.75854 12491.10570 0.00008
15.37200 12640.32730 12422.99990 0.00008
15.37600 12412.79340 12339.36937 0.00008
15.38000 12467.23962 12242.33405 0.00008
15.38400 12263.34024 12134.26863 0.00008
15.38800 12155.34425 12017.66884 0.00008
15.39200 11950.24601 11895.01989 0.00008
15.39600 11917.96363 11768.68298 0.00008
15.40000 11801.19595 11640.82086 0.00008
15.40400 11757.98676 11513.32231 0.00009
15.40800 11624.28006 11387.77571 0.00009
15.41200 11706.25000 11265.45713 0.00009
15.41600 11398.54802 11147.33386 0.00009
15.42000 11132.99175 11034.08399 0.00009
15.42400 11062.71623 10926.12337 0.00009
15.42800 10982.78674 10823.63706 0.00009
15.43200 10692.48939 10726.61287 0.00009
15.43600 10548.71992 10634.87504 0.00009
15.44000 10721.30792 10548.11659 0.00009
15.44400 10679.89563 10465.93112 0.00009
15.44800 10409.23376 10387.84286 0.00010
15.45200 10386.20420 10313.33494 0.00010
15.45600 10435.48296 10241.87573 0.00010
15.46000 10316.09310 10172.94316 0.00010
15.46400 10164.96885 10106.04661 0.00010
15.46800 10209.48043 10040.74528 0.00010
15.47200 10199.75453 9976.66255 0.00010
15.47600 10033.12909 9913.49586 0.00010
15.48000 9962.50666 9851.02207 0.00010
15.48400 9899.63658 9789.09804 0.00010
15.48800 9667.82508 9727.65691 0.00010
15.49200 9656.22410 9666.70065 0.00010
15.49600 9617.03381 9606.29019 0.00010
15.50000 9572.48607 9546.53377 0.00010
15.50400 9574.93450 9487.57597 0.00010
15.50800 9496.31463 9429.59031 0.00011
15.51200 9324.41487 9372.76880 0.00011
15.51600 9234.62300 9317.29130 0.00011
15.52000 9325.55234 9263.25329 0.00011
15.52400 9126.57615 9210.87598 0.00011
15.52800 9239.67739 9160.31193 0.00011
15.53200 9221.51780 9111.68205 0.00011
15.53600 9161.48988 9065.05152 0.00011
15.54000 9049.87971 9020.52758 0.00011
15.54400 9030.37109 8978.16797 0.00011
15.54800 8989.86107 8938.00956 0.00011
15.55200 8959.33452 8900.07053 0.00011
15.55600 8940.17033 8864.35226 0.00011
15.56000 9080.73589 8830.83441 0.00011
15.56400 9111.61921 8799.47744 0.00011
15.56800 8966.77870 8770.24325 0.00011
15.57200 8827.34744 8743.07609 0.00011
15.57600 8853.19080 8717.91065 0.00011
15.58000 8876.06730 8694.67309 0.00011
15.58400 8852.36804 8673.28248 0.00011
15.58800 9015.40645 8653.65165 0.00011
15.59200 8900.29899 8635.68796 0.00011
15.59600 8780.15314 8619.29395 0.00011
15.60000 8806.25353 8604.36802 0.00011
15.60400 8662.03784 8590.80499 0.00012
15.60800 8913.40895 8578.49613 0.00011
15.61200 8701.44966 8567.32997 0.00011
15.61600 8734.74408 8557.19257 0.00011
15.62000 8707.05151 8547.96758 0.00011
15.62400 8735.74917 8539.53701 0.00011
15.62800 8846.38802 8531.78158 0.00011
15.63200 8785.26427 8524.58093 0.00011
15.63600 8896.99791 8517.81452 0.00011
15.64000 8867.50588 8511.36213 0.00011
15.64400 8924.44366 8505.10441 0.00011
15.64800 8804.85484 8498.92386 0.00011
15.65200 8980.96655 8492.70558 0.00011
15.65600 8973.31584 8486.33805 0.00011
15.66000 8961.19600 8479.71435 0.00011
15.66400 8907.35708 8472.73284 0.00011
15.66800 8791.75933 8465.29819 0.00011
15.67200 8935.30919 8457.32251 0.00011
15.67600 8832.41464 8448.72595 0.00011
15.68000 8871.13582 8439.43765 0.00011
15.68400 8934.78774 8429.39665 0.00011
15.68800 9041.94221 8418.55196 0.00011
15.69200 9003.84778 8406.86350 0.00011
15.69600 8804.29020 8394.30220 0.00011
15.70000 8804.87643 8380.84987 0.00011
15.70400 9003.54647 8366.49954 0.00011
15.70800 8967.35974 8351.25473 0.00011
15.71200 8978.99308 8335.12932 0.00011
15.71600 8801.67249 8318.14694 0.00011
15.72000 8785.27217 8300.33990 0.00011
15.72400 8836.74263 8281.74877 0.00011
15.72800 8876.04474 8262.42110 0.00011
15.73200 8846.47480 8242.41043 0.00011
15.73600 8748.54993 8221.77553 0.00011
15.74000 8679.24282 8200.57880 0.00012
15.74400 8660.69747 8178.88577 0.00012
15.74800 8615.10679 8156.76358 0.00012
15.75200 8629.04970 8134.28040 0.00012
15.75600 8659.37097 8111.50443 0.00012
15.76000 8551.24977 8088.50310 0.00012
15.76400 8566.60293 8065.34609 0.00012
15.76800 8507.56683 8042.10536 0.00012
15.77200 8391.66818 8018.84673 0.00012
15.77600 8355.63455 7995.58014 0.00012
15.78000 8330.53981 7972.38739 0.00012
15.78400 8367.38961 7949.32290 0.00012
15.78800 8331.26959 7926.43366 0.00012
15.79200 8292.64527 7903.76322 0.00012
15.79600 8207.60900 7881.35090 0.00012
15.80000 8072.73342 7859.23209 0.00012
15.80400 8085.45195 7837.43635 0.00012
15.80800 8148.59428 7815.98784 0.00012
15.81200 8144.17443 7794.90932 0.00012
15.81600 7908.51610 7774.21957 0.00013
15.82000 7999.61545 7753.93227 0.00013
15.82400 8048.18243 7734.05260 0.00012
15.82800 7998.56021 7714.56299 0.00013
15.83200 8011.09485 7695.52179 0.00012
15.83600 8020.55153 7676.77954 0.00012
15.84000 7924.63303 7658.82938 0.00013
15.84400 7919.43355 7641.35946 0.00013
15.84800 7820.85734 7624.37307 0.00013
15.85200 7812.81409 7607.87243 0.00013
15.85600 7802.50093 7591.85830 0.00013
15.86000 7672.41328 7576.33071 0.00013
15.86400 7742.80240 7561.28876 0.00013
15.86800 7669.60241 7546.73114 0.00013
15.87200 7668.44659 7532.65588 0.00013
15.87600 7596.14082 7519.06171 0.00013
15.88000 7536.30040 7505.94127 0.00013
15.88400 7477.99148 7493.29175 0.00013
15.88800 7602.51660 7481.11141 0.00013
15.89200 7676.09472 7469.39701 0.00013
15.89600 7796.83009 7458.14512 0.00013
15.90000 7614.77236 7447.35272 0.00013
15.90400 7553.33762 7437.01677 0.00013
15.90800 7491.39387 7427.13477 0.00013
15.91200 7470.42471 7417.70432 0.00013
15.91600 7686.82880 7408.72380 0.00013
15.92000 7502.64554 7400.19172 0.00013
15.92400 7516.41488 7392.10748 0.00013
15.92800 7493.65607 7384.47078 0.00013
15.93200 7523.29589 7377.28229 0.00013
15.93600 7470.85203 7370.54348 0.00013
15.94000 7514.28149 7364.25964 0.00013
15.94400 7417.03747 7358.44058 0.00013
15.94800 7436.17324 7353.08891 0.00013
15.95200 7381.81534 7348.17740 0.00014
15.95600 7327.80361 7343.73493 0.00014
15.96000 7492.35734 7339.76870 0.00013
15.96400 7444.26851 7336.28681 0.00013
15.96800 7386.65806 7333.29899 0.00014
15.97200 7487.49535 7330.81604 0.00013
15.97600 7454.96872 7328.85063 0.00013
15.98000 7420.41757 7327.41703 0.00013
15.98400 7488.06173 7326.53045 0.00013
15.98800 7509.64624 7326.20705 0.00013
15.99200 7441.16857 7326.46703 0.00013
15.99600 7483.70083 7327.33178 0.00013
16.00000 7506.25318 7328.82448 0.00013
16.00400 7432.72485 7330.97081 0.00013
16.00800 7495.00860 7333.79867 0.00013
16.01200 7537.20223 7337.33847 0.00013
16.01600 7529.68851 7341.62334 0.00013
16.02000 7544.83380 7346.68894 0.00013
16.02400 7546.74071 7352.57402 0.00013
16.02800 7468.80956 7359.32008 0.00013
16.03200 7417.37480 7366.97172 0.00013
16.03600 7512.90948 7375.57667 0.00013
16.04000 7535.08470 7385.18554 0.00013
16.04400 7418.42130 7395.85216 0.00013
16.04800 7396.65572 7407.63305 0.00014
16.05200 7470.75120 7420.58740 0.00013
16.05600 7615.22747 7434.77680 0.00013
16.06000 7527.56303 7450.26428 0.00013
16.06400 7552.10129 7467.11404 0.00013
16.06800 7626.89265 7485.39016 0.00013
16.07200 7706.87873 7505.15528 0.00013
16.07600 7510.52104 7526.46924 0.00013
16.08000 7520.05359 7549.38778 0.00013
16.08400 7680.31930 7573.96015 0.00013
16.08800 7707.76292 7600.21683 0.00013
16.09200 7624.81522 7628.16855 0.00013
16.09600 7703.41023 7657.82127 0.00013
16.10000 7708.45900 7689.14716 0.00013
16.10400 7790.39851 7722.08532 0.00013
16.10800 7655.81549 7756.53569 0.00013
16.11200 7682.75658 7792.35330 0.00013
16.11600 7727.68574 7829.33642 0.00013
16.12000 7788.21062 7867.19830 0.00013
16.12400 7645.75759 7905.59814 0.00013
16.12800 7747.69485 7944.12657 0.00013
16.13200 7732.29835 7982.28852 0.00013
16.13600 7827.42011 8019.51270 0.00013
16.14000 7801.82995 8055.15939 0.00013
16.14400 7924.51758 8088.53409 0.00013
16.14800 7716.35411 8118.90691 0.00013
16.15200 7779.35828 8145.54145 0.00013
16.15600 7813.45711 8167.72880 0.00013
16.16000 7772.60721 8184.82480 0.00013
16.16400 7820.62410 8196.28441 0.00013
16.16800 7789.60549 8201.67838 0.00013
16.17200 7768.74584 8200.76112 0.00013
16.17600 7806.16852 8193.46057 0.00013
16.18000 7793.22204 8179.88693 0.00013
16.18400 7725.37669 8160.32688 0.00013
16.18800 7645.55137 8135.22366 0.00013
16.19200 7665.32286 8105.14826 0.00013
16.19600 7683.82517 8070.76415 0.00013
16.20000 7825.30752 8032.78959 0.00013
16.20400 7637.23819 7991.96126 0.00013
16.20800 7657.11454 7949.00176 0.00013
16.21200 7517.12543 7904.59204 0.00013
16.21600 7528.66191 7859.36992 0.00013
16.22000 7469.89209 7813.86560 0.00013
16.22400 7510.20164 7768.58618 0.00013
16.22800 7511.79901 7723.91193 0.00013
16.23200 7514.08151 7680.16423 0.00013
16.23600 7499.13462 7637.59523 0.00013
16.24000 7554.03972 7596.39444 0.00013
16.24400 7495.66870 7556.69236 0.00013
16.24800 7420.34579 7518.57861 0.00013
16.25200 7499.66373 7482.10238 0.00013
16.25600 7456.10658 7447.28143 0.00013
16.26000 7296.94626 7414.10850 0.00014
16.26400 7328.18655 7382.55703 0.00014
16.26800 7297.05220 7352.58586 0.00014
16.27200 7392.34960 7324.14322 0.00014
16.27600 7358.68877 7297.16988 0.00014
16.28000 7246.26609 7271.60180 0.00014
16.28400 7198.84756 7247.37225 0.00014
16.28800 7265.59679 7224.41344 0.00014
16.29200 7122.30615 7202.65772 0.00014
16.29600 7207.19443 7182.03848 0.00014
16.30000 7193.15860 7162.49093 0.00014
16.30400 7172.62976 7143.95252 0.00014
16.30800 7161.74101 7126.36340 0.00014
16.31200 7074.43530 7109.66640 0.00014
16.31600 7108.38585 7093.80977 0.00014
16.32000 7255.19931 7078.75005 0.00014
16.32400 6983.47127 7064.44487 0.00014
16.32800 7055.40918 7050.81383 0.00014
16.33200 7155.63625 7037.82361 0.00014
16.33600 7129.30792 7025.44461 0.00014
16.34000 7126.71606 7013.63751 0.00014
16.34400 7088.32641 7002.36758 0.00014
16.34800 6969.42908 6991.60296 0.00014
16.35200 7025.17150 6981.31311 0.00014
16.35600 7076.96296 6971.46961 0.00014
16.36000 6978.12302 6962.04593 0.00014
16.36400 6951.34612 6953.01735 0.00014
16.36800 7080.85040 6944.36087 0.00014
16.37200 7087.98477 6936.05500 0.00014
16.37600 6947.80429 6928.07968 0.00014
16.38000 7082.38130 6920.41625 0.00014
16.38400 6909.72217 6913.04731 0.00014
16.38800 6826.04716 6905.95663 0.00015
16.39200 6927.10195 6899.12910 0.00014
16.39600 7034.83853 6892.55056 0.00014
16.40000 7002.94837 6886.20783 0.00014
16.40400 6903.68553 6880.08858 0.00014
16.40800 6937.38493 6874.18130 0.00014
16.41200 6879.11313 6868.47526 0.00015
16.41600 6946.62218 6862.96063 0.00014
16.42000 6918.54993 6857.62976 0.00014
16.42400 6936.29273 6852.47749 0.00014
16.42800 6813.75193 6847.49371 0.00015
16.43200 6803.34871 6842.65534 0.00015
16.43600 6787.62225 6837.96674 0.00015
16.44000 6737.66412 6833.42111 0.00015
16.44400 6957.04290 6829.01210 0.00014
16.44800 6921.12842 6824.73374 0.00014
16.45200 6853.36882 6820.58042 0.00015
16.45600 6878.16981 6816.54686 0.00015
16.46000 6720.01465 6812.62808 0.00015
16.46400 6777.44655 6808.81945 0.00015
16.46800 6889.74815 6805.11657 0.00015
16.47200 6813.42406 6801.51533 0.00015
16.47600 6760.80442 6798.01184 0.00015
16.48000 6851.76228 6794.60246 0.00015
16.48400 6861.38739 6791.28376 0.00015
16.48800 6754.96308 6788.05250 0.00015
16.49200 6834.80892 6784.90560 0.00015
16.49600 6861.51833 6781.84035 0.00015
16.50000 6767.25674 6778.85562 0.00015
16.50400 6915.18913 6775.95026 0.00014
16.50800 6765.82014 6773.11471 0.00015
16.51200 6740.20682 6770.34977 0.00015
16.51600 6637.10190 6767.65428 0.00015
16.52000 6723.82303 6765.02623 0.00015
16.52400 6653.62727 6762.46374 0.00015
16.52800 6780.43020 6759.96505 0.00015
16.53200 6772.27264 6757.52848 0.00015
16.53600 6689.05671 6755.15247 0.00015
16.54000 6636.17306 6752.83554 0.00015
16.54400 6683.07541 6750.57632 0.00015
16.54800 6596.39848 6748.37353 0.00015
16.55200 6451.20608 6746.22595 0.00016
16.55600 6566.21787 6744.13246 0.00015
16.56000 6775.68851 6742.09203 0.00015
16.56400 6740.45710 6740.10469 0.00015
16.56800 6779.02812 6738.17099 0.00015
16.57200 6675.80924 6736.28418 0.00015
16.57600 6596.69625 6734.44697 0.00015
16.58000 6747.77057 6732.65865 0.00015
16.58400 6725.04787 6730.91859 0.00015
16.58800 6665.76154 6729.22623 0.00015
16.59200 6711.03926 6727.58105 0.00015
16.59600 6646.41391 6725.98260 0.00015
16.60000 6639.42988 6724.43050 0.00015
16.60400 6729.37623 6722.92439 0.00015
16.60800 6658.52172 6721.46396 0.00015
16.61200 6631.03915 6720.04900 0.00015
16.61600 6549.60686 6718.67935 0.00015
16.62000 6655.32884 6717.35487 0.00015
16.62400 6628.06607 6716.07550 0.00015
16.62800 6684.76272 6714.84124 0.00015
16.63200 6670.97565 6713.65211 0.00015
16.63600 6555.46535 6712.50821 0.00015
16.64000 6628.20971 6711.40969 0.00015
16.64400 6638.28918 6710.35676 0.00015
16.64800 6720.26228 6709.34967 0.00015
16.65200 6477.57110 6708.38873 0.00015
16.65600 6608.38112 6707.47432 0.00015
16.66000 6636.08475 6706.60688 0.00015
16.66400 6646.23454 6705.78688 0.00015
16.66800 6724.53451 6705.01488 0.00015
16.67200 6732.79100 6704.29150 0.00015
16.67600 6607.50416 6703.61742 0.00015
16.68000 6713.77111 6702.99338 0.00015
16.68400 6719.20142 6702.42020 0.00015
16.68800 6715.99766 6701.89877 0.00015
16.69200 6639.11803 6701.43004 0.00015
16.69600 6719.07655 6701.01508 0.00015
16.70000 6704.61512 6700.65498 0.00015
16.70400 6642.29263 6700.35147 0.00015
16.70800 6616.28605 6700.10954 0.00015
16.71200 6659.10499 6699.93402 0.00015
16.71600 6723.48490 6699.80972 0.00015
16.72000 6702.17472 6699.74396 0.00015
16.72400 6594.50425 6699.74174 0.00015
16.72800 6691.13577 6699.80487 0.00015
16.73200 6678.96279 6699.93528 0.00015
16.73600 6589.13233 6700.13503 0.00015
16.74000 6582.29573 6700.40633 0.00015
16.74400 6704.89601 6700.75178 0.00015
16.74800 6656.00746 6701.17518 0.00015
16.75200 6721.77790 6701.67968 0.00015
16.75600 6628.14609 6702.26725 0.00015
16.76000 6628.71458 6702.94569 0.00015
16.76400 6599.98080 6703.70267 0.00015
16.76800 6566.20410 6704.54938 0.00015
16.77200 6673.89870 6705.49115 0.00015
16.77600 6775.12818 6706.53184 0.00015
16.78000 6579.91877 6707.67556 0.00015
16.78400 6562.60890 6708.92669 0.00015
16.78800 6570.82555 6710.28990 0.00015
16.79200 6789.93769 6711.77020 0.00015
16.79600 6683.44029 6713.37287 0.00015
16.80000 6554.85077 6715.10357 0.00015
16.80400 6638.18236 6716.96835 0.00015
16.80800 6648.96373 6718.97365 0.00015
16.81200 6609.17201 6721.12638 0.00015
16.81600 6606.91988 6723.43388 0.00015
16.82000 6696.46542 6725.90402 0.00015
16.82400 6667.99873 6728.54521 0.00015
16.82800 6594.39526 6731.36644 0.00015
16.83200 6653.08709 6734.37732 0.00015
16.83600 6614.95990 6737.58812 0.00015
16.84000 6609.02597 6741.00989 0.00015
16.84400 6660.06643 6744.65443 0.00015
16.84800 6610.22129 6748.53406 0.00015
16.85200 6609.20090 6752.66225 0.00015
16.85600 6690.41891 6757.05351 0.00015
16.86000 6693.14504 6761.72322 0.00015
16.86400 6681.91515 6766.68782 0.00015
16.86800 6752.21644 6771.96487 0.00015
16.87200 6790.54424 6777.57316 0.00015
16.87600 6791.39733 6783.53273 0.00015
16.88000 6790.55131 6789.86494 0.00015
16.88400 6606.87017 6796.59261 0.00015
16.88800 6730.52932 6803.73996 0.00015
16.89200 6770.59824 6811.33276 0.00015
16.89600 6804.88883 6819.39854 0.00015
16.90000 6921.20554 6827.96752 0.00014
16.90400 6779.77719 6837.07036 0.00015
16.90800 6901.01520 6846.73323 0.00014
16.91200 6713.21034 6856.99353 0.00015
16.91600 7017.29779 6867.88612 0.00014
16.92000 6965.26900 6879.44479 0.00014
16.92400 7018.05650 6891.70234 0.00014
16.92800 6909.11544 6904.69303 0.00014
16.93200 7093.01093 6918.45022 0.00014
16.93600 6885.38630 6933.00105 0.00015
16.94000 6858.76193 6948.34865 0.00015
16.94400 6923.32978 6964.64055 0.00014
16.94800 6973.95521 6981.68019 0.00014
16.95200 7151.07705 6999.88114 0.00014
16.95600 7150.29325 7019.03776 0.00014
16.96000 7219.86617 7039.15666 0.00014
16.96400 7237.03919 7060.23191 0.00014
16.96800 7032.77419 7082.24182 0.00014
16.97200 7282.45440 7105.14530 0.00014
16.97600 7225.30259 7128.87797 0.00014
16.98000 7369.30898 7153.34815 0.00014
16.98400 7312.46814 7178.43276 0.00014
16.98800 7230.48894 7203.97356 0.00014
16.99200 7425.86560 7229.77406 0.00013
16.99600 7505.46894 7255.59777 0.00013
17.00000 7320.23834 7281.16814 0.00014
17.00400 7333.65183 7306.17085 0.00014
17.00800 7447.23627 7330.25882 0.00013
17.01200 7533.05678 7353.06084 0.00013
17.01600 7615.45135 7374.19342 0.00013
17.02000 7664.27413 7393.27577 0.00013
17.02400 7846.31352 7409.94722 0.00013
17.02800 7770.71200 7423.88614 0.00013
17.03200 7722.18822 7434.82871 0.00013
17.03600 7846.60517 7442.58599 0.00013
17.04000 7702.73900 7447.05335 0.00013
17.04400 7608.32747 7448.21761 0.00013
17.04800 7751.12397 7446.16625 0.00013
17.05200 7615.20267 7441.07377 0.00013
17.05600 7746.41600 7433.19321 0.00013
17.06000 7815.19222 7422.84081 0.00013
17.06400 7850.84267 7410.37791 0.00013
17.06800 7848.66169 7396.19180 0.00013
17.07200 7470.56800 7380.67757 0.00013
17.07600 7534.86080 7364.22203 0.00013
17.08000 7769.64034 7347.19070 0.00013
17.08400 7633.66400 7329.91791 0.00013
17.08800 7533.87147 7312.70075 0.00013
17.09200 7540.58691 7295.79580 0.00013
17.09600 7345.11711 7279.41828 0.00014
17.10000 7343.60267 7263.74342 0.00014
17.10400 7177.45467 7248.90915 0.00014
17.10800 7408.99227 7235.01944 0.00013
17.11200 7209.59098 7222.14820 0.00014
17.11600 7199.47013 7210.34330 0.00014
17.12000 7179.14773 7199.63041 0.00014
17.12400 7224.68720 7190.01632 0.00014
17.12800 7187.20853 7181.49232 0.00014
17.13200 7182.71707 7174.03681 0.00014
17.13600 7247.72960 7167.61742 0.00014
17.14000 7252.15893 7162.19314 0.00014
17.14400 7163.43680 7157.71574 0.00014
17.14800 7135.40320 7154.13168 0.00014
17.15200 7035.48693 7151.38406 0.00014
17.15600 7078.08318 7149.41076 0.00014
17.16000 7131.16267 7148.13215 0.00014
17.16400 7171.10720 7147.48314 0.00014
17.16800 7153.00373 7147.39153 0.00014
17.17200 7220.64213 7147.78074 0.00014
17.17600 7040.78059 7148.57195 0.00014
17.18000 7179.07200 7149.68423 0.00014
17.18400 6953.65333 7151.03491 0.00014
17.18800 7049.96748 7152.54009 0.00014
17.19200 7109.35893 7154.11507 0.00014
17.19600 6834.43935 7155.67488 0.00015
17.20000 6956.35360 7157.13514 0.00014
17.20400 7037.71787 7158.41257 0.00014
17.20800 7069.28019 7159.42601 0.00014
17.21200 7123.84960 7160.09735 0.00014
17.21600 7081.60491 7160.35228 0.00014
17.22000 7008.57280 7160.12152 0.00014
17.22400 6877.28446 7159.34160 0.00015
17.22800 6986.50667 7157.95581 0.00014
17.23200 7100.48094 7155.91515 0.00014
17.23600 7009.06933 7153.17881 0.00014
17.24000 7227.54785 7149.71503 0.00014
17.24400 7026.69120 7145.50130 0.00014
17.24800 7156.59131 7140.52461 0.00014
17.25200 7085.82080 7134.78160 0.00014
17.25600 7171.86244 7128.27810 0.00014
17.26000 7115.36817 7121.02899 0.00014
17.26400 7166.87870 7113.05749 0.00014
17.26800 7153.35947 7104.39443 0.00014
17.27200 6958.11410 7095.07749 0.00014
17.27600 6905.23434 7085.14998 0.00014
17.28000 7044.68035 7074.66011 0.00014
17.28400 7151.73333 7063.65967 0.00014
17.28800 7087.22261 7052.20313 0.00014
17.29200 6932.60997 7040.34656 0.00014
17.29600 7176.84458 7028.14660 0.00014
17.30000 6872.34551 7015.65981 0.00015
17.30400 6964.77046 7002.94151 0.00014
17.30800 7236.97734 6990.04518 0.00014
17.31200 7001.48334 6977.02216 0.00014
17.31600 6787.93388 6963.92114 0.00015
17.32000 6949.62197 6950.78761 0.00014
17.32400 6854.52199 6937.66369 0.00015
17.32800 6857.67102 6924.58808 0.00015
17.33200 6854.78373 6911.59578 0.00015
17.33600 6969.96690 6898.71823 0.00014
17.34000 6800.73267 6885.98336 0.00015
17.34400 6822.41257 6873.41582 0.00015
17.34800 6768.54055 6861.03681 0.00015
17.35200 6833.27686 6848.86458 0.00015
17.35600 6884.24427 6836.91441 0.00015
17.36000 6657.80614 6825.19916 0.00015
17.36400 6715.74576 6813.73075 0.00015
17.36800 6770.33817 6802.52112 0.00015
17.37200 6786.88521 6791.57270 0.00015
17.37600 6676.56697 6780.87630 0.00015
17.38000 6758.08720 6770.44506 0.00015
17.38400 6658.43943 6760.27994 0.00015
17.38800 6465.49248 6750.38069 0.00015
17.39200 6527.25412 6740.74594 0.00015
17.39600 6644.29327 6731.37482 0.00015
17.40000 6689.63295 6722.26971 0.00015
17.40400 6683.88984 6713.42834 0.00015
17.40800 6668.28773 6704.82071 0.00015
17.41200 6503.34267 6696.45898 0.00015
17.41600 6593.34791 6688.33787 0.00015
17.42000 6418.15071 6680.45180 0.00016
17.42400 6544.61094 6672.79498 0.00015
17.42800 6606.86503 6665.36141 0.00015
17.43200 6517.67769 6658.14500 0.00015
17.43600 6514.75184 6651.13956 0.00015
17.44000 6623.02430 6644.33890 0.00015
17.44400 6505.58068 6637.73681 0.00015
17.44800 6595.13785 6631.32714 0.00015
17.45200 6546.38277 6625.10380 0.00015
17.45600 6602.39440 6619.06102 0.00015
17.46000 6547.23753 6613.19287 0.00015
17.46400 6479.43930 6607.49262 0.00015
17.46800 6473.96331 6601.95514 0.00015
17.47200 6534.28417 6596.57493 0.00015
17.47600 6534.70448 6591.34653 0.00015
17.48000 6556.10962 6586.26467 0.00015
17.48400 6451.42495 6581.32425 0.00016
17.48800 6469.76608 6576.52025 0.00015
17.49200 6715.83425 6571.84912 0.00015
17.49600 6586.08657 6567.30830 0.00015
17.50000 6533.62196 6562.88774 0.00015
17.50400 6468.61830 6558.58292 0.00015
17.50800 6337.59166 6554.39220 0.00016
17.51200 6461.21094 6550.31270 0.00015
17.51600 6477.42319 6546.34160 0.00015
17.52000 6404.30238 6542.46984 0.00016
17.52400 6532.71887 6538.69570 0.00015
17.52800 6419.60845 6535.01713 0.00016
17.53200 6366.55215 6531.43159 0.00016
17.53600 6545.61202 6527.93622 0.00015
17.54000 6448.78847 6524.52804 0.00016
17.54400 6532.00393 6521.19787 0.00015
17.54800 6516.94091 6517.94760 0.00015
17.55200 6509.34812 6514.77445 0.00015
17.55600 6381.78306 6511.67586 0.00016
17.56000 6384.50483 6508.64936 0.00016
17.56400 6427.38579 6505.69255 0.00016
17.56800 6488.89201 6502.80394 0.00015
17.57200 6414.65270 6499.98241 0.00016
17.57600 6378.58213 6497.22296 0.00016
17.58000 6379.58784 6494.52296 0.00016
17.58400 6422.45849 6491.88207 0.00016
17.58800 6442.63769 6489.29849 0.00016
17.59200 6475.68017 6486.77041 0.00015
17.59600 6451.42087 6484.29608 0.00016
17.60000 6332.94722 6481.87392 0.00016
17.60400 6554.79348 6479.50227 0.00015
17.60800 6517.99463 6477.17963 0.00015
17.61200 6471.58196 6474.90457 0.00015
17.61600 6379.17271 6472.67563 0.00016
17.62000 6381.32835 6470.49188 0.00016
17.62400 6412.28738 6468.35239 0.00016
17.62800 6407.17591 6466.25404 0.00016
17.63200 6461.13486 6464.19655 0.00015
17.63600 6406.71680 6462.17891 0.00016
17.64000 6529.48703 6460.19995 0.00015
17.64400 6302.15183 6458.25864 0.00016
17.64800 6383.90532 6456.35392 0.00016
17.65200 6400.00826 6454.48476 0.00016
17.65600 6430.13373 6452.65023 0.00016
17.66000 6426.85352 6450.84939 0.00016
17.66400 6263.69494 6449.08132 0.00016
17.66800 6261.15592 6447.34592 0.00016
17.67200 6364.10154 6445.64365 0.00016
17.67600 6328.26279 6443.96921 0.00016
17.68000 6436.54210 6442.32398 0.00016
17.68400 6329.16518 6440.70753 0.00016
17.68800 6197.79294 6439.11913 0.00016
17.69200 6382.59678 6437.55808 0.00016
17.69600 6358.27597 6436.02476 0.00016
17.70000 6404.54931 6434.52285 0.00016
17.70400 6375.02974 6433.05344 0.00016
17.70800 6313.63704 6431.59547 0.00016
17.71200 6316.76206 6430.16186 0.00016
17.71600 6293.36310 6428.75215 0.00016
17.72000 6413.41957 6427.36557 0.00016
17.72400 6367.56787 6426.00142 0.00016
17.72800 6408.29952 6424.65944 0.00016
17.73200 6210.51108 6423.33914 0.00016
17.73600 6355.74893 6422.04010 0.00016
17.74000 6381.43378 6420.76185 0.00016
17.74400 6316.15990 6419.50396 0.00016
17.74800 6297.01942 6418.26602 0.00016
17.75200 6387.58024 6417.04768 0.00016
17.75600 6353.74373 6415.84850 0.00016
17.76000 6280.93630 6414.66813 0.00016
17.76400 6412.71126 6413.50623 0.00016
17.76800 6263.41730 6412.36247 0.00016
17.77200 6374.31441 6411.23649 0.00016
17.77600 6280.70552 6410.12800 0.00016
17.78000 6341.99719 6409.03669 0.00016
17.78400 6362.17878 6407.96229 0.00016
17.78800 6285.16839 6406.90449 0.00016
17.79200 6345.81419 6405.86303 0.00016
17.79600 6338.82204 6404.83766 0.00016
17.80000 6386.68257 6403.82815 0.00016
17.80400 6351.89865 6402.83424 0.00016
17.80800 6266.78151 6401.85570 0.00016
17.81200 6366.84912 6400.89231 0.00016
17.81600 6369.87072 6399.94389 0.00016
17.82000 6241.20304 6399.01023 0.00016
17.82400 6497.27073 6398.09111 0.00015
17.82800 6380.56663 6397.18637 0.00016
17.83200 6326.27550 6396.29584 0.00016
17.83600 6459.91553 6395.41937 0.00015
17.84000 6502.37378 6394.55756 0.00015
17.84400 6467.08280 6393.71184 0.00015
17.84800 6257.26197 6392.87881 0.00016
17.85200 6358.60192 6392.05699 0.00016
17.85600 6347.19578 6391.24849 0.00016
17.86000 6329.06907 6390.45320 0.00016
17.86400 6378.07274 6389.67099 0.00016
17.86800 6512.18931 6388.90176 0.00015
17.87200 6492.63738 6388.14543 0.00015
17.87600 6497.36691 6387.40190 0.00015
17.88000 6536.68861 6386.67107 0.00015
17.88400 6439.13685 6385.95286 0.00016
17.88800 6445.33960 6385.24719 0.00016
17.89200 6368.84043 6384.55401 0.00016
17.89600 6402.42867 6383.87328 0.00016
17.90000 6426.94625 6383.20491 0.00016
17.90400 6287.05613 6382.54886 0.00016
17.90800 6214.62994 6381.90508 0.00016
17.91200 6303.37490 6381.27354 0.00016
17.91600 6362.40179 6380.65421 0.00016
17.92000 6427.58433 6380.04709 0.00016
17.92400 6362.62558 6379.45214 0.00016
17.92800 6390.16493 6378.86935 0.00016
17.93200 6306.95503 6378.29871 0.00016
17.93600 6210.20993 6377.74022 0.00016
17.94000 6299.41913 6377.19389 0.00016
17.94400 6300.01586 6376.65974 0.00016
17.94800 6397.15348 6376.13787 0.00016
17.95200 6378.99592 6375.62858 0.00016
17.95600 6254.68369 6375.13166 0.00016
17.96000 6395.27045 6374.64648 0.00016
17.96400 6219.06802 6374.17363 0.00016
17.96800 6375.05841 6373.71323 0.00016
17.97200 6322.59979 6373.26611 0.00016
17.97600 6366.56866 6372.83358 0.00016
17.98000 6394.92123 6372.41316 0.00016
17.98400 6401.01789 6372.00339 0.00016
17.98800 6462.34746 6371.60822 0.00015
17.99200 6291.74664 6371.22719 0.00016
17.99600 6202.00667 6370.86338 0.00016
18.00000 6322.36013 6370.52385 0.00016
18.00400 6366.89928 6370.18397 0.00016
18.00800 6277.73029 6369.85176 0.00016
18.01200 6275.61711 6369.53297 0.00016
18.01600 6436.93950 6369.22775 0.00016
18.02000 6319.38727 6368.93624 0.00016
18.02400 6275.87458 6368.65861 0.00016
18.02800 6220.12233 6368.39501 0.00016
18.03200 6237.63322 6368.14562 0.00016
18.03600 6369.11074 6367.91063 0.00016
18.04000 6384.01705 6367.69024 0.00016
18.04400 6345.86247 6367.48466 0.00016
18.04800 6446.55338 6367.29409 0.00016
18.05200 6457.56365 6367.11878 0.00015
18.05600 6294.09001 6366.95896 0.00016
18.06000 6305.23649 6366.81489 0.00016
18.06400 6316.42108 6366.68682 0.00016
18.06800 6548.00773 6366.57506 0.00015
18.07200 6498.04254 6366.47987 0.00015
18.07600 6300.86737 6366.40157 0.00016
18.08000 6344.57839 6366.34048 0.00016
18.08400 6362.01021 6366.29693 0.00016
18.08800 6281.72296 6366.27127 0.00016
18.09200 6407.85933 6366.26387 0.00016
18.09600 6321.55093 6366.27512 0.00016
18.10000 6364.95791 6366.30541 0.00016
18.10400 6235.33379 6366.35517 0.00016
18.10800 6335.45845 6366.42485 0.00016
18.11200 6207.61788 6366.51489 0.00016
18.11600 6304.38347 6366.62580 0.00016
18.12000 6386.26652 6366.75806 0.00016
18.12400 6309.22216 6366.91221 0.00016
18.12800 6239.10931 6367.08881 0.00016
18.13200 6286.55590 6367.28844 0.00016
18.13600 6336.71776 6367.51169 0.00016
18.14000 6402.72989 6367.75922 0.00016
18.14400 6267.20285 6368.02972 0.00016
18.14800 6387.85322 6368.31502 0.00016
18.15200 6343.05473 6368.60954 0.00016
18.15600 6296.61973 6368.90636 0.00016
18.16000 6311.64442 6369.19026 0.00016
18.16400 6303.50080 6369.39049 0.00016
18.16800 6377.50907 6369.80926 0.00016
18.17200 6337.49414 6369.91098 0.00016
18.17600 6334.59068 6370.41217 0.00016
18.18000 6315.44646 6370.94589 0.00016
18.18400 6286.79861 6371.51317 0.00016
18.18800 6317.41110 6372.11505 0.00016
18.19200 6308.33460 6372.75290 0.00016
18.19600 6327.82330 6373.42744 0.00016
18.20000 6363.95951 6374.14137 0.00016
18.20400 6318.13474 6374.89518 0.00016
18.20800 6285.28689 6375.69033 0.00016
18.21200 6225.17475 6376.52834 0.00016
18.21600 6272.84230 6377.41081 0.00016
18.22000 6429.50426 6378.33945 0.00016
18.22400 6373.77135 6379.31603 0.00016
18.22800 6320.62653 6380.34245 0.00016
18.23200 6290.19316 6381.42068 0.00016
18.23600 6425.76345 6382.55283 0.00016
18.24000 6324.16449 6383.74112 0.00016
18.24400 6494.57113 6384.98789 0.00015
18.24800 6378.88255 6386.29564 0.00016
18.25200 6418.06179 6387.66696 0.00016
18.25600 6420.04848 6389.10483 0.00016
18.26000 6454.44125 6390.61369 0.00015
18.26400 6297.40311 6392.20008 0.00016
18.26800 6390.02291 6393.86375 0.00016
18.27200 6290.27783 6395.59819 0.00016
18.27600 6456.53276 6397.41561 0.00015
18.28000 6510.52724 6399.31997 0.00015
18.28400 6397.05141 6401.31550 0.00016
18.28800 6301.55621 6403.40669 0.00016
18.29200 6383.57613 6405.59831 0.00016
18.29600 6529.30701 6407.89544 0.00015
18.30000 6476.48016 6410.30354 0.00015
18.30400 6464.38093 6412.82839 0.00015
18.30800 6441.82089 6415.47618 0.00016
18.31200 6439.60659 6418.25417 0.00016
18.31600 6424.45539 6421.17377 0.00016
18.32000 6461.03676 6424.24804 0.00015
18.32400 6442.80828 6427.47001 0.00016
18.32800 6322.19286 6430.84152 0.00016
18.33200 6413.45821 6434.38338 0.00016
18.33600 6369.26887 6438.10563 0.00016
18.34000 6471.15210 6442.01905 0.00015
18.34400 6492.57837 6446.13524 0.00015
18.34800 6419.86399 6450.46705 0.00016
18.35200 6346.65060 6455.03117 0.00016
18.35600 6558.07243 6459.84855 0.00015
18.36000 6448.34320 6464.92745 0.00016
18.36400 6456.84562 6470.26555 0.00015
18.36800 6489.13646 6475.89777 0.00015
18.37200 6420.80820 6481.84391 0.00016
18.37600 6380.88697 6488.12538 0.00016
18.38000 6510.42693 6494.76539 0.00015
18.38400 6496.09385 6501.78909 0.00015
18.38800 6517.26021 6509.22375 0.00015
18.39200 6618.58067 6517.09895 0.00015
18.39600 6552.04358 6525.44681 0.00015
18.40000 6668.84208 6534.30216 0.00015
18.40400 6605.93304 6543.70280 0.00015
18.40800 6664.34150 6553.68978 0.00015
18.41200 6646.70040 6564.30764 0.00015
18.41600 6637.97578 6575.60472 0.00015
18.42000 6747.84311 6587.63342 0.00015
18.42400 6698.56538 6600.45054 0.00015
18.42800 6677.52223 6614.11752 0.00015
18.43200 6759.67399 6628.70084 0.00015
18.43600 6746.59345 6644.27221 0.00015
18.44000 6771.28842 6660.90889 0.00015
18.44400 6778.84986 6678.69393 0.00015
18.44800 6813.33742 6697.71654 0.00015
18.45200 6737.44876 6718.07164 0.00015
18.45600 6641.35632 6739.85764 0.00015
18.46000 6817.41086 6763.18111 0.00015
18.46400 6854.09347 6788.15245 0.00015
18.46800 6937.86425 6814.88526 0.00014
18.47200 6968.59281 6843.49495 0.00014
18.47600 6777.50785 6874.09634 0.00015
18.48000 6868.09825 6906.80036 0.00015
18.48400 7066.22740 6941.70973 0.00014
18.48800 6930.07989 6978.91306 0.00014
18.49200 7181.45459 7018.47751 0.00014
18.49600 7360.33262 7060.43940 0.00014
18.50000 7275.64785 7104.79282 0.00014
18.50400 7321.61491 7151.47577 0.00014
18.50800 7437.12304 7200.35426 0.00013
18.51200 7357.87379 7251.20467 0.00014
18.51600 7426.42311 7303.69497 0.00013
18.52000 7583.29534 7357.36641 0.00013
18.52400 7632.64116 7411.61773 0.00013
18.52800 7660.94114 7465.69476 0.00013
18.53200 7779.27110 7518.68883 0.00013
18.53600 7838.09743 7569.54777 0.00013
18.54000 7795.14434 7617.10280 0.00013
18.54400 7943.17869 7660.11371 0.00013
18.54800 8038.44208 7697.33180 0.00012
18.55200 8010.85033 7727.57734 0.00012
18.55600 7996.07643 7749.82490 0.00013
18.56000 8240.54163 7763.28632 0.00012
18.56400 8110.88788 7767.47984 0.00012
18.56800 8106.98003 7762.27483 0.00012
18.57200 7943.30912 7747.90463 0.00013
18.57600 8047.06898 7724.94512 0.00012
18.58000 8087.76005 7694.26256 0.00012
18.58400 8127.11256 7656.93933 0.00012
18.58800 8027.54756 7614.18880 0.00012
18.59200 7826.18296 7567.27064 0.00013
18.59600 7722.30134 7517.41605 0.00013
18.60000 7814.04581 7465.76905 0.00013
18.60400 7866.20649 7413.34649 0.00013
18.60800 7757.39414 7361.01656 0.00013
18.61200 7532.22636 7309.49520 0.00013
18.61600 7572.37417 7259.34641 0.00013
18.62000 7554.78167 7210.97084 0.00013
18.62400 7400.80160 7164.67050 0.00014
18.62800 7294.79251 7120.64782 0.00014
18.63200 7287.60905 7079.01429 0.00014
18.63600 7338.34204 7039.81451 0.00014
18.64000 7298.86604 7003.04149 0.00014
18.64400 7121.40959 6968.64978 0.00014
18.64800 7005.35126 6936.56643 0.00014
18.65200 7040.76298 6906.69953 0.00014
18.65600 7076.02898 6878.94527 0.00014
18.66000 6967.53023 6853.19323 0.00014
18.66400 6964.15809 6829.33033 0.00014
18.66800 6920.52021 6807.24388 0.00014
18.67200 6899.56964 6786.82373 0.00014
18.67600 6869.82618 6767.96362 0.00015
18.68000 6888.73023 6750.56229 0.00015
18.68400 6811.75029 6734.52409 0.00015
18.68800 6789.71193 6719.75918 0.00015
18.69200 6830.37363 6706.18373 0.00015
18.69600 6658.66406 6693.71988 0.00015
18.70000 6770.00420 6682.29553 0.00015
18.70400 6772.78188 6671.84419 0.00015
18.70800 6851.86631 6662.30472 0.00015
18.71200 6779.87574 6653.62098 0.00015
18.71600 6712.22923 6645.74163 0.00015
18.72000 6654.89292 6638.61976 0.00015
18.72400 6718.69344 6632.21260 0.00015
18.72800 6599.57237 6626.48131 0.00015
18.73200 6798.38196 6621.39058 0.00015
18.73600 6715.67137 6616.90850 0.00015
18.74000 6730.83431 6613.00626 0.00015
18.74400 6547.42743 6609.65790 0.00015
18.74800 6587.30093 6606.84020 0.00015
18.75200 6542.61342 6604.53236 0.00015
18.75600 6548.47487 6602.71589 0.00015
18.76000 6569.12520 6601.37450 0.00015
18.76400 6512.76844 6600.49382 0.00015
18.76800 6620.89563 6600.06141 0.00015
18.77200 6756.31883 6600.06651 0.00015
18.77600 6553.87244 6600.50000 0.00015
18.78000 6559.49231 6601.35431 0.00015
18.78400 6665.38126 6602.62325 0.00015
18.78800 6649.02241 6604.30202 0.00015
18.79200 6527.57463 6606.38705 0.00015
18.79600 6653.96231 6608.87606 0.00015
18.80000 6605.51399 6611.77074 0.00015
18.80400 6663.23403 6615.08104 0.00015
18.80800 6748.94202 6618.81338 0.00015
18.81200 6649.95287 6622.94191 0.00015
18.81600 6481.69694 6627.45374 0.00015
18.82000 6710.83659 6632.37780 0.00015
18.82400 6674.49787 6637.71887 0.00015
18.82800 6716.46849 6643.48263 0.00015
18.83200 6697.27795 6649.67561 0.00015
18.83600 6676.24579 6656.30532 0.00015
18.84000 6671.48735 6663.38010 0.00015
18.84400 6679.82907 6670.90932 0.00015
18.84800 6663.95730 6678.90320 0.00015
18.85200 6778.27955 6687.37305 0.00015
18.85600 6649.43735 6696.33123 0.00015
18.86000 6759.45341 6705.79123 0.00015
18.86400 6736.68078 6715.76781 0.00015
18.86800 6736.97199 6726.27702 0.00015
18.87200 6609.95367 6737.33642 0.00015
18.87600 6773.02840 6748.96512 0.00015
18.88000 6762.16315 6761.18404 0.00015
18.88400 6784.26166 6774.01596 0.00015
18.88800 6754.81949 6787.48597 0.00015
18.89200 6798.88629 6801.62152 0.00015
18.89600 6738.03195 6816.45101 0.00015
18.90000 6659.68608 6832.00724 0.00015
18.90400 6751.16134 6848.32512 0.00015
18.90800 6940.29307 6865.44229 0.00014
18.91200 6783.69356 6883.39933 0.00015
18.91600 6692.13498 6902.23958 0.00015
18.92000 6979.08009 6922.00924 0.00014
18.92400 6816.44717 6942.75694 0.00015
18.92800 6883.13339 6964.53364 0.00015
18.93200 6847.70554 6987.39200 0.00015
18.93600 6882.76340 7011.38593 0.00015
18.94000 6874.50266 7036.56957 0.00015
18.94400 6973.90038 7062.99650 0.00014
18.94800 6990.87220 7090.71827 0.00014
18.95200 7115.07535 7119.78310 0.00014
18.95600 7158.49268 7150.23388 0.00014
18.96000 7146.44569 7182.10633 0.00014
18.96400 7175.49361 7215.42639 0.00014
18.96800 7260.57187 7250.20772 0.00014
18.97200 7376.54473 7286.44869 0.00014
18.97600 7337.08467 7324.12925 0.00014
18.98000 7154.99527 7363.20748 0.00014
18.98400 7415.68264 7403.61618 0.00013
18.98800 7505.83333 7445.25950 0.00013
18.99200 7460.97428 7488.00956 0.00013
18.99600 7348.47551 7531.70368 0.00014
19.00000 7280.74669 7576.14190 0.00014
19.00400 7306.09585 7621.08553 0.00014
19.00800 7395.49388 7666.25646 0.00014
19.01200 7490.22684 7711.33770 0.00013
19.01600 7517.85490 7755.97531 0.00013
19.02000 7595.71049 7799.78160 0.00013
19.02400 7623.06257 7842.33998 0.00013
19.02800 7659.59425 7883.21109 0.00013
19.03200 7764.61502 7921.94076 0.00013
19.03600 7696.23995 7958.06903 0.00013
19.04000 7782.35712 7991.14105 0.00013
19.04400 7829.33227 8020.71885 0.00013
19.04800 7878.48669 8046.39420 0.00013
19.05200 8014.77103 8067.80329 0.00012
19.05600 7965.13969 8084.64127 0.00013
19.06000 7984.75160 8096.67610 0.00013
19.06400 7882.34079 8103.76144 0.00013
19.06800 7973.86810 8105.84703 0.00013
19.07200 8101.33280 8102.98525 0.00012
19.07600 7920.95421 8095.33253 0.00013
19.08000 7995.18793 8083.14546 0.00013
19.08400 7995.21060 8066.77092 0.00013
19.08800 7919.26225 8046.63092 0.00013
19.09200 7914.59497 8023.20606 0.00013
19.09600 7864.30990 7997.01698 0.00013
19.10000 7966.99840 7968.58862 0.00013
19.10400 7887.54686 7938.39569 0.00013
19.10800 7815.67082 7906.94397 0.00013
19.11200 7889.56387 7874.65084 0.00013
19.11600 7930.90575 7841.90178 0.00013
19.12000 7736.98935 7809.00578 0.00013
19.12400 7683.97497 7776.20122 0.00013
19.12800 7686.61555 7743.65749 0.00013
19.13200 7723.19183 7711.47906 0.00013
19.13600 7572.94302 7679.71237 0.00013
19.14000 7548.67146 7648.35475 0.00013
19.14400 7633.97364 7617.36490 0.00013
19.14800 7460.38229 7586.67416 0.00013
19.15200 7426.15788 7556.19782 0.00013
19.15600 7278.16374 7525.84617 0.00014
19.16000 7388.27343 7495.53455 0.00014
19.16400 7465.09026 7465.19258 0.00013
19.16800 7334.84159 7434.76870 0.00014
19.17200 7445.87338 7404.22906 0.00013
19.17600 7301.64058 7373.57415 0.00014
19.18000 7334.26837 7342.82804 0.00014
19.18400 7203.90207 7312.03784 0.00014
19.18800 7306.20261 7281.27103 0.00014
19.19200 7083.40735 7250.61098 0.00014
19.19600 6992.61510 7220.15185 0.00014
19.20000 7237.61540 7189.99355 0.00014
19.20400 7077.96619 7160.23707 0.00014
19.20800 7006.52157 7130.98031 0.00014
19.21200 6883.13351 7102.31458 0.00015
19.21600 7023.80511 7074.32230 0.00014
19.22000 7244.17572 7047.07730 0.00014
19.22400 7055.35144 7020.64217 0.00014
19.22800 7189.42513 6995.05489 0.00014
19.23200 7057.09052 6970.35604 0.00014
19.23600 7064.87540 6946.58066 0.00014
19.24000 7023.71006 6923.73945 0.00014
19.24400 6914.26724 6901.81248 0.00014
19.24800 6725.08759 6880.81705 0.00015
19.25200 6694.20847 6860.74482 0.00015
19.25600 6882.79984 6841.58345 0.00015
19.26000 6834.11262 6823.32116 0.00015
19.26400 6740.70634 6805.92731 0.00015
19.26800 6717.10407 6789.36098 0.00015
19.27200 6634.52503 6773.60659 0.00015
19.27600 6723.31976 6758.63024 0.00015
19.28000 6689.20471 6744.40775 0.00015
19.28400 6660.59691 6730.90917 0.00015
19.28800 6690.36049 6718.10464 0.00015
19.29200 6737.69010 6705.96571 0.00015
19.29600 6735.99582 6694.46471 0.00015
19.30000 6689.79808 6683.56748 0.00015
19.30400 6808.36635 6673.25029 0.00015
19.30800 6679.74864 6663.48684 0.00015
19.31200 6639.95713 6654.25190 0.00015
19.31600 6577.00160 6645.52135 0.00015
19.32000 6672.98509 6637.27219 0.00015
19.32400 6681.44063 6629.48259 0.00015
19.32800 6699.93878 6622.13180 0.00015
19.33200 6646.30671 6615.20018 0.00015
19.33600 6559.18424 6608.66921 0.00015
19.34000 6608.25346 6602.52138 0.00015
19.34400 6611.97528 6596.74020 0.00015
19.34800 6640.20048 6591.31018 0.00015
19.35200 6565.25792 6586.21672 0.00015
19.35600 6591.20252 6581.44615 0.00015
19.36000 6489.13711 6576.98568 0.00015
19.36400 6546.50160 6572.82328 0.00015
19.36800 6647.12552 6568.94773 0.00015
19.37200 6594.57705 6565.34859 0.00015
19.37600 6493.26597 6562.01623 0.00015
19.38000 6581.42439 6558.94128 0.00015
19.38400 6541.73216 6556.11522 0.00015
19.38800 6519.78588 6553.53033 0.00015
19.39200 6500.32419 6551.17934 0.00015
19.39600 6493.15389 6549.05551 0.00015
19.40000 6600.28091 6547.15266 0.00015
19.40400 6600.43291 6545.46509 0.00015
19.40800 6460.41392 6543.98757 0.00015
19.41200 6522.82275 6542.71536 0.00015
19.41600 6540.18930 6541.64414 0.00015
19.42000 6465.59771 6540.77001 0.00015
19.42400 6462.53021 6540.08952 0.00015
19.42800 6457.49973 6539.59955 0.00015
19.43200 6493.06523 6539.29740 0.00015
19.43600 6472.70206 6539.18073 0.00015
19.44000 6443.74422 6539.24756 0.00016
19.44400 6415.85252 6539.49626 0.00016
19.44800 6537.75772 6539.92554 0.00015
19.45200 6493.79446 6540.53446 0.00015
19.45600 6426.51557 6541.32238 0.00016
19.46000 6430.61502 6542.28900 0.00016
19.46400 6444.10144 6543.43435 0.00016
19.46800 6560.68398 6544.75879 0.00015
19.47200 6416.91714 6546.26297 0.00016
19.47600 6524.84026 6547.94791 0.00015
19.48000 6429.24713 6549.81490 0.00016
19.48400 6330.73990 6551.86559 0.00016
19.48800 6427.04260 6554.10194 0.00016
19.49200 6470.37667 6556.52628 0.00015
19.49600 6378.77345 6559.14124 0.00016
19.50000 6462.15016 6561.94983 0.00015
19.50400 6507.62753 6564.95540 0.00015
19.50800 6552.17855 6568.16171 0.00015
19.51200 6488.20225 6571.57284 0.00015
19.51600 6409.54260 6575.19331 0.00016
19.52000 6453.60324 6579.02804 0.00015
19.52400 6557.08082 6583.08238 0.00015
19.52800 6525.91214 6587.36210 0.00015
19.53200 6449.33940 6591.87347 0.00016
19.53600 6508.22045 6596.62322 0.00015
19.54000 6524.34744 6601.61862 0.00015
19.54400 6594.48668 6606.86810 0.00015
19.54800 6554.47855 6612.38421 0.00015
19.55200 6541.80298 6618.17873 0.00015
19.55600 6540.06005 6624.24191 0.00015
19.56000 6483.28120 6630.59408 0.00015
19.56400 6393.06070 6637.24769 0.00016
19.56800 6461.88871 6644.21448 0.00015
19.57200 6607.84052 6651.50707 0.00015
19.57600 6601.49800 6659.13846 0.00015
19.58000 6662.17678 6667.12299 0.00015
19.58400 6655.33227 6675.47672 0.00015
19.58800 6655.37157 6684.21358 0.00015
19.59200 6610.79899 6693.35118 0.00015
19.59600 6473.67359 6702.90823 0.00015
19.60000 6475.72844 6712.90411 0.00015
19.60400 6551.54343 6723.35942 0.00015
19.60800 6637.34760 6734.29610 0.00015
19.61200 6625.25479 6745.73743 0.00015
19.61600 6635.73541 6757.70821 0.00015
19.62000 6510.06831 6770.23474 0.00015
19.62400 6643.90841 6783.34498 0.00015
19.62800 6665.37274 6797.06856 0.00015
19.63200 6622.01484 6811.43694 0.00015
19.63600 6682.93694 6826.48346 0.00015
19.64000 6618.11022 6842.24341 0.00015
19.64400 6762.37039 6858.75412 0.00015
19.64800 6845.68417 6876.05508 0.00015
19.65200 6894.64909 6894.18789 0.00015
19.65600 6863.11030 6913.19644 0.00015
19.66000 6841.78970 6933.12686 0.00015
19.66400 6917.62864 6954.02755 0.00014
19.66800 6945.80990 6975.94919 0.00014
19.67200 6892.82668 6998.94464 0.00015
19.67600 6861.84402 7023.06886 0.00015
19.68000 6942.81390 7048.37874 0.00014
19.68400 6930.32322 7074.93285 0.00014
19.68800 7005.90739 7102.79112 0.00014
19.69200 7224.82055 7132.01439 0.00014
19.69600 7207.76012 7162.66394 0.00014
19.70000 7200.93958 7194.80109 0.00014
19.70400 7066.88019 7228.48743 0.00014
19.70800 7201.05831 7263.78244 0.00014
19.71200 7292.78227 7300.72815 0.00014
19.71600 7409.70021 7339.37266 0.00013
19.72000 7486.75373 7379.75983 0.00013
19.72400 7534.51305 7421.92113 0.00013
19.72800 7503.92166 7465.87683 0.00013
19.73200 7629.77650 7511.61936 0.00013
19.73600 7570.23323 7559.11782 0.00013
19.74000 7586.68158 7608.33688 0.00013
19.74400 7817.14799 7659.20210 0.00013
19.74800 7751.20367 7711.60507 0.00013
19.75200 7844.12361 7765.39834 0.00013
19.75600 7961.90217 7820.39047 0.00013
19.76000 7901.96379 7876.34156 0.00013
19.76400 8042.07508 7932.95932 0.00012
19.76800 8066.48762 7989.89662 0.00012
19.77200 8189.94089 8046.75061 0.00012
19.77600 8469.80831 8103.06425 0.00012
19.78000 8329.61905 8158.33084 0.00012
19.78400 8409.61049 8212.00183 0.00012
19.78800 8644.94623 8263.49826 0.00012
19.79200 8549.55245 8312.22599 0.00012
19.79600 8684.58174 8357.59437 0.00012
19.80000 8788.65271 8399.03765 0.00011
19.80400 8794.82927 8436.03816 0.00011
19.80800 8859.43131 8468.14943 0.00011
19.81200 8960.59172 8495.01783 0.00011
19.81600 9126.38871 8516.40122 0.00011
19.82000 9082.96662 8532.18204 0.00011
19.82400 9125.45618 8542.37462 0.00011
19.82800 8878.80511 8547.12565 0.00011
19.83200 9024.55538 8546.70549 0.00011
19.83600 9078.29527 8541.49353 0.00011
19.84000 9144.06291 8531.96377 0.00011
19.84400 9160.82748 8518.66006 0.00011
19.84800 8986.99627 8502.15919 0.00011
19.85200 8843.94595 8483.15375 0.00011
19.85600 8970.37173 8462.12839 0.00011
19.86000 8901.54575 8439.96429 0.00011
19.86400 8756.37753 8417.08347 0.00011
19.86800 8598.91176 8394.02000 0.00012
19.87200 8799.89723 8371.25456 0.00011
19.87600 8578.75879 8349.20902 0.00012
19.88000 8530.06388 8328.24390 0.00012
19.88400 8450.62008 8308.65824 0.00012
19.88800 8413.15761 8290.69123 0.00012
19.89200 8356.78241 8274.52498 0.00012
19.89600 8345.06257 8260.28817 0.00012
19.90000 8245.68344 8248.05993 0.00012
19.90400 8404.59505 8237.87386 0.00012
19.90800 8250.33274 8229.72212 0.00012
19.91200 8274.28621 8223.55902 0.00012
19.91600 8180.94927 8219.30448 0.00012
19.92000 8098.18637 8216.84734 0.00012
19.92400 8172.33919 8216.04819 0.00012
19.92800 7979.35330 8216.74217 0.00013
19.93200 8093.99734 8218.74183 0.00012
19.93600 8143.93637 8221.83974 0.00012
19.94000 8259.87900 8225.81139 0.00012
19.94400 8297.23021 8230.41848 0.00012
19.94800 8201.26172 8235.41223 0.00012
19.95200 8195.17519 8240.53718 0.00012
19.95600 8205.84529 8245.53544 0.00012
19.96000 8200.00586 8250.15119 0.00012
19.96400 8364.50905 8254.13727 0.00012
19.96800 8301.87034 8257.26070 0.00012
19.97200 8305.52849 8259.29505 0.00012
19.97600 8545.86555 8260.03027 0.00012
19.98000 8397.82948 8259.30278 0.00012
19.98400 8406.15415 8256.96898 0.00012
19.98800 8475.76331 8252.91827 0.00012
19.99200 8520.02742 8247.07520 0.00012
19.99600 8645.08000 8239.40074 0.00012
20.00000 8565.30138 8229.89243 0.00012
20.00400 8642.68903 8218.58338 0.00012
20.00800 8479.30671 8205.54032 0.00012
20.01200 8698.39561 8190.86073 0.00011
20.01600 8736.69755 8174.66917 0.00011
20.02000 8594.93264 8157.11300 0.00012
20.02400 8595.35596 8138.35799 0.00012
20.02800 8519.41536 8118.58346 0.00012
20.03200 8409.75719 8097.97770 0.00012
20.03600 8458.94622 8076.73355 0.00012
20.04000 8402.47034 8055.04433 0.00012
20.04400 8316.52103 8033.10027 0.00012
20.04800 8334.90362 8011.08546 0.00012
20.05200 8239.29872 7989.17531 0.00012
20.05600 8248.97950 7967.53512 0.00012
20.06000 8365.04652 7946.31854 0.00012
20.06400 8199.55990 7925.66296 0.00012
20.06800 8080.55724 7905.69778 0.00012
20.07200 7974.51118 7886.53870 0.00013
20.07600 7949.33626 7868.27826 0.00013
20.08000 7857.39621 7851.00639 0.00013
20.08400 7941.98429 7834.79922 0.00013
20.08800 7981.64590 7819.72020 0.00013
20.09200 7851.21219 7805.82198 0.00013
20.09600 7824.81140 7793.14717 0.00013
20.10000 7947.93850 7781.72915 0.00013
20.10400 7784.68770 7771.59270 0.00013
20.10800 7722.52487 7762.75333 0.00013
20.11200 7803.23110 7755.21940 0.00013
20.11600 7832.58520 7748.99201 0.00013
20.12000 7792.78939 7744.06443 0.00013
20.12400 7825.98190 7740.42236 0.00013
20.12800 7766.86848 7738.04370 0.00013
20.13200 7734.15841 7736.89843 0.00013
20.13600 7837.33323 7736.94841 0.00013
20.14000 7846.28381 7738.14731 0.00013
20.14400 7772.48607 7740.44092 0.00013
20.14800 7673.96699 7743.76788 0.00013
20.15200 7702.80351 7748.06098 0.00013
20.15600 7813.15336 7753.24922 0.00013
20.16000 7880.72159 7759.26057 0.00013
20.16400 7815.99148 7766.02525 0.00013
20.16800 7761.71611 7773.48024 0.00013
20.17200 7690.42652 7781.57285 0.00013
20.17600 7761.73083 7790.25637 0.00013
20.18000 7811.86571 7799.50395 0.00013
20.18400 7747.13046 7809.30440 0.00013
20.18800 7694.97018 7819.65947 0.00013
20.19200 7741.63468 7830.58345 0.00013
20.19600 7743.53009 7842.10042 0.00013
20.20000 7692.89590 7854.24099 0.00013
20.20400 7768.78062 7867.03929 0.00013
20.20800 7895.39309 7880.53033 0.00013
20.21200 7937.52157 7894.74798 0.00013
20.21600 7779.56869 7909.72363 0.00013
20.22000 7985.31150 7925.48642 0.00013
20.22400 7960.12951 7942.06351 0.00013
20.22800 8054.81150 7959.47466 0.00012
20.23200 8034.61608 7977.73686 0.00012
20.23600 8073.47772 7996.87164 0.00012
20.24000 8084.37220 8016.89600 0.00012
20.24400 8186.73856 8037.82603 0.00012
20.24800 8149.25932 8059.67692 0.00012
20.25200 8142.67891 8082.46262 0.00012
20.25600 8126.40875 8106.19568 0.00012
20.26000 8163.76358 8130.88828 0.00012
20.26400 8249.60117 8156.54857 0.00012
20.26800 8153.60611 8183.17970 0.00012
20.27200 8185.23536 8210.76768 0.00012
20.27600 8166.12034 8239.34064 0.00012
20.28000 8227.06248 8268.86181 0.00012
20.28400 8265.04233 8299.30350 0.00012
20.28800 8303.52956 8330.62440 0.00012
20.29200 8291.37913 8362.76704 0.00012
20.29600 8362.45314 8395.65553 0.00012
20.30000 8418.48589 8429.19121 0.00012
20.30400 8490.01670 8463.24387 0.00012
20.30800 8348.60650 8497.65972 0.00012
20.31200 8317.79275 8532.25245 0.00012
20.31600 8402.80005 8566.79600 0.00012
20.32000 8489.06501 8601.02431 0.00012
20.32400 8496.34505 8634.63113 0.00012
20.32800 8548.53195 8667.26515 0.00012
20.33200 8404.69121 8698.53138 0.00012
20.33600 8471.68184 8727.99349 0.00012
20.34000 8547.82610 8755.17891 0.00012
20.34400 8596.97710 8779.58743 0.00012
20.34800 8618.96659 8800.70334 0.00012
20.35200 8449.61178 8818.01169 0.00012
20.35600 8377.48802 8831.01788 0.00012
20.36000 8463.46077 8839.26983 0.00012
20.36400 8515.35250 8842.38160 0.00012
20.36800 8453.40149 8840.05644 0.00012
20.37200 8473.49208 8832.10593 0.00012
20.37600 8445.23665 8818.46696 0.00012
20.38000 8245.26716 8799.20918 0.00012
20.38400 8320.07412 8774.53582 0.00012
20.38800 8181.97471 8744.77641 0.00012
20.39200 8197.24868 8710.37240 0.00012
20.39600 8189.45048 8671.85596 0.00012
20.40000 8173.21495 8629.82345 0.00012
20.40400 8088.54216 8584.92081 0.00012
20.40800 8193.94169 8537.78470 0.00012
20.41200 8080.85138 8489.11171 0.00012
20.41600 8192.27396 8439.48867 0.00012
20.42000 8177.80535 8389.48456 0.00012
20.42400 8015.86365 8339.61897 0.00012
20.42800 8029.15122 8290.35272 0.00012
20.43200 7899.24992 8242.08220 0.00013
20.43600 8048.74040 8195.14184 0.00012
20.44000 7904.37190 8149.80722 0.00013
20.44400 7810.43442 8106.29963 0.00013
20.44800 7798.68943 8064.79167 0.00013
20.45200 7833.13375 8025.41319 0.00013
20.45600 7856.86901 7988.25729 0.00013
20.46000 7780.32504 7953.38606 0.00013
20.46400 7852.76485 7920.83584 0.00013
20.46800 7808.83443 7890.62207 0.00013
20.47200 7738.87939 7862.74333 0.00013
20.47600 7663.39110 7837.18496 0.00013
20.48000 7657.99388 7813.92195 0.00013
20.48400 7583.58137 7792.92149 0.00013
20.48800 7633.42562 7774.14479 0.00013
20.49200 7507.15010 7757.54890 0.00013
20.49600 7599.20677 7743.08752 0.00013
20.50000 7513.18728 7730.71020 0.00013
20.50400 7606.97204 7720.36529 0.00013
20.50800 7613.00875 7711.99982 0.00013
20.51200 7542.37507 7705.55794 0.00013
20.51600 7507.77870 7700.98133 0.00013
20.52000 7555.14324 7698.20861 0.00013
20.52400 7478.73768 7697.17462 0.00013
20.52800 7457.53104 7697.80963 0.00013
20.53200 7535.38455 7700.03836 0.00013
20.53600 7587.04630 7703.77888 0.00013
20.54000 7594.96369 7708.94149 0.00013
20.54400 7630.94913 7715.42764 0.00013
20.54800 7547.34225 7723.12877 0.00013
20.55200 7693.67164 7731.92533 0.00013
20.55600 7740.13589 7741.68589 0.00013
20.56000 7739.25300 7752.26658 0.00013
20.56400 7750.52648 7763.51085 0.00013
20.56800 7677.23675 7775.24954 0.00013
20.57200 7873.31150 7787.30164 0.00013
20.57600 7849.53112 7799.47551 0.00013
20.58000 7941.40533 7811.57078 0.00013
20.58400 7871.79945 7823.38107 0.00013
20.58800 7931.88782 7834.69731 0.00013
20.59200 7876.28895 7845.31163 0.00013
20.59600 7902.69310 7855.02200 0.00013
20.60000 8022.78881 7863.63710 0.00012
20.60400 8141.86689 7870.98149 0.00012
20.60800 8128.46019 7876.90072 0.00012
20.61200 8238.12596 7881.26632 0.00012
20.61600 8177.96390 7883.97847 0.00012
20.62000 8254.33262 7884.97042 0.00012
20.62400 8295.42496 7884.21153 0.00012
20.62800 8172.13555 7881.70650 0.00012
20.63200 8386.46698 7877.49569 0.00012
20.63600 8322.13848 7871.65350 0.00012
20.64000 8323.89454 7864.28390 0.00012
20.64400 8408.17891 7855.52043 0.00012
20.64800 8313.86025 7845.51292 0.00012
20.65200 8374.33069 7834.43298 0.00012
20.65600 8412.51611 7822.46487 0.00012
20.66000 8404.51381 7809.79887 0.00012
20.66400 8231.45353 7796.62905 0.00012
20.66800 8287.25908 7783.14310 0.00012
20.67200 8164.48848 7769.51818 0.00012
20.67600 8282.52144 7755.93322 0.00012
20.68000 8165.86839 7742.55212 0.00012
20.68400 8043.86954 7729.52520 0.00012
20.68800 8052.31558 7716.98119 0.00012
20.69200 7921.92878 7705.04545 0.00013
20.69600 7768.20506 7693.82705 0.00013
20.70000 7905.99223 7683.41416 0.00013
20.70400 7847.56576 7673.87578 0.00013
20.70800 7877.14727 7665.28359 0.00013
20.71200 7632.03786 7657.69004 0.00013
20.71600 7729.36165 7651.13651 0.00013
20.72000 7778.39467 7645.65442 0.00013
20.72400 7549.71124 7641.26610 0.00013
20.72800 7661.55055 7637.98584 0.00013
20.73200 7698.51363 7635.82077 0.00013
20.73600 7553.57711 7634.77168 0.00013
20.74000 7523.89321 7634.83370 0.00013
20.74400 7561.57702 7635.99704 0.00013
20.74800 7528.78908 7638.24748 0.00013
20.75200 7576.03591 7641.56690 0.00013
20.75600 7496.83808 7645.93368 0.00013
20.76000 7432.84971 7651.32302 0.00013
20.76400 7472.89347 7657.70733 0.00013
20.76800 7484.47244 7665.05637 0.00013
20.77200 7465.79707 7673.33754 0.00013
20.77600 7498.17825 7682.51602 0.00013
20.78000 7677.64447 7692.55498 0.00013
20.78400 7627.79666 7703.41564 0.00013
20.78800 7549.23164 7715.05736 0.00013
20.79200 7565.72144 7727.43808 0.00013
20.79600 7561.52639 7740.51427 0.00013
20.80000 7549.10653 7754.24107 0.00013
20.80400 7615.60444 7768.57248 0.00013
20.80800 7657.73650 7783.46167 0.00013
20.81200 7434.21704 7798.86115 0.00013
20.81600 7535.40907 7814.72463 0.00013
20.82000 7637.41196 7831.00583 0.00013
20.82400 7648.53449 7847.64694 0.00013
20.82800 7717.10326 7864.60573 0.00013
20.83200 7611.05830 7881.83469 0.00013
20.83600 7550.21139 7899.28704 0.00013
20.84000 7668.27531 7916.91679 0.00013
20.84400 7748.45721 7934.67890 0.00013
20.84800 7704.40560 7952.52919 0.00013
20.85200 7590.26175 7970.42444 0.00013
20.85600 7637.83435 7988.32202 0.00013
20.86000 7843.93926 8006.17961 0.00013
20.86400 7801.43717 8023.95472 0.00013
20.86800 7861.32351 8041.60399 0.00013
20.87200 7802.77297 8059.08248 0.00013
20.87600 7806.46351 8076.34314 0.00013
20.88000 7817.56982 8093.33525 0.00013
20.88400 7963.75855 8110.00022 0.00013
20.88800 7942.67670 8126.27463 0.00013
20.89200 7778.31913 8142.08919 0.00013
20.89600 7913.40430 8157.36424 0.00013
20.90000 7901.99701 8172.01090 0.00013
20.90400 7991.11767 8185.92878 0.00013
20.90800 7899.88354 8198.99763 0.00013
20.91200 8045.21018 8211.09149 0.00012
20.91600 7925.28369 8222.07316 0.00013
20.92000 8098.78731 8231.79176 0.00012
20.92400 8080.79435 8240.08637 0.00012
20.92800 7948.87159 8246.78840 0.00013
20.93200 7977.91596 8251.72494 0.00013
20.93600 7987.90612 8254.72266 0.00013
20.94000 7982.29648 8255.61253 0.00013
20.94400 8032.57141 8254.23587 0.00012
20.94800 8036.17303 8250.44955 0.00012
20.95200 7935.07672 8244.12571 0.00013
20.95600 8046.20618 8235.16945 0.00012
20.96000 7986.17982 8223.51420 0.00013
20.96400 8047.11706 8209.12789 0.00012
20.96800 8033.27272 8192.01562 0.00012
20.97200 7980.46043 8172.22085 0.00013
20.97600 7836.49813 8149.82527 0.00013
20.98000 7765.02854 8124.94753 0.00013
20.98400 7847.01652 8097.73953 0.00013
20.98800 7826.28327 8068.37846 0.00013
20.99200 7700.47576 8037.06818 0.00013
20.99600 7799.46655 8004.03191 0.00013
21.00000 7966.47164 7969.50375 0.00013
21.00400 7786.20938 7933.72389 0.00013
21.00800 7683.82087 7896.93331 0.00013
21.01200 7717.34742 7859.36883 0.00013
21.01600 7698.87212 7821.25793 0.00013
21.02000 7673.39966 7782.81499 0.00013
21.02400 7688.81002 7744.24140 0.00013
21.02800 7933.65077 7705.72085 0.00013
21.03200 7637.69062 7667.41900 0.00013
21.03600 7497.56100 7629.48304 0.00013
21.04000 7358.22056 7592.04175 0.00014
21.04400 7471.40610 7555.20592 0.00013
21.04800 7409.20671 7519.06928 0.00013
21.05200 7459.47310 7483.70953 0.00013
21.05600 7350.23350 7449.18965 0.00014
21.06000 7406.22989 7415.55927 0.00014
21.06400 7415.79924 7382.85601 0.00013
21.06800 7379.27123 7351.10689 0.00014
21.07200 7392.34417 7320.32960 0.00014
21.07600 7292.02268 7290.53382 0.00014
21.08000 7123.14006 7261.72238 0.00014
21.08400 7214.06183 7233.89289 0.00014
21.08800 7190.04981 7207.04172 0.00014
21.09200 7227.78608 7181.15860 0.00014
21.09600 7277.65234 7156.20981 0.00014
21.10000 7260.98830 7132.18978 0.00014
21.10400 7109.59185 7109.07881 0.00014
21.10800 7129.43580 7086.85574 0.00014
21.11200 7081.70991 7065.49829 0.00014
21.11600 7085.92085 7044.98348 0.00014
21.12000 7161.85394 7025.28784 0.00014
21.12400 7047.22589 7006.38778 0.00014
21.12800 6969.07692 6988.26145 0.00014
21.13200 7106.39462 6970.88838 0.00014
21.13600 7093.41910 6954.23716 0.00014
21.14000 7092.52424 6938.28499 0.00014
21.14400 7001.97458 6923.01258 0.00014
21.14800 6890.42085 6908.39773 0.00015
21.15200 7044.02512 6894.41866 0.00014
21.15600 6976.61050 6881.05392 0.00014
21.16000 6923.21206 6868.28234 0.00014
21.16400 6981.38998 6856.08297 0.00014
21.16800 6991.62942 6844.43505 0.00014
21.17200 6969.73441 6833.31789 0.00014
21.17600 6908.44369 6822.71083 0.00014
21.18000 6872.91388 6812.59319 0.00015
21.18400 6841.11488 6802.94424 0.00015
21.18800 6805.05065 6793.74322 0.00015
21.19200 6783.80969 6784.96942 0.00015
21.19600 6796.80843 6776.60223 0.00015
21.20000 6763.19855 6768.62139 0.00015
21.20400 6790.04503 6761.00719 0.00015
21.20800 6847.64647 6753.74076 0.00015
21.21200 6848.60551 6746.80460 0.00015
21.21600 6690.46715 6740.18458 0.00015
21.22000 6730.87060 6733.87033 0.00015
21.22400 6781.75239 6727.84310 0.00015
21.22800 6661.61524 6722.08534 0.00015
21.23200 6723.33147 6716.59776 0.00015
21.23600 6697.71502 6711.37568 0.00015
21.24000 6644.93459 6706.41675 0.00015
21.24400 6817.91287 6701.72082 0.00015
21.24800 6721.77477 6697.28963 0.00015
21.25200 6677.42707 6693.12652 0.00015
21.25600 6659.02173 6689.23594 0.00015
21.26000 6663.58835 6685.62315 0.00015
21.26400 6681.63523 6682.29377 0.00015
21.26800 6810.42226 6679.25362 0.00015
21.27200 6693.94905 6676.50896 0.00015
21.27600 6677.87290 6674.06646 0.00015
21.28000 6667.23625 6671.92844 0.00015
21.28400 6581.13456 6670.09478 0.00015
21.28800 6669.53946 6668.57226 0.00015
21.29200 6630.28753 6667.36329 0.00015
21.29600 6637.30189 6666.47025 0.00015
21.30000 6620.21345 6665.89473 0.00015
21.30400 6611.07807 6665.63286 0.00015
21.30800 6673.67860 6665.68651 0.00015
21.31200 6635.67706 6666.05441 0.00015
21.31600 6705.62309 6666.73465 0.00015
21.32000 6710.45324 6667.72458 0.00015
21.32400 6695.76029 6669.02091 0.00015
21.32800 6715.84849 6670.61958 0.00015
21.33200 6663.40617 6672.51581 0.00015
21.33600 6600.18738 6674.70398 0.00015
21.34000 6629.77671 6677.17758 0.00015
21.34400 6550.21924 6679.92917 0.00015
21.34800 6572.20064 6682.95027 0.00015
21.35200 6603.12962 6686.23115 0.00015
21.35600 6657.07622 6689.76091 0.00015
21.36000 6692.51772 6693.52777 0.00015
21.36400 6684.15658 6697.51904 0.00015
21.36800 6619.31707 6701.71741 0.00015
21.37200 6635.22222 6706.10284 0.00015
21.37600 6728.90283 6710.65828 0.00015
21.38000 6682.01813 6715.36199 0.00015
21.38400 6652.83586 6720.18982 0.00015
21.38800 6640.39542 6725.11504 0.00015
21.39200 6652.85398 6730.10819 0.00015
21.39600 6663.27098 6735.13699 0.00015
21.40000 6775.09897 6740.16759 0.00015
21.40400 6654.71266 6745.16468 0.00015
21.40800 6591.50580 6750.08106 0.00015
21.41200 6620.73993 6754.87019 0.00015
21.41600 6732.44339 6759.48969 0.00015
21.42000 6619.88375 6763.89088 0.00015
21.42400 6551.79835 6768.02178 0.00015
21.42800 6755.03160 6771.83078 0.00015
21.43200 6800.40858 6775.26507 0.00015
21.43600 6755.23979 6778.27198 0.00015
21.44000 6583.87923 6780.79995 0.00015
21.44400 6825.02701 6782.79949 0.00015
21.44800 6630.55070 6784.22427 0.00015
21.45200 6778.21749 6785.03213 0.00015
21.45600 6658.50005 6785.18618 0.00015
21.46000 6728.98724 6784.65573 0.00015
21.46400 6671.49907 6783.41714 0.00015
21.46800 6721.96570 6781.45449 0.00015
21.47200 6698.90745 6778.76011 0.00015
21.47600 6676.29763 6775.33484 0.00015
21.48000 6786.98161 6771.18803 0.00015
21.48400 6783.23010 6766.33736 0.00015
21.48800 6688.00895 6760.80840 0.00015
21.49200 6725.84159 6754.63393 0.00015
21.49600 6728.08907 6747.85310 0.00015
21.50000 6677.82037 6740.51051 0.00015
21.50400 6799.11648 6732.65513 0.00015
21.50800 6695.24921 6724.33918 0.00015
21.51200 6724.79384 6715.61703 0.00015
21.51600 6718.74335 6706.54409 0.00015
21.52000 6684.26256 6697.17588 0.00015
21.52400 6583.78945 6687.56704 0.00015
21.52800 6565.44115 6677.77059 0.00015
21.53200 6575.44657 6667.83811 0.00015
21.53600 6678.67685 6657.82104 0.00015
21.54000 6567.73486 6647.76416 0.00015
21.54400 6548.66366 6637.69947 0.00015
21.54800 6619.24147 6627.66384 0.00015
21.55200 6512.84354 6617.69614 0.00015
21.55600 6564.19034 6607.82636 0.00015
21.56000 6532.54135 6598.08081 0.00015
21.56400 6590.77386 6588.48229 0.00015
21.56800 6535.85688 6579.05027 0.00015
21.57200 6562.75335 6569.80111 0.00015
21.57600 6572.44445 6560.74829 0.00015
21.58000 6591.22121 6551.90265 0.00015
21.58400 6567.80688 6543.27263 0.00015
21.58800 6623.17939 6534.86453 0.00015
21.59200 6571.71166 6526.68272 0.00015
21.59600 6493.45031 6518.72990 0.00015
21.60000 6438.08025 6511.00728 0.00016
21.60400 6567.55309 6503.51478 0.00015
21.60800 6596.55443 6496.25125 0.00015
21.61200 6494.42573 6489.21457 0.00015
21.61600 6494.96973 6482.40184 0.00015
21.62000 6552.94888 6475.80951 0.00015
21.62400 6499.29895 6469.43350 0.00015
21.62800 6530.92624 6463.26929 0.00015
21.63200 6386.51992 6457.31201 0.00016
21.63600 6296.60771 6451.55683 0.00016
21.64000 6433.39938 6445.99924 0.00016
21.64400 6468.08824 6440.63222 0.00015
21.64800 6428.49818 6435.45202 0.00016
21.65200 6414.82386 6430.45004 0.00016
21.65600 6332.46894 6425.62322 0.00016
21.66000 6365.18918 6420.96768 0.00016
21.66400 6286.01552 6416.47282 0.00016
21.66800 6380.39769 6412.13627 0.00016
21.67200 6402.70001 6407.95281 0.00016
21.67600 6408.05567 6403.91733 0.00016
21.68000 6360.96641 6400.02486 0.00016
21.68400 6330.50288 6396.27057 0.00016
21.68800 6472.70920 6392.64974 0.00015
21.69200 6416.05728 6389.15785 0.00016
21.69600 6358.99909 6385.79049 0.00016
21.70000 6375.31829 6382.54341 0.00016
21.70400 6424.60483 6379.41253 0.00016
21.70800 6287.73900 6376.39391 0.00016
21.71200 6325.78396 6373.48375 0.00016
21.71600 6262.57222 6370.67842 0.00016
21.72000 6333.40047 6367.97441 0.00016
21.72400 6284.57477 6365.36837 0.00016
21.72800 6389.14210 6362.85710 0.00016
21.73200 6259.26217 6360.43749 0.00016
21.73600 6301.63841 6358.10673 0.00016
21.74000 6303.93081 6355.86237 0.00016
21.74400 6410.90842 6353.70093 0.00016
21.74800 6306.77999 6351.61977 0.00016
21.75200 6412.02506 6349.61677 0.00016
21.75600 6223.66375 6347.68957 0.00016
21.76000 6275.69909 6345.83593 0.00016
21.76400 6285.77858 6344.05373 0.00016
21.76800 6357.56762 6342.34184 0.00016
21.77200 6365.97374 6340.70023 0.00016
21.77600 6323.26753 6339.12384 0.00016
21.78000 6380.42554 6337.60775 0.00016
21.78400 6324.75860 6336.15377 0.00016
21.78800 6306.89189 6334.76030 0.00016
21.79200 6327.54050 6333.42583 0.00016
21.79600 6295.98368 6332.14891 0.00016
21.80000 6320.98540 6330.92816 0.00016
21.80400 6307.53479 6329.76230 0.00016
21.80800 6194.82548 6328.65007 0.00016
21.81200 6009.65176 6327.59033 0.00017
21.81600 6301.18103 6326.58196 0.00016
21.82000 6234.26633 6325.62391 0.00016
21.82400 6215.35845 6324.71522 0.00016
21.82800 6206.48182 6323.85494 0.00016
21.83200 6134.16584 6323.04221 0.00016
21.83600 6238.26759 6322.27620 0.00016
21.84000 6278.93622 6321.55614 0.00016
21.84400 6259.00677 6320.88132 0.00016
21.84800 6310.92418 6320.25106 0.00016
21.85200 6441.22718 6319.66474 0.00016
21.85600 6320.45839 6319.12178 0.00016
21.86000 6209.36824 6318.62163 0.00016
21.86400 6189.73197 6318.16382 0.00016
21.86800 6254.69751 6317.74788 0.00016
21.87200 6407.79839 6317.37341 0.00016
21.87600 6406.36490 6317.04003 0.00016
21.88000 6440.09612 6316.74741 0.00016
21.88400 6054.82111 6316.49527 0.00017
21.88800 6158.43082 6316.28334 0.00016
21.89200 6254.28153 6316.11140 0.00016
21.89600 6267.50147 6315.97928 0.00016
21.90000 6226.84244 6315.88683 0.00016
21.90400 6255.80267 6315.83393 0.00016
21.90800 6334.34018 6315.82052 0.00016
21.91200 6322.73261 6315.84655 0.00016
21.91600 6159.66569 6315.91202 0.00016
21.92000 6078.76673 6316.01695 0.00016
21.92400 6152.95495 6316.16142 0.00016
21.92800 6117.33191 6316.34552 0.00016
21.93200 6219.18400 6316.56939 0.00016
21.93600 6273.49080 6316.83320 0.00016
21.94000 6298.70221 6317.13715 0.00016
21.94400 6348.25593 6317.48157 0.00016
21.94800 6196.41280 6317.86702 0.00016
21.95200 6106.02666 6318.29307 0.00016
21.95600 6111.47854 6318.76036 0.00016
21.96000 6171.60320 6319.26935 0.00016
21.96400 6272.99707 6319.82048 0.00016
21.96800 6288.76886 6320.41420 0.00016
21.97200 6151.80053 6321.05103 0.00016
21.97600 6239.34791 6321.73151 0.00016
21.98000 6295.03360 6322.45622 0.00016
21.98400 6195.66356 6323.22580 0.00016
21.98800 6124.40523 6324.04091 0.00016
21.99200 6145.81387 6324.90227 0.00016
21.99600 6225.75367 6325.81065 0.00016
22.00000 6104.49280 6326.76686 0.00016
22.00400 6034.22874 6327.77176 0.00017
22.00800 6032.84480 6328.82648 0.00017
22.01200 6078.23141 6329.93325 0.00016
22.01600 6185.53067 6331.09307 0.00016
22.02000 6326.68267 6332.30240 0.00016
22.02400 6173.62037 6333.56554 0.00016
22.02800 6207.40000 6334.88368 0.00016
22.03200 6185.82133 6336.25808 0.00016
22.03600 6281.78032 6337.69007 0.00016
22.04000 6107.86453 6339.18106 0.00016
22.04400 6137.15520 6340.73310 0.00016
22.04800 6285.90187 6342.35341 0.00016
22.05200 6280.99174 6344.04789 0.00016
22.05600 6270.74933 6345.79465 0.00016
22.06000 6291.17760 6347.60659 0.00016
22.06400 6208.39200 6349.49124 0.00016
22.06800 6196.63040 6351.44132 0.00016
22.07200 6158.78400 6353.46396 0.00016
22.07600 6209.54613 6355.56186 0.00016
22.08000 6293.39849 6357.73730 0.00016
22.08400 6328.49031 6359.99269 0.00016
22.08800 6278.79124 6362.33056 0.00016
22.09200 6239.92028 6364.75356 0.00016
22.09600 6246.31604 6367.26448 0.00016
22.10000 6278.57804 6369.86650 0.00016
22.10400 6278.69949 6372.56517 0.00016
22.10800 6394.03724 6375.36558 0.00016
22.11200 6309.82287 6378.25955 0.00016
22.11600 6188.32217 6381.25823 0.00016
22.12000 6228.48957 6384.36385 0.00016
22.12400 6313.37528 6387.58294 0.00016
22.12800 6234.49222 6390.91955 0.00016
22.13200 6226.26439 6394.37268 0.00016
22.13600 6414.35457 6397.95060 0.00016
22.14000 6330.63023 6401.65809 0.00016
22.14400 6331.51493 6405.50018 0.00016
22.14800 6319.63636 6409.48217 0.00016
22.15200 6328.03732 6413.60962 0.00016
22.15600 6331.79531 6417.88836 0.00016
22.16000 6450.71928 6422.32455 0.00016
22.16400 6452.91684 6426.92464 0.00015
22.16800 6370.03626 6431.69541 0.00016
22.17200 6370.83209 6436.64399 0.00016
22.17600 6371.07118 6441.77807 0.00016
22.18000 6546.46482 6447.10624 0.00015
22.18400 6343.23454 6452.63521 0.00016
22.18800 6431.44282 6458.37383 0.00016
22.19200 6407.85821 6464.33169 0.00016
22.19600 6442.13596 6470.51829 0.00016
22.20000 6514.44350 6476.94370 0.00015
22.20400 6419.76866 6483.61844 0.00016
22.20800 6459.95255 6490.55350 0.00015
22.21200 6555.62313 6497.76043 0.00015
22.21600 6448.64286 6505.25127 0.00016
22.22000 6531.08718 6513.03864 0.00015
22.22400 6497.45416 6521.13570 0.00015
22.22800 6559.45416 6529.55616 0.00015
22.23200 6323.92324 6538.31431 0.00016
22.23600 6613.46734 6547.42500 0.00015
22.24000 6730.41525 6556.90362 0.00015
22.24400 6726.12313 6566.76610 0.00015
22.24800 6624.05597 6577.02889 0.00015
22.25200 6567.13113 6587.70892 0.00015
22.25600 6588.46642 6598.82352 0.00015
22.26000 6454.45149 6610.39041 0.00015
22.26400 6522.04424 6622.42756 0.00015
22.26800 6503.97761 6634.95336 0.00015
22.27200 6442.37687 6647.98787 0.00016
22.27600 6571.29211 6661.55207 0.00015
22.28000 6629.85021 6675.65747 0.00015
22.28400 6587.61141 6690.31624 0.00015
22.28800 6566.11034 6705.55099 0.00015
22.29200 6672.67111 6721.37736 0.00015
22.29600 6940.55544 6737.80901 0.00014
22.30000 6944.87687 6754.85549 0.00014
22.30400 6727.59073 6772.52717 0.00015
22.30800 6631.76119 6790.82989 0.00015
22.31200 6661.32196 6809.76567 0.00015
22.31600 6793.81663 6829.33199 0.00015
22.32000 6948.95522 6849.52083 0.00014
22.32400 6678.08473 6870.31789 0.00015
22.32800 6836.22057 6891.70153 0.00015
22.33200 6794.02869 6913.64273 0.00015
22.33600 6774.18417 6936.10391 0.00015
22.34000 6798.68364 6959.03042 0.00015
22.34400 6967.46149 6982.36043 0.00014
22.34800 6948.13745 7006.02210 0.00014
22.35200 6903.12156 7029.92826 0.00014
22.35600 7025.79694 7053.97795 0.00014
22.36000 6899.58277 7078.05629 0.00014
22.36400 7012.93379 7102.03461 0.00014
22.36800 7021.93681 7125.77122 0.00014
22.37200 7116.95014 7149.11269 0.00014
22.37600 7126.22068 7171.89596 0.00014
22.38000 7195.74853 7193.95137 0.00014
22.38400 7274.60504 7215.10532 0.00014
22.38800 7153.77888 7235.18182 0.00014
22.39200 7210.90573 7254.01376 0.00014
22.39600 7272.41762 7271.44226 0.00014
22.40000 7372.23528 7287.32328 0.00014
22.40400 7358.82130 7301.53255 0.00014
22.40800 7384.36371 7313.97145 0.00014
22.41200 7613.68145 7324.56968 0.00013
22.41600 7595.42485 7333.27846 0.00013
22.42000 7434.50568 7340.09243 0.00013
22.42400 7478.30545 7345.03597 0.00013
22.42800 7515.72798 7348.16469 0.00013
22.43200 7463.37790 7349.56389 0.00013
22.43600 7576.76840 7349.34538 0.00013
22.44000 7695.94910 7347.64346 0.00013
22.44400 7575.52053 7344.61030 0.00013
22.44800 7464.60762 7340.41093 0.00013
22.45200 7718.03613 7335.21863 0.00013
22.45600 7612.41532 7329.20990 0.00013
22.46000 7606.23112 7322.56018 0.00013
22.46400 7543.68017 7315.44009 0.00013
22.46800 7551.27294 7308.01206 0.00013
22.47200 7513.27255 7300.42829 0.00013
22.47600 7420.67008 7292.82939 0.00013
22.48000 7489.22083 7285.33719 0.00013
22.48400 7394.42965 7278.06179 0.00014
22.48800 7263.59412 7271.09955 0.00014
22.49200 7364.49310 7264.53053 0.00014
22.49600 7359.72709 7258.42020 0.00014
22.50000 7292.74349 7252.82014 0.00014
22.50400 7211.92025 7247.76908 0.00014
22.50800 7273.98414 7243.29434 0.00014
22.51200 7189.20813 7239.41007 0.00014
22.51600 7181.47715 7236.12243 0.00014
22.52000 7300.90306 7233.42966 0.00014
22.52400 7313.49628 7231.32224 0.00014
22.52800 7285.65105 7229.78469 0.00014
22.53200 7247.19007 7228.79680 0.00014
22.53600 7136.02820 7228.33473 0.00014
22.54000 6931.02558 7228.37220 0.00014
22.54400 7136.67559 7228.88185 0.00014
22.54800 7177.14944 7229.83547 0.00014
22.55200 7189.75619 7231.20346 0.00014
22.55600 7193.33494 7232.96019 0.00014
22.56000 7170.80220 7235.08073 0.00014
22.56400 7114.80642 7237.54252 0.00014
22.56800 7149.76446 7240.32581 0.00014
22.57200 7041.54698 7243.41390 0.00014
22.57600 7074.50525 7246.79341 0.00014
22.58000 7149.14624 7250.45418 0.00014
22.58400 7087.28000 7254.38929 0.00014
22.58800 7154.87674 7258.59484 0.00014
22.59200 6991.16333 7263.06962 0.00014
22.59600 7111.95794 7267.81481 0.00014
22.60000 7148.82974 7272.83348 0.00014
22.60400 7073.28233 7278.13007 0.00014
22.60800 7153.35501 7283.71018 0.00014
22.61200 7152.54292 7289.58158 0.00014
22.61600 7114.60837 7295.75328 0.00014
22.62000 7050.82547 7302.22236 0.00014
22.62400 7146.69889 7308.98515 0.00014
22.62800 7077.65456 7316.04979 0.00014
22.63200 7161.07114 7323.41388 0.00014
22.63600 7055.66496 7331.07141 0.00014
22.64000 7094.63549 7339.01197 0.00014
22.64400 7069.65281 7347.22004 0.00014
22.64800 7117.16026 7355.67415 0.00014
22.65200 7028.80999 7364.34606 0.00014
22.65600 7142.24407 7373.20004 0.00014
22.66000 7076.65646 7382.19192 0.00014
22.66400 7135.87350 7391.26824 0.00014
22.66800 7163.60276 7400.36661 0.00014
22.67200 7063.22540 7409.41418 0.00014
22.67600 7048.33600 7418.32379 0.00014
22.68000 7101.71353 7427.00236 0.00014
22.68400 7038.82659 7435.34472 0.00014
22.68800 7024.15131 7443.23587 0.00014
22.69200 7001.39453 7450.55222 0.00014
22.69600 7204.63235 7457.16321 0.00014
22.70000 7185.16732 7462.93352 0.00014
22.70400 7111.95232 7467.72573 0.00014
22.70800 7049.88336 7471.40357 0.00014
22.71200 7174.17124 7473.83538 0.00014
22.71600 7035.58742 7474.89795 0.00014
22.72000 7042.96519 7474.48044 0.00014
22.72400 7048.01202 7472.48812 0.00014
22.72800 7005.43033 7468.84592 0.00014
22.73200 6925.59456 7463.50127 0.00014
22.73600 7081.33876 7456.42574 0.00014
22.74000 6997.31099 7447.61281 0.00014
22.74400 7016.91541 7437.08257 0.00014
22.74800 7145.19500 7424.87769 0.00014
22.75200 7241.68361 7411.04437 0.00014
22.75600 7069.30189 7395.80449 0.00014
22.76000 7117.89660 7379.05834 0.00014
22.76400 7189.05207 7361.23526 0.00014
22.76800 7198.90117 7342.32592 0.00014
22.77200 6942.96909 7322.48276 0.00014
22.77600 6972.03583 7301.86200 0.00014
22.78000 7016.61512 7280.62020 0.00014
22.78400 6894.03756 7258.91090 0.00015
22.78800 6896.78448 7236.88252 0.00014
22.79200 6910.95436 7214.67712 0.00014
22.79600 7027.06733 7192.42086 0.00014
22.80000 7059.13559 7170.23044 0.00014
22.80400 6963.16159 7148.21625 0.00014
22.80800 6971.31788 7126.47369 0.00014
22.81200 6906.84713 7105.08662 0.00014
22.81600 6909.47123 7084.13058 0.00014
22.82000 6993.11584 7063.66810 0.00014
22.82400 6940.15063 7043.73361 0.00014
22.82800 6923.33324 7024.37924 0.00014
22.83200 6904.00376 7005.63686 0.00014
22.83600 6976.31779 6987.52891 0.00014
22.84000 6817.16932 6970.07471 0.00015
22.84400 7050.62172 6953.28594 0.00014
22.84800 6848.50602 6937.16910 0.00015
22.85200 6814.93182 6921.72622 0.00015
22.85600 6870.68870 6906.95557 0.00015
22.86000 6913.93685 6892.85233 0.00014
22.86400 6895.69380 6879.40906 0.00015
22.86800 6918.17666 6866.61629 0.00014
22.87200 6820.75325 6854.46286 0.00015
22.87600 6782.35508 6842.93640 0.00015
22.88000 6767.33165 6832.02359 0.00015
22.88400 6751.91364 6821.71054 0.00015
22.88800 6568.94879 6811.98307 0.00015
22.89200 6820.75173 6802.82610 0.00015
22.89600 6686.43492 6794.22525 0.00015
22.90000 6588.02918 6786.16762 0.00015
22.90400 6610.86837 6778.64280 0.00015
22.90800 6790.03778 6771.63364 0.00015
22.91200 6818.60512 6765.11744 0.00015
22.91600 6769.85828 6759.08948 0.00015
22.92000 6798.49559 6753.53147 0.00015
22.92400 6808.25267 6748.43545 0.00015
22.92800 6800.64344 6743.78992 0.00015
22.93200 6756.28447 6739.58384 0.00015
22.93600 6763.26111 6735.80687 0.00015
22.94000 6603.62706 6732.44922 0.00015
22.94400 6692.36511 6729.50169 0.00015
22.94800 6848.38944 6726.95563 0.00015
22.95200 6829.82152 6724.80300 0.00015
22.95600 6680.09582 6723.03630 0.00015
22.96000 6739.65956 6721.64858 0.00015
22.96400 6680.46687 6720.63342 0.00015
22.96800 6608.29631 6719.98490 0.00015
22.97200 6750.52829 6719.69761 0.00015
22.97600 6751.44614 6719.76665 0.00015
22.98000 6663.94826 6720.18753 0.00015
22.98400 6520.05166 6720.95643 0.00015
22.98800 6793.54546 6722.07045 0.00015
22.99200 6786.19380 6723.52482 0.00015
22.99600 6779.82954 6725.31683 0.00015
23.00000 6758.69614 6727.44448 0.00015
23.00400 6795.46940 6729.90561 0.00015
23.00800 6659.78157 6732.69836 0.00015
23.01200 6631.40025 6735.82115 0.00015
23.01600 6638.15377 6739.27266 0.00015
23.02000 6668.18455 6743.05179 0.00015
23.02400 6782.89272 6747.15766 0.00015
23.02800 6748.51515 6751.58958 0.00015
23.03200 6705.42823 6756.34701 0.00015
23.03600 6687.02187 6761.42955 0.00015
23.04000 6758.70125 6766.83690 0.00015
23.04400 6703.09773 6772.56887 0.00015
23.04800 6801.87723 6778.62531 0.00015
23.05200 6794.55469 6785.00614 0.00015
23.05600 6832.62934 6791.71132 0.00015
23.06000 6880.02908 6798.74080 0.00015
23.06400 6869.26232 6806.09454 0.00015
23.06800 6803.16769 6813.77250 0.00015
23.07200 6791.87013 6821.77462 0.00015
23.07600 6750.23755 6830.10086 0.00015
23.08000 6793.21314 6838.75129 0.00015
23.08400 6764.23462 6847.72859 0.00015
23.08800 6874.99783 6857.03590 0.00015
23.09200 6841.94487 6866.66110 0.00015
23.09600 6842.49109 6876.60785 0.00015
23.10000 6965.70903 6886.87928 0.00014
23.10400 6902.38166 6897.47598 0.00014
23.10800 6965.21030 6908.39891 0.00014
23.11200 6928.76165 6919.64940 0.00014
23.11600 7018.87475 6931.22933 0.00014
23.12000 6957.81877 6943.14194 0.00014
23.12400 6890.77954 6955.39168 0.00015
23.12800 6990.20213 6967.97831 0.00014
23.13200 7067.60414 6980.90950 0.00014
23.13600 6992.69135 6994.19152 0.00014
23.14000 7037.96371 7007.83331 0.00014
23.14400 7094.48033 7021.84653 0.00014
23.14800 7099.40506 7036.24005 0.00014
23.15200 7068.88264 7051.02075 0.00014
23.15600 6994.41864 7066.20919 0.00014
23.16000 7120.26717 7081.82061 0.00014
23.16400 7138.36871 7097.87835 0.00014
23.16800 7106.14887 7114.39660 0.00014
23.17200 7224.22130 7131.41125 0.00014
23.17600 7058.30812 7148.94307 0.00014
23.18000 7211.52281 7167.02101 0.00014
23.18400 7273.80154 7185.67617 0.00014
23.18800 7229.28735 7204.94171 0.00014
23.19200 7222.48090 7224.85276 0.00014
23.19600 7384.79015 7245.44490 0.00014
23.20000 7514.87111 7266.75348 0.00013
23.20400 7328.02384 7288.81605 0.00014
23.20800 7396.74892 7311.66854 0.00014
23.21200 7427.51606 7335.34529 0.00013
23.21600 7361.09372 7359.87802 0.00014
23.22000 7313.71186 7385.29479 0.00014
23.22400 7265.04830 7411.61871 0.00014
23.22800 7592.88415 7438.86676 0.00013
23.23200 7530.99414 7467.04851 0.00013
23.23600 7558.29464 7496.16491 0.00013
23.24000 7666.97444 7526.20721 0.00013
23.24400 7676.80930 7557.15619 0.00013
23.24800 7670.33318 7588.98164 0.00013
23.25200 7703.89092 7621.64259 0.00013
23.25600 7789.71505 7655.09027 0.00013
23.26000 7892.46542 7689.26708 0.00013
23.26400 7816.09429 7724.09394 0.00013
23.26800 7729.74707 7759.50489 0.00013
23.27200 7989.33381 7795.43033 0.00013
23.27600 7942.93983 7831.80308 0.00013
23.28000 7901.55583 7868.56443 0.00013
23.28400 7936.15293 7905.66862 0.00013
23.28800 8106.59924 7943.08685 0.00012
23.29200 8040.89294 7980.81067 0.00012
23.29600 8151.41826 8018.85380 0.00012
23.30000 8253.64204 8057.25270 0.00012
23.30400 8198.11506 8096.06540 0.00012
23.30800 8410.22364 8135.36859 0.00012
23.31200 8321.02872 8175.25301 0.00012
23.31600 8473.03118 8215.81764 0.00012
23.32000 8541.71716 8257.16283 0.00012
23.32400 8486.15948 8299.38286 0.00012
23.32800 8552.16699 8342.55840 0.00012
23.33200 8514.92208 8386.74973 0.00012
23.33600 8564.70554 8431.99043 0.00012
23.34000 8635.33174 8478.27737 0.00012
23.34400 8775.95634 8525.57180 0.00011
23.34800 8918.37835 8573.79729 0.00011
23.35200 8704.93753 8622.83499 0.00011
23.35600 8861.78914 8672.52594 0.00011
23.36000 9058.45138 8722.67401 0.00011
23.36400 9082.29535 8773.05132 0.00011
23.36800 9182.14643 8823.40436 0.00011
23.37200 9130.90588 8873.45743 0.00011
23.37600 9231.23695 8922.93094 0.00011
23.38000 9352.82531 8971.54552 0.00011
23.38400 9433.33573 9019.03187 0.00011
23.38800 9473.41163 9065.13968 0.00011
23.39200 9486.89703 9109.64428 0.00011
23.39600 9425.20841 9152.35054 0.00011
23.40000 9612.48456 9193.09400 0.00010
23.40400 9648.36925 9231.73417 0.00010
23.40800 9807.09821 9268.14743 0.00010
23.41200 9749.43584 9302.22476 0.00010
23.41600 9904.70665 9333.85011 0.00010
23.42000 9937.30777 9362.88977 0.00010
23.42400 10016.74685 9389.18024 0.00010
23.42800 9954.97923 9412.51190 0.00010
23.43200 9972.85117 9432.62046 0.00010
23.43600 9970.25714 9449.20587 0.00010
23.44000 9928.71486 9461.92159 0.00010
23.44400 9978.21839 9470.39555 0.00010
23.44800 10005.46875 9474.25229 0.00010
23.45200 10000.24308 9473.14130 0.00010
23.45600 10042.93743 9466.77041 0.00010
23.46000 9928.07971 9454.93482 0.00010
23.46400 10026.65641 9437.54447 0.00010
23.46800 10007.75186 9414.64305 0.00010
23.47200 9942.43466 9386.41603 0.00010
23.47600 9891.81921 9353.18970 0.00010
23.48000 9779.74121 9315.41566 0.00010
23.48400 9624.85536 9273.64786 0.00010
23.48800 9743.65602 9228.51260 0.00010
23.49200 9713.00791 9180.67561 0.00010
23.49600 9601.71406 9130.80924 0.00010
23.50000 9500.13661 9079.56297 0.00011
23.50400 9643.51544 9027.53920 0.00010
23.50800 9238.22211 8975.27557 0.00011
23.51200 9347.37620 8923.23378 0.00011
23.51600 9155.50053 8871.79464 0.00011
23.52000 9176.17858 8821.25866 0.00011
23.52400 8948.64245 8771.85052 0.00011
23.52800 8780.48843 8723.72679 0.00011
23.53200 8838.42744 8676.98524 0.00011
23.53600 8739.68397 8631.67523 0.00011
23.54000 8477.74318 8587.80810 0.00012
23.54400 8571.43238 8545.36755 0.00012
23.54800 8535.17330 8504.31789 0.00012
23.55200 8632.66507 8464.60927 0.00012
23.55600 8491.61274 8426.19068 0.00012
23.56000 8435.82585 8389.00968 0.00012
23.56400 8343.82881 8353.01759 0.00012
23.56800 8197.60560 8318.17203 0.00012
23.57200 8239.06376 8284.43870 0.00012
23.57600 8182.25501 8251.79169 0.00012
23.58000 8164.91448 8220.21083 0.00012
23.58400 8206.88434 8189.68657 0.00012
23.58800 8135.90089 8160.21488 0.00012
23.59200 8073.71547 8131.79744 0.00012
23.59600 8090.93238 8104.43625 0.00012
23.60000 8033.55985 8078.13977 0.00012
23.60400 7915.26037 8052.91642 0.00013
23.60800 8050.09824 8028.77546 0.00012
23.61200 8049.25180 8005.72636 0.00012
23.61600 8045.99550 7983.77279 0.00012
23.62000 7876.77217 7962.91475 0.00013
23.62400 7805.53967 7943.15746 0.00013
23.62800 7904.81445 7924.49961 0.00013
23.63200 7923.61430 7906.93700 0.00013
23.63600 7920.96270 7890.46249 0.00013
23.64000 7820.94315 7875.06619 0.00013
23.64400 7729.05662 7860.73547 0.00013
23.64800 7742.28637 7847.45535 0.00013
23.65200 7742.81155 7835.20865 0.00013
23.65600 7791.59984 7823.97628 0.00013
23.66000 7813.35674 7813.73766 0.00013
23.66400 7854.65993 7804.47103 0.00013
23.66800 7844.26431 7796.15384 0.00013
23.67200 7840.04255 7788.76315 0.00013
23.67600 7733.21294 7782.27612 0.00013
23.68000 7679.32268 7776.67035 0.00013
23.68400 7765.34537 7771.92438 0.00013
23.68800 7701.44823 7768.01817 0.00013
23.69200 7670.53906 7764.93359 0.00013
23.69600 7717.87139 7762.65589 0.00013
23.70000 7717.69204 7761.17370 0.00013
23.70400 7756.76121 7760.47006 0.00013
23.70800 7787.99915 7760.54263 0.00013
23.71200 7760.64499 7761.38878 0.00013
23.71600 7786.92899 7763.00988 0.00013
23.72000 7740.89433 7765.41142 0.00013
23.72400 7736.37438 7768.60295 0.00013
23.72800 7788.12137 7772.59788 0.00013
23.73200 7876.00000 7777.41331 0.00013
23.73600 7893.40965 7783.06960 0.00013
23.74000 7725.06792 7789.58634 0.00013
23.74400 7724.16742 7796.98876 0.00013
23.74800 7977.57547 7805.30054 0.00013
23.75200 7929.57280 7814.52982 0.00013
23.75600 7906.16927 7824.69196 0.00013
23.76000 7966.11392 7835.79379 0.00013
23.76400 7957.20604 7847.82807 0.00013
23.76800 7926.79212 7860.77216 0.00013
23.77200 7982.33145 7874.58378 0.00013
23.77600 7925.71067 7889.19650 0.00013
23.78000 7950.04525 7904.51501 0.00013
23.78400 8072.65446 7920.41112 0.00012
23.78800 8069.30955 7936.71953 0.00012
23.79200 8069.40003 7953.22937 0.00012
23.79600 8217.54734 7969.68621 0.00012
23.80000 8176.51344 7985.79568 0.00012
23.80400 7998.64573 8001.21779 0.00013
23.80800 8171.23214 8015.57383 0.00012
23.81200 8237.01198 8028.45442 0.00012
23.81600 8206.95661 8039.43064 0.00012
23.82000 8269.78256 8048.06663 0.00012
23.82400 8102.24009 8053.94096 0.00012
23.82800 8252.43220 8056.66321 0.00012
23.83200 8177.80782 8055.89489 0.00012
23.83600 8264.67847 8051.36824 0.00012
23.84000 8264.33198 8042.90257 0.00012
23.84400 8177.97711 8030.41575 0.00012
23.84800 8208.90099 8013.93036 0.00012
23.85200 8249.09744 7993.57355 0.00012
23.85600 8199.31834 7969.56893 0.00012
23.86000 8033.72984 7942.22418 0.00012
23.86400 8019.15469 7911.91725 0.00012
23.86800 8106.48789 7879.07397 0.00012
23.87200 7967.62603 7844.14896 0.00013
23.87600 7872.03833 7807.60627 0.00013
23.88000 7850.33454 7769.90214 0.00013
23.88400 7912.18898 7731.47089 0.00013
23.88800 7826.43652 7692.71408 0.00013
23.89200 7832.86186 7653.99245 0.00013
23.89600 7889.91450 7615.62309 0.00013
23.90000 7768.94311 7577.87709 0.00013
23.90400 7614.33484 7540.98048 0.00013
23.90800 7540.08012 7505.11655 0.00013
23.91200 7665.06867 7470.42949 0.00013
23.91600 7669.73478 7437.02837 0.00013
23.92000 7641.76391 7404.99232 0.00013
23.92400 7634.63242 7374.37424 0.00013
23.92800 7599.34788 7345.19906 0.00013
23.93200 7611.29873 7317.48093 0.00013
23.93600 7368.40964 7291.21618 0.00014
23.94000 7363.08517 7266.38924 0.00014
23.94400 7368.00662 7242.97525 0.00014
23.94800 7280.53553 7220.94223 0.00014
23.95200 7278.50519 7200.25293 0.00014
23.95600 7335.90311 7180.86637 0.00014
23.96000 7126.70985 7162.73904 0.00014
23.96400 7238.92068 7145.82587 0.00014
23.96800 7320.26830 7130.08100 0.00014
23.97200 7308.01878 7115.45834 0.00014
23.97600 7288.45515 7101.91202 0.00014
23.98000 7337.35853 7089.39668 0.00014
23.98400 7276.09156 7077.86774 0.00014
23.98800 7083.46262 7067.28141 0.00014
23.99200 7192.74395 7057.59482 0.00014
23.99600 7230.10913 7048.76601 0.00014
24.00000 7266.05423 7040.75393 0.00014
24.00400 7028.20362 7033.51824 0.00014
24.00800 7094.12093 7027.01941 0.00014
24.01200 7041.98190 7021.21842 0.00014
24.01600 7054.67101 7016.07674 0.00014
24.02000 7066.22490 7011.55620 0.00014
24.02400 7087.19005 7007.61879 0.00014
24.02800 7030.23077 7004.22658 0.00014
24.03200 7079.17424 7001.34160 0.00014
24.03600 7098.81986 6998.92566 0.00014
24.04000 7164.11688 6996.94032 0.00014
24.04400 7068.20575 6995.34679 0.00014
24.04800 6963.32074 6994.10576 0.00014
24.05200 6972.86099 6993.17748 0.00014
24.05600 7028.36199 6992.52242 0.00014
24.06000 7059.82593 6992.10169 0.00014
24.06400 7008.40563 6991.86929 0.00014
24.06800 6982.68299 6991.78688 0.00014
24.07200 7084.30130 6991.81225 0.00014
24.07600 6973.80623 6991.89881 0.00014
24.08000 6978.58821 6992.00805 0.00014
24.08400 6956.45435 6992.09843 0.00014
24.08800 6909.99148 6992.12774 0.00014
24.09200 6951.83710 6992.05488 0.00014
24.09600 6915.43146 6991.84060 0.00014
24.10000 6940.29167 6991.44645 0.00014
24.10400 6926.53207 6990.83566 0.00014
24.10800 6974.64533 6989.97345 0.00014
24.11200 6904.87099 6988.82733 0.00014
24.11600 6884.42672 6987.36747 0.00015
24.12000 6986.59516 6985.56700 0.00014
24.12400 7071.06388 6983.40228 0.00014
24.12800 6976.69409 6980.85335 0.00014
24.13200 6999.09687 6977.90391 0.00014
24.13600 7026.36098 6974.54063 0.00014
24.14000 6954.73649 6970.75533 0.00014
24.14400 7067.87490 6966.54340 0.00014
24.14800 7072.97947 6961.90422 0.00014
24.15200 6798.61459 6956.84108 0.00015
24.15600 6871.52794 6951.36109 0.00015
24.16000 6987.91669 6945.47495 0.00014
24.16400 6983.80394 6939.19677 0.00014
24.16800 6975.89619 6932.54369 0.00014
24.17200 6955.43796 6925.53563 0.00014
24.17600 6908.36248 6918.19429 0.00014
24.18000 6891.44637 6910.54171 0.00015
24.18400 6981.08316 6902.60094 0.00014
24.18800 6933.22284 6894.39225 0.00014
24.19200 6945.01460 6885.95580 0.00014
24.19600 7007.52667 6877.28265 0.00014
24.20000 6977.82007 6868.50922 0.00014
24.20400 6999.66152 6859.59831 0.00014
24.20800 6937.60341 6850.57910 0.00014
24.21200 6939.62277 6841.48019 0.00014
24.21600 6836.04558 6832.33000 0.00015
24.22000 6699.74177 6823.15724 0.00015
24.22400 6837.23742 6813.98562 0.00015
24.22800 6890.48457 6804.83604 0.00015
24.23200 6902.11445 6795.73496 0.00014
24.23600 6900.53004 6786.70413 0.00014
24.24000 6880.62427 6777.76387 0.00015
24.24400 6926.55683 6768.93302 0.00014
24.24800 7016.26798 6760.22896 0.00014
24.25200 6876.40826 6751.66761 0.00015
24.25600 6955.16316 6743.26352 0.00014
24.26000 6822.67863 6735.02981 0.00015
24.26400 6727.90870 6726.97837 0.00015
24.26800 6919.33428 6719.11979 0.00014
24.27200 6819.51158 6711.46351 0.00015
24.27600 6910.01331 6704.01790 0.00014
24.28000 6859.82433 6696.79029 0.00015
24.28400 6815.52855 6689.78707 0.00015
24.28800 6935.56874 6683.01381 0.00014
24.29200 6882.36859 6676.47528 0.00015
24.29600 6756.99441 6670.17553 0.00015
24.30000 6743.29811 6664.11803 0.00015
24.30400 6954.39090 6658.30570 0.00014
24.30800 6803.73197 6652.74111 0.00015
24.31200 6904.35208 6647.42656 0.00014
24.31600 6824.09351 6642.36251 0.00015
24.32000 6869.87304 6637.55108 0.00015
24.32400 6921.19558 6632.99365 0.00014
24.32800 6853.92998 6628.69106 0.00015
24.33200 6862.90445 6624.64316 0.00015
24.33600 6842.32225 6620.85422 0.00015
24.34000 6822.85441 6617.32807 0.00015
24.34400 6780.10431 6614.05102 0.00015
24.34800 6751.88874 6611.03120 0.00015
24.35200 6887.00319 6608.27018 0.00015
24.35600 6741.82479 6605.76840 0.00015
24.36000 6825.52640 6603.52706 0.00015
24.36400 6781.37245 6601.54730 0.00015
24.36800 6752.19285 6599.83060 0.00015
24.37200 6820.24038 6598.37845 0.00015
24.37600 6870.49348 6597.19196 0.00015
24.38000 6699.09792 6596.27477 0.00015
24.38400 6717.62417 6595.63072 0.00015
24.38800 6861.86110 6595.25725 0.00015
24.39200 6864.12749 6595.15793 0.00015
24.39600 6892.89888 6595.33775 0.00015
24.40000 6838.04072 6595.80070 0.00015
24.40400 6786.05774 6596.55129 0.00015
24.40800 6789.89269 6597.59422 0.00015
24.41200 6816.36780 6598.93720 0.00015
24.41600 6758.92629 6600.57520 0.00015
24.42000 6806.36306 6602.52015 0.00015
24.42400 6729.40820 6604.77840 0.00015
24.42800 6860.23271 6607.35664 0.00015
24.43200 6841.85840 6610.26206 0.00015
24.43600 6834.39223 6613.50238 0.00015
24.44000 6840.73277 6617.08580 0.00015
24.44400 6882.27698 6621.02105 0.00015
24.44800 6901.68670 6625.31738 0.00014
24.45200 6899.52581 6629.98453 0.00014
24.45600 6812.35347 6635.03272 0.00015
24.46000 6739.99415 6640.47266 0.00015
24.46400 6803.64014 6646.31547 0.00015
24.46800 6779.01437 6652.57270 0.00015
24.47200 6850.52961 6659.25742 0.00015
24.47600 6754.69074 6666.38502 0.00015
24.48000 6716.32615 6673.96358 0.00015
24.48400 6889.17660 6681.99896 0.00015
24.48800 6997.38228 6690.50947 0.00014
24.49200 6944.62081 6699.50703 0.00014
24.49600 6960.33138 6709.00310 0.00014
24.50000 6783.62267 6719.00825 0.00015
24.50400 6993.29381 6729.53096 0.00014
24.50800 6923.47776 6740.57599 0.00014
24.51200 6911.94372 6752.14747 0.00014
24.51600 6914.54151 6764.24570 0.00014
24.52000 6988.91935 6776.86214 0.00014
24.52400 6920.58302 6789.98921 0.00014
24.52800 6993.41230 6803.58699 0.00014
24.53200 6930.53113 6817.84329 0.00014
24.53600 7130.01407 6832.60729 0.00014
24.54000 7143.68483 6847.85825 0.00014
24.54400 7294.50546 6863.56906 0.00014
24.54800 7141.38391 6879.70569 0.00014
24.55200 7154.53129 6896.22676 0.00014
24.55600 7140.69292 6913.08327 0.00014
24.56000 7055.21240 6930.21857 0.00014
24.56400 7073.27249 6947.56855 0.00014
24.56800 7058.59115 6965.06223 0.00014
24.57200 6968.27935 6982.62274 0.00014
24.57600 7051.14768 7000.16869 0.00014
24.58000 7146.63008 7017.61601 0.00014
24.58400 7219.31232 7034.88013 0.00014
24.58800 7128.80092 7051.87866 0.00014
24.59200 7180.05853 7068.53425 0.00014
24.59600 7150.01539 7084.77751 0.00014
24.60000 7237.70044 7100.55009 0.00014
24.60400 7290.04231 7115.80729 0.00014
24.60800 7088.57717 7130.52044 0.00014
24.61200 7185.79957 7144.67898 0.00014
24.61600 7298.58701 7158.29200 0.00014
24.62000 7303.39792 7171.38459 0.00014
24.62400 7174.21714 7184.00012 0.00014
24.62800 7340.92283 7196.20224 0.00014
24.63200 7225.37465 7208.06746 0.00014
24.63600 7281.73559 7219.68452 0.00014
24.64000 7329.09921 7231.15146 0.00014
24.64400 7379.85038 7242.56985 0.00014
24.64800 7399.51671 7254.04428 0.00014
24.65200 7235.07722 7265.67963 0.00014
24.65600 7099.49415 7277.57344 0.00014
24.66000 7305.87676 7289.81684 0.00014
24.66400 7150.51514 7302.49272 0.00014
24.66800 7340.42203 7315.66982 0.00014
24.67200 7357.18297 7329.38579 0.00014
24.67600 7082.46364 7343.80010 0.00014
24.68000 7326.31716 7358.75604 0.00014
24.68400 7487.32987 7374.61660 0.00013
24.68800 7359.99609 7391.21521 0.00014
24.69200 7279.76684 7408.56027 0.00014
24.69600 7362.48270 7426.64788 0.00014
24.70000 7450.44139 7445.46267 0.00013
24.70400 7492.08928 7464.98156 0.00013
24.70800 7437.79816 7485.17110 0.00013
24.71200 7413.15294 7505.98914 0.00013
24.71600 7531.59553 7527.38562 0.00013
24.72000 7493.79607 7549.30333 0.00013
24.72400 7488.02049 7571.67862 0.00013
24.72800 7511.14027 7594.44213 0.00013
24.73200 7573.16312 7617.51947 0.00013
24.73600 7600.33079 7640.83191 0.00013
24.74000 7601.20650 7664.29695 0.00013
24.74400 7608.84713 7687.82878 0.00013
24.74800 7552.83563 7711.33911 0.00013
24.75200 7514.17137 7734.73761 0.00013
24.75600 7678.41789 7757.93033 0.00013
24.76000 7666.50719 7780.82373 0.00013
24.76400 7763.50739 7803.32264 0.00013
24.76800 7669.94632 7825.33121 0.00013
24.77200 7745.21591 7846.75370 0.00013
24.77600 7773.71062 7867.49514 0.00013
24.78000 7860.58773 7887.46234 0.00013
24.78400 7849.08675 7906.56519 0.00013
24.78800 7893.86040 7924.71805 0.00013
24.79200 7790.13476 7941.84150 0.00013
24.79600 7880.99610 7957.86432 0.00013
24.80000 7867.36456 7972.72559 0.00013
24.80400 7948.92547 7986.37684 0.00013
24.80800 7919.35981 7998.78422 0.00013
24.81200 7982.17097 8009.93044 0.00013
24.81600 7970.70782 8019.81637 0.00013
24.82000 7920.75912 8028.46226 0.00013
24.82400 7939.42390 8035.90826 0.00013
24.82800 7934.73108 8042.21438 0.00013
24.83200 7867.06766 8047.45949 0.00013
24.83600 7969.17809 8051.73963 0.00013
24.84000 7924.86772 8055.16541 0.00013
24.84400 8055.24536 8057.85866 0.00012
24.84800 7974.45618 8059.94839 0.00013
24.85200 7973.22539 8061.56627 0.00013
24.85600 8056.49481 8062.84077 0.00012
24.86000 8166.09127 8063.89117 0.00012
24.86400 8126.30609 8064.82442 0.00012
24.86800 8027.56493 8065.72721 0.00012
24.87200 7991.14347 8066.66424 0.00013
24.87600 8120.98377 8067.66898 0.00012
24.88000 8073.40643 8068.71991 0.00012
24.88400 8036.87581 8069.78463 0.00012
24.88800 7925.45783 8070.77908 0.00013
24.89200 8017.67447 8071.57693 0.00012
24.89600 8093.99734 8072.01021 0.00012
24.90000 8021.74102 8071.87201 0.00012
24.90400 7915.52422 8070.92131 0.00013
24.90800 7830.67740 8068.89070 0.00013
24.91200 7918.19017 8065.49661 0.00013
24.91600 7942.90108 8060.44470 0.00013
24.92000 8019.57576 8053.44918 0.00012
24.92400 8065.14453 8044.25235 0.00012
24.92800 7976.34300 8032.61214 0.00013
24.93200 7883.33032 8018.35275 0.00013
24.93600 7924.00000 8001.35105 0.00013
24.94000 7735.31195 7981.54951 0.00013
24.94400 7794.45796 7958.96113 0.00013
24.94800 7905.62949 7933.66987 0.00013
24.95200 7890.07748 7905.82703 0.00013
24.95600 7773.47525 7875.64433 0.00013
24.96000 7822.01491 7843.38379 0.00013
24.96400 7795.64248 7809.34632 0.00013
24.96800 7795.73353 7773.85666 0.00013
24.97200 7758.56827 7737.25437 0.00013
24.97600 7735.65773 7699.87947 0.00013
24.98000 7724.88368 7662.06253 0.00013
24.98400 7696.89356 7624.11627 0.00013
24.98800 7674.55470 7586.32911 0.00013
24.99200 7778.71258 7548.96085 0.00013
24.99600 7636.03459 7512.24009 0.00013
25.00000 7499.64231 7476.36341 0.00013
25.00400 7544.08331 7441.49577 0.00013
25.00800 7318.29723 7407.77198 0.00014
25.01200 7412.61006 7375.29881 0.00013
25.01600 7506.68289 7344.15750 0.00013
25.02000 7481.12579 7314.40648 0.00013
25.02400 7435.17169 7286.08424 0.00013
25.02800 7477.90338 7259.21199 0.00013
25.03200 7387.04507 7233.79624 0.00014
25.03600 7474.99585 7209.83102 0.00013
25.04000 7418.31425 7187.30000 0.00013
25.04400 7405.95274 7166.17822 0.00014
25.04800 7488.74395 7146.43369 0.00013
25.05200 7340.03720 7128.02857 0.00014
25.05600 7393.43055 7110.92023 0.00014
25.06000 7185.85437 7095.06218 0.00014
25.06400 7208.09263 7080.40551 0.00014
25.06800 7312.36439 7066.89896 0.00014
25.07200 7121.09154 7054.48410 0.00014
25.07600 7141.01916 7043.10523 0.00014
25.08000 7201.93999 7032.70535 0.00014
25.08400 7160.50226 7023.22522 0.00014
25.08800 7224.19888 7014.60466 0.00014
25.09200 7181.86638 7006.78313 0.00014
25.09600 7185.94961 6999.70030 0.00014
25.10000 7200.02955 6993.29352 0.00014
25.10400 7190.11188 6987.50388 0.00014
25.10800 7089.34709 6982.27275 0.00014
25.11200 7137.50557 6977.54348 0.00014
25.11600 7104.15278 6973.26211 0.00014
25.12000 7103.51818 6969.37807 0.00014
25.12400 6995.09502 6965.84492 0.00014
25.12800 7074.85414 6962.62105 0.00014
25.13200 7139.60849 6959.67028 0.00014
25.13600 7079.01224 6956.96243 0.00014
25.14000 7084.71222 6954.47363 0.00014
25.14400 7071.20495 6952.18659 0.00014
25.14800 7179.50306 6950.09062 0.00014
25.15200 7127.51956 6948.18148 0.00014
25.15600 7038.02262 6946.46103 0.00014
25.16000 7063.56827 6944.93733 0.00014
25.16400 7075.36332 6943.62531 0.00014
25.16800 7006.25072 6942.54149 0.00014
25.17200 7101.62656 6941.69977 0.00014
25.17600 7048.47618 6941.12385 0.00014
25.18000 6930.73949 6940.83840 0.00014
25.18400 6932.51264 6940.86966 0.00014
25.18800 7094.23796 6941.24243 0.00014
25.19200 7022.74554 6941.98077 0.00014
25.19600 6922.89114 6943.10734 0.00014
25.20000 7073.04472 6944.64289 0.00014
25.20400 6957.11204 6946.60585 0.00014
25.20800 7013.46686 6949.01191 0.00014
25.21200 7055.50572 6951.87389 0.00014
25.21600 6988.22176 6955.20147 0.00014
25.22000 7032.44930 6959.00112 0.00014
25.22400 7059.25532 6963.27611 0.00014
25.22800 7083.31248 6968.02644 0.00014
25.23200 6962.72557 6973.24896 0.00014
25.23600 7005.92213 6978.93743 0.00014
25.24000 7056.23875 6985.08271 0.00014
25.24400 7065.79052 6991.67228 0.00014
25.24800 7057.05749 6998.68997 0.00014
25.25200 7009.12317 7006.11672 0.00014
25.25600 7017.43279 7013.92771 0.00014
25.26000 6992.71520 7022.12083 0.00014
25.26400 6964.15070 7030.63583 0.00014
25.26800 7004.12457 7039.51803 0.00014
25.27200 7145.61360 7048.70539 0.00014
25.27600 7155.33324 7058.17287 0.00014
25.28000 7167.94217 7067.89735 0.00014
25.28400 7218.18339 7077.85523 0.00014
25.28800 7065.71174 7088.02484 0.00014
25.29200 6993.35587 7098.38609 0.00014
25.29600 7107.53553 7108.92050 0.00014
25.30000 7155.25748 7119.61170 0.00014
25.30400 7159.01357 7130.44552 0.00014
25.30800 7227.50200 7141.40998 0.00014
25.31200 7005.09562 7152.49512 0.00014
25.31600 7190.82407 7163.69270 0.00014
25.32000 7139.17860 7174.99574 0.00014
25.32400 7095.57200 7186.39781 0.00014
25.32800 7056.25472 7197.89222 0.00014
25.33200 7160.84322 7209.47048 0.00014
25.33600 7210.04392 7221.11851 0.00014
25.34000 7174.49481 7232.81862 0.00014
25.34400 7111.93718 7244.54498 0.00014
25.34800 7343.06876 7256.24940 0.00014
25.35200 7284.55204 7267.98780 0.00014
25.35600 7302.44354 7279.55550 0.00014
25.36000 7338.63535 7291.09559 0.00014
25.36400 7186.79735 7302.43081 0.00014
25.36800 7218.12004 7313.47100 0.00014
25.37200 7269.24621 7324.10919 0.00014
25.37600 7186.69284 7334.22133 0.00014
25.38000 7271.78653 7343.66671 0.00014
25.38400 7315.17521 7352.28933 0.00014
25.38800 7299.01327 7359.92050 0.00014
25.39200 7355.27495 7366.38238 0.00014
25.39600 7336.50399 7371.49290 0.00014
25.40000 7360.03780 7375.07156 0.00014
25.40400 7396.96250 7376.94617 0.00014
25.40800 7265.12537 7376.96003 0.00014
25.41200 7336.32899 7374.97914 0.00014
25.41600 7358.19537 7370.89896 0.00014
25.42000 7330.24514 7364.65020 0.00014
25.42400 7239.06919 7356.20272 0.00014
25.42800 7343.20761 7345.56632 0.00014
25.43200 7242.97837 7332.79100 0.00014
25.43600 7385.96034 7317.96169 0.00014
25.44000 7291.66130 7301.23469 0.00014
25.44400 7333.96274 7282.71550 0.00014
25.44800 7239.50133 7262.72238 0.00014
25.45200 7137.67022 7241.38669 0.00014
25.45600 7225.71382 7218.92669 0.00014
25.46000 7331.74315 7195.56449 0.00014
25.46400 7049.83198 7171.51963 0.00014
25.46800 7266.85760 7147.00375 0.00014
25.47200 7224.58331 7122.21627 0.00014
25.47600 7230.32446 7097.34116 0.00014
25.48000 7203.24243 7072.54645 0.00014
25.48400 7260.11419 7047.98187 0.00014
25.48800 7152.68281 7023.76744 0.00014
25.49200 7069.41502 7000.01778 0.00014
25.49600 7226.81427 6976.82525 0.00014
25.50000 7111.50253 6954.26526 0.00014
25.50400 7097.70426 6932.39792 0.00014
25.50800 7091.58710 6911.26959 0.00014
25.51200 6951.71798 6890.91452 0.00014
25.51600 6998.73336 6871.35632 0.00014
25.52000 6956.80822 6852.60940 0.00014
25.52400 7075.25100 6834.68039 0.00014
25.52800 6870.14073 6817.56933 0.00015
25.53200 6985.34908 6801.27080 0.00014
25.53600 6984.72599 6785.77485 0.00014
25.54000 6928.74208 6771.06776 0.00014
25.54400 6807.40129 6757.13213 0.00015
25.54800 6819.16050 6743.94710 0.00015
25.55200 6851.84015 6731.48929 0.00015
25.55600 6964.74927 6719.73011 0.00014
25.56000 6818.34664 6708.66556 0.00015
25.56400 6829.59403 6698.22978 0.00015
25.56800 6865.92488 6688.47906 0.00015
25.57200 6792.71826 6679.34094 0.00015
25.57600 6705.63961 6670.78997 0.00015
25.58000 6780.92598 6662.80113 0.00015
25.58400 6827.94395 6655.34709 0.00015
25.58800 6798.17551 6648.39966 0.00015
25.59200 6821.24042 6641.93372 0.00015
25.59600 6700.39446 6635.92230 0.00015
25.60000 6672.13562 6630.33818 0.00015
25.60400 6681.64696 6625.15336 0.00015
25.60800 6669.14287 6620.33937 0.00015
25.61200 6683.25742 6615.86767 0.00015
25.61600 6645.47251 6611.70933 0.00015
25.62000 6763.17559 6607.83531 0.00015
25.62400 6532.42697 6604.20982 0.00015
25.62800 6669.79269 6600.82584 0.00015
25.63200 6669.88711 6597.60934 0.00015
25.63600 6649.82904 6594.59244 0.00015
25.64000 6705.50210 6591.71293 0.00015
25.64400 6505.50133 6588.94056 0.00015
25.64800 6535.05798 6586.24518 0.00015
25.65200 6559.36857 6583.59690 0.00015
25.65600 6564.30090 6580.96709 0.00015
25.66000 6554.92678 6578.32850 0.00015
25.66400 6509.28904 6575.64835 0.00015
25.66800 6598.85437 6572.90172 0.00015
25.67200 6493.08397 6570.06371 0.00015
25.67600 6635.95923 6567.11036 0.00015
25.68000 6582.49467 6564.01954 0.00015
25.68400 6537.32542 6560.77112 0.00015
25.68800 6483.05751 6557.34722 0.00015
25.69200 6553.12609 6553.73350 0.00015
25.69600 6506.35758 6549.91830 0.00015
25.70000 6394.79222 6545.88445 0.00016
25.70400 6452.03781 6541.62642 0.00015
25.70800 6510.56535 6537.13907 0.00015
25.71200 6503.10224 6532.41856 0.00015
25.71600 6499.07961 6527.46002 0.00015
25.72000 6674.00980 6522.27676 0.00015
25.72400 6430.52322 6516.84590 0.00016
25.72800 6481.15578 6511.25782 0.00015
25.73200 6605.48669 6505.46703 0.00015
25.73600 6476.14407 6499.48668 0.00015
25.74000 6488.33321 6493.33102 0.00015
25.74400 6605.65282 6487.01538 0.00015
25.74800 6534.99729 6480.55724 0.00015
25.75200 6479.92066 6473.97097 0.00015
25.75600 6561.45989 6467.27076 0.00015
25.76000 6555.67412 6460.47685 0.00015
25.76400 6508.54713 6453.60664 0.00015
25.76800 6369.53067 6446.67741 0.00016
25.77200 6481.35756 6439.70605 0.00015
25.77600 6452.75361 6432.70896 0.00015
25.78000 6475.37593 6425.70191 0.00015
25.78400 6500.46458 6418.69989 0.00015
25.78800 6483.15266 6411.71705 0.00015
25.79200 6459.53787 6404.76663 0.00015
25.79600 6326.28647 6397.86090 0.00016
25.80000 6439.75674 6391.01124 0.00016
25.80400 6383.88578 6384.22849 0.00016
25.80800 6398.02537 6377.52238 0.00016
25.81200 6443.19968 6370.89848 0.00016
25.81600 6353.41231 6364.36589 0.00016
25.82000 6401.10703 6357.93134 0.00016
25.82400 6379.11475 6351.60144 0.00016
25.82800 6541.90963 6345.38073 0.00015
25.83200 6533.79393 6339.26972 0.00015
25.83600 6521.77385 6333.27420 0.00015
25.84000 6491.59451 6327.39678 0.00015
25.84400 6386.18414 6321.63948 0.00016
25.84800 6322.60604 6316.00374 0.00016
25.85200 6266.81308 6310.49051 0.00016
25.85600 6391.41386 6305.10026 0.00016
25.86000 6289.10996 6299.83305 0.00016
25.86400 6268.84664 6294.68859 0.00016
25.86800 6287.19769 6289.66625 0.00016
25.87200 6388.44455 6284.76510 0.00016
25.87600 6341.78009 6279.98398 0.00016
25.88000 6224.81832 6275.32151 0.00016
25.88400 6371.20192 6270.77613 0.00016
25.88800 6433.18051 6266.34609 0.00016
25.89200 6344.22178 6262.02964 0.00016
25.89600 6309.12078 6257.82515 0.00016
25.90000 6383.13312 6253.73008 0.00016
25.90400 6321.79135 6249.74187 0.00016
25.90800 6253.81117 6245.85884 0.00016
25.91200 6378.05394 6242.07878 0.00016
25.91600 6323.22790 6238.39968 0.00016
25.92000 6270.12597 6234.82076 0.00016
25.92400 6280.02131 6231.33983 0.00016
25.92800 6343.58283 6227.94923 0.00016
25.93200 6198.68424 6224.65043 0.00016
25.93600 6234.18356 6221.44122 0.00016
25.94000 6244.47162 6218.31945 0.00016
25.94400 6214.21292 6215.28298 0.00016
25.94800 6155.00850 6212.32973 0.00016
25.95200 6278.60242 6209.45766 0.00016
25.95600 6316.71464 6206.66476 0.00016
25.96000 6261.94369 6203.94986 0.00016
25.96400 6291.18947 6201.31206 0.00016
25.96800 6245.76009 6198.74519 0.00016
25.97200 6196.31917 6196.25001 0.00016
25.97600 6348.05704 6193.82477 0.00016
25.98000 6361.95989 6191.46782 0.00016
25.98400 6301.71718 6189.17777 0.00016
25.98800 6226.34940 6186.95331 0.00016
25.99200 6329.30042 6184.79160 0.00016
25.99600 6206.75388 6182.69199 0.00016
26.00000 6308.90253 6180.65307 0.00016
26.00400 6181.38477 6178.67350 0.00016
26.00800 6209.72544 6176.75198 0.00016
26.01200 6180.65721 6174.88728 0.00016
26.01600 6120.82983 6173.07822 0.00016
26.02000 6222.59698 6171.32365 0.00016
26.02400 6213.44154 6169.62272 0.00016
26.02800 6260.77755 6167.97615 0.00016
26.03200 6246.28079 6166.38370 0.00016
26.03600 6269.94913 6164.83689 0.00016
26.04000 6232.55621 6163.33969 0.00016
26.04400 6159.66057 6161.89130 0.00016
26.04800 6297.72144 6160.49094 0.00016
26.05200 6199.40025 6159.13787 0.00016
26.05600 6148.25113 6157.83142 0.00016
26.06000 6209.99615 6156.57095 0.00016
26.06400 6166.69229 6155.35613 0.00016
26.06800 6127.43124 6154.18732 0.00016
26.07200 6248.39767 6153.06326 0.00016
26.07600 6062.81438 6151.98131 0.00016
26.08000 6177.18683 6150.94286 0.00016
26.08400 6165.55311 6149.94755 0.00016
26.08800 6126.41358 6148.99581 0.00016
26.09200 6147.32754 6148.08946 0.00016
26.09600 6149.18642 6147.22593 0.00016
26.10000 6138.30493 6146.40037 0.00016
26.10400 6200.77256 6145.61677 0.00016
26.10800 6279.22317 6144.87501 0.00016
26.11200 6078.66709 6144.17502 0.00016
26.11600 6173.51266 6143.51680 0.00016
26.12000 6179.97483 6142.90136 0.00016
26.12400 6141.82552 6142.33085 0.00016
26.12800 6203.54168 6141.80173 0.00016
26.13200 6125.60793 6141.31088 0.00016
26.13600 6117.84634 6140.86208 0.00016
26.14000 6229.10660 6140.45557 0.00016
26.14400 6183.54487 6140.09157 0.00016
26.14800 6200.00888 6139.77032 0.00016
26.15200 6167.27057 6139.49207 0.00016
26.15600 6190.58845 6139.25711 0.00016
26.16000 6147.55059 6139.06576 0.00016
26.16400 6203.14647 6138.91833 0.00016
26.16800 6137.89209 6138.81516 0.00016
26.17200 6141.41753 6138.75659 0.00016
26.17600 6261.50732 6138.74316 0.00016
26.18000 6141.02221 6138.77563 0.00016
26.18400 6228.71090 6138.85310 0.00016
26.18800 6152.29001 6138.97659 0.00016
26.19200 6180.70437 6139.14762 0.00016
26.19600 6157.87664 6139.36427 0.00016
26.20000 6131.16791 6139.62668 0.00016
26.20400 6143.03069 6139.93582 0.00016
26.20800 6134.55632 6140.29173 0.00016
26.21200 6235.54556 6140.69435 0.00016
26.21600 6243.41924 6141.14377 0.00016
26.22000 6310.55849 6141.64060 0.00016
26.22400 6289.17719 6142.18270 0.00016
26.22800 6263.01895 6142.76903 0.00016
26.23200 6125.52382 6143.39969 0.00016
26.23600 6119.10679 6144.07362 0.00016
26.24000 6294.71242 6144.78953 0.00016
26.24400 6301.91113 6145.54583 0.00016
26.24800 6223.47225 6146.34066 0.00016
26.25200 6181.55901 6147.17180 0.00016
26.25600 6116.30929 6148.03669 0.00016
26.26000 6109.56037 6148.93239 0.00016
26.26400 6048.61245 6149.85556 0.00017
26.26800 6125.77746 6150.80253 0.00016
26.27200 6164.87059 6151.76971 0.00016
26.27600 6128.71124 6152.75253 0.00016
26.28000 6201.64798 6153.74364 0.00016
26.28400 6275.30068 6154.73907 0.00016
26.28800 6327.11880 6155.73292 0.00016
26.29200 6199.34556 6156.71893 0.00016
26.29600 6351.64632 6157.69052 0.00016
26.30000 6244.62254 6158.64102 0.00016
26.30400 6215.44347 6159.56294 0.00016
26.30800 6266.68069 6160.44897 0.00016
26.31200 6175.79769 6161.29207 0.00016
26.31600 6188.29583 6162.08506 0.00016
26.32000 6216.71001 6162.82096 0.00016
26.32400 6303.70545 6163.49315 0.00016
26.32800 6304.66482 6164.09537 0.00016
26.33200 6135.07336 6164.62182 0.00016
26.33600 6221.87933 6165.06761 0.00016
26.34000 6103.41263 6165.42854 0.00016
26.34400 6129.55435 6165.70129 0.00016
26.34800 6238.09643 6165.88353 0.00016
26.35200 6290.24072 6165.97391 0.00016
26.35600 6160.26948 6165.97217 0.00016
26.36000 6079.56618 6165.87911 0.00016
26.36400 6196.92990 6165.69659 0.00016
26.36800 6162.52364 6165.42745 0.00016
26.37200 6191.13409 6165.07552 0.00016
26.37600 6222.60101 6164.64546 0.00016
26.38000 6204.76653 6164.14274 0.00016
26.38400 6296.04839 6163.57344 0.00016
26.38800 6360.57259 6162.94419 0.00016
26.39200 6227.70511 6162.26204 0.00016
26.39600 6197.89995 6161.53433 0.00016
26.40000 6388.17602 6160.77093 0.00016
26.40400 6177.31540 6159.98336 0.00016
26.40800 6258.82191 6159.16497 0.00016
26.41200 6074.46130 6158.32952 0.00016
26.41600 6135.73267 6157.48526 0.00016
26.42000 6282.78865 6156.63892 0.00016
26.42400 6225.32765 6155.79685 0.00016
26.42800 6230.20776 6154.96500 0.00016
26.43200 6198.03437 6154.14894 0.00016
26.43600 6198.24310 6153.35420 0.00016
26.44000 6279.88226 6152.58514 0.00016
26.44400 6187.02747 6151.84430 0.00016
26.44800 6180.95791 6151.13636 0.00016
26.45200 6206.07694 6150.46462 0.00016
26.45600 6042.80919 6149.83216 0.00017
26.46000 6229.79683 6149.23984 0.00016
26.46400 6339.03667 6148.68993 0.00016
26.46800 6218.12675 6148.18400 0.00016
26.47200 6161.22882 6147.72303 0.00016
26.47600 6249.58069 6147.30842 0.00016
26.48000 6160.98153 6146.94285 0.00016
26.48400 6117.55481 6146.62376 0.00016
26.48800 6162.37612 6146.34680 0.00016
26.49200 6185.42824 6146.11448 0.00016
26.49600 6174.88267 6145.92573 0.00016
26.50000 6192.74971 6145.78009 0.00016
26.50400 6245.67382 6145.67623 0.00016
26.50800 6120.91162 6145.61264 0.00016
26.51200 6129.84353 6145.58760 0.00016
26.51600 6114.18925 6145.59922 0.00016
26.52000 6024.77067 6145.64542 0.00017
26.52400 6225.78773 6145.72399 0.00016
26.52800 6261.94152 6145.83255 0.00016
26.53200 6185.55378 6145.96861 0.00016
26.53600 6170.65460 6146.12956 0.00016
26.54000 6217.87411 6146.31269 0.00016
26.54400 6307.82604 6146.51520 0.00016
26.54800 6278.52474 6146.73430 0.00016
26.55200 6249.39950 6146.96729 0.00016
26.55600 6293.56496 6147.21062 0.00016
26.56000 6210.46043 6147.46168 0.00016
26.56400 6291.01326 6147.71756 0.00016
26.56800 6187.94463 6147.97560 0.00016
26.57200 6166.13989 6148.23377 0.00016
26.57600 6200.91340 6148.48843 0.00016
26.58000 6160.34711 6148.73546 0.00016
26.58400 6083.94025 6148.97377 0.00016
26.58800 6062.54308 6149.20187 0.00016
26.59200 6120.79784 6149.41884 0.00016
26.59600 6117.16579 6149.61906 0.00016
26.60000 6148.35266 6149.80148 0.00016
26.60400 6142.90401 6149.96577 0.00016
26.60800 6091.31853 6150.11083 0.00016
26.61200 6108.39980 6150.23582 0.00016
26.61600 6227.52710 6150.34022 0.00016
26.62000 6226.07567 6150.42378 0.00016
26.62400 6262.01155 6150.48661 0.00016
26.62800 6225.06172 6150.52908 0.00016
26.63200 6362.20263 6150.55190 0.00016
26.63600 6228.88908 6150.55604 0.00016
26.64000 6262.09551 6150.54276 0.00016
26.64400 6117.70661 6150.51353 0.00016
26.64800 6140.53797 6150.47007 0.00016
26.65200 6226.41078 6150.41426 0.00016
26.65600 6161.93238 6150.34812 0.00016
26.66000 6134.24863 6150.27373 0.00016
26.66400 6160.04103 6150.19338 0.00016
26.66800 6315.63282 6150.10948 0.00016
26.67200 6308.25528 6150.02308 0.00016
26.67600 6197.41492 6149.93656 0.00016
26.68000 6121.38331 6149.85157 0.00016
26.68400 6229.34755 6149.76968 0.00016
26.68800 6182.84489 6149.69300 0.00016
26.69200 6240.99840 6149.62106 0.00016
26.69600 6235.28259 6149.55121 0.00016
26.70000 6307.97623 6149.48545 0.00016
26.70400 6314.45398 6149.42368 0.00016
26.70800 6269.62103 6149.35973 0.00016
26.71200 6230.66833 6149.29383 0.00016
26.71600 6187.33779 6149.22079 0.00016
26.72000 6277.08665 6149.13643 0.00016
26.72400 6272.52478 6149.03601 0.00016
26.72800 6258.77070 6148.91378 0.00016
26.73200 6286.99103 6148.76481 0.00016
26.73600 6245.47976 6148.58362 0.00016
26.74000 6256.75466 6148.35778 0.00016
26.74400 6136.89131 6148.08699 0.00016
26.74800 6083.53928 6147.75565 0.00016
26.75200 6100.99660 6147.36293 0.00016
26.75600 6143.58932 6146.90482 0.00016
26.76000 6268.21635 6146.38024 0.00016
26.76400 6176.48572 6145.77805 0.00016
26.76800 6219.48507 6145.09955 0.00016
26.77200 6124.25897 6144.34810 0.00016
26.77600 6162.83819 6143.52194 0.00016
26.78000 6214.15700 6142.62490 0.00016
26.78400 6194.20535 6141.66263 0.00016
26.78800 6156.31683 6140.64111 0.00016
26.79200 6172.31643 6139.56737 0.00016
26.79600 6178.88239 6138.44929 0.00016
26.80000 6108.59382 6137.29530 0.00016
26.80400 6062.58324 6136.11411 0.00016
26.80800 6232.35209 6134.91454 0.00016
26.81200 6102.54744 6133.70521 0.00016
26.81600 6085.91154 6132.49444 0.00016
26.82000 6170.61319 6131.29003 0.00016
26.82400 6242.46798 6130.09919 0.00016
26.82800 6170.84156 6128.92862 0.00016
26.83200 6120.02793 6127.78490 0.00016
26.83600 6160.65538 6126.67285 0.00016
26.84000 6078.95741 6125.59487 0.00016
26.84400 6012.50361 6124.55567 0.00017
26.84800 6163.02514 6123.55866 0.00016
26.85200 6279.14739 6122.60628 0.00016
26.85600 6274.10391 6121.70047 0.00016
26.86000 6231.61940 6120.84269 0.00016
26.86400 6194.76354 6120.03397 0.00016
26.86800 6111.28160 6119.27498 0.00016
26.87200 6056.19545 6118.56608 0.00017
26.87600 6166.66301 6117.90739 0.00016
26.88000 6315.86577 6117.29879 0.00016
26.88400 6014.02612 6116.74000 0.00017
26.88800 6003.88063 6116.23061 0.00017
26.89200 6043.67591 6115.77006 0.00017
26.89600 5940.30704 6115.35776 0.00017
26.90000 5954.45629 6114.99303 0.00017
26.90400 6086.00000 6114.67514 0.00016
26.90800 6157.87846 6114.40338 0.00016
26.91200 6277.89392 6114.17699 0.00016
26.91600 6205.00000 6113.99522 0.00016
26.92000 6012.81290 6113.85734 0.00017
26.92400 5885.88060 6113.76265 0.00017
26.92800 6075.59808 6113.71168 0.00016
26.93200 6241.36514 6113.70646 0.00016
26.93600 6253.98241 6113.73810 0.00016
26.94000 6034.45842 6113.80955 0.00017
26.94400 6060.51013 6113.92108 0.00017
26.94800 6161.30117 6114.07216 0.00016
26.95200 6019.77612 6114.26225 0.00017
26.95600 5975.84542 6114.49070 0.00017
26.96000 5927.38593 6114.75668 0.00017
26.96400 5960.63699 6115.06114 0.00017
26.96800 6067.19936 6115.40099 0.00016
26.97200 6103.03305 6115.78119 0.00016
26.97600 6006.25906 6116.19859 0.00017
26.98000 6049.71261 6116.65305 0.00017
26.98400 6088.00000 6117.14443 0.00016
26.98800 6065.88060 6117.67266 0.00016
26.99200 6050.99787 6118.23771 0.00017
26.99600 5967.41082 6118.83957 0.00017
27.00000 5965.38060 6119.47829 0.00017
27.00400 6009.54158 6120.15396 0.00017
27.00800 6117.13037 6120.86671 0.00016
27.01200 6030.20576 6121.61670 0.00017
27.01600 6166.03306 6122.40415 0.00016
27.02000 6203.29158 6123.22929 0.00016
27.02400 6149.10714 6124.09242 0.00016
27.02800 6162.35457 6124.99387 0.00016
27.03200 6045.17058 6125.93400 0.00017
27.03600 6060.96774 6126.91322 0.00016
27.04000 6069.35981 6127.93199 0.00016
27.04400 5960.90216 6128.99079 0.00017
27.04800 5937.68763 6130.09015 0.00017
27.05200 6167.35964 6131.23066 0.00016
27.05600 6168.52186 6132.41301 0.00016
27.06000 6019.88643 6133.63787 0.00017
27.06400 6162.90085 6134.90567 0.00016
27.06800 6321.86537 6136.21736 0.00016
27.07200 6272.53959 6137.57371 0.00016
27.07600 6150.34572 6138.97559 0.00016
27.08000 6119.15036 6140.42389 0.00016
27.08400 6156.31021 6141.91955 0.00016
27.08800 6264.38016 6143.46357 0.00016
27.09200 6223.53947 6145.05700 0.00016
27.09600 6119.17649 6146.70096 0.00016
27.10000 6042.45215 6148.39660 0.00017
27.10400 6123.98418 6150.14516 0.00016
27.10800 6109.40069 6151.94791 0.00016
27.11200 6099.68782 6153.80622 0.00016
27.11600 6161.95706 6155.72151 0.00016
27.12000 6242.03039 6157.69526 0.00016
27.12400 6075.84697 6159.72904 0.00016
27.12800 6168.78779 6161.82449 0.00016
27.13200 6313.33795 6163.98332 0.00016
27.13600 6300.07251 6166.20735 0.00016
27.14000 6146.22601 6168.49846 0.00016
27.14400 6279.03066 6170.85864 0.00016
27.14800 6105.05544 6173.28995 0.00016
27.15200 6172.27619 6175.79458 0.00016
27.15600 6065.71429 6178.37481 0.00016
27.16000 6129.12823 6181.03302 0.00016
27.16400 6270.06183 6183.77173 0.00016
27.16800 6270.89256 6186.59356 0.00016
27.17200 6258.75053 6189.50157 0.00016
27.17600 6304.94669 6192.50024 0.00016
27.18000 6121.27006 6195.59268 0.00016
27.18400 6121.54424 6198.77689 0.00016
27.18800 6215.43603 6202.05837 0.00016
27.19200 6130.81983 6205.44193 0.00016
27.19600 6066.17058 6208.93125 0.00016
27.20000 6240.73241 6212.52977 0.00016
27.20400 6404.18128 6216.24152 0.00016
27.20800 6156.98721 6220.06991 0.00016
27.21200 6170.74947 6224.02013 0.00016
27.21600 6228.72388 6228.09679 0.00016
27.22000 6310.03785 6232.30473 0.00016
27.22400 6342.35714 6236.64905 0.00016
27.22800 6480.56610 6241.13506 0.00015
27.23200 6336.61621 6245.76836 0.00016
27.23600 6259.39872 6250.55480 0.00016
27.24000 6271.36621 6255.50052 0.00016
27.24400 6299.75373 6260.61197 0.00016
27.24800 6440.02239 6265.89592 0.00016
27.25200 6428.41205 6271.35974 0.00016
27.25600 6294.72281 6277.01218 0.00016
27.26000 6327.05331 6282.86167 0.00016
27.26400 6335.02239 6288.91265 0.00016
27.26800 6377.11994 6295.17317 0.00016
27.27200 6341.94403 6301.65395 0.00016
27.27600 6375.04531 6308.36406 0.00016
27.28000 6513.31095 6315.31384 0.00015
27.28400 6586.84861 6322.51358 0.00015
27.28800 6519.91151 6329.97402 0.00015
27.29200 6433.85821 6337.70640 0.00016
27.29600 6448.48601 6345.72242 0.00016
27.30000 6412.70149 6354.03433 0.00016
27.30400 6263.75000 6362.65486 0.00016
27.30800 6503.97121 6371.59726 0.00015
27.31200 6457.35608 6380.87531 0.00015
27.31600 6399.30490 6390.50329 0.00016
27.32000 6472.26587 6400.49598 0.00015
27.32400 6523.56809 6410.86865 0.00015
27.32800 6494.67150 6421.63700 0.00015
27.33200 6431.19608 6432.81719 0.00016
27.33600 6414.95959 6444.42570 0.00016
27.34000 6415.08158 6456.47934 0.00016
27.34400 6478.44022 6468.99512 0.00015
27.34800 6512.78937 6481.99020 0.00015
27.35200 6512.74817 6495.48168 0.00015
27.35600 6450.76732 6509.48654 0.00016
27.36000 6577.20677 6524.02137 0.00015
27.36400 6525.13595 6539.10226 0.00015
27.36800 6634.58018 6554.74441 0.00015
27.37200 6589.35834 6570.96197 0.00015
27.37600 6573.38265 6587.76810 0.00015
27.38000 6614.93607 6605.17529 0.00015
27.38400 6607.69545 6623.18967 0.00015
27.38800 6588.07944 6641.81507 0.00015
27.39200 6678.08815 6661.05629 0.00015
27.39600 6596.51605 6680.91200 0.00015
27.40000 6588.97044 6701.37635 0.00015
27.40400 6750.65066 6722.43837 0.00015
27.40800 6740.75893 6744.08130 0.00015
27.41200 6817.13985 6766.28198 0.00015
27.41600 6716.02194 6789.01023 0.00015
27.42000 6772.83396 6812.22829 0.00015
27.42400 6778.03664 6835.89046 0.00015
27.42800 6858.75100 6859.94281 0.00015
27.43200 6807.85483 6884.32318 0.00015
27.43600 6833.65420 6908.96139 0.00015
27.44000 6799.37340 6933.77977 0.00015
27.44400 6925.07862 6958.69450 0.00014
27.44800 6870.02531 6983.61622 0.00015
27.45200 6883.03283 7008.44958 0.00015
27.45600 7102.93623 7033.10110 0.00014
27.46000 7095.01205 7057.47675 0.00014
27.46400 7029.03982 7081.48605 0.00014
27.46800 7115.43544 7105.04491 0.00014
27.47200 7170.43954 7128.07845 0.00014
27.47600 7195.80714 7150.52378 0.00014
27.48000 7228.58162 7172.33248 0.00014
27.48400 7340.44063 7193.47252 0.00014
27.48800 7264.22708 7213.92963 0.00014
27.49200 7021.99159 7233.70790 0.00014
27.49600 7150.76770 7252.83022 0.00014
27.50000 7310.05900 7271.33771 0.00014
27.50400 7345.58792 7289.28038 0.00014
27.50800 7376.16310 7306.72776 0.00014
27.51200 7321.08432 7323.75733 0.00014
27.51600 7257.58433 7340.45217 0.00014
27.52000 7244.39443 7356.89759 0.00014
27.52400 7288.87390 7373.17718 0.00014
27.52800 7399.15095 7389.36911 0.00014
27.53200 7263.50524 7405.54274 0.00014
27.53600 7355.40872 7421.75584 0.00014
27.54000 7251.05223 7438.04945 0.00014
27.54400 7310.07948 7454.44710 0.00014
27.54800 7357.16875 7470.95683 0.00014
27.55200 7355.84572 7487.56573 0.00014
27.55600 7363.47401 7504.24040 0.00014
27.56000 7391.69579 7520.92617 0.00014
27.56400 7447.03277 7537.54802 0.00013
27.56800 7273.47297 7554.02280 0.00014
27.57200 7446.22344 7570.22877 0.00013
27.57600 7289.44977 7586.13610 0.00014
27.58000 7454.30658 7601.57553 0.00013
27.58400 7427.96163 7616.42635 0.00013
27.58800 7226.64279 7630.56339 0.00014
27.59200 7361.50099 7643.87023 0.00014
27.59600 7283.38882 7656.23891 0.00014
27.60000 7295.79740 7667.57269 0.00014
27.60400 7292.11031 7677.79078 0.00014
27.60800 7372.23043 7686.83117 0.00014
27.61200 7312.99409 7694.65238 0.00014
27.61600 7209.53717 7701.23481 0.00014
27.62000 7249.83211 7706.58118 0.00014
27.62400 7264.15255 7710.71583 0.00014
27.62800 7332.86759 7713.68328 0.00014
27.63200 7368.94739 7715.54582 0.00014
27.63600 7234.18519 7716.38061 0.00014
27.64000 7351.42139 7716.27637 0.00014
27.64400 7272.08801 7715.32981 0.00014
27.64800 7219.19916 7713.63739 0.00014
27.65200 7296.34988 7711.29921 0.00014
27.65600 7291.56032 7708.40931 0.00014
27.66000 7369.62369 7705.05383 0.00014
27.66400 7370.67979 7701.30785 0.00014
27.66800 7205.85672 7697.23294 0.00014
27.67200 7385.45142 7692.87532 0.00014
27.67600 7393.14879 7688.26456 0.00014
27.68000 7238.27602 7683.41317 0.00014
27.68400 7278.91789 7678.31664 0.00014
27.68800 7252.63386 7672.95428 0.00014
27.69200 7182.63630 7667.29066 0.00014
27.69600 7167.65758 7661.27760 0.00014
27.70000 7314.56055 7654.85658 0.00014
27.70400 7393.46963 7647.96176 0.00014
27.70800 7255.11208 7640.52300 0.00014
27.71200 7359.67332 7632.46924 0.00014
27.71600 7246.07359 7623.73179 0.00014
27.72000 7116.31086 7614.24761 0.00014
27.72400 7248.55991 7603.96210 0.00014
27.72800 7258.55201 7592.83178 0.00014
27.73200 7294.40738 7580.82623 0.00014
27.73600 7178.18980 7567.92949 0.00014
27.74000 7154.55408 7554.14092 0.00014
27.74400 7240.67282 7539.47529 0.00014
27.74800 7348.03645 7523.96243 0.00014
27.75200 7327.41163 7507.64613 0.00014
27.75600 7190.74747 7490.58272 0.00014
27.76000 7188.72843 7472.83930 0.00014
27.76400 7184.06646 7454.49165 0.00014
27.76800 7107.40403 7435.62198 0.00014
27.77200 7088.35802 7416.31703 0.00014
27.77600 7144.41847 7396.66660 0.00014
27.78000 7217.11668 7376.75797 0.00014
27.78400 7156.33457 7356.67473 0.00014
27.78800 7122.10309 7336.50189 0.00014
27.79200 7132.81196 7316.31685 0.00014
27.79600 6985.15210 7296.19048 0.00014
27.80000 6998.82993 7276.18609 0.00014
27.80400 6937.52426 7256.35858 0.00014
27.80800 6969.95292 7236.75393 0.00014
27.81200 7064.03275 7217.40882 0.00014
27.81600 7026.84923 7198.35054 0.00014
27.82000 7004.27159 7179.59706 0.00014
27.82400 7058.03756 7161.15740 0.00014
27.82800 6980.78807 7143.03213 0.00014
27.83200 6976.11404 7125.21412 0.00014
27.83600 7106.22569 7107.68955 0.00014
27.84000 7054.35791 7090.43954 0.00014
27.84400 7014.52318 7073.44359 0.00014
27.84800 7041.30174 7056.67464 0.00014
27.85200 6943.20556 7040.09346 0.00014
27.85600 6990.11934 7023.67991 0.00014
27.86000 6978.79351 7007.40768 0.00014
27.86400 6873.69845 6991.25391 0.00015
27.86800 6897.05542 6975.20228 0.00014
27.87200 6862.48798 6959.23866 0.00015
27.87600 6872.46834 6943.34423 0.00015
27.88000 6857.21977 6927.52419 0.00015
27.88400 6915.58079 6911.78286 0.00014
27.88800 7033.13414 6896.13067 0.00014
27.89200 6756.42762 6880.58365 0.00015
27.89600 6791.04563 6865.16282 0.00015
27.90000 6849.65482 6849.89329 0.00015
27.90400 6801.22056 6834.80323 0.00015
27.90800 6793.45567 6819.92294 0.00015
27.91200 6906.85080 6805.28377 0.00014
27.91600 6902.35884 6790.91719 0.00014
27.92000 6858.05394 6776.85394 0.00015
27.92400 6826.18591 6763.12330 0.00015
27.92800 6798.78918 6749.75243 0.00015
27.93200 6757.53656 6736.76598 0.00015
27.93600 6647.96217 6724.18574 0.00015
27.94000 6698.74266 6712.03095 0.00015
27.94400 6748.17765 6700.31928 0.00015
27.94800 6727.22472 6689.06203 0.00015
27.95200 6533.18334 6678.26320 0.00015
27.95600 6659.08043 6667.93549 0.00015
27.96000 6770.71475 6658.08320 0.00015
27.96400 6677.73361 6648.70117 0.00015
27.96800 6634.13626 6639.79313 0.00015
27.97200 6691.43458 6631.35639 0.00015
27.97600 6590.42422 6623.38650 0.00015
27.98000 6701.39362 6615.87749 0.00015
27.98400 6637.25208 6608.82203 0.00015
27.98800 6559.30374 6602.21157 0.00015
27.99200 6614.68334 6596.03659 0.00015
27.99600 6611.03302 6590.28668 0.00015
28.00000 6516.80725 6584.95065 0.00015
28.00400 6613.24987 6580.01661 0.00015
28.00800 6648.98988 6575.47204 0.00015
28.01200 6578.39799 6571.30397 0.00015
28.01600 6620.31798 6567.49895 0.00015
28.02000 6527.52848 6564.04306 0.00015
28.02400 6653.83765 6560.92198 0.00015
28.02800 6557.37816 6558.12109 0.00015
28.03200 6543.47788 6555.62539 0.00015
28.03600 6610.65007 6553.41962 0.00015
28.04000 6522.95785 6551.48823 0.00015
28.04400 6521.98668 6549.81545 0.00015
28.04800 6444.19513 6548.38536 0.00016
28.05200 6545.99597 6547.18207 0.00015
28.05600 6448.60027 6546.18888 0.00016
28.06000 6495.80624 6545.38956 0.00015
28.06400 6473.89907 6544.76802 0.00015
28.06800 6500.72570 6544.30810 0.00015
28.07200 6548.25966 6543.99385 0.00015
28.07600 6591.40266 6543.80959 0.00015
28.08000 6437.00517 6543.74002 0.00016
28.08400 6436.69214 6543.77036 0.00016
28.08800 6546.78657 6543.88644 0.00015
28.09200 6592.02770 6544.07482 0.00015
28.09600 6529.16071 6544.32293 0.00015
28.10000 6412.58162 6544.61916 0.00016
28.10400 6445.67723 6544.95298 0.00016
28.10800 6515.11540 6545.31507 0.00015
28.11200 6588.04328 6545.69737 0.00015
28.11600 6526.77956 6546.09317 0.00015
28.12000 6591.09223 6546.49713 0.00015
28.12400 6496.39780 6546.90534 0.00015
28.12800 6541.36018 6547.31529 0.00015
28.13200 6637.65646 6547.72588 0.00015
28.13600 6656.72160 6548.13774 0.00015
28.14000 6590.53906 6548.55320 0.00015
28.14400 6532.81065 6548.97174 0.00015
28.14800 6535.19764 6549.39859 0.00015
28.15200 6588.17462 6549.83817 0.00015
28.15600 6474.47270 6550.29545 0.00015
28.16000 6555.98474 6550.77589 0.00015
28.16400 6597.93063 6551.28517 0.00015
28.16800 6436.12623 6551.82900 0.00016
28.17200 6487.58217 6552.41300 0.00015
28.17600 6585.40504 6553.04265 0.00015
28.18000 6516.67909 6553.72205 0.00015
28.18400 6553.40107 6554.45487 0.00015
28.18800 6502.77113 6555.24445 0.00015
28.19200 6554.80953 6556.09280 0.00015
28.19600 6601.24101 6557.00085 0.00015
28.20000 6516.15875 6557.96841 0.00015
28.20400 6574.56017 6558.99413 0.00015
28.20800 6538.20399 6560.07557 0.00015
28.21200 6543.40339 6561.20923 0.00015
28.21600 6508.11791 6562.39071 0.00015
28.22000 6506.08562 6563.61486 0.00015
28.22400 6570.37534 6564.87596 0.00015
28.22800 6656.21641 6566.16800 0.00015
28.23200 6672.50120 6567.48493 0.00015
28.23600 6687.05313 6568.82098 0.00015
28.24000 6648.91587 6570.17093 0.00015
28.24400 6571.64714 6571.53071 0.00015
28.24800 6541.16780 6572.89801 0.00015
28.25200 6588.83596 6574.27087 0.00015
28.25600 6665.69131 6575.64792 0.00015
28.26000 6633.36928 6577.03312 0.00015
28.26400 6603.41542 6578.43137 0.00015
28.26800 6590.90490 6579.85010 0.00015
28.27200 6685.41347 6581.29937 0.00015
28.27600 6656.77847 6582.79192 0.00015
28.28000 6634.51518 6584.34324 0.00015
28.28400 6624.92332 6585.97205 0.00015
28.28800 6714.41507 6587.70014 0.00015
28.29200 6621.51261 6589.54610 0.00015
28.29600 6647.88445 6591.53776 0.00015
28.30000 6622.51105 6593.70296 0.00015
28.30400 6636.38706 6596.07037 0.00015
28.30800 6649.43610 6598.66753 0.00015
28.31200 6711.18116 6601.52765 0.00015
28.31600 6721.58679 6604.68302 0.00015
28.32000 6605.26998 6608.16655 0.00015
28.32400 6716.62380 6612.01157 0.00015
28.32800 6496.56253 6616.25159 0.00015
28.33200 6713.49973 6620.92010 0.00015
28.33600 6707.92559 6626.05037 0.00015
28.34000 6591.60783 6631.67518 0.00015
28.34400 6517.70012 6637.82676 0.00015
28.34800 6688.14803 6644.53645 0.00015
28.35200 6743.71516 6651.83457 0.00015
28.35600 6611.29420 6659.75010 0.00015
28.36000 6714.33385 6668.31045 0.00015
28.36400 6707.63510 6677.54151 0.00015
28.36800 6774.10863 6687.46773 0.00015
28.37200 6628.88689 6698.10699 0.00015
28.37600 6635.45713 6709.47502 0.00015
28.38000 6594.52692 6721.58610 0.00015
28.38400 6819.09904 6734.44787 0.00015
28.38800 6866.07231 6748.06202 0.00015
28.39200 6841.56615 6762.42317 0.00015
28.39600 6861.94728 6777.51762 0.00015
28.40000 6734.53265 6793.32192 0.00015
28.40400 6739.77019 6809.80206 0.00015
28.40800 6865.05059 6826.91208 0.00015
28.41200 6898.74517 6844.58667 0.00014
28.41600 6904.09824 6862.74567 0.00014
28.42000 6993.57652 6881.29539 0.00014
28.42400 7004.39324 6900.11980 0.00014
28.42800 6980.57735 6919.08182 0.00014
28.43200 6890.30511 6938.02189 0.00015
28.43600 6870.24561 6956.77347 0.00015
28.44000 6929.28860 6975.12069 0.00014
28.44400 6986.17788 6992.91131 0.00014
28.44800 7008.98882 7009.88682 0.00014
28.45200 6967.16373 7025.81947 0.00014
28.45600 6953.95314 7040.47829 0.00014
28.46000 7123.33593 7053.63772 0.00014
28.46400 7054.02503 7065.08535 0.00014
28.46800 7131.00664 7074.62980 0.00014
28.47200 7077.03601 7082.10854 0.00014
28.47600 7118.03940 7087.39511 0.00014
28.48000 7226.67419 7090.40498 0.00014
28.48400 7266.37673 7091.09603 0.00014
28.48800 7255.90575 7089.47444 0.00014
28.49200 7132.23962 7085.59346 0.00014
28.49600 7171.40237 7079.54865 0.00014
28.50000 7201.85682 7071.47399 0.00014
28.50400 7201.25133 7061.53579 0.00014
28.50800 7253.05098 7049.92286 0.00014
28.51200 7052.42056 7036.84241 0.00014
28.51600 7029.41747 7022.51081 0.00014
28.52000 7080.37982 7007.14611 0.00014
28.52400 7137.48722 6990.96211 0.00014
28.52800 6964.89965 6974.16327 0.00014
28.53200 7014.94621 6956.94090 0.00014
28.53600 7101.93666 6939.47046 0.00014
28.54000 6956.47509 6921.90993 0.00014
28.54400 6904.29808 6904.39918 0.00014
28.54800 6915.32796 6887.06008 0.00014
28.55200 6966.77020 6869.99719 0.00014
28.55600 6914.89086 6853.29886 0.00014
28.56000 6786.59585 6837.03857 0.00015
28.56400 6892.69330 6821.27644 0.00015
28.56800 6691.93880 6806.06079 0.00015
28.57200 6844.69657 6791.42957 0.00015
28.57600 6794.04792 6777.41176 0.00015
28.58000 6817.25031 6764.02866 0.00015
28.58400 6670.42144 6751.29499 0.00015
28.58800 6661.62876 6739.21984 0.00015
28.59200 6723.01810 6727.80756 0.00015
28.59600 6707.05964 6717.05835 0.00015
28.60000 6705.50537 6706.96884 0.00015
28.60400 6692.27806 6697.53258 0.00015
28.60800 6660.43253 6688.74083 0.00015
28.61200 6753.94329 6680.58264 0.00015
28.61600 6585.81964 6673.03994 0.00015
28.62000 6559.79694 6666.09821 0.00015
28.62400 6689.80916 6659.73837 0.00015
28.62800 6527.47050 6653.93869 0.00015
28.63200 6617.31541 6648.67437 0.00015
28.63600 6711.95036 6643.91559 0.00015
28.64000 6559.89747 6639.63358 0.00015
28.64400 6550.48584 6635.78680 0.00015
28.64800 6561.90021 6632.37999 0.00015
28.65200 6536.95994 6629.35052 0.00015
28.65600 6617.38116 6626.65793 0.00015
28.66000 6669.11419 6624.25893 0.00015
28.66400 6561.98376 6622.10856 0.00015
28.66800 6588.21610 6620.16041 0.00015
28.67200 6618.45472 6618.35972 0.00015
28.67600 6547.18818 6616.64677 0.00015
28.68000 6603.79515 6614.97247 0.00015
28.68400 6476.57147 6613.28086 0.00015
28.68800 6558.13198 6611.51572 0.00015
28.69200 6591.56561 6609.62132 0.00015
28.69600 6455.73756 6607.54331 0.00015
28.70000 6497.03863 6605.22968 0.00015
28.70400 6481.56801 6602.63170 0.00015
28.70800 6589.91071 6599.70489 0.00015
28.71200 6390.11632 6596.40988 0.00016
28.71600 6525.51458 6592.71326 0.00015
28.72000 6495.19617 6588.58824 0.00015
28.72400 6604.19371 6584.01514 0.00015
28.72800 6570.29811 6578.98173 0.00015
28.73200 6454.88668 6573.48333 0.00015
28.73600 6514.99441 6567.52270 0.00015
28.74000 6548.27864 6561.10971 0.00015
28.74400 6505.78866 6554.26084 0.00015
28.74800 6423.11312 6546.99853 0.00016
28.75200 6300.97816 6539.35033 0.00016
28.75600 6394.21611 6531.34808 0.00016
28.76000 6393.59861 6523.02689 0.00016
28.76400 6552.97871 6514.42428 0.00015
28.76800 6595.79642 6505.57932 0.00015
28.77200 6534.95821 6496.53197 0.00015
28.77600 6497.25446 6487.32132 0.00015
28.78000 6439.72134 6477.98511 0.00016
28.78400 6402.26164 6468.56131 0.00016
28.78800 6452.98601 6459.08536 0.00015
28.79200 6487.82943 6449.59054 0.00015
28.79600 6464.80916 6440.10777 0.00015
28.80000 6489.66596 6430.66546 0.00015
28.80400 6412.79878 6421.28946 0.00016
28.80800 6372.78082 6412.00301 0.00016
28.81200 6509.02486 6402.82686 0.00015
28.81600 6299.30029 6393.77933 0.00016
28.82000 6398.37104 6384.87642 0.00016
28.82400 6358.13894 6376.13192 0.00016
28.82800 6339.30237 6367.55761 0.00016
28.83200 6389.00834 6359.16338 0.00016
28.83600 6387.58099 6350.95735 0.00016
28.84000 6326.80170 6342.94606 0.00016
28.84400 6311.57014 6335.13478 0.00016
28.84800 6403.48078 6327.52778 0.00016
28.85200 6281.47804 6320.12619 0.00016
28.85600 6217.84452 6312.93188 0.00016
28.86000 6226.02529 6305.94561 0.00016
28.86400 6364.61128 6299.16702 0.00016
28.86800 6334.02768 6292.59496 0.00016
28.87200 6362.66569 6286.22765 0.00016
28.87600 6420.63668 6280.06272 0.00016
28.88000 6210.13187 6274.09732 0.00016
28.88400 6319.36918 6268.32867 0.00016
28.88800 6251.74634 6262.75421 0.00016
28.89200 6288.48499 6257.36624 0.00016
28.89600 6216.76311 6252.16098 0.00016
28.90000 6365.69098 6247.12939 0.00016
28.90400 6190.41200 6242.25692 0.00016
28.90800 6224.84349 6237.56225 0.00016
28.91200 6186.99030 6232.98625 0.00016
28.91600 6108.55060 6228.63848 0.00016
28.92000 6121.94810 6224.44929 0.00016
28.92400 6120.90847 6220.41240 0.00016
28.92800 6253.99814 6216.52278 0.00016
28.93200 6141.42294 6212.77608 0.00016
28.93600 6194.61981 6209.16852 0.00016
28.94000 6154.61858 6205.69578 0.00016
28.94400 6189.47218 6202.35364 0.00016
28.94800 6174.96385 6199.13800 0.00016
28.95200 6194.95848 6196.04492 0.00016
28.95600 6249.46234 6193.07088 0.00016
28.96000 6216.68387 6190.21245 0.00016
28.96400 6135.65105 6187.46417 0.00016
28.96800 6306.93985 6184.82368 0.00016
28.97200 6204.73277 6182.28761 0.00016
28.97600 6144.98729 6179.85271 0.00016
28.98000 6026.76364 6177.51648 0.00017
28.98400 6124.33848 6175.27764 0.00016
28.98800 6077.12962 6173.12965 0.00016
28.99200 6210.45675 6171.06936 0.00016
28.99600 6220.69042 6169.09577 0.00016
29.00000 6175.05510 6167.20631 0.00016
29.00400 6052.27014 6165.39853 0.00017
29.00800 6119.40671 6163.67005 0.00016
29.01200 6112.08129 6162.01861 0.00016
29.01600 6082.26910 6160.44202 0.00016
29.02000 6207.39553 6158.93817 0.00016
29.02400 6198.45210 6157.50516 0.00016
29.02800 6066.79718 6156.14159 0.00016
29.03200 6109.97045 6154.84519 0.00016
29.03600 6140.62220 6153.61286 0.00016
29.04000 6087.41123 6152.44402 0.00016
29.04400 6096.88625 6151.33827 0.00016
29.04800 6155.46979 6150.29466 0.00016
29.05200 6219.39462 6149.30576 0.00016
29.05600 6112.31887 6148.37375 0.00016
29.06000 6187.59481 6147.49723 0.00016
29.06400 6150.89699 6146.67523 0.00016
29.06800 6143.20752 6145.90575 0.00016
29.07200 6103.17997 6145.18651 0.00016
29.07600 6104.88921 6144.51731 0.00016
29.08000 6193.18951 6143.89774 0.00016
29.08400 6235.21396 6143.32355 0.00016
29.08800 6073.73063 6142.79483 0.00016
29.09200 6016.25126 6142.31041 0.00017
29.09600 6163.96768 6141.86899 0.00016
29.10000 6049.42321 6141.46970 0.00017
29.10400 6094.72773 6141.11208 0.00016
29.10800 6137.88254 6140.79203 0.00016
29.11200 6134.90287 6140.50976 0.00016
29.11600 6128.03886 6140.26414 0.00016
29.12000 6176.76237 6140.05401 0.00016
29.12400 6121.97125 6139.87810 0.00016
29.12800 6022.09452 6139.73492 0.00017
29.13200 6040.72945 6139.62348 0.00017
29.13600 6142.36242 6139.54242 0.00016
29.14000 6137.76882 6139.48616 0.00016
29.14400 6117.42599 6139.44636 0.00016
29.14800 6055.61677 6139.40397 0.00017
29.15200 6078.98536 6139.42532 0.00016
29.15600 6118.60793 6139.38746 0.00016
29.16000 6037.03060 6139.46755 0.00017
29.16400 6094.99828 6139.57119 0.00016
29.16800 6102.31035 6139.69771 0.00016
29.17200 6212.69558 6139.84617 0.00016
29.17600 6209.53766 6140.01605 0.00016
29.18000 6196.86225 6140.20694 0.00016
29.18400 6097.61548 6140.41844 0.00016
29.18800 6122.67310 6140.65031 0.00016
29.19200 6071.88345 6140.90240 0.00016
29.19600 6095.45728 6141.17471 0.00016
29.20000 6104.27408 6141.46736 0.00016
29.20400 6158.51610 6141.78072 0.00016
29.20800 6118.78170 6142.11574 0.00016
29.21200 6066.85391 6142.47281 0.00016
29.21600 6128.97260 6142.85151 0.00016
29.22000 6086.41025 6143.25315 0.00016
29.22400 6010.88914 6143.67829 0.00017
29.22800 6053.89294 6144.12859 0.00017
29.23200 6161.71847 6144.60529 0.00016
29.23600 6086.34547 6145.10980 0.00016
29.24000 6077.16434 6145.64362 0.00016
29.24400 6062.37534 6146.20840 0.00016
29.24800 6148.00477 6146.80592 0.00016
29.25200 6123.14932 6147.43806 0.00016
29.25600 6134.74508 6148.10682 0.00016
29.26000 6064.82782 6148.81430 0.00016
29.26400 6125.85257 6149.56272 0.00016
29.26800 6135.23342 6150.35438 0.00016
29.27200 6057.14422 6151.19168 0.00017
29.27600 6198.55985 6152.07712 0.00016
29.28000 6151.54059 6153.01328 0.00016
29.28400 6154.23736 6154.00310 0.00016
29.28800 6229.65381 6155.05037 0.00016
29.29200 6135.15867 6156.15656 0.00016
29.29600 6132.92768 6157.32314 0.00016
29.30000 6202.76796 6158.55466 0.00016
29.30400 6223.52409 6159.85421 0.00016
29.30800 6157.72459 6161.22498 0.00016
29.31200 6219.97765 6162.67026 0.00016
29.31600 6234.44743 6164.19346 0.00016
29.32000 6084.70144 6165.79805 0.00016
29.32400 6080.63939 6167.48765 0.00016
29.32800 6220.17459 6169.26598 0.00016
29.33200 6208.90852 6171.13689 0.00016
29.33600 6104.95184 6173.10434 0.00016
29.34000 6128.58380 6175.17244 0.00016
29.34400 6126.35019 6177.34545 0.00016
29.34800 6196.37503 6179.62775 0.00016
29.35200 6109.59260 6182.02444 0.00016
29.35600 6092.96064 6184.54174 0.00016
29.36000 6034.66941 6187.18133 0.00017
29.36400 6178.72861 6189.94803 0.00016
29.36800 6153.87600 6192.84846 0.00016
29.37200 6017.25313 6195.88803 0.00017
29.37600 6159.31621 6199.07233 0.00016
29.38000 6279.49973 6202.40711 0.00016
29.38400 6242.57048 6205.89828 0.00016
29.38800 6253.80200 6209.55197 0.00016
29.39200 6201.08808 6213.37503 0.00016
29.39600 6352.77189 6217.37560 0.00016
29.40000 6190.57557 6221.55522 0.00016
29.40400 6228.83364 6225.92249 0.00016
29.40800 6188.07424 6230.48455 0.00016
29.41200 6278.17403 6235.24802 0.00016
29.41600 6219.37903 6240.21947 0.00016
29.42000 6353.43747 6245.40539 0.00016
29.42400 6340.46411 6250.81205 0.00016
29.42800 6303.77320 6256.44545 0.00016
29.43200 6250.48696 6262.31120 0.00016
29.43600 6220.67749 6268.41443 0.00016
29.44000 6250.17434 6274.75957 0.00016
29.44400 6270.70436 6281.35074 0.00016
29.44800 6314.23969 6288.19210 0.00016
29.45200 6342.57329 6295.28261 0.00016
29.45600 6424.78712 6302.62084 0.00016
29.46000 6292.16829 6310.20704 0.00016
29.46400 6416.82863 6318.03759 0.00016
29.46800 6381.22720 6326.10691 0.00016
29.47200 6281.57800 6334.40753 0.00016
29.47600 6286.12400 6342.92596 0.00016
29.48000 6499.78644 6351.64846 0.00015
29.48400 6574.92523 6360.55801 0.00015
29.48800 6439.93026 6369.63217 0.00016
29.49200 6449.58196 6378.84597 0.00016
29.49600 6483.57185 6388.17013 0.00015
29.50000 6460.98793 6397.57121 0.00015
29.50400 6393.90713 6407.01177 0.00016
29.50800 6601.64868 6416.45059 0.00015
29.51200 6523.16531 6425.84306 0.00015
29.51600 6426.27655 6435.14168 0.00016
29.52000 6521.84141 6444.29696 0.00015
29.52400 6588.66517 6453.25972 0.00015
29.52800 6361.45690 6461.98033 0.00016
29.53200 6553.24778 6470.40046 0.00015
29.53600 6601.55375 6478.47801 0.00015
29.54000 6475.21915 6486.16963 0.00015
29.54400 6543.45002 6493.43755 0.00015
29.54800 6612.87094 6500.25024 0.00015
29.55200 6621.05653 6506.58454 0.00015
29.55600 6666.87272 6512.42670 0.00015
29.56000 6550.44478 6517.77266 0.00015
29.56400 6539.53992 6522.62870 0.00015
29.56800 6562.42561 6527.01156 0.00015
29.57200 6570.19266 6530.94809 0.00015
29.57600 6498.73124 6534.47472 0.00015
29.58000 6522.74048 6537.63639 0.00015
29.58400 6627.69638 6540.48542 0.00015
29.58800 6557.84017 6543.08000 0.00015
29.59200 6509.05541 6545.48269 0.00015
29.59600 6641.93347 6547.75874 0.00015
29.60000 6462.90662 6549.97449 0.00015
29.60400 6572.19892 6552.19573 0.00015
29.60800 6495.53646 6554.48631 0.00015
29.61200 6634.40672 6556.90668 0.00015
29.61600 6568.26136 6559.51268 0.00015
29.62000 6633.34380 6562.35445 0.00015
29.62400 6526.08651 6565.47549 0.00015
29.62800 6592.78792 6568.91233 0.00015
29.63200 6575.66418 6572.69438 0.00015
29.63600 6615.66995 6576.83622 0.00015
29.64000 6584.43427 6581.34766 0.00015
29.64400 6523.74082 6586.22882 0.00015
29.64800 6494.57519 6591.46807 0.00015
29.65200 6614.01756 6597.04274 0.00015
29.65600 6516.17658 6602.91875 0.00015
29.66000 6590.94495 6609.05039 0.00015
29.66400 6571.03020 6615.38030 0.00015
29.66800 6691.99973 6621.83954 0.00015
29.67200 6520.71181 6628.34811 0.00015
29.67600 6551.39473 6634.81563 0.00015
29.68000 6510.50000 6641.14252 0.00015
29.68400 6554.74666 6647.22155 0.00015
29.68800 6503.77871 6652.93991 0.00015
29.69200 6579.08223 6658.18169 0.00015
29.69600 6591.42587 6662.83072 0.00015
29.70000 6715.05482 6666.77387 0.00015
29.70400 6677.29005 6669.90451 0.00015
29.70800 6634.68539 6672.12594 0.00015
29.71200 6583.77195 6673.35486 0.00015
29.71600 6507.25018 6673.52432 0.00015
29.72000 6661.59118 6672.58633 0.00015
29.72400 6543.89356 6670.51357 0.00015
29.72800 6512.53566 6667.30040 0.00015
29.73200 6497.86239 6662.96320 0.00015
29.73600 6454.01048 6657.54086 0.00015
29.74000 6499.11229 6651.09013 0.00015
29.74400 6560.58238 6643.67649 0.00015
29.74800 6429.81480 6635.39196 0.00016
29.75200 6561.37187 6626.33421 0.00015
29.75600 6450.58635 6616.60815 0.00016
29.76000 6392.75466 6606.32263 0.00016
29.76400 6527.01857 6595.58724 0.00015
29.76800 6534.76553 6584.50959 0.00015
29.77200 6515.79284 6573.19296 0.00015
29.77600 6535.31240 6561.73441 0.00015
29.78000 6522.90551 6550.22367 0.00015
29.78400 6480.49388 6538.74221 0.00015
29.78800 6425.08487 6527.36005 0.00016
29.79200 6533.83157 6516.14077 0.00015
29.79600 6503.74450 6505.13793 0.00015
29.80000 6352.98989 6494.39643 0.00016
29.80400 6469.13364 6483.95319 0.00015
29.80800 6514.04488 6473.83614 0.00015
29.81200 6360.30968 6464.06728 0.00016
29.81600 6410.83211 6454.66264 0.00016
29.82000 6291.06945 6445.63245 0.00016
29.82400 6331.93985 6436.98210 0.00016
29.82800 6419.54018 6428.71284 0.00016
29.83200 6326.22619 6420.82303 0.00016
29.83600 6441.46766 6413.30964 0.00016
29.84000 6411.93880 6406.16242 0.00016
29.84400 6266.49984 6399.36760 0.00016
29.84800 6283.39244 6392.91693 0.00016
29.85200 6282.73284 6386.79804 0.00016
29.85600 6357.05646 6380.99721 0.00016
29.86000 6250.12925 6375.50000 0.00016
29.86400 6332.12342 6370.29147 0.00016
29.86800 6363.19957 6365.35641 0.00016
29.87200 6316.82239 6360.67946 0.00016
29.87600 6359.51197 6356.24532 0.00016
29.88000 6297.16795 6352.03896 0.00016
29.88400 6348.51405 6348.04593 0.00016
29.88800 6248.51916 6344.25139 0.00016
29.89200 6384.94490 6340.64040 0.00016
29.89600 6347.96754 6337.20025 0.00016
29.90000 6177.67192 6333.91806 0.00016
29.90400 6263.60688 6330.78158 0.00016
29.90800 6201.22831 6327.77929 0.00016
29.91200 6264.89779 6324.90037 0.00016
29.91600 6285.84566 6322.13474 0.00016
29.92000 6282.03298 6319.47311 0.00016
29.92400 6187.93153 6316.90695 0.00016
29.92800 6210.15627 6314.42849 0.00016
29.93200 6323.92121 6312.03070 0.00016
29.93600 6288.75492 6309.70731 0.00016
29.94000 6169.91988 6307.45275 0.00016
29.94400 6137.68254 6305.26213 0.00016
29.94800 6231.59315 6303.13117 0.00016
29.95200 6123.45398 6301.05622 0.00016
29.95600 6266.37280 6299.03429 0.00016
29.96000 6082.23230 6297.06257 0.00016
29.96400 6128.61751 6295.13855 0.00016
29.96800 6161.97924 6293.26060 0.00016
29.97200 6107.82353 6291.42715 0.00016
29.97600 6143.27194 6289.63689 0.00016
29.98000 6116.81852 6287.88887 0.00016
29.98400 6178.97338 6286.18262 0.00016
29.98800 6171.29031 6284.51621 0.00016
29.99200 6278.27655 6282.88865 0.00016
29.99600 6257.47464 6281.29958 0.00016
30.00000 6206.63535 6279.74813 0.00016
30.00400 6270.42858 6278.23334 0.00016
30.00800 6107.33058 6276.75416 0.00016
30.01200 6133.89968 6275.30947 0.00016
30.01600 6175.33245 6273.89812 0.00016
30.02000 6075.43187 6272.51863 0.00016
30.02400 6218.67795 6271.16937 0.00016
30.02800 5958.69124 6269.84842 0.00017
30.03200 6075.12134 6268.55399 0.00016
30.03600 6201.79638 6267.28432 0.00016
30.04000 6136.32456 6266.03736 0.00016
30.04400 6104.69130 6264.81104 0.00016
30.04800 6024.30785 6263.60318 0.00017
30.05200 6137.62705 6262.41161 0.00016
30.05600 6173.30309 6261.23440 0.00016
30.06000 6209.27788 6260.07031 0.00016
30.06400 6194.89220 6258.91606 0.00016
30.06800 6165.42880 6257.76845 0.00016
30.07200 6117.98643 6256.62693 0.00016
30.07600 6230.64067 6255.48980 0.00016
30.08000 6207.71465 6254.35555 0.00016
30.08400 6096.08834 6253.22285 0.00016
30.08800 6163.23996 6252.09061 0.00016
30.09200 6091.04262 6250.95805 0.00016
30.09600 6092.81528 6249.82480 0.00016
30.10000 6118.50399 6248.69024 0.00016
30.10400 6183.39446 6247.55347 0.00016
30.10800 6174.95693 6246.41570 0.00016
30.11200 6060.66010 6245.27630 0.00016
30.11600 6118.93238 6244.13810 0.00016
30.12000 6119.90527 6243.00087 0.00016
30.12400 6214.70668 6241.86582 0.00016
30.12800 6111.78871 6240.73436 0.00016
30.13200 6118.82300 6239.60812 0.00016
30.13600 6207.27986 6238.48888 0.00016
30.14000 6122.62767 6237.37859 0.00016
30.14400 6099.57704 6236.27934 0.00016
30.14800 6069.56322 6235.19331 0.00016
30.15200 6166.09369 6234.12278 0.00016
30.15600 6247.88591 6233.07009 0.00016
30.16000 6131.01384 6232.03761 0.00016
30.16400 6161.50479 6231.02777 0.00016
30.16800 6062.70295 6230.04301 0.00016
30.17200 6131.53198 6229.08592 0.00016
30.17600 6132.10035 6228.15865 0.00016
30.18000 6081.24222 6227.26318 0.00016
30.18400 6267.07879 6226.40210 0.00016
30.18800 6117.20117 6225.57763 0.00016
30.19200 6171.59143 6224.79192 0.00016
30.19600 6225.35257 6224.04703 0.00016
30.20000 6300.53826 6223.34496 0.00016
30.20400 6025.17519 6222.68763 0.00017
30.20800 6162.49960 6222.07689 0.00016
30.21200 6040.94064 6221.51449 0.00017
30.21600 5988.62287 6221.00212 0.00017
30.22000 6093.16556 6220.54141 0.00016
30.22400 6143.55557 6220.13411 0.00016
30.22800 6036.14772 6219.78237 0.00017
30.23200 6087.17461 6219.48590 0.00016
30.23600 6186.38879 6219.24674 0.00016
30.24000 6159.32978 6219.06646 0.00016
30.24400 6104.61299 6218.94636 0.00016
30.24800 6192.78068 6218.88773 0.00016
30.25200 6093.24501 6218.89185 0.00016
30.25600 6126.38674 6218.95996 0.00016
30.26000 6068.15491 6219.09333 0.00016
30.26400 6121.71769 6219.29320 0.00016
30.26800 6149.09476 6219.56087 0.00016
30.27200 6105.10700 6219.89760 0.00016
30.27600 6069.35335 6220.30472 0.00016
30.28000 5981.80889 6220.78357 0.00017
30.28400 6045.56461 6221.33554 0.00017
30.28800 6087.98393 6221.96205 0.00016
30.29200 6133.02928 6222.66456 0.00016
30.29600 6127.30609 6223.44461 0.00016
30.30000 6173.96316 6224.30375 0.00016
30.30400 6154.26617 6225.24362 0.00016
30.30800 6215.81129 6226.26588 0.00016
30.31200 6144.74216 6227.37226 0.00016
30.31600 6102.75033 6228.56452 0.00016
30.32000 6027.09160 6229.84445 0.00017
30.32400 5898.00878 6231.21388 0.00017
30.32800 6064.66003 6232.67463 0.00016
30.33200 6045.90099 6234.22852 0.00017
30.33600 6158.16396 6235.87733 0.00016
30.34000 6142.54103 6237.62278 0.00016
30.34400 6094.36042 6239.46646 0.00016
30.34800 6151.27735 6241.40985 0.00016
30.35200 6130.23024 6243.45421 0.00016
30.35600 6218.62896 6245.60052 0.00016
30.36000 6122.53247 6247.84946 0.00016
30.36400 6050.14693 6250.20203 0.00017
30.36800 6264.68672 6252.66041 0.00016
30.37200 6156.65611 6255.21818 0.00016
30.37600 6137.64320 6257.87438 0.00016
30.38000 6042.94197 6260.62827 0.00017
30.38400 6154.47112 6263.47620 0.00016
30.38800 6114.18312 6266.41366 0.00016
30.39200 6072.95362 6269.43485 0.00016
30.39600 6185.16236 6272.53258 0.00016
30.40000 6140.73951 6275.69818 0.00016
30.40400 6168.06947 6278.92147 0.00016
30.40800 6169.34522 6282.19071 0.00016
30.41200 6197.87449 6285.49260 0.00016
30.41600 6123.52861 6288.81243 0.00016
30.42000 6156.29838 6292.13418 0.00016
30.42400 6051.00993 6295.44082 0.00017
30.42800 6201.54884 6298.71468 0.00016
30.43200 6123.64120 6301.93784 0.00016
30.43600 6232.21811 6305.09265 0.00016
30.44000 6168.98190 6308.16234 0.00016
30.44400 6235.83629 6311.13164 0.00016
30.44800 6245.63881 6313.98734 0.00016
30.45200 6238.43040 6316.71893 0.00016
30.45600 6260.05776 6319.31905 0.00016
30.46000 6264.61818 6321.78435 0.00016
30.46400 6264.10274 6324.11608 0.00016
30.46800 6277.26003 6326.31428 0.00016
30.47200 6385.51371 6328.38862 0.00016
30.47600 6264.79052 6330.35028 0.00016
30.48000 6170.31462 6332.21343 0.00016
30.48400 6243.05643 6333.99487 0.00016
30.48800 6273.35942 6335.71336 0.00016
30.49200 6318.85973 6337.38917 0.00016
30.49600 6264.53239 6339.04357 0.00016
30.50000 6277.55592 6340.69669 0.00016
30.50400 6241.81821 6342.36980 0.00016
30.50800 6080.20081 6344.08305 0.00016
30.51200 6117.68432 6345.85549 0.00016
30.51600 6206.15623 6347.70484 0.00016
30.52000 6080.30520 6349.64740 0.00016
30.52400 6203.64573 6351.69794 0.00016
30.52800 6137.01513 6353.86967 0.00016
30.53200 6211.78505 6356.17431 0.00016
30.53600 6309.50785 6358.62212 0.00016
30.54000 6284.13798 6361.22208 0.00016
30.54400 6360.46069 6363.98189 0.00016
30.54800 6243.76950 6366.90822 0.00016
30.55200 6239.90105 6370.00674 0.00016
30.55600 6210.13578 6373.28229 0.00016
30.56000 6190.95981 6376.73900 0.00016
30.56400 6245.03487 6380.38038 0.00016
30.56800 6195.87416 6384.20940 0.00016
30.57200 6102.73090 6388.22862 0.00016
30.57600 6121.55284 6392.44024 0.00016
30.58000 6160.08118 6396.84610 0.00016
30.58400 6108.68024 6401.44772 0.00016
30.58800 6167.80662 6406.24655 0.00016
30.59200 6196.16425 6411.24376 0.00016
30.59600 6252.99814 6416.44035 0.00016
30.60000 6196.39196 6421.83714 0.00016
30.60400 6208.47817 6427.43481 0.00016
30.60800 6324.42099 6433.23386 0.00016
30.61200 6222.86894 6439.23459 0.00016
30.61600 6302.32420 6445.43715 0.00016
30.62000 6256.26251 6451.84147 0.00016
30.62400 6257.75897 6458.44721 0.00016
30.62800 6365.34278 6465.25400 0.00016
30.63200 6281.25479 6472.26173 0.00016
30.63600 6397.96136 6479.46882 0.00016
30.64000 6269.71839 6486.87165 0.00016
30.64400 6266.70588 6494.47053 0.00016
30.64800 6337.04659 6502.26509 0.00016
30.65200 6406.19789 6510.24828 0.00016
30.65600 6271.57250 6518.41949 0.00016
30.66000 6332.71965 6526.77329 0.00016
30.66400 6244.22934 6535.30286 0.00016
30.66800 6285.57721 6544.00557 0.00016
30.67200 6297.26038 6552.87579 0.00016
30.67600 6484.33054 6561.90668 0.00015
30.68000 6544.07322 6571.09001 0.00015
30.68400 6588.71982 6580.42013 0.00015
30.68800 6499.09957 6589.88405 0.00015
30.69200 6597.35728 6599.46930 0.00015
30.69600 6567.19383 6609.16682 0.00015
30.70000 6533.30245 6618.96332 0.00015
30.70400 6511.91503 6628.84475 0.00015
30.70800 6461.64217 6638.79557 0.00015
30.71200 6491.36255 6648.79888 0.00015
30.71600 6476.01917 6658.83637 0.00015
30.72000 6532.69949 6668.88835 0.00015
30.72400 6488.36878 6678.93373 0.00015
30.72800 6520.03195 6688.95008 0.00015
30.73200 6612.78011 6698.91370 0.00015
30.73600 6533.44382 6708.79980 0.00015
30.74000 6568.95287 6718.58260 0.00015
30.74400 6687.10668 6728.23565 0.00015
30.74800 6626.39830 6737.73206 0.00015
30.75200 6694.46202 6747.04491 0.00015
30.75600 6585.40362 6756.14759 0.00015
30.76000 6610.64058 6765.01433 0.00015
30.76400 6711.35148 6773.62066 0.00015
30.76800 6658.18690 6781.94396 0.00015
30.77200 6792.66918 6789.96399 0.00015
30.77600 6912.72258 6797.66340 0.00014
30.78000 6699.98092 6805.02827 0.00015
30.78400 6741.24521 6812.04856 0.00015
30.78800 7014.50080 6818.71842 0.00014
30.79200 6908.17269 6825.03655 0.00014
30.79600 6932.05964 6831.00628 0.00014
30.80000 6891.00943 6836.63568 0.00015
30.80400 7015.01550 6841.93742 0.00014
30.80800 6900.29313 6846.92857 0.00014
30.81200 6866.86022 6851.63026 0.00015
30.81600 6980.83797 6856.06718 0.00014
30.82000 7043.76305 6860.26718 0.00014
30.82400 6937.21026 6864.26046 0.00014
30.82800 6975.39111 6868.07828 0.00014
30.83200 7006.89352 6871.75388 0.00014
30.83600 7005.65016 6875.32054 0.00014
30.84000 6934.65046 6878.81153 0.00014
30.84400 6916.26837 6882.25818 0.00014
30.84800 6970.10116 6885.69014 0.00014
30.85200 6871.38179 6889.13626 0.00015
30.85600 7001.91576 6892.62230 0.00014
30.86000 7007.06150 6896.17120 0.00014
30.86400 6941.88143 6899.80291 0.00014
30.86800 6759.85729 6903.53417 0.00015
30.87200 6884.08688 6907.37855 0.00015
30.87600 6968.72769 6911.34644 0.00014
30.88000 6997.25670 6915.44518 0.00014
30.88400 6976.78040 6919.67942 0.00014
30.88800 7029.18951 6924.05121 0.00014
30.89200 6784.72364 6928.55958 0.00015
30.89600 6921.01766 6933.20272 0.00014
30.90000 6898.25228 6937.97702 0.00014
30.90400 6790.15549 6942.87778 0.00015
30.90800 6924.51081 6947.89978 0.00014
30.91200 6987.85941 6953.03768 0.00014
30.91600 7001.70208 6958.28648 0.00014
30.92000 7018.39791 6963.64191 0.00014
30.92400 7029.88281 6969.10088 0.00014
30.92800 6862.37394 6974.66178 0.00015
30.93200 6920.61635 6980.32479 0.00014
30.93600 7036.66370 6986.09212 0.00014
30.94000 6912.59567 6991.96815 0.00014
30.94400 7017.99405 6997.95954 0.00014
30.94800 6934.55085 7004.07530 0.00014
30.95200 6828.96612 7010.32671 0.00015
30.95600 6966.04874 7016.72729 0.00014
30.96000 6904.45086 7023.29265 0.00014
30.96400 6954.92993 7030.04031 0.00014
30.96800 7012.74728 7036.98954 0.00014
30.97200 7000.28074 7044.16108 0.00014
30.97600 6963.53402 7051.57694 0.00014
30.98000 7019.57561 7059.26019 0.00014
30.98400 7052.31026 7067.23465 0.00014
30.98800 6925.28549 7075.52472 0.00014
30.99200 7102.65641 7084.15513 0.00014
30.99600 7024.65366 7093.15073 0.00014
31.00000 7036.69416 7102.53627 0.00014
31.00400 7047.03017 7112.33617 0.00014
31.00800 6926.30599 7122.57444 0.00014
31.01200 7035.05535 7133.27438 0.00014
31.01600 7115.78986 7144.45865 0.00014
31.02000 6920.21493 7156.14944 0.00014
31.02400 6903.19430 7168.36615 0.00014
31.02800 6956.14594 7181.12600 0.00014
31.03200 7009.07978 7194.44757 0.00014
31.03600 7040.28357 7208.34628 0.00014
31.04000 6931.44607 7222.83556 0.00014
31.04400 7078.73857 7237.92666 0.00014
31.04800 7016.89188 7253.62841 0.00014
31.05200 6998.77406 7269.94706 0.00014
31.05600 6875.32402 7286.88598 0.00015
31.06000 7091.59547 7304.44546 0.00014
31.06400 7099.45874 7322.62243 0.00014
31.06800 7067.05157 7341.41024 0.00014
31.07200 6950.49214 7360.79829 0.00014
31.07600 7061.20757 7380.77188 0.00014
31.08000 6992.05779 7401.31191 0.00014
31.08400 7198.67308 7422.39511 0.00014
31.08800 7098.93449 7443.99225 0.00014
31.09200 7119.85213 7466.06630 0.00014
31.09600 7073.12128 7488.57875 0.00014
31.10000 7040.74362 7511.48339 0.00014
31.10400 7212.95206 7534.72769 0.00014
31.10800 7192.78887 7558.25266 0.00014
31.11200 7166.10636 7581.99266 0.00014
31.11600 7228.36968 7605.87530 0.00014
31.12000 7302.93884 7629.82146 0.00014
31.12400 7225.01385 7653.74534 0.00014
31.12800 7267.77710 7677.55474 0.00014
31.13200 7294.13197 7701.15142 0.00014
31.13600 7193.98482 7724.43163 0.00014
31.14000 7402.07635 7747.28678 0.00014
31.14400 7321.20186 7769.60435 0.00014
31.14800 7409.77234 7791.26900 0.00013
31.15200 7460.01252 7812.16377 0.00013
31.15600 7411.86936 7832.17149 0.00013
31.16000 7322.13012 7851.17636 0.00014
31.16400 7371.15967 7869.06557 0.00014
31.16800 7462.92907 7885.73110 0.00013
31.17200 7362.66170 7901.07141 0.00014
31.17600 7742.13510 7914.99318 0.00013
31.18000 7582.47612 7927.41291 0.00013
31.18400 7682.15473 7938.25842 0.00013
31.18800 7659.41028 7947.47019 0.00013
31.19200 7754.06578 7955.00230 0.00013
31.19600 7782.05999 7960.82326 0.00013
31.20000 7667.05887 7964.91641 0.00013
31.20400 7753.38676 7967.28009 0.00013
31.20800 7874.99920 7967.92739 0.00013
31.21200 7782.82962 7966.88564 0.00013
31.21600 7777.01089 7964.19555 0.00013
31.22000 7773.41912 7959.91027 0.00013
31.22400 7849.30226 7954.09433 0.00013
31.22800 7891.84470 7946.82230 0.00013
31.23200 7802.17310 7938.17235 0.00013
31.23600 7858.57620 7928.23363 0.00013
31.24000 7911.43405 7917.09839 0.00013
31.24400 7789.42806 7904.86135 0.00013
31.24800 7969.51942 7891.61832 0.00013
31.25200 7919.19733 7877.46474 0.00013
31.25600 8010.99638 7862.49426 0.00012
31.26000 7787.24639 7846.79781 0.00013
31.26400 7965.59847 7830.46323 0.00013
31.26800 7957.25731 7813.57394 0.00013
31.27200 7747.62206 7796.20379 0.00013
31.27600 7886.71449 7778.42622 0.00013
31.28000 7832.08288 7760.31154 0.00013
31.28400 7612.47533 7741.91902 0.00013
31.28800 7722.24318 7723.30121 0.00013
31.29200 7685.27171 7704.51385 0.00013
31.29600 7474.82733 7685.60469 0.00013
31.30000 7596.27861 7666.61831 0.00013
31.30400 7706.35012 7647.59708 0.00013
31.30800 7578.33823 7628.57458 0.00013
31.31200 7641.13958 7609.58647 0.00013
31.31600 7584.49269 7590.66717 0.00013
31.32000 7565.77823 7571.84825 0.00013
31.32400 7466.38411 7553.16045 0.00013
31.32800 7503.73693 7534.63020 0.00013
31.33200 7565.77506 7516.28385 0.00013
31.33600 7509.18472 7498.14831 0.00013
31.34000 7457.94883 7480.24896 0.00013
31.34400 7525.73964 7462.60999 0.00013
31.34800 7513.39929 7445.24818 0.00013
31.35200 7495.61061 7428.18592 0.00013
31.35600 7410.92698 7411.44079 0.00013
31.36000 7360.25275 7395.02654 0.00014
31.36400 7314.73989 7378.96995 0.00014
31.36800 7378.27204 7363.26171 0.00014
31.37200 7345.88066 7347.96695 0.00014
31.37600 7348.00839 7333.06739 0.00014
31.38000 7250.67612 7318.57481 0.00014
31.38400 7200.07691 7304.50124 0.00014
31.38800 7118.19801 7290.84767 0.00014
31.39200 7222.71503 7277.62371 0.00014
31.39600 7301.16528 7264.83635 0.00014
31.40000 7281.59703 7252.49057 0.00014
31.40400 7370.18389 7240.59051 0.00014
31.40800 7289.40240 7229.13953 0.00014
31.41200 7295.24812 7218.14028 0.00014
31.41600 7222.68163 7207.59490 0.00014
31.42000 7304.80189 7197.50499 0.00014
31.42400 7139.69355 7187.87179 0.00014
31.42800 7143.34752 7178.69618 0.00014
31.43200 7163.68761 7169.97882 0.00014
31.43600 7091.78616 7161.72017 0.00014
31.44000 7166.82209 7153.92053 0.00014
31.44400 7206.89786 7146.58009 0.00014
31.44800 7152.19579 7139.69925 0.00014
31.45200 7173.17810 7133.27906 0.00014
31.45600 7135.46289 7127.31775 0.00014
31.46000 7221.28940 7121.81464 0.00014
31.46400 7293.12102 7116.77059 0.00014
31.46800 7234.57713 7112.18525 0.00014
31.47200 6935.64178 7108.05807 0.00014
31.47600 7112.39780 7104.38830 0.00014
31.48000 7158.15770 7101.17495 0.00014
31.48400 7063.30935 7098.41581 0.00014
31.48800 7004.13465 7096.10887 0.00014
31.49200 7105.08404 7094.25122 0.00014
31.49600 7089.05342 7092.83904 0.00014
31.50000 7004.45883 7091.86747 0.00014
31.50400 7088.31811 7091.33043 0.00014
31.50800 7104.91896 7091.22043 0.00014
31.51200 7109.66537 7091.52839 0.00014
31.51600 6982.14762 7092.24369 0.00014
31.52000 7039.48813 7093.35460 0.00014
31.52400 7205.04384 7094.84445 0.00014
31.52800 6897.96417 7096.69424 0.00014
31.53200 7058.26009 7098.88548 0.00014
31.53600 7131.51865 7101.39536 0.00014
31.54000 7326.25294 7104.19822 0.00014
31.54400 7138.21904 7107.26553 0.00014
31.54800 7066.06755 7110.56582 0.00014
31.55200 7092.81012 7114.06477 0.00014
31.55600 6930.83834 7117.72537 0.00014
31.56000 7133.10525 7121.50809 0.00014
31.56400 7125.58177 7125.37121 0.00014
31.56800 7091.01713 7129.27126 0.00014
31.57200 6943.20637 7133.16349 0.00014
31.57600 7095.67038 7137.00247 0.00014
31.58000 7161.17779 7140.74282 0.00014
31.58400 7188.53282 7144.33987 0.00014
31.58800 7218.10255 7147.75042 0.00014
31.59200 7145.07076 7150.93203 0.00014
31.59600 7068.35932 7153.84505 0.00014
31.60000 7086.82726 7156.45241 0.00014
31.60400 7134.86975 7158.71477 0.00014
31.60800 7231.65278 7160.64816 0.00014
31.61200 7106.42601 7162.16783 0.00014
31.61600 7211.46498 7163.35822 0.00014
31.62000 7150.57124 7164.16048 0.00014
31.62400 7111.13259 7164.57366 0.00014
31.62800 7136.50120 7164.59911 0.00014
31.63200 7007.23804 7164.23575 0.00014
31.63600 7059.69944 7163.50977 0.00014
31.64000 7032.33492 7162.39647 0.00014
31.64400 6954.28113 7161.05156 0.00014
31.64800 6993.17924 7159.42161 0.00014
31.65200 7113.90568 7157.53571 0.00014
31.65600 7011.26633 7155.42440 0.00014
31.66000 7203.34600 7153.11901 0.00014
31.66400 7097.49010 7150.65095 0.00014
31.66800 7099.35949 7148.05119 0.00014
31.67200 7004.80473 7145.34973 0.00014
31.67600 7031.95793 7142.57514 0.00014
31.68000 7113.81600 7139.75427 0.00014
31.68400 6969.37699 7136.91187 0.00014
31.68800 7111.75279 7134.07051 0.00014
31.69200 7163.16463 7131.25032 0.00014
31.69600 7235.66272 7128.46899 0.00014
31.70000 7232.66797 7125.74168 0.00014
31.70400 7090.74544 7123.08105 0.00014
31.70800 7072.98999 7120.49733 0.00014
31.71200 6994.43782 7117.99836 0.00014
31.71600 6992.04709 7115.58975 0.00014
31.72000 7236.76257 7113.27495 0.00014
31.72400 7189.14269 7111.05550 0.00014
31.72800 6930.52699 7108.93113 0.00014
31.73200 7032.14168 7106.90002 0.00014
31.73600 7120.15136 7104.95898 0.00014
31.74000 7183.62503 7103.10325 0.00014
31.74400 7122.34031 7101.32538 0.00014
31.74800 7140.44158 7099.61450 0.00014
31.75200 7105.39429 7097.96094 0.00014
31.75600 7036.85146 7096.34120 0.00014
31.76000 7033.10704 7094.82748 0.00014
31.76400 7046.18981 7093.36359 0.00014
31.76800 7053.36104 7091.94427 0.00014
31.77200 7109.47708 7090.56548 0.00014
31.77600 7025.61320 7089.22295 0.00014
31.78000 7123.62012 7087.91317 0.00014
31.78400 6939.15649 7086.63574 0.00014
31.78800 7091.97768 7085.39069 0.00014
31.79200 7226.13576 7084.17941 0.00014
31.79600 7110.31530 7083.00471 0.00014
31.80000 7108.15394 7081.87074 0.00014
31.80400 7264.29852 7080.78297 0.00014
31.80800 7158.24232 7079.74808 0.00014
31.81200 7152.15458 7078.77415 0.00014
31.81600 7170.78849 7077.87013 0.00014
31.82000 7124.16566 7077.04293 0.00014
31.82400 7265.16731 7076.30342 0.00014
31.82800 7217.62480 7075.66123 0.00014
31.83200 7170.13113 7075.12580 0.00014
31.83600 7140.87144 7074.70607 0.00014
31.84000 7320.18512 7074.41018 0.00014
31.84400 7353.15849 7074.24451 0.00014
31.84800 7226.30917 7074.21305 0.00014
31.85200 7243.53867 7074.31358 0.00014
31.85600 7168.43839 7074.55745 0.00014
31.86000 7086.85547 7074.91959 0.00014
31.86400 7200.09114 7075.46151 0.00014
31.86800 7130.86647 7076.14234 0.00014
31.87200 7150.17746 7076.95785 0.00014
31.87600 7167.73987 7077.89799 0.00014
31.88000 7057.65032 7078.95428 0.00014
31.88400 7029.24221 7080.11637 0.00014
31.88800 7031.41791 7081.37379 0.00014
31.89200 7332.21215 7082.71503 0.00014
31.89600 7064.49507 7084.12873 0.00014
31.90000 7038.52345 7085.60415 0.00014
31.90400 7426.79318 7087.13205 0.00013
31.90800 7253.12870 7088.70552 0.00014
31.91200 7066.56450 7090.31573 0.00014
31.91600 7140.14499 7091.96076 0.00014
31.92000 7218.96429 7093.63986 0.00014
31.92400 7109.47601 7095.35482 0.00014
31.92800 7064.47015 7097.11000 0.00014
31.93200 6963.20949 7098.91203 0.00014
31.93600 7026.15832 7100.76946 0.00014
31.94000 7220.37410 7102.69209 0.00014
31.94400 7180.82516 7104.69044 0.00014
31.94800 7096.31343 7106.77491 0.00014
31.95200 7036.50533 7108.95497 0.00014
31.95600 7137.80171 7111.23845 0.00014
31.96000 7196.40778 7113.63064 0.00014
31.96400 7213.13220 7116.13367 0.00014
31.96800 7029.57250 7118.74587 0.00014
31.97200 7075.73667 7121.46131 0.00014
31.97600 6965.56876 7124.26944 0.00014
31.98000 7156.65885 7127.15498 0.00014
31.98400 7109.20896 7130.09793 0.00014
31.98800 7040.37217 7133.07382 0.00014
31.99200 7081.37313 7136.05404 0.00014
31.99600 7231.71429 7139.00651 0.00014
32.00000 7283.36887 7141.89634 0.00014
32.00400 7161.77659 7144.68669 0.00014
32.00800 7155.78252 7147.33975 0.00014
32.01200 7217.79531 7149.81771 0.00014
32.01600 7381.69136 7152.08377 0.00014
32.02000 7193.59062 7154.10312 0.00014
32.02400 7098.14076 7155.84380 0.00014
32.02800 7125.15778 7157.27742 0.00014
32.03200 7268.17964 7158.37979 0.00014
32.03600 7205.46201 7159.13122 0.00014
32.04000 7198.63539 7159.51669 0.00014
32.04400 7133.39696 7159.52576 0.00014
32.04800 7113.74307 7159.15218 0.00014
32.05200 7114.58118 7158.39351 0.00014
32.05600 7051.59915 7157.25029 0.00014
32.06000 7165.96908 7155.72566 0.00014
32.06400 7287.02693 7153.82500 0.00014
32.06800 7316.84265 7151.55024 0.00014
32.07200 7205.26184 7148.90612 0.00014
32.07600 7247.30152 7145.89659 0.00014
32.08000 7198.65490 7142.52328 0.00014
32.08400 7208.52258 7138.78611 0.00014
32.08800 7379.78442 7134.68219 0.00014
32.09200 7307.80144 7130.20528 0.00014
32.09600 7304.85391 7125.34943 0.00014
32.10000 7167.44609 7120.10626 0.00014
32.10400 7130.02635 7114.46375 0.00014
32.10800 7224.82770 7108.40681 0.00014
32.11200 7258.38950 7101.91549 0.00014
32.11600 7327.33778 7094.97636 0.00014
32.12000 7324.91493 7087.67197 0.00014
32.12400 7325.66142 7079.94286 0.00014
32.12800 7358.01653 7071.79306 0.00014
32.13200 7251.89333 7063.23147 0.00014
32.13600 7345.98507 7054.27222 0.00014
32.14000 7227.65760 7044.93498 0.00014
32.14400 7280.97947 7035.24495 0.00014
32.14800 7291.11970 7025.23157 0.00014
32.15200 7208.58598 7014.93004 0.00014
32.15600 7367.75360 7004.37927 0.00014
32.16000 7199.12343 6993.62160 0.00014
32.16400 7460.01386 6982.70197 0.00013
32.16800 7240.97041 6971.66704 0.00014
32.17200 7130.00480 6960.56440 0.00014
32.17600 6982.50600 6949.44173 0.00014
32.18000 7197.20288 6938.34593 0.00014
32.18400 7361.38576 6927.32267 0.00014
32.18800 7137.10957 6916.41562 0.00014
32.19200 7170.17809 6905.66606 0.00014
32.19600 7269.66729 6895.11256 0.00014
32.20000 7280.71821 6884.79048 0.00014
32.20400 7307.88963 6874.73053 0.00014
32.20800 7060.51293 6864.95921 0.00014
32.21200 7138.67449 6855.49630 0.00014
32.21600 7071.31858 6846.38212 0.00014
32.22000 7168.88723 6837.60023 0.00014
32.22400 7140.23354 6829.22834 0.00014
32.22800 7037.70301 6821.24538 0.00014
32.23200 7152.17857 6813.66216 0.00014
32.23600 6995.18368 6806.48761 0.00014
32.24000 7149.88430 6799.72811 0.00014
32.24400 7228.01173 6793.38725 0.00014
32.24800 7120.49627 6787.46801 0.00014
32.25200 7118.61530 6781.97133 0.00014
32.25600 6936.11144 6776.89679 0.00014
32.26000 6964.88936 6772.24269 0.00014
32.26400 7017.37953 6768.00625 0.00014
32.26800 6845.68222 6764.18372 0.00015
32.27200 6823.23167 6760.77049 0.00015
32.27600 7086.17697 6757.76115 0.00014
32.28000 6985.62783 6755.14967 0.00014
32.28400 7081.96429 6752.92958 0.00014
32.28800 7244.04639 6751.09431 0.00014
32.29200 6852.01706 6749.63384 0.00015
32.29600 7029.65449 6748.54107 0.00014
32.30000 6895.48934 6747.80717 0.00015
32.30400 6999.99467 6747.42279 0.00014
32.30800 6868.11144 6747.37812 0.00015
32.31200 6981.66311 6747.66281 0.00014
32.31600 6999.97227 6748.26602 0.00014
32.32000 6939.49801 6749.17636 0.00014
32.32400 7035.58959 6750.38188 0.00014
32.32800 6906.04563 6751.87006 0.00014
32.33200 6809.63274 6753.62779 0.00015
32.33600 6857.09801 6755.64133 0.00015
32.34000 6741.53932 6757.89631 0.00015
32.34400 6713.83245 6760.37824 0.00015
32.34800 6937.04452 6763.07369 0.00014
32.35200 6854.78523 6765.96369 0.00015
32.35600 7012.06381 6769.02745 0.00014
32.36000 6832.43545 6772.25081 0.00015
32.36400 6913.80432 6775.61536 0.00014
32.36800 6999.97387 6779.10207 0.00014
32.37200 6857.76240 6782.69126 0.00015
32.37600 6820.00574 6786.36266 0.00015
32.38000 6881.83767 6790.09544 0.00015
32.38400 7001.81291 6793.86826 0.00014
32.38800 6793.87120 6797.65920 0.00015
32.39200 6819.94786 6801.44536 0.00015
32.39600 6954.91248 6805.20250 0.00014
32.40000 6953.35821 6808.91118 0.00014
32.40400 6939.38332 6812.54111 0.00014
32.40800 6841.84696 6816.08568 0.00015
32.41200 6983.85706 6819.51279 0.00014
32.41600 7081.76963 6822.80018 0.00014
32.42000 7079.77479 6825.92609 0.00014
32.42400 6950.25823 6828.86962 0.00014
32.42800 6982.17363 6831.61126 0.00014
32.43200 7047.49127 6834.13257 0.00014
32.43600 7077.04013 6836.41415 0.00014
32.44000 6960.82296 6838.44204 0.00014
32.44400 7115.12757 6840.20299 0.00014
32.44800 7033.23280 6841.68617 0.00014
32.45200 6794.32872 6842.88342 0.00015
32.45600 6994.60315 6843.78944 0.00014
32.46000 7048.88952 6844.40212 0.00014
32.46400 7055.79129 6844.72282 0.00014
32.46800 7096.77643 6844.75611 0.00014
32.47200 7056.33433 6844.50865 0.00014
32.47600 6990.98036 6843.99234 0.00014
32.48000 7035.71248 6843.22155 0.00014
32.48400 7136.32365 6842.21365 0.00014
32.48800 7122.51706 6840.98877 0.00014
32.49200 7005.24797 6839.56953 0.00014
32.49600 7063.50272 6837.98058 0.00014
32.50000 7117.22540 6836.24831 0.00014
32.50400 7130.23549 6834.40040 0.00014
32.50800 7108.99893 6832.46539 0.00014
32.51200 7051.07848 6830.47226 0.00014
32.51600 7045.68038 6828.45010 0.00014
32.52000 7019.60881 6826.42766 0.00014
32.52400 7149.47816 6824.43307 0.00014
32.52800 6922.74600 6822.49352 0.00014
32.53200 7126.73754 6820.63493 0.00014
32.53600 6987.97042 6818.88027 0.00014
32.54000 6977.34897 6817.24531 0.00014
32.54400 6957.85128 6815.74103 0.00014
32.54800 7026.23828 6814.37526 0.00014
32.55200 7076.42480 6813.25757 0.00014
32.55600 7152.15737 6812.34150 0.00014
32.56000 7073.49699 6811.63842 0.00014
32.56400 6978.70299 6811.15484 0.00014
32.56800 6983.82010 6810.91490 0.00014
32.57200 6959.11957 6810.89577 0.00014
32.57600 6940.69317 6811.16123 0.00014
32.58000 7029.12540 6811.68246 0.00014
32.58400 6942.42353 6812.46154 0.00014
32.58800 7143.41445 6813.49867 0.00014
32.59200 6887.73140 6814.79216 0.00015
32.59600 6854.18597 6816.33843 0.00015
32.60000 6953.81112 6818.13211 0.00014
32.60400 7070.33832 6820.16597 0.00014
32.60800 7155.09370 6822.43099 0.00014
32.61200 7215.95023 6824.91635 0.00014
32.61600 7042.01001 6827.60954 0.00014
32.62000 6946.96940 6830.49640 0.00014
32.62400 6889.99356 6833.56120 0.00015
32.62800 6834.16095 6836.78679 0.00015
32.63200 6909.66612 6840.15479 0.00014
32.63600 7036.63022 6843.64572 0.00014
32.64000 7177.66164 6847.23926 0.00014
32.64400 6903.15827 6850.91451 0.00014
32.64800 6979.37391 6854.65029 0.00014
32.65200 7022.52767 6858.42542 0.00014
32.65600 6859.82692 6862.21909 0.00015
32.66000 7010.04166 6866.01116 0.00014
32.66400 6894.45950 6869.78245 0.00015
32.66800 6954.68071 6873.51509 0.00014
32.67200 7047.86640 6877.19270 0.00014
32.67600 6848.92010 6880.80064 0.00015
32.68000 6919.27178 6884.32617 0.00014
32.68400 7062.02402 6887.75848 0.00014
32.68800 7076.31928 6891.08875 0.00014
32.69200 6941.09694 6894.31015 0.00014
32.69600 6946.85298 6897.41769 0.00014
32.70000 6977.63327 6900.40817 0.00014
32.70400 7086.58990 6903.28002 0.00014
32.70800 7049.85067 6906.03305 0.00014
32.71200 6937.48187 6908.66832 0.00014
32.71600 6898.53158 6911.18853 0.00014
32.72000 7060.14036 6913.59766 0.00014
32.72400 7081.54523 6915.90190 0.00014
32.72800 6981.00853 6918.10270 0.00014
32.73200 6920.29979 6920.20856 0.00014
32.73600 6942.17696 6922.22679 0.00014
32.74000 6843.13517 6924.16550 0.00015
32.74400 6989.03474 6926.03350 0.00014
32.74800 7022.98780 6927.84017 0.00014
32.75200 7025.38682 6929.59537 0.00014
32.75600 7024.49266 6931.30945 0.00014
32.76000 6982.00666 6932.99123 0.00014
32.76400 6885.51977 6934.65024 0.00015
32.76800 7016.77485 6936.29521 0.00014
32.77200 7060.46617 6937.93343 0.00014
32.77600 6984.83080 6939.57063 0.00014
32.78000 7001.05529 6941.21063 0.00014
32.78400 6982.96298 6942.85506 0.00014
32.78800 6943.86517 6944.50317 0.00014
32.79200 6975.25202 6946.15164 0.00014
32.79600 6906.13634 6947.79461 0.00014
32.80000 6994.37737 6949.42374 0.00014
32.80400 6975.84745 6951.02903 0.00014
32.80800 7036.61933 6952.59961 0.00014
32.81200 6994.66453 6954.11603 0.00014
32.81600 6982.32025 6955.56596 0.00014
32.82000 7031.02030 6956.93364 0.00014
32.82400 6993.66426 6958.20338 0.00014
32.82800 7007.18633 6959.36018 0.00014
32.83200 6981.45483 6960.39040 0.00014
32.83600 7025.86558 6961.28231 0.00014
32.84000 6929.49620 6962.02671 0.00014
32.84400 6937.34119 6962.61711 0.00014
32.84800 6925.39392 6963.05005 0.00014
32.85200 6944.88039 6963.32589 0.00014
32.85600 6962.21866 6963.44829 0.00014
32.86000 7050.66223 6963.42437 0.00014
32.86400 7024.46751 6963.26442 0.00014
32.86800 6954.16208 6962.98169 0.00014
32.87200 7037.83557 6962.59188 0.00014
32.87600 6973.64220 6962.11269 0.00014
32.88000 6958.63219 6961.56326 0.00014
32.88400 6943.69478 6960.96351 0.00014
32.88800 7009.49456 6960.33354 0.00014
32.89200 6984.78226 6959.69296 0.00014
32.89600 6889.17976 6959.06035 0.00015
32.90000 7059.98776 6958.45263 0.00014
32.90400 7013.00746 6957.88453 0.00014
32.90800 6924.14303 6957.36818 0.00014
32.91200 6953.54997 6956.91263 0.00014
32.91600 7040.64788 6956.52357 0.00014
32.92000 7018.33551 6956.20304 0.00014
32.92400 6869.67289 6955.94923 0.00015
32.92800 6881.04022 6955.75616 0.00015
32.93200 6949.45921 6955.61380 0.00014
32.93600 6860.43415 6955.50760 0.00015
32.94000 6893.93824 6955.42306 0.00015
32.94400 7002.28282 6955.33329 0.00014
32.94800 6880.83771 6955.22165 0.00015
32.95200 7046.55383 6955.05603 0.00014
32.95600 7045.92776 6954.80591 0.00014
32.96000 6995.13905 6954.43852 0.00014
32.96400 6772.60949 6953.91950 0.00015
32.96800 6953.46724 6953.21354 0.00014
32.97200 7069.18398 6952.28540 0.00014
32.97600 6933.80181 6951.10151 0.00014
32.98000 6936.19081 6949.62246 0.00014
32.98400 6968.42557 6947.81843 0.00014
32.98800 6925.67759 6945.66007 0.00014
32.99200 6995.11805 6943.12085 0.00014
32.99600 7045.09164 6940.17729 0.00014
33.00000 6971.26994 6936.80933 0.00014
33.00400 6936.80727 6933.01302 0.00014
33.00800 7025.97245 6928.76560 0.00014
33.01200 6908.57738 6924.08556 0.00014
33.01600 7051.54183 6918.96615 0.00014
33.02000 7017.55408 6913.41636 0.00014
33.02400 7026.11299 6907.45038 0.00014
33.02800 6894.61588 6901.08723 0.00015
33.03200 6921.50514 6894.35031 0.00014
33.03600 6799.17567 6887.26683 0.00015
33.04000 6894.83324 6879.86724 0.00015
33.04400 6988.99579 6872.18456 0.00014
33.04800 6938.67901 6864.25373 0.00014
33.05200 6885.86809 6856.11101 0.00015
33.05600 6968.74152 6847.79329 0.00014
33.06000 6945.07749 6839.33760 0.00014
33.06400 6971.95258 6830.78054 0.00014
33.06800 6918.33404 6822.15788 0.00014
33.07200 6951.93884 6813.50419 0.00014
33.07600 6830.61888 6804.85241 0.00015
33.08000 6880.17688 6796.23434 0.00015
33.08400 6902.19286 6787.67945 0.00014
33.08800 6820.79329 6779.21219 0.00015
33.09200 6781.76269 6770.85921 0.00015
33.09600 6905.91390 6762.64324 0.00014
33.10000 6898.40916 6754.58483 0.00014
33.10400 6919.71582 6746.70239 0.00014
33.10800 6913.21658 6739.01228 0.00014
33.11200 6901.75369 6731.52884 0.00014
33.11600 6871.58698 6724.26455 0.00015
33.12000 6939.22136 6717.23013 0.00014
33.12400 6929.41143 6710.43462 0.00014
33.12800 6909.35144 6703.88551 0.00014
33.13200 6864.61289 6697.58890 0.00015
33.13600 6826.92520 6691.54965 0.00015
33.14000 6847.66732 6685.77131 0.00015
33.14400 6840.36974 6680.25584 0.00015
33.14800 6739.77404 6675.00492 0.00015
33.15200 6927.00103 6670.01895 0.00014
33.15600 6886.95704 6665.29746 0.00015
33.16000 6796.90848 6660.83914 0.00015
33.16400 6803.41685 6656.64192 0.00015
33.16800 6772.74329 6652.70288 0.00015
33.17200 6805.62078 6649.01768 0.00015
33.17600 6745.05459 6645.57971 0.00015
33.18000 6765.78182 6642.38465 0.00015
33.18400 6769.24760 6639.41935 0.00015
33.18800 6720.65585 6636.70482 0.00015
33.19200 6794.79148 6634.21702 0.00015
33.19600 6687.41554 6631.94827 0.00015
33.20000 6790.19802 6629.89018 0.00015
33.20400 6632.58441 6628.03363 0.00015
33.20800 6787.06471 6626.36872 0.00015
33.21200 6674.84757 6624.88478 0.00015
33.21600 6727.98388 6623.57036 0.00015
33.22000 6830.43683 6622.41320 0.00015
33.22400 6677.07457 6621.40025 0.00015
33.22800 6648.65148 6620.51764 0.00015
33.23200 6567.73073 6619.75077 0.00015
33.23600 6635.29827 6619.08428 0.00015
33.24000 6706.84870 6618.50218 0.00015
33.24400 6595.88948 6617.98783 0.00015
33.24800 6626.69498 6617.52413 0.00015
33.25200 6603.01358 6617.09358 0.00015
33.25600 6700.08248 6616.67844 0.00015
33.26000 6777.20213 6616.26090 0.00015
33.26400 6617.68364 6615.82325 0.00015
33.26800 6680.77523 6615.34809 0.00015
33.27200 6588.63183 6614.81851 0.00015
33.27600 6617.14860 6614.21837 0.00015
33.28000 6788.39886 6613.53250 0.00015
33.28400 6686.61092 6612.74691 0.00015
33.28800 6723.50341 6611.84903 0.00015
33.29200 6665.70999 6610.82790 0.00015
33.29600 6847.03133 6609.67437 0.00015
33.30000 6635.94944 6608.38122 0.00015
33.30400 6750.03064 6606.94330 0.00015
33.30800 6703.59894 6605.35759 0.00015
33.31200 6687.99567 6603.62328 0.00015
33.31600 6735.91451 6601.74169 0.00015
33.32000 6728.01220 6599.71630 0.00015
33.32400 6581.31283 6597.55263 0.00015
33.32800 6587.64847 6595.25807 0.00015
33.33200 6482.97972 6592.84181 0.00015
33.33600 6653.31957 6590.31457 0.00015
33.34000 6625.80904 6587.68851 0.00015
33.34400 6539.32410 6584.97722 0.00015
33.34800 6562.35363 6582.19517 0.00015
33.35200 6651.06285 6579.35533 0.00015
33.35600 6620.19209 6576.47420 0.00015
33.36000 6750.08096 6573.56736 0.00015
33.36400 6716.88585 6570.65047 0.00015
33.36800 6603.36644 6567.73909 0.00015
33.37200 6687.96608 6564.84852 0.00015
33.37600 6655.44314 6561.99371 0.00015
33.38000 6641.21389 6559.18908 0.00015
33.38400 6649.11318 6556.44849 0.00015
33.38800 6606.86499 6553.78517 0.00015
33.39200 6731.37097 6551.21167 0.00015
33.39600 6652.10359 6548.73981 0.00015
33.40000 6505.28103 6546.38074 0.00015
33.40400 6509.20998 6544.14486 0.00015
33.40800 6517.40959 6542.04189 0.00015
33.41200 6741.52935 6540.08088 0.00015
33.41600 6629.92969 6538.27023 0.00015
33.42000 6525.66207 6536.61774 0.00015
33.42400 6509.35601 6535.13064 0.00015
33.42800 6693.39574 6533.81563 0.00015
33.43200 6538.40804 6532.67892 0.00015
33.43600 6564.04326 6531.72623 0.00015
33.44000 6725.13981 6530.96285 0.00015
33.44400 6653.03814 6530.39368 0.00015
33.44800 6468.82444 6530.02323 0.00015
33.45200 6596.99467 6529.85559 0.00015
33.45600 6660.19082 6529.89451 0.00015
33.46000 6600.68975 6530.14328 0.00015
33.46400 6721.15549 6530.60482 0.00015
33.46800 6651.90976 6531.28155 0.00015
33.47200 6540.07105 6532.17541 0.00015
33.47600 6679.31292 6533.28774 0.00015
33.48000 6716.37483 6534.61922 0.00015
33.48400 6561.92685 6536.16979 0.00015
33.48800 6575.55773 6537.93848 0.00015
33.49200 6647.09444 6539.92334 0.00015
33.49600 6565.18310 6542.12125 0.00015
33.50000 6615.90231 6544.52775 0.00015
33.50400 6680.12236 6547.13689 0.00015
33.50800 6544.18728 6549.94099 0.00015
33.51200 6606.80032 6552.93049 0.00015
33.51600 6568.71478 6556.09372 0.00015
33.52000 6664.79829 6559.41669 0.00015
33.52400 6701.99924 6562.88296 0.00015
33.52800 6576.38019 6566.47344 0.00015
33.53200 6704.31603 6570.16630 0.00015
33.53600 6735.55167 6573.93691 0.00015
33.54000 6698.07270 6577.75783 0.00015
33.54400 6663.73509 6581.59905 0.00015
33.54800 6682.01108 6585.42843 0.00015
33.55200 6574.96086 6589.21088 0.00015
33.55600 6728.00706 6592.90828 0.00015
33.56000 6699.51889 6596.48375 0.00015
33.56400 6813.58227 6599.89868 0.00015
33.56800 6712.31958 6603.11454 0.00015
33.57200 6634.85342 6606.09366 0.00015
33.57600 6721.38259 6608.80013 0.00015
33.58000 6531.10619 6611.20030 0.00015
33.58400 6572.10516 6613.26410 0.00015
33.58800 6745.22466 6614.96560 0.00015
33.59200 6742.41830 6616.28418 0.00015
33.59600 6694.27582 6617.20229 0.00015
33.60000 6724.64682 6617.70762 0.00015
33.60400 6569.74441 6617.79570 0.00015
33.60800 6584.67163 6617.46617 0.00015
33.61200 6622.97604 6616.72373 0.00015
33.61600 6644.88285 6615.57781 0.00015
33.62000 6648.81477 6614.04202 0.00015
33.62400 6605.16480 6612.13367 0.00015
33.62800 6592.83298 6609.87311 0.00015
33.63200 6634.65336 6607.28321 0.00015
33.63600 6623.21456 6604.38880 0.00015
33.64000 6603.82270 6601.21613 0.00015
33.64400 6702.61742 6597.79242 0.00015
33.64800 6706.96432 6594.14519 0.00015
33.65200 6634.14696 6590.29987 0.00015
33.65600 6609.63119 6586.27577 0.00015
33.66000 6578.51012 6582.09935 0.00015
33.66400 6588.74976 6577.77370 0.00015
33.66800 6732.93983 6573.42550 0.00015
33.67200 6566.72542 6569.01622 0.00015
33.67600 6484.22657 6564.57021 0.00015
33.68000 6495.02781 6560.11020 0.00015
33.68400 6546.73136 6555.65755 0.00015
33.68800 6628.53461 6551.23262 0.00015
33.69200 6480.84704 6546.85398 0.00015
33.69600 6733.11198 6542.53862 0.00015
33.70000 6472.25533 6538.30190 0.00015
33.70400 6593.59079 6534.15737 0.00015
33.70800 6583.55679 6530.11512 0.00015
33.71200 6520.13658 6526.17998 0.00015
33.71600 6663.13765 6522.36048 0.00015
33.72000 6682.88930 6518.64820 0.00015
33.72400 6611.28754 6515.11779 0.00015
33.72800 6647.18927 6511.73066 0.00015
33.73200 6604.15628 6508.49109 0.00015
33.73600 6614.48802 6505.40215 0.00015
33.74000 6556.18705 6502.46414 0.00015
33.74400 6574.91267 6499.67936 0.00015
33.74800 6573.36342 6497.04794 0.00015
33.75200 6647.65566 6494.57021 0.00015
33.75600 6669.59380 6492.24511 0.00015
33.76000 6477.69569 6490.07147 0.00015
33.76400 6439.39123 6488.04770 0.00016
33.76800 6522.89803 6486.17192 0.00015
33.77200 6468.04952 6484.44200 0.00015
33.77600 6480.44983 6482.85561 0.00015
33.78000 6581.86410 6481.41031 0.00015
33.78400 6593.60170 6480.10351 0.00015
33.78800 6514.64834 6478.93261 0.00015
33.79200 6390.26305 6477.89496 0.00016
33.79600 6403.17732 6476.98789 0.00016
33.80000 6503.54365 6476.20878 0.00015
33.80400 6566.32801 6475.55503 0.00015
33.80800 6580.52291 6475.02410 0.00015
33.81200 6477.51810 6474.61351 0.00015
33.81600 6530.50559 6474.32089 0.00015
33.82000 6515.49168 6474.14392 0.00015
33.82400 6511.93819 6474.08039 0.00015
33.82800 6494.07242 6474.12816 0.00015
33.83200 6526.04287 6474.28523 0.00015
33.83600 6485.97933 6474.54968 0.00015
33.84000 6493.19915 6474.91968 0.00015
33.84400 6431.19796 6475.39352 0.00016
33.84800 6562.76944 6475.96959 0.00015
33.85200 6614.35866 6476.64636 0.00015
33.85600 6561.16187 6477.42244 0.00015
33.86000 6541.04153 6478.29649 0.00015
33.86400 6594.92328 6479.26731 0.00015
33.86800 6538.89031 6480.33377 0.00015
33.87200 6627.21185 6481.49485 0.00015
33.87600 6559.47284 6482.74961 0.00015
33.88000 6520.13903 6484.09722 0.00015
33.88400 6423.12034 6485.53694 0.00016
33.88800 6505.84984 6487.06812 0.00015
33.89200 6542.49871 6488.69023 0.00015
33.89600 6471.41960 6490.40281 0.00015
33.90000 6504.25699 6492.20552 0.00015
33.90400 6451.87327 6494.09813 0.00015
33.90800 6498.97259 6496.08050 0.00015
33.91200 6554.24255 6498.15263 0.00015
33.91600 6583.82044 6500.31473 0.00015
33.92000 6438.62673 6502.56750 0.00016
33.92400 6484.44353 6504.91052 0.00015
33.92800 6565.68938 6507.34397 0.00015
33.93200 6656.37753 6509.86899 0.00015
33.93600 6552.66305 6512.48635 0.00015
33.94000 6392.20554 6515.19700 0.00016
33.94400 6573.88053 6518.00202 0.00015
33.94800 6564.23426 6520.90265 0.00015
33.95200 6576.91693 6523.90031 0.00015
33.95600 6494.08817 6526.99659 0.00015
33.96000 6513.00860 6530.19323 0.00015
33.96400 6431.34398 6533.49215 0.00016
33.96800 6640.84828 6536.89544 0.00015
33.97200 6633.85250 6540.40535 0.00015
33.97600 6457.01355 6544.02428 0.00015
33.98000 6354.43360 6547.75479 0.00016
33.98400 6490.06177 6551.59960 0.00015
33.98800 6522.91928 6555.56151 0.00015
33.99200 6494.15999 6559.64349 0.00015
33.99600 6518.93489 6563.84858 0.00015
34.00000 6301.18845 6568.17991 0.00016
34.00400 6510.86102 6572.64073 0.00015
34.00800 6587.12270 6577.23461 0.00015
34.01200 6635.22844 6581.96467 0.00015
34.01600 6711.79643 6586.83300 0.00015
34.02000 6586.93851 6591.84355 0.00015
34.02400 6601.76571 6596.99938 0.00015
34.02800 6692.01300 6602.30341 0.00015
34.03200 6641.18525 6607.75839 0.00015
34.03600 6601.09239 6613.36685 0.00015
34.04000 6569.69652 6619.13107 0.00015
34.04400 6461.10540 6625.05298 0.00015
34.04800 6709.84105 6631.13413 0.00015
34.05200 6657.73569 6637.37582 0.00015
34.05600 6615.77690 6643.77928 0.00015
34.06000 6556.56470 6650.34369 0.00015
34.06400 6631.08810 6657.06714 0.00015
34.06800 6513.67224 6663.94602 0.00015
34.07200 6526.95209 6670.97083 0.00015
34.07600 6593.99625 6678.15309 0.00015
34.08000 6567.19231 6685.45311 0.00015
34.08400 6612.52549 6692.94256 0.00015
34.08800 6680.69084 6700.57097 0.00015
34.09200 6707.51344 6708.33101 0.00015
34.09600 6710.22444 6716.21408 0.00015
34.10000 6541.12004 6724.21017 0.00015
34.10400 6633.27866 6732.30791 0.00015
34.10800 6696.21130 6740.49441 0.00015
34.11200 6727.28994 6748.75525 0.00015
34.11600 6791.79159 6757.07451 0.00015
34.12000 6727.76190 6765.43469 0.00015
34.12400 6634.40964 6773.81678 0.00015
34.12800 6741.75852 6782.20028 0.00015
34.13200 6699.51983 6790.56331 0.00015
34.13600 6688.72260 6798.88266 0.00015
34.14000 6685.17406 6807.13400 0.00015
34.14400 6738.06178 6815.29203 0.00015
34.14800 6685.42214 6823.33068 0.00015
34.15200 6606.35821 6831.22339 0.00015
34.15600 6818.87629 6838.94341 0.00015
34.16000 6938.86205 6846.46411 0.00014
34.16400 6827.27495 6853.75927 0.00015
34.16800 6847.59649 6860.80353 0.00015
34.17200 6795.70828 6867.57274 0.00015
34.17600 6852.28222 6874.04429 0.00015
34.18000 6850.84056 6880.19755 0.00015
34.18400 6844.44131 6886.01417 0.00015
34.18800 6892.36465 6891.47843 0.00015
34.19200 6705.06887 6896.57754 0.00015
34.19600 6907.45196 6901.30184 0.00014
34.20000 6830.78872 6905.64499 0.00015
34.20400 6832.36864 6909.60413 0.00015
34.20800 6888.98749 6913.17992 0.00015
34.21200 6949.87167 6916.37637 0.00014
34.21600 6923.58318 6919.20097 0.00014
34.22000 6901.82950 6921.66451 0.00014
34.22400 7035.21640 6923.78082 0.00014
34.22800 6861.43652 6925.56652 0.00015
34.23200 6873.35801 6927.04071 0.00015
34.23600 6758.37785 6928.22466 0.00015
34.24000 6944.76684 6929.14144 0.00014
34.24400 6936.94943 6929.81556 0.00014
34.24800 6992.67640 6930.27258 0.00014
34.25200 6885.12164 6930.53870 0.00015
34.25600 7082.33926 6930.64048 0.00014
34.26000 6967.73518 6930.60436 0.00014
34.26400 6983.88874 6930.45646 0.00014
34.26800 6881.51557 6930.22218 0.00015
34.27200 6903.75423 6929.92599 0.00014
34.27600 6918.28217 6929.59112 0.00014
34.28000 6861.93133 6929.23941 0.00015
34.28400 6940.76420 6928.89108 0.00014
34.28800 6852.06441 6928.56460 0.00015
34.29200 6950.77179 6928.27654 0.00014
34.29600 7011.80995 6928.04148 0.00014
34.30000 6933.10193 6927.87196 0.00014
34.30400 7024.31531 6927.77842 0.00014
34.30800 6925.87384 6927.76914 0.00014
34.31200 6827.84323 6927.85028 0.00015
34.31600 6923.52621 6928.02587 0.00014
34.32000 6845.77562 6928.29785 0.00015
34.32400 6928.53052 6928.66609 0.00014
34.32800 7008.45636 6929.12852 0.00014
34.33200 6911.92095 6929.68114 0.00014
34.33600 7017.49508 6930.31813 0.00014
34.34000 7113.66196 6931.03204 0.00014
34.34400 6940.66377 6931.81344 0.00014
34.34800 6900.21453 6932.65103 0.00014
34.35200 7017.96566 6933.52558 0.00014
34.35600 7005.31150 6934.43825 0.00014
34.36000 6971.91589 6935.34177 0.00014
34.36400 7128.76790 6936.25460 0.00014
34.36800 6920.00457 6937.12276 0.00014
34.37200 6839.11126 6938.02447 0.00015
34.37600 6866.79824 6938.88341 0.00015
34.38000 7027.40298 6939.68374 0.00014
34.38400 6790.97577 6940.40981 0.00015
34.38800 6938.96939 6941.04639 0.00014
34.39200 6978.05749 6941.57884 0.00014
34.39600 6916.51610 6941.99331 0.00014
34.40000 6962.53899 6942.27692 0.00014
34.40400 6826.07836 6942.41793 0.00015
34.40800 6939.93612 6942.40588 0.00014
34.41200 6866.09529 6942.23173 0.00015
34.41600 6882.31869 6941.88804 0.00015
34.42000 6942.18339 6941.36900 0.00014
34.42400 6881.35560 6940.67058 0.00015
34.42800 6926.89965 6939.79058 0.00014
34.43200 7049.84349 6938.72870 0.00014
34.43600 6889.69812 6937.48656 0.00015
34.44000 6851.99388 6936.06771 0.00015
34.44400 6743.57447 6934.47763 0.00015
34.44800 6877.40884 6932.72372 0.00015
34.45200 6959.01171 6930.81521 0.00014
34.45600 7070.35740 6928.76309 0.00014
34.46000 7012.42401 6926.58002 0.00014
34.46400 7066.11765 6924.28016 0.00014
34.46800 6816.90791 6921.87910 0.00015
34.47200 6955.96886 6919.39363 0.00014
34.47600 6965.26013 6916.84156 0.00014
34.48000 7023.06233 6914.24154 0.00014
34.48400 6972.54086 6911.61284 0.00014
34.48800 7003.11099 6908.97515 0.00014
34.49200 6945.00285 6906.34835 0.00014
34.49600 6960.12137 6903.75230 0.00014
34.50000 7021.60527 6901.20666 0.00014
34.50400 6981.21986 6898.73066 0.00014
34.50800 6817.69045 6896.34295 0.00015
34.51200 6934.50505 6894.06144 0.00014
34.51600 6949.50814 6891.90312 0.00014
34.52000 7040.03993 6889.88400 0.00014
34.52400 6959.42294 6888.01894 0.00014
34.52800 6799.66037 6886.32157 0.00015
34.53200 6988.71786 6884.80423 0.00014
34.53600 6982.18818 6883.47791 0.00014
34.54000 6997.71883 6882.35215 0.00014
34.54400 6906.30179 6881.43504 0.00014
34.54800 6914.34229 6880.73313 0.00014
34.55200 6911.84615 6880.25141 0.00014
34.55600 6965.91908 6879.99324 0.00014
34.56000 6868.92281 6879.96032 0.00015
34.56400 7128.48826 6880.15258 0.00014
34.56800 6940.08225 6880.56816 0.00014
34.57200 6885.00552 6881.20330 0.00015
34.57600 6970.37610 6882.05225 0.00014
34.58000 7018.06202 6883.10719 0.00014
34.58400 6916.20575 6884.35812 0.00014
34.58800 6924.51610 6885.79277 0.00014
34.59200 6954.38169 6887.39652 0.00014
34.59600 6866.68771 6889.15231 0.00015
34.60000 6792.77402 6891.04061 0.00015
34.60400 6852.01680 6893.03939 0.00015
34.60800 6932.51743 6895.12419 0.00014
34.61200 6933.75113 6897.26816 0.00014
34.61600 6952.95422 6899.44223 0.00014
34.62000 6857.39120 6901.61540 0.00015
34.62400 6924.12324 6903.75499 0.00014
34.62800 6986.96465 6905.82709 0.00014
34.63200 6838.49162 6907.79707 0.00015
34.63600 6921.04472 6909.63018 0.00014
34.64000 6960.46127 6911.29218 0.00014
34.64400 6993.94677 6912.75009 0.00014
34.64800 6924.56268 6913.97299 0.00014
34.65200 6943.11342 6914.93269 0.00014
34.65600 7014.06415 6915.60460 0.00014
34.66000 6933.46367 6915.96827 0.00014
34.66400 6855.88661 6916.00809 0.00015
34.66800 6943.22358 6915.71364 0.00014
34.67200 6965.94916 6915.08004 0.00014
34.67600 6952.33138 6914.10807 0.00014
34.68000 7031.32358 6912.80407 0.00014
34.68400 6830.62390 6911.18034 0.00015
34.68800 6788.67155 6909.25532 0.00015
34.69200 6986.35480 6907.04478 0.00014
34.69600 6985.66968 6904.57617 0.00014
34.70000 6868.74254 6901.87738 0.00015
34.70400 6886.19324 6898.97836 0.00015
34.70800 6789.63482 6895.91065 0.00015
34.71200 6858.93372 6892.70735 0.00015
34.71600 6879.66854 6889.40036 0.00015
34.72000 6912.04171 6886.01688 0.00014
34.72400 6874.81022 6882.58953 0.00015
34.72800 6863.06122 6879.14643 0.00015
34.73200 6858.85680 6875.71355 0.00015
34.73600 6825.83391 6872.31446 0.00015
34.74000 6897.42266 6868.97008 0.00014
34.74400 6795.70109 6865.69863 0.00015
34.74800 6934.40867 6862.51557 0.00014
34.75200 6799.26644 6859.43362 0.00015
34.75600 6914.05178 6856.46285 0.00014
34.76000 7002.43998 6853.61084 0.00014
34.76400 6910.67714 6850.88277 0.00014
34.76800 6828.53926 6848.28167 0.00015
34.77200 6961.61033 6845.80863 0.00014
34.77600 6871.71599 6843.46298 0.00015
34.78000 6731.69748 6841.24261 0.00015
34.78400 6795.37078 6839.14414 0.00015
34.78800 6808.06362 6837.16323 0.00015
34.79200 7012.63814 6835.29476 0.00014
34.79600 6915.73250 6833.53352 0.00014
34.80000 6966.47298 6831.87496 0.00014
34.80400 6883.48443 6830.31047 0.00015
34.80800 6814.17958 6828.83415 0.00015
34.81200 6678.26640 6827.44160 0.00015
34.81600 6748.43120 6826.12783 0.00015
34.82000 6761.17592 6824.88841 0.00015
34.82400 6747.77642 6823.71958 0.00015
34.82800 6871.37770 6822.61837 0.00015
34.83200 6938.49428 6821.58255 0.00014
34.83600 6846.78650 6820.61070 0.00015
34.84000 6802.52018 6819.70218 0.00015
34.84400 6744.18286 6818.85708 0.00015
34.84800 6684.32925 6818.07616 0.00015
34.85200 6854.06266 6817.36078 0.00015
34.85600 6871.84802 6816.71281 0.00015
34.86000 6929.39074 6816.13455 0.00014
34.86400 6857.86607 6815.62862 0.00015
34.86800 6793.42935 6815.19785 0.00015
34.87200 6795.75486 6814.84522 0.00015
34.87600 6932.52007 6814.57376 0.00014
34.88000 6852.77934 6814.38644 0.00015
34.88400 6822.28507 6814.28617 0.00015
34.88800 6834.28946 6814.27567 0.00015
34.89200 6875.75912 6814.35747 0.00015
34.89600 6773.17554 6814.53388 0.00015
34.90000 6804.18511 6814.80693 0.00015
34.90400 6911.83444 6815.17839 0.00014
34.90800 6788.75699 6815.64976 0.00015
34.91200 6779.73319 6816.22228 0.00015
34.91600 6997.61823 6816.89696 0.00014
34.92000 6894.14347 6817.67458 0.00015
34.92400 6953.66351 6818.55574 0.00014
34.92800 6912.09689 6819.54091 0.00014
34.93200 6855.34549 6820.63048 0.00015
34.93600 6812.09664 6821.82478 0.00015
34.94000 6711.04553 6823.12415 0.00015
34.94400 6892.27655 6824.52901 0.00015
34.94800 6899.73330 6826.03990 0.00014
34.95200 6989.49560 6827.65754 0.00014
34.95600 6875.56055 6829.38289 0.00015
34.96000 6795.83364 6831.21718 0.00015
34.96400 6866.76038 6833.16201 0.00015
34.96800 6847.10860 6835.21932 0.00015
34.97200 6853.81343 6837.39150 0.00015
34.97600 6849.09422 6839.68137 0.00015
34.98000 6876.90149 6842.09222 0.00015
34.98400 6878.19331 6844.62758 0.00015
34.98800 6948.96726 6847.28999 0.00014
34.99200 6960.65834 6850.07988 0.00014
34.99600 6886.73889 6853.01317 0.00015
35.00000 6947.02535 6856.07296 0.00014
35.00400 6916.28305 6859.30599 0.00014
35.00800 6973.65930 6862.69641 0.00014
35.01200 6918.92281 6866.25115 0.00014
35.01600 6865.00317 6869.97745 0.00015
35.02000 7005.92981 6873.88283 0.00014
35.02400 6942.70959 6877.97501 0.00014
35.02800 7008.84163 6882.26192 0.00014
35.03200 6806.13758 6886.75157 0.00015
35.03600 6934.16316 6891.45203 0.00014
35.04000 6966.64456 6896.37136 0.00014
35.04400 7014.11392 6901.51752 0.00014
35.04800 6921.10683 6906.89831 0.00014
35.05200 6935.74445 6912.52130 0.00014
35.05600 6973.34134 6918.39376 0.00014
35.06000 6984.53947 6924.52255 0.00014
35.06400 6881.88634 6930.91405 0.00015
35.06800 6949.45101 6937.57373 0.00014
35.07200 7020.13042 6944.50298 0.00014
35.07600 7022.61184 6951.69761 0.00014
35.08000 7089.97156 6959.18867 0.00014
35.08400 7072.07707 6966.92928 0.00014
35.08800 7012.89193 6974.99038 0.00014
35.09200 7020.74513 6983.33601 0.00014
35.09600 7098.53379 6991.96453 0.00014
35.10000 6983.78387 7000.87265 0.00014
35.10400 7042.24234 7010.05528 0.00014
35.10800 7066.26641 7019.50541 0.00014
35.11200 7075.15776 7029.21395 0.00014
35.11600 7067.82472 7039.16956 0.00014
35.12000 7073.18811 7049.35856 0.00014
35.12400 7179.96593 7059.76480 0.00014
35.12800 7222.26743 7070.36960 0.00014
35.13200 7034.19569 7081.15170 0.00014
35.13600 7103.99042 7092.08723 0.00014
35.14000 7016.54347 7103.14981 0.00014
35.14400 7038.74448 7114.31056 0.00014
35.14800 7232.43131 7125.53831 0.00014
35.15200 7210.01771 7136.79980 0.00014
35.15600 7243.66835 7148.05992 0.00014
35.16000 7224.86670 7159.28207 0.00014
35.16400 7314.29101 7170.42850 0.00014
35.16800 7285.45199 7181.46076 0.00014
35.17200 7378.25154 7192.34016 0.00014
35.17600 7447.45927 7203.02819 0.00013
35.18000 7170.05936 7213.48709 0.00014
35.18400 7242.69100 7223.68022 0.00014
35.18800 7262.83573 7233.57260 0.00014
35.19200 7255.31648 7243.13123 0.00014
35.19600 7275.73960 7252.32544 0.00014
35.20000 7254.26251 7261.12717 0.00014
35.20400 7260.08145 7269.51113 0.00014
35.20800 7205.50905 7277.45494 0.00014
35.21200 7258.06559 7284.93912 0.00014
35.21600 7294.95078 7291.94705 0.00014
35.22000 7248.87410 7298.46486 0.00014
35.22400 7429.48802 7304.48132 0.00013
35.22800 7334.54244 7309.98760 0.00014
35.23200 7370.78627 7314.97703 0.00014
35.23600 7411.53727 7319.44496 0.00013
35.24000 7400.99095 7323.38854 0.00014
35.24400 7297.98562 7326.80654 0.00014
35.24800 7326.37142 7329.69919 0.00014
35.25200 7333.54766 7332.06815 0.00014
35.25600 7326.75851 7333.91639 0.00014
35.26000 7270.41409 7335.24825 0.00014
35.26400 7386.93024 7336.06943 0.00014
35.26800 7349.77388 7336.38714 0.00014
35.27200 7200.68451 7336.21014 0.00014
35.27600 7279.55691 7335.54898 0.00014
35.28000 7437.13628 7334.41607 0.00013
35.28400 7354.41001 7332.82590 0.00014
35.28800 7439.04865 7330.79514 0.00013
35.29200 7388.62300 7328.34280 0.00014
35.29600 7503.34686 7325.49029 0.00013
35.30000 7455.12141 7322.26148 0.00013
35.30400 7365.52344 7318.68265 0.00014
35.30800 7384.60783 7314.78240 0.00014
35.31200 7540.04078 7310.59154 0.00013
35.31600 7370.28754 7306.14288 0.00014
35.32000 7297.83178 7301.47089 0.00014
35.32400 7358.08919 7296.61147 0.00014
35.32800 7363.09394 7291.60154 0.00014
35.33200 7402.62487 7286.47869 0.00014
35.33600 7258.37644 7281.28073 0.00014
35.34000 7285.73243 7276.04530 0.00014
35.34400 7442.05138 7270.80955 0.00013
35.34800 7304.98163 7265.60965 0.00014
35.35200 7285.17140 7260.48053 0.00014
35.35600 7226.42359 7255.45558 0.00014
35.36000 7241.38350 7250.56635 0.00014
35.36400 7319.28914 7245.84237 0.00014
35.36800 7415.76997 7241.31097 0.00013
35.37200 7381.22709 7236.99722 0.00014
35.37600 7290.34133 7232.92380 0.00014
35.38000 7190.20807 7229.11102 0.00014
35.38400 7289.66773 7225.57679 0.00014
35.38800 7273.57508 7222.33672 0.00014
35.39200 7343.43486 7219.40419 0.00014
35.39600 7331.08626 7216.79038 0.00014
35.40000 7423.37034 7214.50451 0.00013
35.40400 7376.14217 7212.55385 0.00014
35.40800 7165.78609 7210.94394 0.00014
35.41200 7338.90336 7209.67873 0.00014
35.41600 7232.96745 7208.76069 0.00014
35.42000 7236.66976 7208.19100 0.00014
35.42400 7313.30245 7207.96965 0.00014
35.42800 6970.43451 7208.09563 0.00014
35.43200 7046.91001 7208.56703 0.00014
35.43600 7208.15508 7209.38118 0.00014
35.44000 7304.70500 7210.53471 0.00014
35.44400 7192.51784 7212.02372 0.00014
35.44800 7127.40619 7213.84385 0.00014
35.45200 7296.17252 7215.99032 0.00014
35.45600 7206.44488 7218.45801 0.00014
35.46000 7148.75479 7221.24149 0.00014
35.46400 7144.62253 7224.33512 0.00014
35.46800 7284.00453 7227.73298 0.00014
35.47200 7111.35715 7231.42862 0.00014
35.47600 7178.02617 7235.41389 0.00014
35.48000 7292.88605 7239.67722 0.00014
35.48400 7266.98083 7244.21714 0.00014
35.48800 7117.08392 7249.00664 0.00014
35.49200 7107.80485 7254.08979 0.00014
35.49600 7304.38091 7259.42683 0.00014
35.50000 7397.18158 7265.00852 0.00014
35.50400 7207.87433 7270.82482 0.00014
35.50800 7267.59621 7276.86467 0.00014
35.51200 7366.44302 7283.11597 0.00014
35.51600 7294.45816 7289.56526 0.00014
35.52000 7191.74387 7296.19769 0.00014
35.52400 7227.28594 7302.99677 0.00014
35.52800 7192.84414 7309.94419 0.00014
35.53200 7321.56283 7317.01970 0.00014
35.53600 7214.66134 7324.20091 0.00014
35.54000 7128.00795 7331.46316 0.00014
35.54400 7222.63413 7338.77936 0.00014
35.54800 7406.18583 7346.11992 0.00014
35.55200 7329.06629 7353.45272 0.00014
35.55600 7368.15096 7360.74302 0.00014
35.56000 7389.11503 7367.95352 0.00014
35.56400 7113.88365 7375.04449 0.00014
35.56800 7281.12101 7381.97387 0.00014
35.57200 7260.01917 7388.69756 0.00014
35.57600 7215.42848 7395.16964 0.00014
35.58000 7248.89563 7401.34283 0.00014
35.58400 7294.02087 7407.16896 0.00014
35.58800 7251.21938 7412.59940 0.00014
35.59200 7307.11419 7417.58580 0.00014
35.59600 7343.16134 7422.08059 0.00014
35.60000 7262.06902 7426.03776 0.00014
35.60400 7290.33440 7429.41348 0.00014
35.60800 7309.23970 7432.16686 0.00014
35.61200 7226.25736 7434.26050 0.00014
35.61600 7270.75701 7435.66109 0.00014
35.62000 7300.13206 7436.33996 0.00014
35.62400 7370.03068 7436.27341 0.00014
35.62800 7352.05778 7435.44301 0.00014
35.63200 7251.20873 7433.83572 0.00014
35.63600 7356.08985 7431.44392 0.00014
35.64000 7357.08375 7428.26534 0.00014
35.64400 7412.54260 7424.30279 0.00013
35.64800 7398.24279 7419.56399 0.00014
35.65200 7231.93369 7414.06115 0.00014
35.65600 7438.12610 7407.81061 0.00013
35.66000 7439.25666 7400.83247 0.00013
35.66400 7396.20939 7393.15026 0.00014
35.66800 7379.81483 7384.79063 0.00014
35.67200 7341.40386 7375.78301 0.00014
35.67600 7376.05576 7366.15938 0.00014
35.68000 7305.16778 7355.95413 0.00014
35.68400 7251.58760 7345.20379 0.00014
35.68800 7298.42912 7333.94693 0.00014
35.69200 7299.09265 7322.22395 0.00014
35.69600 7330.82241 7310.07689 0.00014
35.70000 7388.77257 7297.54921 0.00014
35.70400 7378.43102 7284.68547 0.00014
35.70800 7343.61364 7271.53105 0.00014
35.71200 7351.82159 7258.13173 0.00014
35.71600 7352.41944 7244.53335 0.00014
35.72000 7407.63859 7230.78131 0.00013
35.72400 7395.23190 7216.92018 0.00014
35.72800 7225.59201 7202.99325 0.00014
35.73200 7311.46569 7189.04217 0.00014
35.73600 7128.57781 7175.10654 0.00014
35.74000 7159.81541 7161.22365 0.00014
35.74400 7261.33742 7147.42825 0.00014
35.74800 7238.42719 7133.75230 0.00014
35.75200 7181.84046 7120.22495 0.00014
35.75600 7202.82397 7106.87242 0.00014
35.76000 7076.92422 7093.71801 0.00014
35.76400 7028.67496 7080.78222 0.00014
35.76800 6930.06951 7068.08277 0.00014
35.77200 7144.03553 7055.63476 0.00014
35.77600 6919.59117 7043.45084 0.00014
35.78000 7017.23408 7031.54136 0.00014
35.78400 7038.60852 7019.91457 0.00014
35.78800 7033.14265 7008.57679 0.00014
35.79200 7008.48016 6997.53262 0.00014
35.79600 7060.77132 6986.78510 0.00014
35.80000 7040.66312 6976.33591 0.00014
35.80400 7038.32555 6966.18550 0.00014
35.80800 6971.91041 6956.33329 0.00014
35.81200 6961.29444 6946.77777 0.00014
35.81600 6901.51465 6937.51663 0.00014
35.82000 6894.75952 6928.54694 0.00015
35.82400 6875.01680 6919.86518 0.00015
35.82800 6950.08788 6911.46737 0.00014
35.83200 6821.42777 6903.34914 0.00015
35.83600 6899.37017 6895.50581 0.00014
35.84000 7015.86284 6887.93247 0.00014
35.84400 6910.52543 6880.62400 0.00014
35.84800 6946.09358 6873.57512 0.00014
35.85200 6983.34620 6866.78047 0.00014
35.85600 6853.16229 6860.23462 0.00015
35.86000 6811.66072 6853.93209 0.00015
35.86400 6907.41358 6847.86738 0.00014
35.86800 6907.53414 6842.03498 0.00014
35.87200 6850.41864 6836.42942 0.00015
35.87600 6838.11425 6831.04525 0.00015
35.88000 6781.64732 6825.87706 0.00015
35.88400 6782.09641 6820.91949 0.00015
35.88800 6980.65455 6816.16724 0.00014
35.89200 6861.64447 6811.61503 0.00015
35.89600 6778.88405 6807.25766 0.00015
35.90000 6874.43872 6803.09000 0.00015
35.90400 6911.69055 6799.10695 0.00014
35.90800 6813.39071 6795.30347 0.00015
35.91200 6693.12357 6791.67457 0.00015
35.91600 6736.01405 6788.21528 0.00015
35.92000 6778.51744 6784.92070 0.00015
35.92400 6811.93289 6781.78595 0.00015
35.92800 6908.65799 6778.80617 0.00014
35.93200 6821.32163 6775.97653 0.00015
35.93600 6861.73768 6773.29220 0.00015
35.94000 6820.55734 6770.74836 0.00015
35.94400 6824.04128 6768.34021 0.00015
35.94800 6807.92310 6766.06293 0.00015
35.95200 6742.11936 6763.91166 0.00015
35.95600 6679.70858 6761.88158 0.00015
35.96000 6840.45495 6759.96781 0.00015
35.96400 6823.66212 6758.16545 0.00015
35.96800 6819.90253 6756.46957 0.00015
35.97200 6818.01738 6754.87521 0.00015
35.97600 6819.56331 6753.37738 0.00015
35.98000 6712.70786 6751.97105 0.00015
35.98400 6703.66106 6750.65116 0.00015
35.98800 6771.88452 6749.41262 0.00015
35.99200 6854.79174 6748.25034 0.00015
35.99600 6692.35428 6747.15930 0.00015
36.00000 6782.31146 6746.13408 0.00015
36.00400 6784.18631 6745.16956 0.00015
36.00800 6656.03446 6744.26067 0.00015
36.01200 6639.16644 6743.40226 0.00015
36.01600 6685.94084 6742.58923 0.00015
36.02000 6905.29574 6741.81652 0.00014
36.02400 6683.31486 6741.07914 0.00015
36.02800 6601.21906 6740.37217 0.00015
36.03200 6758.58883 6739.69081 0.00015
36.03600 6695.77028 6739.03038 0.00015
36.04000 6791.91380 6738.38634 0.00015
36.04400 6583.36232 6737.75433 0.00015
36.04800 6691.88907 6737.13017 0.00015
36.05200 6632.67633 6736.50990 0.00015
36.05600 6780.89327 6735.88981 0.00015
36.06000 6789.24761 6735.26641 0.00015
36.06400 6760.64147 6734.63653 0.00015
36.06800 6669.57856 6733.99729 0.00015
36.07200 6674.00251 6733.34612 0.00015
36.07600 6701.04049 6732.68078 0.00015
36.08000 6759.54464 6731.99938 0.00015
36.08400 6679.02547 6731.30038 0.00015
36.08800 6774.87666 6730.58261 0.00015
36.09200 6724.32754 6729.84527 0.00015
36.09600 6692.82912 6729.08790 0.00015
36.10000 6593.69189 6728.31045 0.00015
36.10400 6715.66729 6727.51320 0.00015
36.10800 6759.76874 6726.69679 0.00015
36.11200 6736.73704 6725.86222 0.00015
36.11600 6665.09323 6725.01078 0.00015
36.12000 6531.23037 6724.14411 0.00015
36.12400 6681.48477 6723.26412 0.00015
36.12800 6785.20884 6722.37299 0.00015
36.13200 6732.92332 6721.47315 0.00015
36.13600 6788.01675 6720.56712 0.00015
36.14000 6689.40076 6719.65741 0.00015
36.14400 6759.29141 6718.74681 0.00015
36.14800 6743.91882 6717.83775 0.00015
36.15200 6716.70511 6716.93774 0.00015
36.15600 6583.63070 6716.04735 0.00015
36.16000 6620.56257 6715.17000 0.00015
36.16400 6718.69608 6714.30914 0.00015
36.16800 6676.24783 6713.46822 0.00015
36.17200 6618.89743 6712.65069 0.00015
36.17600 6681.95450 6711.85991 0.00015
36.18000 6680.13459 6711.09922 0.00015
36.18400 6687.35063 6710.37183 0.00015
36.18800 6642.11108 6709.68086 0.00015
36.19200 6650.44675 6709.02928 0.00015
36.19600 6841.23495 6708.41989 0.00015
36.20000 6760.63617 6707.85534 0.00015
36.20400 6724.41982 6707.33809 0.00015
36.20800 6648.32261 6706.87035 0.00015
36.21200 6587.99361 6706.45416 0.00015
36.21600 6581.95216 6706.09126 0.00015
36.22000 6792.41037 6705.78318 0.00015
36.22400 6674.83697 6705.53116 0.00015
36.22800 6686.78727 6705.33616 0.00015
36.23200 6664.92275 6705.19884 0.00015
36.23600 6916.01218 6705.11959 0.00014
36.24000 6718.89318 6705.09846 0.00015
36.24400 6651.83804 6705.13520 0.00015
36.24800 6642.44852 6705.22924 0.00015
36.25200 6682.99636 6705.37968 0.00015
36.25600 6745.59776 6705.58532 0.00015
36.26000 6850.40863 6705.84465 0.00015
36.26400 6751.51240 6706.15585 0.00015
36.26800 6854.61341 6706.51682 0.00015
36.27200 6678.54869 6706.92519 0.00015
36.27600 6717.05051 6707.37835 0.00015
36.28000 6764.43885 6707.87350 0.00015
36.28400 6831.35056 6708.40764 0.00015
36.28800 6762.00284 6708.97763 0.00015
36.29200 6608.56534 6709.58026 0.00015
36.29600 6729.11278 6710.21228 0.00015
36.30000 6743.97088 6710.87047 0.00015
36.30400 6683.35027 6711.55166 0.00015
36.30800 6648.09128 6712.25286 0.00015
36.31200 6778.59192 6712.97126 0.00015
36.31600 6820.69264 6713.70433 0.00015
36.32000 6640.78513 6714.44987 0.00015
36.32400 6709.03991 6715.20607 0.00015
36.32800 6682.53623 6715.97155 0.00015
36.33200 6880.18735 6716.74544 0.00015
36.33600 6908.22078 6717.52737 0.00014
36.34000 6888.52038 6718.31755 0.00015
36.34400 6765.03524 6719.11673 0.00015
36.34800 6978.13384 6719.92628 0.00014
36.35200 6911.12715 6720.74813 0.00014
36.35600 6875.31160 6721.58474 0.00015
36.36000 6896.68996 6722.43916 0.00014
36.36400 6914.01334 6723.31491 0.00014
36.36800 6902.53775 6724.21598 0.00014
36.37200 6975.69630 6725.14677 0.00014
36.37600 6964.51527 6726.11203 0.00014
36.38000 6970.28086 6727.11682 0.00014
36.38400 7033.12070 6728.16642 0.00014
36.38800 6932.34530 6729.26631 0.00014
36.39200 6911.93901 6730.42207 0.00014
36.39600 6959.55368 6731.63933 0.00014
36.40000 6805.22769 6732.92374 0.00015
36.40400 6701.11743 6734.28088 0.00015
36.40800 6823.23653 6735.71627 0.00015
36.41200 6816.42406 6737.23527 0.00015
36.41600 6842.50999 6738.84307 0.00015
36.42000 6818.25674 6740.54465 0.00015
36.42400 6966.25233 6742.34477 0.00014
36.42800 6842.30757 6744.24792 0.00015
36.43200 6830.18678 6746.25835 0.00015
36.43600 6748.85085 6748.37997 0.00015
36.44000 6768.85376 6750.61641 0.00015
36.44400 6812.96238 6752.97100 0.00015
36.44800 6810.16739 6755.44672 0.00015
36.45200 6778.95017 6758.04621 0.00015
36.45600 6799.03807 6760.77177 0.00015
36.46000 6799.95639 6763.62536 0.00015
36.46400 6797.74847 6766.60854 0.00015
36.46800 6750.96527 6769.72251 0.00015
36.47200 6719.29443 6772.96806 0.00015
36.47600 6881.46226 6776.34556 0.00015
36.48000 6722.21804 6779.85496 0.00015
36.48400 6749.85611 6783.49575 0.00015
36.48800 6749.25829 6787.26692 0.00015
36.49200 6808.96694 6791.16698 0.00015
36.49600 6825.60762 6795.19388 0.00015
36.50000 6935.32279 6799.34501 0.00014
36.50400 6936.49545 6803.61716 0.00014
36.50800 6914.59659 6808.00648 0.00014
36.51200 6907.62495 6812.50849 0.00014
36.51600 6919.50848 6817.11797 0.00014
36.52000 6769.84779 6821.82903 0.00015
36.52400 6778.08791 6826.63504 0.00015
36.52800 6806.45450 6831.52863 0.00015
36.53200 6729.20934 6836.50136 0.00015
36.53600 6879.32028 6841.54302 0.00015
36.54000 6876.35710 6846.64116 0.00015
36.54400 6863.53312 6851.79495 0.00015
36.54800 6825.19029 6856.97589 0.00015
36.55200 6802.93169 6862.20081 0.00015
36.55600 6885.63736 6867.44305 0.00015
36.56000 6887.35300 6872.69068 0.00015
36.56400 7002.91886 6877.93167 0.00014
36.56800 6970.31603 6883.15402 0.00014
36.57200 6835.03477 6888.34589 0.00015
36.57600 6792.42617 6893.49583 0.00015
36.58000 6828.82570 6898.59291 0.00015
36.58400 6951.68875 6903.62687 0.00014
36.58800 6952.12687 6908.58828 0.00014
36.59200 6969.70430 6913.46865 0.00014
36.59600 6916.38204 6918.26046 0.00014
36.60000 6998.70764 6922.95726 0.00014
36.60400 7057.39919 6927.55360 0.00014
36.60800 6996.09328 6932.04500 0.00014
36.61200 6991.55454 6936.42784 0.00014
36.61600 7144.70086 6940.69918 0.00014
36.62000 7036.20127 6944.85661 0.00014
36.62400 6899.17031 6948.89796 0.00014
36.62800 6920.06689 6952.82114 0.00014
36.63200 7090.73742 6956.62380 0.00014
36.63600 7044.73401 6960.30312 0.00014
36.64000 6918.51405 6963.85558 0.00014
36.64400 7015.12382 6967.27671 0.00014
36.64800 7068.32283 6970.56097 0.00014
36.65200 6999.74410 6973.70162 0.00014
36.65600 6982.37929 6976.69062 0.00014
36.66000 7004.54700 6979.51870 0.00014
36.66400 7028.17628 6982.17540 0.00014
36.66800 6953.59918 6984.64916 0.00014
36.67200 6961.87872 6986.92758 0.00014
36.67600 6927.44085 6988.99762 0.00014
36.68000 6908.66630 6990.84593 0.00014
36.68400 6932.02612 6992.45914 0.00014
36.68800 6876.61660 6993.82423 0.00015
36.69200 6850.16031 6994.92888 0.00015
36.69600 6950.17637 6995.76186 0.00014
36.70000 6942.23241 6996.31332 0.00014
36.70400 6904.43281 6996.57515 0.00014
36.70800 6941.49259 6996.54124 0.00014
36.71200 6885.08869 6996.20768 0.00015
36.71600 6825.37904 6995.57301 0.00015
36.72000 6917.12750 6994.63826 0.00014
36.72400 7036.70816 6993.40705 0.00014
36.72800 6977.83338 6991.88555 0.00014
36.73200 6961.18055 6990.08246 0.00014
36.73600 6966.31413 6988.00886 0.00014
36.74000 6827.03709 6985.67800 0.00015
36.74400 6948.37585 6983.10513 0.00014
36.74800 6886.17306 6980.30721 0.00015
36.75200 7023.23676 6977.30258 0.00014
36.75600 6886.65452 6974.11072 0.00015
36.76000 6953.68695 6970.75179 0.00014
36.76400 6961.83973 6967.24642 0.00014
36.76800 6852.86597 6963.61527 0.00015
36.77200 6794.43216 6959.87877 0.00015
36.77600 6971.02397 6956.05678 0.00014
36.78000 6814.85783 6952.16836 0.00015
36.78400 6864.71387 6948.23148 0.00015
36.78800 6735.52396 6944.26287 0.00015
36.79200 6871.07170 6940.27785 0.00015
36.79600 6933.54817 6936.29023 0.00014
36.80000 6947.25593 6932.31222 0.00014
36.80400 6978.25568 6928.35445 0.00014
36.80800 6962.79064 6924.42592 0.00014
36.81200 6989.48694 6920.53413 0.00014
36.81600 6805.12751 6916.68509 0.00015
36.82000 6886.40998 6912.88347 0.00015
36.82400 6850.85005 6909.13271 0.00015
36.82800 6849.88456 6905.43516 0.00015
36.83200 6917.95226 6901.79224 0.00014
36.83600 6908.59311 6898.20458 0.00014
36.84000 6750.13522 6894.67221 0.00015
36.84400 6772.49235 6891.19466 0.00015
36.84800 6800.17850 6887.77113 0.00015
36.85200 6843.02003 6884.40065 0.00015
36.85600 6854.95415 6881.08215 0.00015
36.86000 6978.83082 6877.81460 0.00014
36.86400 6917.77217 6874.59714 0.00014
36.86800 6802.41880 6871.42906 0.00015
36.87200 6633.20043 6868.30996 0.00015
36.87600 6613.09198 6865.23977 0.00015
36.88000 6698.81770 6862.21877 0.00015
36.88400 6682.90109 6859.24762 0.00015
36.88800 6726.23774 6856.32740 0.00015
36.89200 6706.65103 6853.45957 0.00015
36.89600 6565.54264 6850.64599 0.00015
36.90000 6753.15116 6847.88889 0.00015
36.90400 6707.53518 6845.19088 0.00015
36.90800 6535.45988 6842.55483 0.00015
36.91200 6686.07038 6839.98395 0.00015
36.91600 6773.02132 6837.48167 0.00015
36.92000 6604.74060 6835.05160 0.00015
36.92400 6708.30872 6832.69752 0.00015
36.92800 6596.23454 6830.42333 0.00015
36.93200 6666.84458 6828.23293 0.00015
36.93600 6881.66525 6826.13030 0.00015
36.94000 6737.23860 6824.11932 0.00015
36.94400 6859.47694 6822.20383 0.00015
36.94800 6779.72008 6820.38753 0.00015
36.95200 6754.40896 6818.67400 0.00015
36.95600 6584.56716 6817.06661 0.00015
36.96000 6620.82325 6815.56853 0.00015
36.96400 6751.30952 6814.18271 0.00015
36.96800 6764.65849 6812.91186 0.00015
36.97200 6735.79419 6811.75842 0.00015
36.97600 6679.48600 6810.72461 0.00015
36.98000 6786.12050 6809.81235 0.00015
36.98400 6616.21594 6809.02333 0.00015
36.98800 6533.03919 6808.35898 0.00015
36.99200 6651.55958 6807.82045 0.00015
36.99600 6613.81818 6807.40815 0.00015
37.00000 6547.51800 6807.12100 0.00015
37.00400 6778.74380 6806.96136 0.00015
37.00800 6647.12557 6806.92258 0.00015
37.01200 6721.72541 6807.02350 0.00015
37.01600 6780.76460 6807.25294 0.00015
37.02000 6830.59840 6807.61070 0.00015
37.02400 6859.24713 6808.09642 0.00015
37.02800 6829.91629 6808.70962 0.00015
37.03200 6688.19408 6809.44967 0.00015
37.03600 6762.31618 6810.31578 0.00015
37.04000 6840.51200 6811.30708 0.00015
37.04400 6840.96614 6812.42252 0.00015
37.04800 6643.31218 6813.66093 0.00015
37.05200 6738.03786 6815.02100 0.00015
37.05600 6577.32605 6816.50128 0.00015
37.06000 6604.02667 6818.10016 0.00015
37.06400 6888.00053 6819.81585 0.00015
37.06800 6899.11633 6821.64639 0.00014
37.07200 6850.82191 6823.58964 0.00015
37.07600 6787.78559 6825.64322 0.00015
37.08000 6858.72639 6827.80457 0.00015
37.08400 6827.71847 6830.07085 0.00015
37.08800 6816.38936 6832.43898 0.00015
37.09200 6770.65438 6834.90561 0.00015
37.09600 6775.40674 6837.46709 0.00015
37.10000 6774.89971 6840.11948 0.00015
37.10400 6770.07305 6842.85850 0.00015
37.10800 6868.46772 6845.67957 0.00015
37.11200 6853.04001 6848.57775 0.00015
37.11600 7000.06662 6851.54775 0.00014
37.12000 6968.39883 6854.58395 0.00014
37.12400 6945.64872 6857.68035 0.00014
37.12800 7021.61354 6860.83062 0.00014
37.13200 6915.95041 6864.02808 0.00014
37.13600 7032.28998 6867.26573 0.00014
37.14000 6869.79531 6870.53626 0.00015
37.14400 6918.02985 6873.83205 0.00014
37.14800 6980.82090 6877.14524 0.00014
37.15200 6935.39643 6880.46774 0.00014
37.15600 6804.41684 6883.79127 0.00015
37.16000 6796.22015 6887.10742 0.00015
37.16400 6921.80384 6890.40770 0.00014
37.16800 6835.33369 6893.68358 0.00015
37.17200 6820.17537 6896.92660 0.00015
37.17600 6884.48188 6900.12837 0.00015
37.18000 6972.60448 6903.28073 0.00014
37.18400 6839.26706 6906.37576 0.00015
37.18800 6840.70896 6909.40587 0.00015
37.19200 6823.58849 6912.36393 0.00015
37.19600 6881.08795 6915.24314 0.00015
37.20000 7033.00906 6918.03702 0.00014
37.20400 7006.71962 6920.74116 0.00014
37.20800 6799.35821 6923.34881 0.00015
37.21200 6904.59952 6925.85991 0.00014
37.21600 6972.17697 6928.26942 0.00014
37.22000 6933.16844 6930.57526 0.00014
37.22400 6805.32196 6932.77633 0.00015
37.22800 7025.03970 6934.87249 0.00014
37.23200 7128.11034 6936.86462 0.00014
37.23600 6950.50320 6938.75457 0.00014
37.24000 6972.01173 6940.54520 0.00014
37.24400 6979.80016 6942.23976 0.00014
37.24800 6933.54478 6943.83819 0.00014
37.25200 6929.90618 6945.33429 0.00014
37.25600 6929.62324 6946.76578 0.00014
37.26000 7086.54637 6948.07667 0.00014
37.26400 7250.23821 6949.38255 0.00014
37.26800 7034.97228 6950.63342 0.00014
37.27200 6950.51266 6951.83822 0.00014
37.27600 7168.98934 6953.00631 0.00014
37.28000 7018.32836 6954.14733 0.00014
37.28400 7035.62217 6955.27108 0.00014
37.28800 6903.39606 6956.38739 0.00014
37.29200 7278.39595 6957.50608 0.00014
37.29600 7235.17058 6958.63675 0.00014
37.30000 7045.03544 6959.78874 0.00014
37.30400 6900.23881 6960.97097 0.00014
37.30800 6946.99227 6962.19186 0.00014
37.31200 6915.34506 6963.45922 0.00014
37.31600 6891.43657 6964.78011 0.00015
37.32000 7022.40082 6966.16081 0.00014
37.32400 7020.84857 6967.60666 0.00014
37.32800 6925.10127 6969.12203 0.00014
37.33200 7039.70413 6970.71021 0.00014
37.33600 7059.32880 6972.37337 0.00014
37.34000 7024.88339 6974.11249 0.00014
37.34400 6907.46594 6975.92736 0.00014
37.34800 6922.17834 6977.81651 0.00014
37.35200 6948.27066 6979.77718 0.00014
37.35600 6972.74306 6981.80476 0.00014
37.36000 6897.18549 6983.89238 0.00014
37.36400 6962.02060 6986.03865 0.00014
37.36800 7033.00360 6988.22697 0.00014
37.37200 7010.96580 6990.46468 0.00014
37.37600 6981.43822 6992.73467 0.00014
37.38000 7028.15317 6995.02756 0.00014
37.38400 7045.13369 6997.33358 0.00014
37.38800 6903.15863 6999.64282 0.00014
37.39200 6988.14128 7001.94548 0.00014
37.39600 6995.03847 7004.23207 0.00014
37.40000 7106.00393 7006.49370 0.00014
37.40400 7065.54187 7008.72230 0.00014
37.40800 7003.62752 7010.91091 0.00014
37.41200 7039.27510 7013.05381 0.00014
37.41600 7103.59545 7015.14679 0.00014
37.42000 7103.43804 7017.18726 0.00014
37.42400 7103.47462 7019.17434 0.00014
37.42800 7012.30265 7021.10896 0.00014
37.43200 7084.38328 7022.99385 0.00014
37.43600 7035.69166 7024.83350 0.00014
37.44000 6997.68114 7026.63405 0.00014
37.44400 7076.70264 7028.40316 0.00014
37.44800 7104.55253 7030.14980 0.00014
37.45200 7116.67979 7031.88409 0.00014
37.45600 6948.47513 7033.61694 0.00014
37.46000 7037.72764 7035.35989 0.00014
37.46400 7112.15848 7037.12472 0.00014
37.46800 7125.16500 7038.92323 0.00014
37.47200 7168.89289 7040.76692 0.00014
37.47600 7110.73448 7042.66671 0.00014
37.48000 7125.67292 7044.63273 0.00014
37.48400 7049.78217 7046.67402 0.00014
37.48800 7057.14948 7048.79837 0.00014
37.49200 7124.01451 7051.01215 0.00014
37.49600 7136.81095 7053.32013 0.00014
37.50000 7158.09060 7055.72543 0.00014
37.50400 7071.72008 7058.22942 0.00014
37.50800 7228.95719 7060.83171 0.00014
37.51200 6985.27076 7063.53012 0.00014
37.51600 7147.69864 7066.32077 0.00014
37.52000 7133.91344 7069.19811 0.00014
37.52400 7181.41327 7072.15504 0.00014
37.52800 7155.48890 7075.18302 0.00014
37.53200 7194.25420 7078.27225 0.00014
37.53600 7188.78234 7081.41178 0.00014
37.54000 7016.13717 7084.58974 0.00014
37.54400 7152.29630 7087.79348 0.00014
37.54800 7187.51879 7091.00977 0.00014
37.55200 7179.00656 7094.22497 0.00014
37.55600 7161.15050 7097.42519 0.00014
37.56000 7054.02477 7100.59643 0.00014
37.56400 7189.81930 7103.72471 0.00014
37.56800 7163.09803 7106.79618 0.00014
37.57200 7182.44075 7109.79719 0.00014
37.57600 7080.86707 7112.71438 0.00014
37.58000 7082.95700 7115.53467 0.00014
37.58400 7092.14530 7118.24534 0.00014
37.58800 7220.08533 7120.83401 0.00014
37.59200 7232.16017 7123.28866 0.00014
37.59600 7140.89847 7125.59769 0.00014
37.60000 7368.14794 7127.74987 0.00014
37.60400 7186.26561 7129.73443 0.00014
37.60800 7246.31300 7131.54110 0.00014
37.61200 7223.35686 7133.16016 0.00014
37.61600 7229.60151 7134.58256 0.00014
37.62000 7219.09269 7135.79992 0.00014
37.62400 7351.68297 7136.80475 0.00014
37.62800 7192.67258 7137.59046 0.00014
37.63200 7350.02931 7138.15150 0.00014
37.63600 7287.87954 7138.48341 0.00014
37.64000 7276.09248 7138.58292 0.00014
37.64400 7448.72696 7138.44801 0.00013
37.64800 7326.49350 7138.07791 0.00014
37.65200 7324.78935 7137.47315 0.00014
37.65600 7216.09785 7136.63550 0.00014
37.66000 7235.19170 7135.56801 0.00014
37.66400 7162.35636 7134.27492 0.00014
37.66800 7202.89498 7132.76164 0.00014
37.67200 7267.08214 7131.03466 0.00014
37.67600 7204.86521 7129.10154 0.00014
37.68000 7270.91656 7126.97078 0.00014
37.68400 7181.30261 7124.65184 0.00014
37.68800 7265.76770 7122.15499 0.00014
37.69200 7292.34064 7119.49127 0.00014
37.69600 7225.75541 7116.67243 0.00014
37.70000 7194.59243 7113.71081 0.00014
37.70400 7204.58839 7110.61926 0.00014
37.70800 7164.88698 7107.41103 0.00014
37.71200 7291.48373 7104.09964 0.00014
37.71600 7372.45499 7100.69878 0.00014
37.72000 7249.04794 7097.22214 0.00014
37.72400 7278.68647 7093.68325 0.00014
37.72800 7206.64973 7090.09544 0.00014
37.73200 7244.48268 7086.47157 0.00014
37.73600 7133.93454 7082.82402 0.00014
37.74000 7123.73680 7079.16453 0.00014
37.74400 7145.72272 7075.50409 0.00014
37.74800 7130.39011 7071.85295 0.00014
37.75200 7119.12200 7068.22047 0.00014
37.75600 7179.49493 7064.61517 0.00014
37.76000 7076.79544 7061.04471 0.00014
37.76400 7072.14012 7057.51589 0.00014
37.76800 7146.36130 7054.03470 0.00014
37.77200 7098.41837 7050.60639 0.00014
37.77600 7123.59282 7047.23551 0.00014
37.78000 7095.57720 7043.92596 0.00014
37.78400 7154.72493 7040.68110 0.00014
37.78800 7094.51891 7037.50381 0.00014
37.79200 7184.45228 7034.39654 0.00014
37.79600 7231.89439 7031.36134 0.00014
37.80000 7136.31987 7028.39998 0.00014
37.80400 7137.93287 7025.51391 0.00014
37.80800 7222.60311 7022.70430 0.00014
37.81200 7113.39505 7019.97206 0.00014
37.81600 7000.08414 7017.31777 0.00014
37.82000 7143.08126 7014.74175 0.00014
37.82400 7236.64900 7012.24393 0.00014
37.82800 7117.92178 7009.82387 0.00014
37.83200 7279.33714 7007.48064 0.00014
37.83600 7131.84763 7005.21285 0.00014
37.84000 7157.25411 7003.01855 0.00014
37.84400 7160.11450 7000.89515 0.00014
37.84800 7223.28464 6998.83944 0.00014
37.85200 7123.22673 6996.84753 0.00014
37.85600 7110.99979 6994.91480 0.00014
37.86000 7079.81887 6993.03594 0.00014
37.86400 7150.91878 6991.20495 0.00014
37.86800 7113.81385 6989.41517 0.00014
37.87200 7205.18766 6987.65931 0.00014
37.87600 7136.54431 6985.92956 0.00014
37.88000 7141.15505 6984.21769 0.00014
37.88400 7217.76121 6982.51510 0.00014
37.88800 7082.46416 6980.81300 0.00014
37.89200 7226.70021 6979.10256 0.00014
37.89600 7152.61917 6977.37502 0.00014
37.90000 7270.74224 6975.62189 0.00014
37.90400 7194.48715 6973.83509 0.00014
37.90800 7069.16717 6972.00713 0.00014
37.91200 7172.38213 6970.13124 0.00014
37.91600 7238.75579 6968.20154 0.00014
37.92000 7064.28135 6966.21314 0.00014
37.92400 7027.60013 6964.16229 0.00014
37.92800 7047.05566 6962.04640 0.00014
37.93200 7118.99397 6959.86417 0.00014
37.93600 7023.03168 6957.61555 0.00014
37.94000 6971.47085 6955.30179 0.00014
37.94400 6855.71642 6952.92538 0.00015
37.94800 7030.81311 6950.49004 0.00014
37.95200 6964.37676 6948.00057 0.00014
37.95600 7100.52783 6945.46281 0.00014
37.96000 6996.05514 6942.88348 0.00014
37.96400 7096.35624 6940.27005 0.00014
37.96800 7193.25554 6937.63059 0.00014
37.97200 6996.99521 6934.97364 0.00014
37.97600 6972.70725 6932.30804 0.00014
37.98000 6901.86711 6929.64273 0.00014
37.98400 7006.78497 6926.98667 0.00014
37.98800 7089.04501 6924.34868 0.00014
37.99200 6999.63637 6921.73727 0.00014
37.99600 7064.83475 6919.16055 0.00014
38.00000 7072.04456 6916.62615 0.00014
38.00400 7031.94647 6914.14107 0.00014
38.00800 6971.97614 6911.71166 0.00014
38.01200 6915.09854 6909.34354 0.00014
38.01600 7014.54673 6907.04153 0.00014
38.02000 7127.63804 6904.80967 0.00014
38.02400 6965.59549 6902.65113 0.00014
38.02800 6914.08682 6900.56829 0.00014
38.03200 6863.39791 6898.56266 0.00015
38.03600 6928.49114 6896.63496 0.00014
38.04000 6988.75313 6894.78509 0.00014
38.04400 6983.87127 6893.01223 0.00014
38.04800 6937.09334 6891.31482 0.00014
38.05200 6896.44265 6889.69062 0.00015
38.05600 6823.14405 6888.13681 0.00015
38.06000 6942.08400 6886.64998 0.00014
38.06400 6968.64341 6885.22626 0.00014
38.06800 7001.73460 6883.86133 0.00014
38.07200 6837.99158 6882.55054 0.00015
38.07600 7050.18788 6881.28898 0.00014
38.08000 6945.51531 6880.07152 0.00014
38.08400 6826.03633 6878.89293 0.00015
38.08800 6940.41477 6877.74793 0.00014
38.09200 6861.01904 6876.63129 0.00015
38.09600 6935.64927 6875.53789 0.00014
38.10000 7021.53093 6874.46281 0.00014
38.10400 6977.64607 6873.40137 0.00014
38.10800 6923.07967 6872.34920 0.00014
38.11200 6868.84682 6871.30232 0.00015
38.11600 6904.09222 6870.25716 0.00014
38.12000 6840.09316 6869.21062 0.00015
38.12400 6877.20141 6868.16008 0.00015
38.12800 6815.79494 6867.10344 0.00015
38.13200 6852.61486 6866.03912 0.00015
38.13600 6793.66756 6864.96607 0.00015
38.14000 6832.85383 6863.88376 0.00015
38.14400 6764.96890 6862.79219 0.00015
38.14800 6947.06901 6861.69008 0.00014
38.15200 6837.14999 6860.57043 0.00015
38.15600 6871.83974 6859.44359 0.00015
38.16000 6768.38781 6858.27985 0.00015
38.16400 6785.84239 6857.15689 0.00015
38.16800 6791.96279 6856.03320 0.00015
38.17200 6797.39242 6854.91122 0.00015
38.17600 6867.40149 6853.79358 0.00015
38.18000 6790.00964 6852.68304 0.00015
38.18400 6815.86202 6851.58239 0.00015
38.18800 6923.87007 6850.49446 0.00014
38.19200 6830.36138 6849.42204 0.00015
38.19600 6765.41348 6848.36788 0.00015
38.20000 6923.73509 6847.33460 0.00014
38.20400 7005.39059 6846.32474 0.00014
38.20800 6860.76851 6845.34065 0.00015
38.21200 6967.51651 6844.38455 0.00014
38.21600 6668.10812 6843.45844 0.00015
38.22000 6815.20407 6842.56418 0.00015
38.22400 6766.90602 6841.70340 0.00015
38.22800 6783.81984 6840.87754 0.00015
38.23200 6693.75506 6840.08789 0.00015
38.23600 6791.01321 6839.33551 0.00015
38.24000 6935.57268 6838.62132 0.00014
38.24400 6855.98819 6837.94607 0.00015
38.24800 6828.98199 6837.31036 0.00015
38.25200 6912.66587 6836.71468 0.00014
38.25600 6823.93557 6836.15938 0.00015
38.26000 6686.64696 6835.64475 0.00015
38.26400 6909.28608 6835.17098 0.00014
38.26800 6761.59478 6834.73820 0.00015
38.27200 6738.59132 6834.34653 0.00015
38.27600 6755.99654 6833.99602 0.00015
38.28000 6802.88924 6833.68675 0.00015
38.28400 6654.92148 6833.41880 0.00015
38.28800 6833.35023 6833.19226 0.00015
38.29200 6884.47817 6833.00726 0.00015
38.29600 6711.84248 6832.86316 0.00015
38.30000 6866.81576 6832.75775 0.00015
38.30400 6821.95233 6832.69792 0.00015
38.30800 6875.75729 6832.67180 0.00015
38.31200 6804.56709 6832.69841 0.00015
38.31600 6777.38096 6832.76860 0.00015
38.32000 6664.16556 6832.88299 0.00015
38.32400 6576.47104 6833.04229 0.00015
38.32800 6835.25186 6833.24727 0.00015
38.33200 6794.06816 6833.49857 0.00015
38.33600 6818.39760 6833.79519 0.00015
38.34000 6688.69276 6834.13298 0.00015
38.34400 6689.16011 6834.52421 0.00015
38.34800 6678.82721 6834.94467 0.00015
38.35200 6759.73230 6835.44487 0.00015
38.35600 6810.52689 6835.99844 0.00015
38.36000 6693.50169 6836.60531 0.00015
38.36400 6878.11874 6837.26402 0.00015
38.36800 6707.68158 6837.96944 0.00015
38.37200 6736.18843 6838.74481 0.00015
38.37600 6769.71991 6839.54982 0.00015
38.38000 6874.16039 6840.45302 0.00015
38.38400 6689.46553 6841.41939 0.00015
38.38800 6759.39510 6842.45026 0.00015
38.39200 6780.32232 6843.54577 0.00015
38.39600 6782.95314 6844.70332 0.00015
38.40000 6786.34712 6845.91590 0.00015
38.40400 6849.64945 6847.19822 0.00015
38.40800 6762.42598 6848.51264 0.00015
38.41200 6750.54859 6849.95162 0.00015
38.41600 6822.36510 6851.46053 0.00015
38.42000 6738.33938 6853.03927 0.00015
38.42400 6718.94515 6854.68742 0.00015
38.42800 6621.36186 6856.40420 0.00015
38.43200 6850.49421 6858.18846 0.00015
38.43600 6787.47494 6860.03861 0.00015
38.44000 6871.13525 6861.95262 0.00015
38.44400 6738.30423 6863.92794 0.00015
38.44800 6678.72894 6865.96150 0.00015
38.45200 6598.84496 6868.04984 0.00015
38.45600 6839.55644 6870.18860 0.00015
38.46000 6733.88924 6872.37355 0.00015
38.46400 6729.53928 6874.59917 0.00015
38.46800 6773.15757 6876.85968 0.00015
38.47200 6709.62653 6879.14869 0.00015
38.47600 6697.18880 6881.45931 0.00015
38.48000 6808.94169 6883.78416 0.00015
38.48400 6710.65196 6886.11540 0.00015
38.48800 6761.28355 6888.44481 0.00015
38.49200 6733.61342 6890.76385 0.00015
38.49600 6749.09715 6893.06374 0.00015
38.50000 6867.67355 6895.33557 0.00015
38.50400 6771.90848 6897.57038 0.00015
38.50800 6825.36068 6899.75930 0.00015
38.51200 6638.14905 6901.89362 0.00015
38.51600 6856.83909 6903.96497 0.00015
38.52000 6880.10528 6905.96539 0.00015
38.52400 6817.68670 6907.88747 0.00015
38.52800 6859.44938 6909.72445 0.00015
38.53200 6780.00692 6911.47032 0.00015
38.53600 6851.86592 6913.11991 0.00015
38.54000 6798.86402 6914.66898 0.00015
38.54400 6938.05377 6916.11422 0.00014
38.54800 6888.23024 6917.45333 0.00015
38.55200 6813.31586 6918.68501 0.00015
38.55600 6854.41839 6919.80896 0.00015
38.56000 6831.70641 6920.82584 0.00015
38.56400 6755.79766 6921.73724 0.00015
38.56800 6764.69284 6922.54557 0.00015
38.57200 6790.61822 6923.25406 0.00015
38.57600 6660.94623 6923.86659 0.00015
38.58000 6865.42623 6924.38764 0.00015
38.58400 6878.77509 6924.82219 0.00015
38.58800 6808.69171 6925.17557 0.00015
38.59200 6814.63615 6925.45343 0.00015
38.59600 6867.84983 6925.66157 0.00015
38.60000 6830.39676 6925.80601 0.00015
38.60400 6739.75228 6925.89257 0.00015
38.60800 6813.77615 6925.92737 0.00015
38.61200 6755.09267 6925.91613 0.00015
38.61600 6877.55177 6925.86452 0.00015
38.62000 6757.34136 6925.77805 0.00015
38.62400 6822.70721 6925.66197 0.00015
38.62800 6803.01922 6925.52134 0.00015
38.63200 6840.54724 6925.36096 0.00015
38.63600 6877.10088 6925.18537 0.00015
38.64000 6873.66409 6924.99888 0.00015
38.64400 6881.62140 6924.80557 0.00015
38.64800 6992.61725 6924.60679 0.00014
38.65200 6933.78201 6924.39840 0.00014
38.65600 6877.54790 6924.20201 0.00015
38.66000 6930.25047 6923.98372 0.00014
38.66400 6883.16867 6923.80997 0.00015
38.66800 6821.41892 6923.64959 0.00015
38.67200 6799.93053 6923.50543 0.00015
38.67600 6867.01384 6923.38019 0.00015
38.68000 6836.73847 6923.27650 0.00015
38.68400 6932.58557 6923.19690 0.00014
38.68800 6875.44637 6923.14382 0.00015
38.69200 6824.06608 6923.11962 0.00015
38.69600 6770.29631 6923.12658 0.00015
38.70000 6705.95093 6923.16686 0.00015
38.70400 6886.26191 6923.24248 0.00015
38.70800 6841.64493 6923.35534 0.00015
38.71200 6878.78106 6923.50715 0.00015
38.71600 6889.57120 6923.69939 0.00015
38.72000 6907.96974 6923.93333 0.00014
38.72400 6878.26784 6924.20991 0.00015
38.72800 6894.61911 6924.52977 0.00015
38.73200 6891.68219 6924.89320 0.00015
38.73600 6826.75918 6925.30008 0.00015
38.74000 6912.75699 6925.74990 0.00014
38.74400 6938.34496 6926.24173 0.00014
38.74800 6929.23825 6926.77423 0.00014
38.75200 6939.83897 6927.34565 0.00014
38.75600 6784.72650 6927.95384 0.00015
38.76000 6713.42827 6928.59634 0.00015
38.76400 6930.19411 6929.27042 0.00014
38.76800 6826.97259 6929.97309 0.00015
38.77200 6850.78749 6930.70128 0.00015
38.77600 6854.96726 6931.45183 0.00015
38.78000 6690.11387 6932.22164 0.00015
38.78400 6819.42614 6933.00772 0.00015
38.78800 6838.80321 6933.80732 0.00015
38.79200 6966.23822 6934.61795 0.00014
38.79600 7048.70695 6935.43746 0.00014
38.80000 7000.03365 6936.26409 0.00014
38.80400 6896.95688 6937.09647 0.00014
38.80800 6939.54397 6937.93362 0.00014
38.81200 6862.05190 6938.77493 0.00015
38.81600 7002.38527 6939.62010 0.00014
38.82000 6924.94863 6940.46905 0.00014
38.82400 6899.35986 6941.32187 0.00014
38.82800 6902.20881 6942.17867 0.00014
38.83200 6897.22444 6943.03952 0.00014
38.83600 6954.19509 6943.90428 0.00014
38.84000 6924.18846 6944.77256 0.00014
38.84400 6830.93559 6945.64354 0.00015
38.84800 6827.73127 6946.51594 0.00015
38.85200 6791.56907 6947.38793 0.00015
38.85600 7002.78263 6948.25703 0.00014
38.86000 6838.55683 6949.12017 0.00015
38.86400 6930.76264 6949.97356 0.00014
38.86800 6947.34309 6950.81279 0.00014
38.87200 6805.61771 6951.63281 0.00015
38.87600 6889.11788 6952.42799 0.00015
38.88000 6850.44610 6953.19221 0.00015
38.88400 6906.27781 6953.91890 0.00014
38.88800 6966.85457 6954.60121 0.00014
38.89200 6891.06636 6955.23205 0.00015
38.89600 6816.38142 6955.80426 0.00015
38.90000 6776.17490 6956.31074 0.00015
38.90400 6834.02933 6956.74457 0.00015
38.90800 6775.82229 6957.09913 0.00015
38.91200 6975.06582 6957.36829 0.00014
38.91600 7004.49428 6957.54646 0.00014
38.92000 6938.92175 6957.62879 0.00014
38.92400 7002.49953 6957.61119 0.00014
38.92800 7040.81075 6957.49049 0.00014
38.93200 6963.14902 6957.26446 0.00014
38.93600 7014.96698 6956.93191 0.00014
38.94000 6930.17913 6956.49270 0.00014
38.94400 6892.13438 6955.94773 0.00015
38.94800 6913.38887 6955.29898 0.00014
38.95200 6871.51642 6954.54933 0.00015
38.95600 6774.69496 6953.70199 0.00015
38.96000 6883.22481 6952.75959 0.00015
38.96400 6806.43284 6951.72826 0.00015
38.96800 6888.67565 6950.60764 0.00015
38.97200 6829.69705 6949.43072 0.00015
38.97600 6967.17165 6948.18883 0.00014
38.98000 6872.16312 6946.88907 0.00015
38.98400 7005.20502 6945.53674 0.00014
38.98800 6938.93961 6944.14906 0.00014
38.99200 7005.46513 6942.71922 0.00014
38.99600 6945.41258 6941.27946 0.00014
39.00000 6990.89755 6939.82652 0.00014
39.00400 6929.69284 6938.36914 0.00014
39.00800 6932.68441 6936.91587 0.00014
39.01200 6963.72545 6935.47503 0.00014
39.01600 6889.67980 6934.05466 0.00015
39.02000 6795.74268 6932.66247 0.00015
39.02400 6944.08404 6931.30580 0.00014
39.02800 6972.66445 6929.99161 0.00014
39.03200 6923.33937 6928.72648 0.00014
39.03600 6786.84407 6927.51651 0.00015
39.04000 6870.05949 6926.36741 0.00015
39.04400 6922.79824 6925.28442 0.00014
39.04800 6828.92853 6924.27232 0.00015
39.05200 6839.62283 6923.33545 0.00015
39.05600 6921.36259 6922.47768 0.00014
39.06000 6878.81879 6921.70243 0.00015
39.06400 7016.50362 6921.01262 0.00014
39.06800 6921.34341 6920.41073 0.00014
39.07200 6810.58428 6919.89874 0.00015
39.07600 6830.91059 6919.47819 0.00015
39.08000 6906.92762 6919.15010 0.00014
39.08400 6750.41117 6918.91503 0.00015
39.08800 6766.98351 6918.77304 0.00015
39.09200 6703.00824 6918.72370 0.00015
39.09600 6682.15620 6918.76606 0.00015
39.10000 6760.48336 6918.89867 0.00015
39.10400 6851.22166 6919.11958 0.00015
39.10800 6861.81613 6919.42630 0.00015
39.11200 6808.78174 6919.81584 0.00015
39.11600 6817.29218 6920.28467 0.00015
39.12000 6894.75173 6920.82875 0.00015
39.12400 6820.85360 6921.44351 0.00015
39.12800 6878.07078 6922.12390 0.00015
39.13200 6961.61132 6922.86434 0.00014
39.13600 6830.63039 6923.65880 0.00015
39.14000 6896.54763 6924.50077 0.00015
39.14400 6687.67191 6925.38334 0.00015
39.14800 6717.67882 6926.29919 0.00015
39.15200 6806.80965 6927.24065 0.00015
39.15600 6794.20330 6928.19976 0.00015
39.16000 6897.90527 6929.16833 0.00014
39.16400 6896.08198 6930.13796 0.00015
39.16800 6790.63332 6931.10018 0.00015
39.17200 6766.11643 6932.04644 0.00015
39.17600 6823.42656 6932.96828 0.00015
39.18000 6880.30096 6933.85734 0.00015
39.18400 6793.55852 6934.70550 0.00015
39.18800 6848.56519 6935.50494 0.00015
39.19200 6801.17190 6936.24821 0.00015
39.19600 6749.13254 6936.92835 0.00015
39.20000 6794.81721 6937.53895 0.00015
39.20400 6745.99787 6938.07421 0.00015
39.20800 6688.77180 6938.52903 0.00015
39.21200 6820.31347 6938.89902 0.00015
39.21600 6853.05881 6939.18056 0.00015
39.22000 6784.58277 6939.37084 0.00015
39.22400 6834.00506 6939.46784 0.00015
39.22800 6946.60484 6939.47034 0.00014
39.23200 6748.79643 6939.37789 0.00015
39.23600 6853.01331 6939.19081 0.00015
39.24000 6822.82810 6938.91010 0.00015
39.24400 6846.65926 6938.53740 0.00015
39.24800 6857.21783 6938.07493 0.00015
39.25200 6808.51756 6937.52541 0.00015
39.25600 6863.17562 6936.89199 0.00015
39.26000 6922.87911 6936.17790 0.00014
39.26400 6852.62853 6935.38375 0.00015
39.26800 6827.91538 6934.50947 0.00015
39.27200 6822.83662 6933.55195 0.00015
39.27600 6777.10836 6932.55595 0.00015
39.28000 6773.24481 6931.49980 0.00015
39.28400 6750.11682 6930.38774 0.00015
39.28800 6869.23310 6929.22397 0.00015
39.29200 6788.55828 6928.01270 0.00015
39.29600 6746.58701 6926.75814 0.00015
39.30000 6731.18095 6925.46449 0.00015
39.30400 6781.56147 6924.13601 0.00015
39.30800 6720.75755 6922.77703 0.00015
39.31200 6937.80335 6921.39202 0.00014
39.31600 6879.92629 6919.98561 0.00015
39.32000 6721.72426 6918.56264 0.00015
39.32400 6618.67004 6917.12819 0.00015
39.32800 6723.82061 6915.68764 0.00015
39.33200 6685.47818 6914.24662 0.00015
39.33600 6728.35338 6912.81110 0.00015
39.34000 6675.52555 6911.38735 0.00015
39.34400 6800.32331 6909.98190 0.00015
39.34800 6822.33662 6908.60153 0.00015
39.35200 6709.56870 6907.25324 0.00015
39.35600 6730.50612 6905.94417 0.00015
39.36000 6773.74428 6904.68155 0.00015
39.36400 6827.48616 6903.47265 0.00015
39.36800 6777.45716 6902.32468 0.00015
39.37200 6822.63913 6901.24472 0.00015
39.37600 6855.88159 6900.23965 0.00015
39.38000 6842.73949 6899.31611 0.00015
39.38400 6855.17509 6898.48037 0.00015
39.38800 6703.80389 6897.73832 0.00015
39.39200 6765.26982 6897.09537 0.00015
39.39600 6704.25200 6896.55645 0.00015
39.40000 6753.63704 6896.12589 0.00015
39.40400 6786.59738 6895.80746 0.00015
39.40800 6772.29989 6895.60425 0.00015
39.41200 6720.87680 6895.51871 0.00015
39.41600 6822.55588 6895.55259 0.00015
39.42000 6813.96913 6895.70689 0.00015
39.42400 6737.10245 6895.98190 0.00015
39.42800 6797.53486 6896.37713 0.00015
39.43200 6795.75427 6896.89131 0.00015
39.43600 6729.19345 6897.52238 0.00015
39.44000 6644.26504 6898.26749 0.00015
39.44400 6756.39196 6899.12295 0.00015
39.44800 6682.70569 6900.08429 0.00015
39.45200 6651.38664 6901.14621 0.00015
39.45600 6626.38052 6902.30259 0.00015
39.46000 6835.52528 6903.54653 0.00015
39.46400 6823.71900 6904.87035 0.00015
39.46800 6786.22405 6906.26565 0.00015
39.47200 6776.91538 6907.72330 0.00015
39.47600 6962.80692 6909.23355 0.00014
39.48000 6904.58329 6910.78607 0.00014
39.48400 6931.63465 6912.37000 0.00014
39.48800 6796.90074 6913.97410 0.00015
39.49200 6786.36775 6915.58684 0.00015
39.49600 7002.81426 6917.19651 0.00014
39.50000 6890.90740 6918.79135 0.00015
39.50400 6806.61389 6920.35970 0.00015
39.50800 6895.06892 6921.89014 0.00015
39.51200 6943.34087 6923.37166 0.00014
39.51600 6987.58063 6924.79380 0.00014
39.52000 6715.74587 6926.14678 0.00015
39.52400 6801.08914 6927.42165 0.00015
39.52800 6813.63092 6928.61043 0.00015
39.53200 6867.13145 6929.70617 0.00015
39.53600 6894.04238 6930.70309 0.00015
39.54000 6753.62453 6931.59657 0.00015
39.54400 6750.27914 6932.38326 0.00015
39.54800 6830.26477 6933.06102 0.00015
39.55200 6803.00719 6933.62893 0.00015
39.55600 6818.34208 6934.08723 0.00015
39.56000 6843.37839 6934.43725 0.00015
39.56400 6916.68973 6934.68134 0.00014
39.56800 6766.44172 6934.82272 0.00015
39.57200 6597.31400 6934.86541 0.00015
39.57600 6815.57211 6934.81405 0.00015
39.58000 6816.85844 6934.67383 0.00015
39.58400 6750.53699 6934.45034 0.00015
39.58800 6868.45077 6934.14945 0.00015
39.59200 6841.17829 6933.77721 0.00015
39.59600 6733.21341 6933.33978 0.00015
39.60000 6773.76849 6932.84329 0.00015
39.60400 6900.54604 6932.29386 0.00014
39.60800 6822.95051 6931.69748 0.00015
39.61200 6857.03885 6931.06001 0.00015
39.61600 6796.14476 6930.38714 0.00015
39.62000 6855.17296 6929.68437 0.00015
39.62400 6790.37094 6928.95704 0.00015
39.62800 6835.56519 6928.21024 0.00015
39.63200 6857.80468 6927.44888 0.00015
39.63600 6825.09792 6926.67762 0.00015
39.64000 6789.52847 6925.90090 0.00015
39.64400 6767.48217 6925.12288 0.00015
39.64800 6814.53060 6924.34743 0.00015
39.65200 6941.06546 6923.57806 0.00014
39.65600 6835.60511 6922.81791 0.00015
39.66000 6833.29484 6922.06968 0.00015
39.66400 6753.63119 6921.33556 0.00015
39.66800 6774.48976 6920.61719 0.00015
39.67200 6887.56653 6919.91557 0.00015
39.67600 6791.94917 6919.23104 0.00015
39.68000 6893.80921 6918.56319 0.00015
39.68400 6815.13199 6917.91085 0.00015
39.68800 6736.05854 6917.27205 0.00015
39.69200 6706.49920 6916.64402 0.00015
39.69600 6704.53885 6916.02316 0.00015
39.70000 6790.62746 6915.40471 0.00015
39.70400 6769.50479 6914.77954 0.00015
39.70800 6864.92256 6914.13813 0.00015
39.71200 6899.23097 6913.46404 0.00014
39.71600 6732.24002 6912.80128 0.00015
39.72000 6843.37414 6912.11104 0.00015
39.72400 6806.57004 6911.38643 0.00015
39.72800 6811.38052 6910.62064 0.00015
39.73200 6843.98643 6909.80715 0.00015
39.73600 6856.59260 6908.93993 0.00015
39.74000 6924.34726 6908.01358 0.00014
39.74400 6827.99415 6907.02352 0.00015
39.74800 6914.27089 6905.96611 0.00014
39.75200 6862.73310 6904.83878 0.00015
39.75600 6763.39968 6903.64014 0.00015
39.76000 6823.40184 6902.36997 0.00015
39.76400 6851.41405 6901.02925 0.00015
39.76800 6869.64875 6899.62017 0.00015
39.77200 6794.72352 6898.14602 0.00015
39.77600 6819.90553 6896.61112 0.00015
39.78000 6940.64795 6895.02071 0.00014
39.78400 6913.44572 6893.38075 0.00014
39.78800 6833.79457 6891.69783 0.00015
39.79200 6882.28632 6889.97897 0.00015
39.79600 6915.91147 6888.23146 0.00014
39.80000 6954.10750 6886.46268 0.00014
39.80400 6781.93427 6884.67996 0.00015
39.80800 6931.35444 6882.89044 0.00014
39.81200 6856.78260 6881.10095 0.00015
39.81600 6997.66578 6879.31789 0.00014
39.82000 6981.29231 6877.54714 0.00014
39.82400 6886.14103 6875.79404 0.00015
39.82800 6991.48829 6874.06330 0.00014
39.83200 6841.81134 6872.35899 0.00015
39.83600 6860.16072 6870.68456 0.00015
39.84000 7009.26610 6869.04282 0.00014
39.84400 6831.67073 6867.43598 0.00015
39.84800 6887.84380 6865.86566 0.00015
39.85200 6872.06174 6864.33299 0.00015
39.85600 6833.22964 6862.83860 0.00015
39.86000 6900.81959 6861.38273 0.00014
39.86400 6968.09340 6859.96526 0.00014
39.86800 7001.39884 6858.58580 0.00014
39.87200 6883.48829 6857.24371 0.00015
39.87600 6857.28632 6855.93821 0.00015
39.88000 6855.03353 6854.66842 0.00015
39.88400 6925.98989 6853.43341 0.00014
39.88800 6874.43002 6852.23228 0.00015
39.89200 6923.94252 6851.06417 0.00014
39.89600 6889.65620 6849.92830 0.00015
39.90000 6945.38435 6848.82406 0.00014
39.90400 6834.10218 6847.75097 0.00015
39.90800 6913.39915 6846.70871 0.00014
39.91200 6858.27940 6845.69724 0.00015
39.91600 6844.48084 6844.71657 0.00015
39.92000 6793.45147 6843.76732 0.00015
39.92400 6942.91112 6842.84987 0.00014
39.92800 6879.49601 6841.96496 0.00015
39.93200 6836.54444 6841.11354 0.00015
39.93600 6889.14122 6840.29675 0.00015
39.94000 6830.64822 6839.51586 0.00015
39.94400 6777.82844 6838.77232 0.00015
39.94800 6831.36668 6838.06769 0.00015
39.95200 6966.19755 6837.40365 0.00014
39.95600 6966.35178 6836.78196 0.00014
39.96000 6977.53857 6836.20445 0.00014
39.96400 6841.23177 6835.67301 0.00015
39.96800 6929.15487 6835.18954 0.00014
39.97200 6718.31566 6834.75598 0.00015
39.97600 6799.63944 6834.37425 0.00015
39.98000 6771.23230 6834.04629 0.00015
39.98400 6825.39143 6833.77398 0.00015
39.98800 6892.83580 6833.55920 0.00015
39.99200 6800.98510 6833.40376 0.00015
39.99600 6850.52530 6833.30945 0.00015
40.00000 6956.67804 6833.27799 0.00014
40.00400 6924.17935 6833.31104 0.00014
40.00800 6811.25050 6833.41021 0.00015
40.01200 6867.16631 6833.57704 0.00015
40.01600 6913.89143 6833.81300 0.00014
40.02000 6860.54437 6834.11949 0.00015
40.02400 6822.70623 6834.49786 0.00015
40.02800 6844.04562 6834.94936 0.00015
40.03200 6808.86595 6835.47517 0.00015
40.03600 6780.23204 6836.07641 0.00015
40.04000 6817.50716 6836.75412 0.00015
40.04400 6799.84859 6837.50924 0.00015
40.04800 6839.11948 6838.34263 0.00015
40.05200 6788.44726 6839.25505 0.00015
40.05600 6755.26131 6840.24718 0.00015
40.06000 6912.65691 6841.31959 0.00014
40.06400 6778.02342 6842.47272 0.00015
40.06800 6857.53493 6843.70689 0.00015
40.07200 6856.08888 6845.02229 0.00015
40.07600 6875.64835 6846.41896 0.00015
40.08000 6939.32038 6847.89678 0.00014
40.08400 6928.94038 6849.45544 0.00014
40.08800 6831.04843 6851.09443 0.00015
40.09200 6798.44422 6852.81306 0.00015
40.09600 6713.24907 6854.61037 0.00015
40.10000 6762.28499 6856.48515 0.00015
40.10400 6759.71972 6858.43592 0.00015
40.10800 6775.12853 6860.46092 0.00015
40.11200 6818.65919 6862.55804 0.00015
40.11600 6836.72645 6864.72483 0.00015
40.12000 6934.67487 6866.95850 0.00014
40.12400 6795.17483 6869.25585 0.00015
40.12800 6838.32456 6871.61330 0.00015
40.13200 6795.48685 6874.02683 0.00015
40.13600 6811.61841 6876.49201 0.00015
40.14000 6869.28205 6879.00397 0.00015
40.14400 6814.19154 6881.55740 0.00015
40.14800 6971.31094 6884.14655 0.00014
40.15200 6836.11981 6886.76527 0.00015
40.15600 6780.67270 6889.40699 0.00015
40.16000 6891.65637 6892.06479 0.00015
40.16400 6844.27994 6894.73141 0.00015
40.16800 6771.63764 6897.39931 0.00015
40.17200 6748.18441 6900.06074 0.00015
40.17600 6771.91829 6902.70779 0.00015
40.18000 6841.05349 6905.33249 0.00015
40.18400 6848.69009 6907.92689 0.00015
40.18800 6877.23229 6910.48315 0.00015
40.19200 6913.40112 6912.99365 0.00014
40.19600 6659.79005 6915.45111 0.00015
40.20000 6745.97650 6917.84868 0.00015
40.20400 6978.02979 6920.18005 0.00014
40.20800 6943.72052 6922.43953 0.00014
40.21200 6856.32948 6924.62219 0.00015
40.21600 6821.74589 6926.72390 0.00015
40.22000 7044.57254 6928.74145 0.00014
40.22400 6903.11904 6930.67253 0.00014
40.22800 6856.64493 6932.51583 0.00015
40.23200 6827.43853 6934.27103 0.00015
40.23600 6671.77361 6935.93879 0.00015
40.24000 6704.00728 6937.52077 0.00015
40.24400 6958.72262 6939.01954 0.00014
40.24800 6870.17364 6940.43854 0.00015
40.25200 6911.45290 6941.78202 0.00014
40.25600 6775.59303 6943.05493 0.00015
40.26000 6882.55608 6944.26287 0.00015
40.26400 6829.67820 6945.41191 0.00015
40.26800 6832.17004 6946.50857 0.00015
40.27200 6787.81668 6947.55964 0.00015
40.27600 6840.28107 6948.57212 0.00015
40.28000 6709.39970 6949.55309 0.00015
40.28400 6929.90153 6950.50966 0.00014
40.28800 6812.65838 6951.44881 0.00015
40.29200 6886.77644 6952.37737 0.00015
40.29600 6891.92813 6953.30194 0.00015
40.30000 6970.01855 6954.22884 0.00014
40.30400 6780.99591 6955.16402 0.00015
40.30800 6908.54130 6956.11311 0.00014
40.31200 6871.47133 6957.08129 0.00015
40.31600 6963.45994 6958.07336 0.00014
40.32000 6809.90740 6959.09369 0.00015
40.32400 6830.35534 6960.14623 0.00015
40.32800 6952.32178 6961.23451 0.00014
40.33200 6834.75858 6962.36165 0.00015
40.33600 6812.60523 6963.53040 0.00015
40.34000 6950.12124 6964.74299 0.00014
40.34400 6840.69923 6965.99852 0.00015
40.34800 6914.22731 6967.29170 0.00014
40.35200 6792.53513 6968.61665 0.00015
40.35600 6850.55097 6970.02187 0.00015
40.36000 6948.47401 6971.47782 0.00014
40.36400 6819.04312 6972.98499 0.00015
40.36800 6768.50462 6974.54364 0.00015
40.37200 6928.05110 6976.15375 0.00014
40.37600 6782.27180 6977.81512 0.00015
40.38000 6826.77589 6979.52729 0.00015
40.38400 6883.67869 6981.28963 0.00015
40.38800 6964.07053 6983.10129 0.00014
40.39200 6983.67569 6984.96120 0.00014
40.39600 6849.98084 6986.86815 0.00015
40.40000 6763.31604 6988.82068 0.00015
40.40400 6799.75672 6990.81716 0.00015
40.40800 6777.08411 6992.85580 0.00015
40.41200 6870.66463 6994.93458 0.00015
40.41600 6908.95486 6997.05132 0.00014
40.42000 6760.88768 6999.20367 0.00015
40.42400 6791.86251 7001.38910 0.00015
40.42800 6801.11658 7003.60492 0.00015
40.43200 6864.83201 7005.84830 0.00015
40.43600 6948.23875 7008.11629 0.00014
40.44000 6874.21799 7010.40579 0.00015
40.44400 6825.82478 7012.71363 0.00015
40.44800 6987.20603 7015.03656 0.00014
40.45200 6987.80596 7017.37130 0.00014
40.45600 6958.18819 7019.71455 0.00014
40.46000 6919.66143 7022.06300 0.00014
40.46400 7104.37201 7024.41311 0.00014
40.46800 6841.03913 7026.76084 0.00015
40.47200 6894.22572 7029.10506 0.00015
40.47600 6965.43552 7031.43870 0.00014
40.48000 6852.47432 7033.76689 0.00015
40.48400 6935.29969 7036.08284 0.00014
40.48800 6801.30796 7038.38432 0.00015
40.49200 6917.73436 7040.66941 0.00014
40.49600 6984.30729 7042.93646 0.00014
40.50000 7001.87144 7045.18417 0.00014
40.50400 6945.91483 7047.41156 0.00014
40.50800 7019.36518 7049.61798 0.00014
40.51200 7057.81953 7051.80317 0.00014
40.51600 7027.47485 7053.96717 0.00014
40.52000 6928.08438 7056.11039 0.00014
40.52400 6823.04118 7058.23352 0.00015
40.52800 7025.50998 7060.33761 0.00014
40.53200 7054.04259 7062.42396 0.00014
40.53600 7052.12510 7064.49413 0.00014
40.54000 6857.20804 7066.54988 0.00015
40.54400 6833.32792 7068.59320 0.00015
40.54800 6995.58132 7070.62618 0.00014
40.55200 7013.74296 7072.65107 0.00014
40.55600 6947.00559 7074.67016 0.00014
40.56000 6985.34249 7076.68578 0.00014
40.56400 7008.22837 7078.70026 0.00014
40.56800 7191.49744 7080.71583 0.00014
40.57200 7047.80570 7082.73468 0.00014
40.57600 6969.03860 7084.75883 0.00014
40.58000 6823.45848 7086.79015 0.00015
40.58400 6908.66181 7088.83027 0.00014
40.58800 6910.78454 7090.88056 0.00014
40.59200 6992.58557 7092.94212 0.00014
40.59600 6886.55497 7095.01574 0.00015
40.60000 7073.33963 7097.10181 0.00014
40.60400 7079.85508 7099.20037 0.00014
40.60800 7107.36306 7101.31100 0.00014
40.61200 7157.73571 7103.43266 0.00014
40.61600 7143.01145 7105.56316 0.00014
40.62000 7001.13244 7107.70037 0.00014
40.62400 6922.37357 7109.84160 0.00014
40.62800 6969.62550 7111.98626 0.00014
40.63200 7081.37807 7114.13529 0.00014
40.63600 7061.61539 7116.28049 0.00014
40.64000 7014.74135 7118.41764 0.00014
40.64400 7179.51021 7120.54211 0.00014
40.64800 7043.93878 7122.64883 0.00014
40.65200 6914.59956 7124.73240 0.00014
40.65600 6871.12457 7126.78709 0.00015
40.66000 7040.70500 7128.80694 0.00014
40.66400 7096.52653 7130.78582 0.00014
40.66800 7103.26777 7132.71750 0.00014
40.67200 7054.19275 7134.59572 0.00014
40.67600 7073.17146 7136.41433 0.00014
40.68000 7180.34735 7138.16732 0.00014
40.68400 7129.77697 7139.84893 0.00014
40.68800 7031.96167 7141.45373 0.00014
40.69200 7039.07615 7142.97674 0.00014
40.69600 7171.63203 7144.41342 0.00014
40.70000 7169.69574 7145.75984 0.00014
40.70400 7073.51131 7147.01264 0.00014
40.70800 7251.31804 7148.16913 0.00014
40.71200 7177.29483 7149.22734 0.00014
40.71600 7051.06922 7150.18598 0.00014
40.72000 7046.14932 7151.04452 0.00014
40.72400 7112.02094 7151.80314 0.00014
40.72800 7204.70424 7152.46278 0.00014
40.73200 7127.40685 7153.02507 0.00014
40.73600 7221.85863 7153.49234 0.00014
40.74000 7145.47368 7153.86755 0.00014
40.74400 7028.37716 7154.15433 0.00014
40.74800 7068.68663 7154.35684 0.00014
40.75200 7101.82799 7154.47983 0.00014
40.75600 7208.48935 7154.52851 0.00014
40.76000 7127.97329 7154.50853 0.00014
40.76400 7200.90551 7154.42594 0.00014
40.76800 7107.21575 7154.28712 0.00014
40.77200 7088.29925 7154.09875 0.00014
40.77600 7274.70737 7153.86770 0.00014
40.78000 7161.18158 7153.60102 0.00014
40.78400 7139.83829 7153.30588 0.00014
40.78800 7203.31112 7152.98949 0.00014
40.79200 7207.65921 7152.65902 0.00014
40.79600 7091.73020 7152.32160 0.00014
40.80000 6966.04638 7151.98419 0.00014
40.80400 7132.19329 7151.65358 0.00014
40.80800 7060.58026 7151.33625 0.00014
40.81200 7202.85366 7151.03840 0.00014
40.81600 7177.58786 7150.76581 0.00014
40.82000 7159.38974 7150.52381 0.00014
40.82400 7170.56789 7150.31724 0.00014
40.82800 7107.09478 7150.15038 0.00014
40.83200 7150.28662 7150.02688 0.00014
40.83600 7116.25208 7149.94973 0.00014
40.84000 7197.48561 7149.92124 0.00014
40.84400 7098.38371 7149.94294 0.00014
40.84800 7206.52183 7150.01562 0.00014
40.85200 7148.59476 7150.13888 0.00014
40.85600 7257.40282 7150.30967 0.00014
40.86000 7195.22695 7150.52064 0.00014
40.86400 7222.51278 7150.77997 0.00014
40.86800 7178.32851 7151.05751 0.00014
40.87200 7145.64747 7151.40682 0.00014
40.87600 7201.59185 7151.78979 0.00014
40.88000 7157.01438 7152.20086 0.00014
40.88400 7246.46587 7152.63378 0.00014
40.88800 7178.02609 7153.08173 0.00014
40.89200 7170.72028 7153.53735 0.00014
40.89600 7135.10480 7153.99289 0.00014
40.90000 7219.41214 7154.44024 0.00014
40.90400 7118.53355 7154.87110 0.00014
40.90800 7148.97749 7155.27708 0.00014
40.91200 7114.90016 7155.64980 0.00014
40.91600 7297.37354 7155.98104 0.00014
40.92000 7290.05152 7156.26283 0.00014
40.92400 7225.07481 7156.48761 0.00014
40.92800 7329.03528 7156.64835 0.00014
40.93200 7210.65136 7156.73861 0.00014
40.93600 7133.24414 7156.75266 0.00014
40.94000 7134.96553 7156.68558 0.00014
40.94400 7147.14191 7156.53332 0.00014
40.94800 7171.98966 7156.29273 0.00014
40.95200 7250.58600 7155.96161 0.00014
40.95600 7219.13129 7155.53875 0.00014
40.96000 7302.10437 7155.02387 0.00014
40.96400 7281.86735 7154.41767 0.00014
40.96800 7222.50692 7153.72174 0.00014
40.97200 7326.09654 7152.93855 0.00014
40.97600 7367.00886 7152.07139 0.00014
40.98000 7343.27197 7151.12431 0.00014
40.98400 7276.70076 7150.10201 0.00014
40.98800 7343.42013 7149.00979 0.00014
40.99200 7271.10072 7147.85350 0.00014
40.99600 7129.24281 7146.63941 0.00014
41.00000 7197.57512 7145.37414 0.00014
41.00400 7149.01886 7144.06462 0.00014
41.00800 7081.00623 7142.71796 0.00014
41.01200 7220.24121 7141.34142 0.00014
41.01600 7101.35721 7139.94234 0.00014
41.02000 7273.66891 7138.52803 0.00014
41.02400 7237.49050 7137.10578 0.00014
41.02800 7228.80272 7135.68276 0.00014
41.03200 7349.17482 7134.26601 0.00014
41.03600 7305.63389 7132.86235 0.00014
41.04000 7155.52346 7131.47840 0.00014
41.04400 7156.66466 7130.12050 0.00014
41.04800 7165.42678 7128.79472 0.00014
41.05200 7199.51088 7127.50684 0.00014
41.05600 7141.22517 7126.26228 0.00014
41.06000 7268.34446 7125.06618 0.00014
41.06400 7177.03330 7123.92330 0.00014
41.06800 7146.15675 7122.83809 0.00014
41.07200 7271.80320 7121.81462 0.00014
41.07600 7304.14371 7120.85662 0.00014
41.08000 7089.23754 7119.96749 0.00014
41.08400 6988.71177 7119.15027 0.00014
41.08800 7152.00734 7118.40766 0.00014
41.09200 7159.66484 7117.74201 0.00014
41.09600 7261.96884 7117.15533 0.00014
41.10000 7132.37081 7116.64930 0.00014
41.10400 7262.82478 7116.22522 0.00014
41.10800 7258.67359 7115.88389 0.00014
41.11200 7193.33265 7115.62597 0.00014
41.11600 7175.26232 7115.44991 0.00014
41.12000 7167.57141 7115.35300 0.00014
41.12400 7180.48141 7115.34469 0.00014
41.12800 7161.35193 7115.40168 0.00014
41.13200 7144.77630 7115.56006 0.00014
41.13600 7143.53923 7115.79865 0.00014
41.14000 7123.48725 7116.11562 0.00014
41.14400 7274.93076 7116.50861 0.00014
41.14800 7283.66949 7116.97413 0.00014
41.15200 7208.07963 7117.50675 0.00014
41.15600 7109.74012 7118.10648 0.00014
41.16000 7180.39888 7118.75926 0.00014
41.16400 7219.80611 7119.48760 0.00014
41.16800 7184.61301 7120.27139 0.00014
41.17200 7137.48629 7121.10606 0.00014
41.17600 7147.02587 7121.98673 0.00014
41.18000 7223.55686 7122.90831 0.00014
41.18400 7172.33059 7123.86552 0.00014
41.18800 7164.21358 7124.85296 0.00014
41.19200 7227.24607 7125.86509 0.00014
41.19600 7230.67750 7126.89639 0.00014
41.20000 7138.77781 7127.94135 0.00014
41.20400 7403.62355 7128.99456 0.00014
41.20800 7364.61514 7130.05080 0.00014
41.21200 7300.83290 7131.10504 0.00014
41.21600 7274.65007 7132.15260 0.00014
41.22000 7080.52189 7133.18911 0.00014
41.22400 7274.95153 7134.21065 0.00014
41.22800 7317.56312 7135.21376 0.00014
41.23200 7255.43788 7136.19485 0.00014
41.23600 7278.67737 7137.14816 0.00014
41.24000 7174.64004 7138.06460 0.00014
41.24400 7252.99728 7138.96878 0.00014
41.24800 7327.39254 7139.81449 0.00014
41.25200 7224.24810 7140.66322 0.00014
41.25600 7195.47336 7141.48377 0.00014
41.26000 7202.04447 7142.27664 0.00014
41.26400 7300.72460 7143.04267 0.00014
41.26800 7144.71329 7143.78300 0.00014
41.27200 7362.05974 7144.49894 0.00014
41.27600 7249.21119 7145.19191 0.00014
41.28000 7199.31215 7145.86335 0.00014
41.28400 7311.75680 7146.51465 0.00014
41.28800 7330.50372 7147.14706 0.00014
41.29200 7087.82184 7147.76163 0.00014
41.29600 7411.55231 7148.35910 0.00013
41.30000 7336.68803 7148.93990 0.00014
41.30400 7335.69908 7149.50406 0.00014
41.30800 7256.19057 7150.05119 0.00014
41.31200 7378.06029 7150.57764 0.00014
41.31600 7347.32170 7151.07273 0.00014
41.32000 7288.84483 7151.55513 0.00014
41.32400 7310.07454 7151.97914 0.00014
41.32800 7165.43463 7152.41802 0.00014
41.33200 7171.51136 7152.82259 0.00014
41.33600 7252.16465 7153.19724 0.00014
41.34000 7241.36297 7153.51959 0.00014
41.34400 7167.02214 7153.82101 0.00014
41.34800 7236.75323 7154.07757 0.00014
41.35200 7286.60427 7154.28477 0.00014
41.35600 7187.87451 7154.43796 0.00014
41.36000 7175.41826 7154.53250 0.00014
41.36400 7235.71550 7154.56374 0.00014
41.36800 7129.07510 7154.52713 0.00014
41.37200 7298.54530 7154.41825 0.00014
41.37600 7271.19958 7154.23290 0.00014
41.38000 7194.99658 7153.96711 0.00014
41.38400 7238.94804 7153.61721 0.00014
41.38800 7224.88795 7153.17990 0.00014
41.39200 7259.36121 7152.65222 0.00014
41.39600 7168.98597 7152.03163 0.00014
41.40000 7152.27900 7151.31603 0.00014
41.40400 7116.17874 7150.50376 0.00014
41.40800 7170.06272 7149.59360 0.00014
41.41200 7224.34765 7148.58483 0.00014
41.41600 7042.06500 7147.47716 0.00014
41.42000 7315.96245 7146.27079 0.00014
41.42400 7258.50638 7144.96637 0.00014
41.42800 7092.05121 7143.56501 0.00014
41.43200 7103.89889 7142.06820 0.00014
41.43600 7120.06379 7140.47791 0.00014
41.44000 7060.11182 7138.79647 0.00014
41.44400 7014.18782 7137.02660 0.00014
41.44800 7228.48194 7135.17136 0.00014
41.45200 7174.35669 7133.23415 0.00014
41.45600 7320.31922 7131.21849 0.00014
41.46000 7123.28379 7129.12874 0.00014
41.46400 7210.79305 7126.96833 0.00014
41.46800 7144.11255 7124.74395 0.00014
41.47200 7121.94183 7122.45930 0.00014
41.47600 7183.74205 7120.11950 0.00014
41.48000 7138.51929 7117.72989 0.00014
41.48400 7196.58842 7115.29580 0.00014
41.48800 7075.25067 7112.82044 0.00014
41.49200 7028.92201 7110.30374 0.00014
41.49600 7119.00672 7107.76903 0.00014
41.50000 7247.74285 7105.18958 0.00014
41.50400 7243.09670 7102.62247 0.00014
41.50800 7259.35378 7100.04688 0.00014
41.51200 7095.08219 7097.46889 0.00014
41.51600 7048.55195 7094.89450 0.00014
41.52000 7086.64293 7092.32960 0.00014
41.52400 7154.26442 7089.77969 0.00014
41.52800 7109.68949 7087.24914 0.00014
41.53200 7149.09749 7084.74051 0.00014
41.53600 7101.78069 7082.26576 0.00014
41.54000 7002.99121 7079.81498 0.00014
41.54400 7172.32667 7077.41901 0.00014
41.54800 7248.29210 7075.06725 0.00014
41.55200 7121.00798 7072.76338 0.00014
41.55600 7153.91647 7070.51072 0.00014
41.56000 7199.43537 7068.31217 0.00014
41.56400 7056.55890 7066.17027 0.00014
41.56800 7073.93556 7064.08714 0.00014
41.57200 7143.05957 7062.06451 0.00014
41.57600 7158.26622 7060.10375 0.00014
41.58000 7212.99758 7058.20582 0.00014
41.58400 7166.65096 7056.37131 0.00014
41.58800 7109.30649 7054.60047 0.00014
41.59200 7249.01807 7052.89321 0.00014
41.59600 7261.62739 7051.24910 0.00014
41.60000 7233.61797 7049.66741 0.00014
41.60400 7181.94732 7048.14711 0.00014
41.60800 7195.19549 7046.68693 0.00014
41.61200 7221.83181 7045.28531 0.00014
41.61600 7209.43648 7043.94054 0.00014
41.62000 7140.77937 7042.65066 0.00014
41.62400 7181.41727 7041.41357 0.00014
41.62800 7153.74064 7040.22705 0.00014
41.63200 7044.63355 7039.08876 0.00014
41.63600 7216.28982 7037.99629 0.00014
41.64000 7214.37236 7036.94721 0.00014
41.64400 6970.96227 7035.93909 0.00014
41.64800 7068.57969 7034.96951 0.00014
41.65200 7100.30704 7034.03616 0.00014
41.65600 7133.70743 7033.13679 0.00014
41.66000 7019.58771 7032.26931 0.00014
41.66400 7043.16489 7031.43179 0.00014
41.66800 7190.27898 7030.62249 0.00014
41.67200 7204.17645 7029.83991 0.00014
41.67600 6968.69552 7029.08277 0.00014
41.68000 7001.76712 7028.35009 0.00014
41.68400 7038.37985 7027.64113 0.00014
41.68800 7061.31548 7026.95547 0.00014
41.69200 7080.27919 7026.29297 0.00014
41.69600 7081.26188 7025.65381 0.00014
41.70000 7132.09490 7025.03846 0.00014
41.70400 7183.01258 7024.44768 0.00014
41.70800 7098.17205 7023.88250 0.00014
41.71200 6969.29109 7023.34424 0.00014
41.71600 6889.30775 7022.83446 0.00015
41.72000 7149.59140 7022.35494 0.00014
41.72400 7164.57138 7021.90767 0.00014
41.72800 7117.02568 7021.49482 0.00014
41.73200 7047.00195 7021.11869 0.00014
41.73600 7088.21160 7020.78173 0.00014
41.74000 7091.17346 7020.48646 0.00014
41.74400 7207.25365 7020.23548 0.00014
41.74800 7161.24851 7020.03142 0.00014
41.75200 6927.38215 7019.87690 0.00014
41.75600 7064.97708 7019.77455 0.00014
41.76000 7159.38522 7019.72694 0.00014
41.76400 7163.95198 7019.73657 0.00014
41.76800 7024.45617 7019.80584 0.00014
41.77200 7188.59510 7019.93705 0.00014
41.77600 6969.60696 7020.13235 0.00014
41.78000 7144.30382 7020.39375 0.00014
41.78400 7055.29584 7020.72306 0.00014
41.78800 7004.27904 7021.12194 0.00014
41.79200 6881.80803 7021.59182 0.00015
41.79600 7013.97280 7022.13389 0.00014
41.80000 7110.39275 7022.74915 0.00014
41.80400 7129.11875 7023.43831 0.00014
41.80800 7073.95194 7024.20185 0.00014
41.81200 7185.65953 7025.03994 0.00014
41.81600 7171.51673 7025.95250 0.00014
41.82000 6956.53586 7026.93913 0.00014
41.82400 7082.17601 7027.99912 0.00014
41.82800 7113.12548 7029.13146 0.00014
41.83200 7100.04232 7030.33480 0.00014
41.83600 7037.10392 7031.60746 0.00014
41.84000 7088.38545 7032.94742 0.00014
41.84400 7049.27804 7034.35234 0.00014
41.84800 7162.15866 7035.81950 0.00014
41.85200 7214.31731 7037.34586 0.00014
41.85600 7138.83690 7038.92805 0.00014
41.86000 6946.73330 7040.56234 0.00014
41.86400 7043.65368 7042.24470 0.00014
41.86800 7181.42733 7043.97078 0.00014
41.87200 6878.62350 7045.73594 0.00015
41.87600 7039.57836 7047.53528 0.00014
41.88000 7038.95604 7049.36363 0.00014
41.88400 6889.96642 7051.21562 0.00015
41.88800 6859.85931 7053.08569 0.00015
41.89200 7172.04050 7054.96811 0.00014
41.89600 6962.37260 7056.85706 0.00014
41.90000 7053.73248 7058.74636 0.00014
41.90400 7081.19190 7060.62790 0.00014
41.90800 7268.83933 7062.49292 0.00014
41.91200 7024.07836 7064.33152 0.00014
41.91600 7027.43938 7066.16496 0.00014
41.92000 7117.92750 7067.97011 0.00014
41.92400 6957.80496 7069.74162 0.00014
41.92800 6904.03625 7071.47438 0.00014
41.93200 7099.66844 7073.16353 0.00014
41.93600 7216.46523 7074.80456 0.00014
41.94000 7144.07996 7076.39329 0.00014
41.94400 7115.91100 7077.92589 0.00014
41.94800 6998.05810 7079.39892 0.00014
41.95200 6943.92431 7080.80935 0.00014
41.95600 7104.07034 7082.15452 0.00014
41.96000 7016.17910 7083.43222 0.00014
41.96400 7044.32836 7084.64060 0.00014
41.96800 7113.94030 7085.77825 0.00014
41.97200 7118.54584 7086.84415 0.00014
41.97600 7156.23022 7087.83765 0.00014
41.98000 7141.86247 7088.75852 0.00014
41.98400 7104.97761 7089.60687 0.00014
41.98800 7004.99627 7090.38322 0.00014
41.99200 7151.93923 7091.08841 0.00014
41.99600 6862.19829 7091.72369 0.00015
42.00000 7106.51493 7092.29064 0.00014
42.00400 7214.61940 7092.79122 0.00014
42.00800 7064.37953 7093.22774 0.00014
42.01200 6991.97815 7093.60288 0.00014
42.01600 6872.24467 7093.91968 0.00015
42.02000 7091.91951 7094.18155 0.00014
42.02400 7149.68870 7094.39225 0.00014
42.02800 7017.33262 7094.55588 0.00014
42.03200 6978.56343 7094.67692 0.00014
42.03600 6914.88913 7094.76015 0.00014
42.04000 7006.14339 7094.81066 0.00014
42.04400 7144.52146 7094.83383 0.00014
42.04800 7217.45416 7094.83528 0.00014
42.05200 7119.55650 7094.82087 0.00014
42.05600 7088.00000 7094.79660 0.00014
42.06000 7086.12957 7094.76864 0.00014
42.06400 7062.99915 7094.74321 0.00014
42.06800 7228.04679 7094.72659 0.00014
42.07200 7240.10344 7094.72505 0.00014
42.07600 7072.67627 7094.74476 0.00014
42.08000 7143.11410 7094.79179 0.00014
42.08400 6992.96364 7094.87207 0.00014
42.08800 6980.51044 7094.99130 0.00014
42.09200 7132.78547 7095.15491 0.00014
42.09600 7221.64284 7095.36808 0.00014
42.10000 7170.40469 7095.63565 0.00014
42.10400 7139.54757 7095.96211 0.00014
42.10800 7015.43588 7096.35159 0.00014
42.11200 7232.10720 7096.80782 0.00014
42.11600 7235.41882 7097.33415 0.00014
42.12000 7164.32791 7097.93352 0.00014
42.12400 7199.15489 7098.60847 0.00014
42.12800 7120.22021 7099.36113 0.00014
42.13200 6993.27273 7100.19328 0.00014
42.13600 7252.91791 7101.10629 0.00014
42.14000 7191.07651 7102.10119 0.00014
42.14400 7025.87683 7103.17870 0.00014
42.14800 7060.92484 7104.33919 0.00014
42.15200 7137.00880 7105.58280 0.00014
42.15600 7325.66356 7106.90941 0.00014
42.16000 7252.84222 7108.31867 0.00014
42.16400 7180.57585 7109.81009 0.00014
42.16800 6944.90536 7111.38301 0.00014
42.17200 7128.00640 7113.03667 0.00014
42.17600 6933.50733 7114.77024 0.00014
42.18000 7117.14073 7116.58285 0.00014
42.18400 7061.29531 7118.47364 0.00014
42.18800 7265.30704 7120.44174 0.00014
42.19200 6956.81418 7122.48636 0.00014
42.19600 7198.02772 7124.60678 0.00014
42.20000 7215.80059 7126.80235 0.00014
42.20400 7307.33635 7129.07255 0.00014
42.20800 7239.48294 7131.41695 0.00014
42.21200 7153.27326 7133.83528 0.00014
42.21600 7148.33582 7136.32735 0.00014
42.22000 7190.70469 7138.89310 0.00014
42.22400 6939.67902 7141.53257 0.00014
42.22800 7077.47655 7144.24588 0.00014
42.23200 7393.95522 7147.03322 0.00014
42.23600 7219.66898 7149.89481 0.00014
42.24000 7215.39765 7152.83089 0.00014
42.24400 7090.39232 7155.84166 0.00014
42.24800 7173.44563 7158.92729 0.00014
42.25200 7321.76546 7162.08784 0.00014
42.25600 7121.46695 7165.32326 0.00014
42.26000 6914.38806 7168.63333 0.00014
42.26400 7128.80171 7172.01764 0.00014
42.26800 7200.26866 7175.47557 0.00014
42.27200 7167.22815 7179.00625 0.00014
42.27600 7099.55224 7182.60855 0.00014
42.28000 7131.26226 7186.28104 0.00014
42.28400 7258.89552 7190.02201 0.00014
42.28800 7152.17484 7193.82947 0.00014
42.29200 7211.48401 7197.70112 0.00014
42.29600 7058.47761 7201.63440 0.00014
42.30000 7251.47974 7205.62649 0.00014
42.30400 7326.28571 7209.67434 0.00014
42.30800 7196.56290 7213.77471 0.00014
42.31200 7245.80496 7217.92423 0.00014
42.31600 7380.77146 7222.11941 0.00014
42.32000 7322.41011 7226.35669 0.00014
42.32400 7201.55901 7230.63257 0.00014
42.32800 7174.74458 7234.94359 0.00014
42.33200 7134.12913 7239.28641 0.00014
42.33600 7119.81353 7243.65787 0.00014
42.34000 7091.60226 7248.05505 0.00014
42.34400 7281.15614 7252.47530 0.00014
42.34800 7327.54056 7256.91629 0.00014
42.35200 7265.69679 7261.37604 0.00014
42.35600 7197.91042 7265.85293 0.00014
42.36000 7290.94856 7270.34571 0.00014
42.36400 7210.66638 7274.85351 0.00014
42.36800 7228.78967 7279.37582 0.00014
42.37200 7173.79751 7283.91245 0.00014
42.37600 7315.90611 7288.46354 0.00014
42.38000 7278.98001 7293.02947 0.00014
42.38400 7262.23555 7297.61084 0.00014
42.38800 7238.31869 7302.20842 0.00014
42.39200 7285.19705 7306.82309 0.00014
42.39600 7205.03225 7311.45576 0.00014
42.40000 7275.69616 7316.10739 0.00014
42.40400 7323.77307 7320.77884 0.00014
42.40800 7225.26153 7325.47093 0.00014
42.41200 7232.46841 7330.18432 0.00014
42.41600 7346.18861 7334.91853 0.00014
42.42000 7186.96215 7339.67082 0.00014
42.42400 7403.69080 7344.45037 0.00014
42.42800 7292.58582 7349.24160 0.00014
42.43200 7339.29096 7354.06524 0.00014
42.43600 7337.66182 7358.91029 0.00014
42.44000 7326.49316 7363.77610 0.00014
42.44400 7429.70816 7368.66181 0.00013
42.44800 7247.53809 7373.56647 0.00014
42.45200 7327.21437 7378.48895 0.00014
42.45600 7369.90491 7383.42805 0.00014
42.46000 7464.29459 7388.38252 0.00013
42.46400 7470.00264 7393.35102 0.00013
42.46800 7415.60532 7398.33220 0.00013
42.47200 7469.34529 7403.32470 0.00013
42.47600 7384.52274 7408.32717 0.00014
42.48000 7553.87408 7413.33829 0.00013
42.48400 7554.35746 7418.35677 0.00013
42.48800 7415.02925 7423.38137 0.00013
42.49200 7421.26545 7428.41090 0.00013
42.49600 7381.17196 7433.44423 0.00014
42.50000 7512.62584 7438.48029 0.00013
42.50400 7505.46514 7443.51806 0.00013
42.50800 7471.22664 7448.55663 0.00013
42.51200 7439.22632 7453.59515 0.00013
42.51600 7415.55969 7458.63286 0.00013
42.52000 7518.41146 7463.66910 0.00013
42.52400 7406.09545 7468.70334 0.00014
42.52800 7493.22937 7473.73517 0.00013
42.53200 7569.92713 7478.76434 0.00013
42.53600 7589.82316 7483.79076 0.00013
42.54000 7375.32161 7488.81453 0.00014
42.54400 7526.76098 7493.83597 0.00013
42.54800 7750.72762 7498.85561 0.00013
42.55200 7523.78275 7503.87419 0.00013
42.55600 7562.80627 7508.89272 0.00013
42.56000 7603.91456 7513.91240 0.00013
42.56400 7447.51604 7518.93467 0.00013
42.56800 7547.50387 7523.96115 0.00013
42.57200 7413.63443 7528.99364 0.00013
42.57600 7481.70848 7534.03405 0.00013
42.58000 7681.18520 7539.08438 0.00013
42.58400 7606.36238 7544.14664 0.00013
42.58800 7552.63758 7549.22278 0.00013
42.59200 7549.47275 7554.31463 0.00013
42.59600 7547.88334 7559.42381 0.00013
42.60000 7596.01963 7564.55168 0.00013
42.60400 7667.90612 7569.69921 0.00013
42.60800 7566.36372 7574.86689 0.00013
42.61200 7616.06233 7580.05471 0.00013
42.61600 7675.69638 7585.26205 0.00013
42.62000 7720.00004 7590.48758 0.00013
42.62400 7692.34559 7595.72923 0.00013
42.62800 7697.85210 7600.98411 0.00013
42.63200 7648.81851 7606.24846 0.00013
42.63600 7639.58765 7611.51766 0.00013
42.64000 7648.60651 7616.78612 0.00013
42.64400 7670.20274 7622.04728 0.00013
42.64800 7705.70823 7627.29364 0.00013
42.65200 7789.34288 7632.51673 0.00013
42.65600 7659.94414 7637.70709 0.00013
42.66000 7776.29328 7642.85432 0.00013
42.66400 7547.48224 7647.94707 0.00013
42.66800 7624.82069 7652.97309 0.00013
42.67200 7825.90169 7657.91930 0.00013
42.67600 7834.14735 7662.77180 0.00013
42.68000 7746.66689 7667.51593 0.00013
42.68400 7706.58150 7672.13640 0.00013
42.68800 7636.65869 7676.61733 0.00013
42.69200 7728.83110 7680.94238 0.00013
42.69600 7758.66307 7685.09486 0.00013
42.70000 7725.03442 7689.05788 0.00013
42.70400 7780.47388 7692.81447 0.00013
42.70800 7812.06576 7696.34779 0.00013
42.71200 7767.20638 7699.64125 0.00013
42.71600 7662.50545 7702.67875 0.00013
42.72000 7630.55618 7705.44484 0.00013
42.72400 7866.73042 7707.92491 0.00013
42.72800 7769.35545 7710.10537 0.00013
42.73200 7707.36969 7711.97388 0.00013
42.73600 7755.47617 7713.51945 0.00013
42.74000 7907.32908 7714.73266 0.00013
42.74400 7800.96425 7715.60577 0.00013
42.74800 7847.69794 7716.13282 0.00013
42.75200 7843.30286 7716.30975 0.00013
42.75600 7730.40155 7716.13449 0.00013
42.76000 7753.79409 7715.60694 0.00013
42.76400 7671.64585 7714.72904 0.00013
42.76800 7691.83552 7713.50476 0.00013
42.77200 7737.22956 7711.94010 0.00013
42.77600 7788.00050 7710.04296 0.00013
42.78000 7853.21302 7707.82316 0.00013
42.78400 7799.03885 7705.29235 0.00013
42.78800 7738.47480 7702.46384 0.00013
42.79200 7827.14616 7699.35253 0.00013
42.79600 7962.11961 7695.97473 0.00013
42.80000 7885.58817 7692.34805 0.00013
42.80400 7837.64377 7688.49120 0.00013
42.80800 7827.26579 7684.42376 0.00013
42.81200 7793.57858 7680.16604 0.00013
42.81600 7835.08911 7675.73885 0.00013
42.82000 7982.83182 7671.16327 0.00013
42.82400 7912.04662 7666.46043 0.00013
42.82800 7879.66080 7661.65131 0.00013
42.83200 7949.79854 7656.75650 0.00013
42.83600 7846.06586 7651.79604 0.00013
42.84000 8022.96484 7646.78918 0.00012
42.84400 7855.43067 7641.75428 0.00013
42.84800 7679.14466 7636.70858 0.00013
42.85200 7818.16174 7631.66814 0.00013
42.85600 7737.04780 7626.64771 0.00013
42.86000 7790.03636 7621.66069 0.00013
42.86400 7821.67248 7616.71905 0.00013
42.86800 7762.18753 7611.83334 0.00013
42.87200 7810.54190 7607.01266 0.00013
42.87600 7737.73468 7602.26472 0.00013
42.88000 7737.02841 7597.59587 0.00013
42.88400 7737.03381 7593.01117 0.00013
42.88800 7697.76194 7588.51447 0.00013
42.89200 7869.54128 7584.10849 0.00013
42.89600 7670.60423 7579.79491 0.00013
42.90000 7692.16489 7575.57450 0.00013
42.90400 7654.75126 7571.44719 0.00013
42.90800 7747.81455 7567.41222 0.00013
42.91200 7692.24993 7563.46817 0.00013
42.91600 7561.25352 7559.61314 0.00013
42.92000 7616.28244 7555.84481 0.00013
42.92400 7584.82952 7552.16054 0.00013
42.92800 7508.73020 7548.55743 0.00013
42.93200 7474.27577 7545.03245 0.00013
42.93600 7576.02090 7541.58247 0.00013
42.94000 7526.61765 7538.20438 0.00013
42.94400 7510.50601 7534.89508 0.00013
42.94800 7607.84793 7531.65161 0.00013
42.95200 7653.38149 7528.47114 0.00013
42.95600 7629.48347 7525.35107 0.00013
42.96000 7524.42845 7522.28901 0.00013
42.96400 7436.55507 7519.28287 0.00013
42.96800 7678.23860 7516.33084 0.00013
42.97200 7631.51700 7513.43145 0.00013
42.97600 7591.04901 7510.58355 0.00013
42.98000 7581.59832 7507.78634 0.00013
42.98400 7436.76069 7505.03936 0.00013
42.98800 7544.01506 7502.34251 0.00013
42.99200 7454.81670 7499.69605 0.00013
42.99600 7459.82994 7497.10056 0.00013
43.00000 7572.98615 7494.55697 0.00013
43.00400 7618.40805 7492.06650 0.00013
43.00800 7478.36128 7489.63066 0.00013
43.01200 7521.88283 7487.25128 0.00013
43.01600 7362.04457 7484.93038 0.00014
43.02000 7540.15686 7482.67026 0.00013
43.02400 7579.43124 7480.47340 0.00013
43.02800 7617.83081 7478.34246 0.00013
43.03200 7641.27350 7476.28024 0.00013
43.03600 7497.25875 7474.28967 0.00013
43.04000 7469.32735 7472.37375 0.00013
43.04400 7552.38637 7470.53553 0.00013
43.04800 7469.76362 7468.77809 0.00013
43.05200 7480.75899 7467.10448 0.00013
43.05600 7559.21089 7465.51768 0.00013
43.06000 7467.41507 7464.02057 0.00013
43.06400 7564.25939 7462.61590 0.00013
43.06800 7321.65308 7461.30619 0.00014
43.07200 7466.16112 7460.09374 0.00013
43.07600 7444.55884 7458.98058 0.00013
43.08000 7457.95313 7457.96836 0.00013
43.08400 7444.87058 7457.05836 0.00013
43.08800 7376.81929 7456.25142 0.00014
43.09200 7432.40042 7455.54789 0.00013
43.09600 7445.95078 7454.94757 0.00013
43.10000 7460.92072 7454.44967 0.00013
43.10400 7444.45752 7454.05279 0.00013
43.10800 7424.96668 7453.75487 0.00013
43.11200 7470.10013 7453.55311 0.00013
43.11600 7449.29369 7453.44401 0.00013
43.12000 7496.47082 7453.42333 0.00013
43.12400 7390.13154 7453.48604 0.00014
43.12800 7454.02947 7453.62634 0.00013
43.13200 7403.46226 7453.83770 0.00014
43.13600 7395.94548 7454.11279 0.00014
43.14000 7509.24362 7454.44358 0.00013
43.14400 7475.39653 7454.82133 0.00013
43.14800 7440.77044 7455.23666 0.00013
43.15200 7323.00204 7455.67962 0.00014
43.15600 7351.26445 7456.13972 0.00014
43.16000 7504.96804 7456.60604 0.00013
43.16400 7369.63376 7457.06731 0.00014
43.16800 7358.70639 7457.51207 0.00014
43.17200 7398.61375 7457.92869 0.00014
43.17600 7386.96618 7458.30560 0.00014
43.18000 7317.43568 7458.63135 0.00014
43.18400 7516.77474 7458.89478 0.00013
43.18800 7382.48549 7459.08514 0.00014
43.19200 7325.42133 7459.19227 0.00014
43.19600 7387.77044 7459.20672 0.00014
43.20000 7446.44128 7459.11987 0.00013
43.20400 7397.99209 7458.92408 0.00014
43.20800 7496.03791 7458.61277 0.00013
43.21200 7324.25087 7458.18057 0.00014
43.21600 7256.06587 7457.62337 0.00014
43.22000 7353.44527 7456.93838 0.00014
43.22400 7329.68358 7456.12418 0.00014
43.22800 7398.76627 7455.18076 0.00014
43.23200 7331.33929 7454.10946 0.00014
43.23600 7421.06445 7452.91302 0.00013
43.24000 7269.69577 7451.59546 0.00014
43.24400 7412.94096 7450.16207 0.00013
43.24800 7367.40874 7448.61927 0.00014
43.25200 7160.21571 7446.97455 0.00014
43.25600 7430.48487 7445.23632 0.00013
43.26000 7437.38107 7443.41382 0.00013
43.26400 7402.70405 7441.51651 0.00014
43.26800 7416.11527 7439.55345 0.00013
43.27200 7354.49775 7437.53865 0.00014
43.27600 7326.44835 7435.47662 0.00014
43.28000 7449.57389 7433.38987 0.00013
43.28400 7388.84149 7431.28354 0.00014
43.28800 7294.70645 7429.16872 0.00014
43.29200 7425.93424 7427.05631 0.00013
43.29600 7509.56215 7424.95686 0.00013
43.30000 7377.55671 7422.88054 0.00014
43.30400 7361.29893 7420.83702 0.00014
43.30800 7244.48890 7418.83546 0.00014
43.31200 7435.44132 7416.88444 0.00013
43.31600 7298.98403 7414.99191 0.00014
43.32000 7292.10878 7413.16518 0.00014
43.32400 7316.11753 7411.41091 0.00014
43.32800 7304.30112 7409.73510 0.00014
43.33200 7317.11579 7408.14308 0.00014
43.33600 7363.37363 7406.63954 0.00014
43.34000 7327.66588 7405.22852 0.00014
43.34400 7398.22471 7403.91344 0.00014
43.34800 7425.53759 7402.69714 0.00013
43.35200 7245.25849 7401.58186 0.00014
43.35600 7175.55831 7400.56931 0.00014
43.36000 7354.61366 7399.66070 0.00014
43.36400 7426.52369 7398.85671 0.00013
43.36800 7467.53673 7398.15757 0.00013
43.37200 7264.01958 7397.56309 0.00014
43.37600 7238.48176 7397.07264 0.00014
43.38000 7139.11901 7396.68518 0.00014
43.38400 7319.74888 7396.39932 0.00014
43.38800 7429.11715 7396.21328 0.00013
43.39200 7239.70887 7396.12493 0.00014
43.39600 7327.84105 7396.13180 0.00014
43.40000 7331.11287 7396.23108 0.00014
43.40400 7437.20687 7396.41959 0.00013
43.40800 7382.50090 7396.69386 0.00014
43.41200 7294.64776 7397.05005 0.00014
43.41600 7345.58546 7397.48398 0.00014
43.42000 7363.60170 7397.99115 0.00014
43.42400 7316.43531 7398.56670 0.00014
43.42800 7290.68264 7399.20543 0.00014
43.43200 7449.22643 7399.90180 0.00013
43.43600 7437.42010 7400.64995 0.00013
43.44000 7423.80618 7401.44368 0.00013
43.44400 7414.18606 7402.27649 0.00013
43.44800 7270.74434 7403.14159 0.00014
43.45200 7407.51637 7404.03193 0.00013
43.45600 7366.25027 7404.94023 0.00014
43.46000 7331.74324 7405.85899 0.00014
43.46400 7310.35623 7406.78061 0.00014
43.46800 7279.04935 7407.69736 0.00014
43.47200 7343.12513 7408.60150 0.00014
43.47600 7357.86235 7409.48530 0.00014
43.48000 7221.40771 7410.34112 0.00014
43.48400 7467.63951 7411.16152 0.00013
43.48800 7518.16217 7411.93926 0.00013
43.49200 7322.05751 7412.66744 0.00014
43.49600 7365.48864 7413.33955 0.00014
43.50000 7488.61769 7413.94952 0.00013
43.50400 7363.92252 7414.49180 0.00014
43.50800 7324.77258 7414.96146 0.00014
43.51200 7370.36741 7415.35415 0.00014
43.51600 7271.44290 7415.66624 0.00014
43.52000 7423.07987 7415.89464 0.00013
43.52400 7344.07719 7416.03692 0.00014
43.52800 7357.70021 7416.09128 0.00014
43.53200 7384.19169 7416.05900 0.00014
43.53600 7511.20425 7415.93881 0.00013
43.54000 7384.73482 7415.73145 0.00014
43.54400 7377.15747 7415.43823 0.00014
43.54800 7348.15417 7415.06079 0.00014
43.55200 7447.35505 7414.60273 0.00013
43.55600 7398.45367 7414.06540 0.00014
43.56000 7306.69843 7413.45517 0.00014
43.56400 7297.82109 7412.77468 0.00014
43.56800 7382.24126 7412.02831 0.00014
43.57200 7327.33227 7411.22072 0.00014
43.57600 7368.94517 7410.35678 0.00014
43.58000 7343.71604 7409.44151 0.00014
43.58400 7378.72311 7408.48002 0.00014
43.58800 7421.19116 7407.47740 0.00013
43.59200 7353.18738 7406.43873 0.00014
43.59600 7348.15167 7405.36900 0.00014
43.60000 7243.39803 7404.27301 0.00014
43.60400 7344.92601 7403.15542 0.00014
43.60800 7238.02020 7402.02064 0.00014
43.61200 7226.98269 7400.87277 0.00014
43.61600 7386.54052 7399.71563 0.00014
43.62000 7289.67745 7398.55270 0.00014
43.62400 7437.26198 7397.38706 0.00013
43.62800 7349.26534 7396.22143 0.00014
43.63200 7295.24590 7395.05809 0.00014
43.63600 7260.14734 7393.89887 0.00014
43.64000 7254.16167 7392.74517 0.00014
43.64400 7320.23252 7391.59793 0.00014
43.64800 7421.07295 7390.45757 0.00013
43.65200 7344.30606 7389.32408 0.00014
43.65600 7301.49002 7388.19694 0.00014
43.66000 7292.42971 7387.07514 0.00014
43.66400 7348.94006 7385.95722 0.00014
43.66800 7295.22498 7384.84121 0.00014
43.67200 7266.03231 7383.72472 0.00014
43.67600 7324.43981 7382.60489 0.00014
43.68000 7521.93651 7381.47846 0.00013
43.68400 7385.81486 7380.34177 0.00014
43.68800 7311.33351 7379.19080 0.00014
43.69200 7327.28920 7378.02123 0.00014
43.69600 7325.40602 7376.82800 0.00014
43.70000 7347.56987 7375.60479 0.00014
43.70400 7256.45428 7374.34981 0.00014
43.70800 7318.81636 7373.05108 0.00014
43.71200 7228.91802 7371.71533 0.00014
43.71600 7281.72098 7370.33086 0.00014
43.72000 7367.84430 7368.89252 0.00014
43.72400 7246.12270 7367.39526 0.00014
43.72800 7249.85799 7365.83422 0.00014
43.73200 7428.57766 7364.20482 0.00013
43.73600 7309.12244 7362.50276 0.00014
43.74000 7286.10773 7360.72415 0.00014
43.74400 7360.83178 7358.86551 0.00014
43.74800 7374.57189 7356.92382 0.00014
43.75200 7290.52036 7354.89659 0.00014
43.75600 7294.74939 7352.78187 0.00014
43.76000 7270.13788 7350.57828 0.00014
43.76400 7363.50776 7348.28504 0.00014
43.76800 7349.67394 7345.90194 0.00014
43.77200 7359.41855 7343.42936 0.00014
43.77600 7430.40591 7340.86826 0.00013
43.78000 7255.77180 7338.22013 0.00014
43.78400 7244.42720 7335.48701 0.00014
43.78800 7389.84824 7332.67140 0.00014
43.79200 7318.64333 7329.77624 0.00014
43.79600 7287.33908 7326.80489 0.00014
43.80000 7242.56029 7323.76101 0.00014
43.80400 7231.65753 7320.64859 0.00014
43.80800 7400.29129 7317.47185 0.00014
43.81200 7282.17141 7314.23518 0.00014
43.81600 7313.93887 7310.94314 0.00014
43.82000 7412.41922 7307.60037 0.00013
43.82400 7311.81049 7304.21156 0.00014
43.82800 7201.00782 7300.78141 0.00014
43.83200 7298.61831 7297.31462 0.00014
43.83600 7255.02109 7293.81582 0.00014
43.84000 7328.45941 7290.28960 0.00014
43.84400 7273.35427 7286.74045 0.00014
43.84800 7308.00808 7283.17277 0.00014
43.85200 7326.17088 7279.59083 0.00014
43.85600 7320.40902 7275.99883 0.00014
43.86000 7397.17035 7272.40084 0.00014
43.86400 7273.53687 7268.80081 0.00014
43.86800 7099.35792 7265.20260 0.00014
43.87200 7268.73489 7261.60995 0.00014
43.87600 7243.77836 7258.02652 0.00014
43.88000 7253.58443 7254.45588 0.00014
43.88400 7224.42454 7250.90151 0.00014
43.88800 7341.13681 7247.36681 0.00014
43.89200 7241.78112 7243.85513 0.00014
43.89600 7331.84456 7240.36971 0.00014
43.90000 7229.96646 7236.91378 0.00014
43.90400 7171.75066 7233.49047 0.00014
43.90800 7182.08970 7230.10287 0.00014
43.91200 7382.56099 7226.75399 0.00014
43.91600 7357.33564 7223.44681 0.00014
43.92000 7295.50347 7220.18423 0.00014
43.92400 7317.14666 7216.96910 0.00014
43.92800 7300.02981 7213.80419 0.00014
43.93200 7309.58531 7210.69221 0.00014
43.93600 7245.14669 7207.63579 0.00014
43.94000 7195.50732 7204.63750 0.00014
43.94400 7236.85041 7201.69979 0.00014
43.94800 7222.19936 7198.82506 0.00014
43.95200 7147.10088 7196.01560 0.00014
43.95600 7272.34367 7193.27360 0.00014
43.96000 7210.00586 7190.60113 0.00014
43.96400 7097.73064 7188.00017 0.00014
43.96800 7212.25552 7185.47257 0.00014
43.97200 7225.51109 7183.02006 0.00014
43.97600 7225.92521 7180.64424 0.00014
43.98000 7279.00186 7178.34658 0.00014
43.98400 7291.00454 7176.12838 0.00014
43.98800 7234.78760 7173.99083 0.00014
43.99200 7074.17634 7171.93492 0.00014
43.99600 7259.29066 7169.96151 0.00014
44.00000 7247.42028 7168.07126 0.00014
44.00400 7159.99228 7166.26468 0.00014
44.00800 7080.24320 7164.54166 0.00014
44.01200 7307.86638 7162.89912 0.00014
44.01600 7170.98057 7161.33705 0.00014
44.02000 7262.89965 7159.84294 0.00014
44.02400 7228.09597 7158.45507 0.00014
44.02800 7228.11286 7157.14948 0.00014
44.03200 7126.69976 7155.92514 0.00014
44.03600 7181.78331 7154.78075 0.00014
44.04000 7170.29731 7153.71472 0.00014
44.04400 7053.59622 7152.72522 0.00014
44.04800 7062.34632 7151.81009 0.00014
44.05200 7107.03274 7150.96690 0.00014
44.05600 7189.06814 7150.19291 0.00014
44.06000 7111.54964 7149.48505 0.00014
44.06400 7210.32376 7148.83998 0.00014
44.06800 7303.00426 7148.25402 0.00014
44.07200 7158.62470 7147.72320 0.00014
44.07600 7211.38985 7147.24324 0.00014
44.08000 7020.46979 7146.80957 0.00014
44.08400 6950.85866 7146.41734 0.00014
44.08800 7278.01943 7146.06146 0.00014
44.09200 7166.37929 7145.73660 0.00014
44.09600 7090.14067 7145.43723 0.00014
44.10000 7165.88342 7145.15762 0.00014
44.10400 7093.60641 7144.89193 0.00014
44.10800 7097.03932 7144.63421 0.00014
44.11200 7076.33298 7144.37848 0.00014
44.11600 7255.84456 7144.11804 0.00014
44.12000 7216.02303 7143.84263 0.00014
44.12400 7038.47778 7143.55185 0.00014
44.12800 6986.43865 7143.22175 0.00014
44.13200 7080.04908 7142.88381 0.00014
44.13600 7085.09981 7142.51517 0.00014
44.14000 7122.54130 7142.09915 0.00014
44.14400 7176.14305 7141.65291 0.00014
44.14800 7177.50071 7141.16030 0.00014
44.15200 7146.98243 7140.61744 0.00014
44.15600 7164.63694 7140.02089 0.00014
44.16000 7077.93913 7139.36766 0.00014
44.16400 7033.41443 7138.65523 0.00014
44.16800 7023.47464 7137.88155 0.00014
44.17200 7094.29985 7137.04509 0.00014
44.17600 7098.37264 7136.14475 0.00014
44.18000 7059.30237 7135.17991 0.00014
44.18400 7185.65664 7134.14896 0.00014
44.18800 6953.30257 7133.04737 0.00014
44.19200 7139.95023 7131.87198 0.00014
44.19600 7129.48668 7130.65169 0.00014
44.20000 7093.75755 7129.37009 0.00014
44.20400 7052.03726 7128.02885 0.00014
44.20800 7151.00160 7126.62997 0.00014
44.21200 7102.87277 7125.17566 0.00014
44.21600 7019.42150 7123.66838 0.00014
44.22000 7086.34256 7122.11079 0.00014
44.22400 7126.61497 7120.50570 0.00014
44.22800 7026.73356 7118.85607 0.00014
44.23200 7012.70516 7117.16502 0.00014
44.23600 7178.54139 7115.43574 0.00014
44.24000 7197.29119 7113.67152 0.00014
44.24400 7052.44075 7111.87574 0.00014
44.24800 7216.40794 7110.05182 0.00014
44.25200 7198.37289 7108.20323 0.00014
44.25600 7231.31488 7106.33348 0.00014
44.26000 7098.83345 7104.44609 0.00014
44.26400 7080.51845 7102.54460 0.00014
44.26800 7138.67741 7100.63255 0.00014
44.27200 7112.88049 7098.71343 0.00014
44.27600 7006.66009 7096.79075 0.00014
44.28000 7031.15910 7094.86794 0.00014
44.28400 7122.93560 7092.94840 0.00014
44.28800 7084.17674 7091.03546 0.00014
44.29200 7055.97898 7089.13235 0.00014
44.29600 7149.11898 7087.24223 0.00014
44.30000 7140.24308 7085.36816 0.00014
44.30400 6990.85494 7083.51306 0.00014
44.30800 7178.22244 7081.67975 0.00014
44.31200 7130.68352 7079.87090 0.00014
44.31600 7090.62125 7078.08903 0.00014
44.32000 7045.92570 7076.33652 0.00014
44.32400 7109.37530 7074.61556 0.00014
44.32800 7117.11336 7072.92821 0.00014
44.33200 7129.16481 7071.27632 0.00014
44.33600 7119.25126 7069.66158 0.00014
44.34000 7108.92336 7068.08551 0.00014
44.34400 7037.89406 7066.54942 0.00014
44.34800 7104.91404 7065.05446 0.00014
44.35200 7115.85551 7063.60159 0.00014
44.35600 7192.32066 7062.19159 0.00014
44.36000 7179.56561 7060.82507 0.00014
44.36400 7148.20969 7059.50246 0.00014
44.36800 7083.83151 7058.22401 0.00014
44.37200 7062.40181 7056.98982 0.00014
44.37600 7124.57945 7055.79982 0.00014
44.38000 7178.62946 7054.65381 0.00014
44.38400 7037.72379 7053.55140 0.00014
44.38800 6928.25541 7052.49197 0.00014
44.39200 6969.75440 7051.47416 0.00014
44.39600 6977.43002 7050.49840 0.00014
44.40000 7043.70003 7049.56065 0.00014
44.40400 6986.83023 7048.66599 0.00014
44.40800 6891.29731 7047.80997 0.00015
44.41200 6915.74603 7046.99136 0.00014
44.41600 7008.32267 7046.20884 0.00014
44.42000 6901.94068 7045.46098 0.00014
44.42400 7080.64948 7044.74629 0.00014
44.42800 6997.16306 7044.06320 0.00014
44.43200 7061.43036 7043.41005 0.00014
44.43600 7083.18222 7042.78512 0.00014
44.44000 6953.19327 7042.18665 0.00014
44.44400 6953.20869 7041.61280 0.00014
44.44800 7103.13841 7041.06169 0.00014
44.45200 6978.36722 7040.53131 0.00014
44.45600 7087.80662 7040.01914 0.00014
44.46000 7040.20274 7039.52400 0.00014
44.46400 6999.57795 7039.04144 0.00014
44.46800 7063.30264 7038.57452 0.00014
44.47200 7186.71847 7038.11834 0.00014
44.47600 7168.92947 7037.67083 0.00014
44.48000 7047.62986 7037.22993 0.00014
44.48400 7004.25605 7036.79356 0.00014
44.48800 7067.56998 7036.35964 0.00014
44.49200 7034.62816 7035.92613 0.00014
44.49600 7094.32650 7035.49096 0.00014
44.50000 6938.09822 7035.05212 0.00014
44.50400 7022.85737 7034.60759 0.00014
44.50800 7091.48390 7034.15540 0.00014
44.51200 7110.99468 7033.69360 0.00014
44.51600 7138.87117 7033.22029 0.00014
44.52000 7146.77081 7032.73358 0.00014
44.52400 7062.26693 7032.23167 0.00014
44.52800 7091.56109 7031.71278 0.00014
44.53200 7010.87999 7031.17519 0.00014
44.53600 7035.12137 7030.61725 0.00014
44.54000 7086.06945 7030.03739 0.00014
44.54400 7093.72531 7029.43408 0.00014
44.54800 7038.33874 7028.80591 0.00014
44.55200 6986.58334 7028.15155 0.00014
44.55600 7117.21598 7027.46975 0.00014
44.56000 6989.25474 7026.75941 0.00014
44.56400 6976.26138 7026.01950 0.00014
44.56800 7068.23842 7025.24916 0.00014
44.57200 7100.00266 7024.44763 0.00014
44.57600 7061.30897 7023.61434 0.00014
44.58000 7194.28473 7022.74861 0.00014
44.58400 7049.50439 7021.84874 0.00014
44.58800 7081.13145 7020.91729 0.00014
44.59200 6992.36838 7019.94805 0.00014
44.59600 7064.12560 7018.95280 0.00014
44.60000 7173.55603 7017.92581 0.00014
44.60400 7002.62347 7016.86689 0.00014
44.60800 7025.16795 7015.77208 0.00014
44.61200 7120.96514 7014.65155 0.00014
44.61600 7024.22636 7013.48572 0.00014
44.62000 7155.44675 7012.31360 0.00014
44.62400 7108.57637 7011.11647 0.00014
44.62800 7058.57573 7009.89610 0.00014
44.63200 6997.08355 7008.65436 0.00014
44.63600 6999.32260 7007.39330 0.00014
44.64000 7050.99601 7006.11505 0.00014
44.64400 6921.52815 7004.82188 0.00014
44.64800 6993.50433 7003.51613 0.00014
44.65200 7106.86138 7002.20021 0.00014
44.65600 7060.38030 7000.87658 0.00014
44.66000 6980.85860 6999.54774 0.00014
44.66400 6951.27602 6998.21619 0.00014
44.66800 6960.78586 6996.88444 0.00014
44.67200 7086.80684 6995.55498 0.00014
44.67600 7020.01411 6994.22926 0.00014
44.68000 7085.32038 6992.90565 0.00014
44.68400 7051.64812 6991.58381 0.00014
44.68800 6987.39196 6990.28751 0.00014
44.69200 7045.96034 6989.00516 0.00014
44.69600 7006.87600 6987.73887 0.00014
44.70000 7025.07240 6986.49065 0.00014
44.70400 6933.38371 6985.26240 0.00014
44.70800 6982.85387 6984.05592 0.00014
44.71200 6986.78286 6982.87291 0.00014
44.71600 7059.09050 6981.71497 0.00014
44.72000 7020.31054 6980.58355 0.00014
44.72400 6974.08757 6979.48004 0.00014
44.72800 7070.96116 6978.40571 0.00014
44.73200 7180.69481 6977.36173 0.00014
44.73600 7113.83602 6976.34915 0.00014
44.74000 7173.07504 6975.36894 0.00014
44.74400 7054.14240 6974.42200 0.00014
44.74800 6942.73067 6973.50910 0.00014
44.75200 7000.42191 6972.63096 0.00014
44.75600 7189.93765 6971.78822 0.00014
44.76000 7105.27793 6970.98143 0.00014
44.76400 6946.85060 6970.21107 0.00014
44.76800 6909.31013 6969.47759 0.00014
44.77200 7009.17696 6968.78136 0.00014
44.77600 6982.29104 6968.12267 0.00014
44.78000 7028.94269 6967.50181 0.00014
44.78400 7160.75299 6966.91899 0.00014
44.78800 7051.51783 6966.37438 0.00014
44.79200 7087.45808 6965.86813 0.00014
44.79600 7217.55231 6965.40033 0.00014
44.80000 6933.99894 6964.97106 0.00014
44.80400 6934.60846 6964.58034 0.00014
44.80800 7093.28832 6964.22819 0.00014
44.81200 7008.88474 6963.91458 0.00014
44.81600 7031.08552 6963.63947 0.00014
44.82000 7116.18329 6963.40280 0.00014
44.82400 7105.80250 6963.20420 0.00014
44.82800 7062.33795 6963.04086 0.00014
44.83200 6982.29412 6962.91025 0.00014
44.83600 7129.08693 6962.80193 0.00014
44.84000 7038.72634 6962.75553 0.00014
44.84400 6991.50817 6962.74664 0.00014
44.84800 7048.37397 6962.77501 0.00014
44.85200 6953.64529 6962.84038 0.00014
44.85600 6949.57014 6962.94244 0.00014
44.86000 7061.15413 6963.08087 0.00014
44.86400 6845.11947 6963.25532 0.00015
44.86800 6883.12618 6963.46540 0.00015
44.87200 7077.30142 6963.71066 0.00014
44.87600 6906.58690 6963.99067 0.00014
44.88000 7057.91831 6964.30491 0.00014
44.88400 7106.58291 6964.65284 0.00014
44.88800 6958.79798 6965.03390 0.00014
44.89200 7136.16951 6965.44748 0.00014
44.89600 7185.27016 6965.89291 0.00014
44.90000 7218.81750 6966.36953 0.00014
44.90400 7080.93124 6966.87635 0.00014
44.90800 6991.53081 6967.41078 0.00014
44.91200 6901.04205 6967.97386 0.00014
44.91600 7022.15452 6968.55673 0.00014
44.92000 7003.37578 6969.17786 0.00014
44.92400 7160.52835 6969.82547 0.00014
44.92800 7048.41922 6970.49871 0.00014
44.93200 7078.38340 6971.19675 0.00014
44.93600 6984.94850 6971.91877 0.00014
44.94000 6924.30076 6972.66398 0.00014
44.94400 6863.30051 6973.43158 0.00015
44.94800 6965.27229 6974.22086 0.00014
44.95200 7214.32473 6975.03111 0.00014
44.95600 7015.20495 6975.86169 0.00014
44.96000 7044.22052 6976.71202 0.00014
44.96400 7038.25326 6977.58157 0.00014
44.96800 7086.17430 6978.46990 0.00014
44.97200 7077.41762 6979.37661 0.00014
44.97600 7072.06387 6980.30138 0.00014
44.98000 7043.53953 6981.24398 0.00014
44.98400 7049.74262 6982.20421 0.00014
44.98800 7038.01044 6983.18197 0.00014
44.99200 7085.48146 6984.17673 0.00014
44.99600 7059.81235 6985.18498 0.00014
45.00000 7034.79665 6986.20790 0.00014
45.00400 7071.85305 6987.23139 0.00014
45.00800 7003.47724 6988.29652 0.00014
45.01200 7089.96062 6989.37929 0.00014
45.01600 7097.77642 6990.47975 0.00014
45.02000 7012.57652 6991.59798 0.00014
45.02400 6879.27469 6992.73399 0.00015
45.02800 6991.32180 6993.88781 0.00014
45.03200 7076.10114 6995.05936 0.00014
45.03600 7044.55196 6996.24858 0.00014
45.04000 7051.12937 6997.45528 0.00014
45.04400 7166.10217 6998.67925 0.00014
45.04800 6971.49667 6999.92018 0.00014
45.05200 6990.52758 7001.17768 0.00014
45.05600 7022.93213 7002.45128 0.00014
45.06000 6965.20442 7003.74042 0.00014
45.06400 7064.96889 7005.04441 0.00014
45.06800 7020.14107 7006.36250 0.00014
45.07200 7131.04126 7007.69380 0.00014
45.07600 7116.90762 7009.03731 0.00014
45.08000 7092.25605 7010.39193 0.00014
45.08400 7131.67474 7011.75641 0.00014
45.08800 7236.42867 7013.12940 0.00014
45.09200 7127.92707 7014.50940 0.00014
45.09600 6980.25792 7015.89480 0.00014
45.10000 6994.11976 7017.28383 0.00014
45.10400 7165.06521 7018.67458 0.00014
45.10800 6977.41545 7020.06502 0.00014
45.11200 7031.34922 7021.45296 0.00014
45.11600 7137.15624 7022.83606 0.00014
45.12000 7101.55728 7024.21187 0.00014
45.12400 7080.60234 7025.57779 0.00014
45.12800 7092.31248 7026.93108 0.00014
45.13200 7030.52820 7028.26891 0.00014
45.13600 7129.27336 7029.58833 0.00014
45.14000 7118.05243 7030.88629 0.00014
45.14400 7146.88129 7032.15970 0.00014
45.14800 7169.02918 7033.40540 0.00014
45.15200 7114.41123 7034.62021 0.00014
45.15600 7105.58398 7035.80096 0.00014
45.16000 7060.38093 7036.94452 0.00014
45.16400 7188.31727 7038.04785 0.00014
45.16800 7175.39947 7039.10800 0.00014
45.17200 7091.67926 7040.12216 0.00014
45.17600 7069.28081 7041.08774 0.00014
45.18000 7109.97658 7042.00235 0.00014
45.18400 7144.27282 7042.86387 0.00014
45.18800 7079.05498 7043.67043 0.00014
45.19200 7165.12430 7044.42022 0.00014
45.19600 7139.34629 7045.11258 0.00014
45.20000 7119.51051 7045.74545 0.00014
45.20400 7041.39715 7046.32102 0.00014
45.20800 6868.45225 7046.83791 0.00015
45.21200 6939.39846 7047.29654 0.00014
45.21600 7096.44024 7047.69774 0.00014
45.22000 7081.42907 7048.04273 0.00014
45.22400 7019.25180 7048.33310 0.00014
45.22800 7104.24869 7048.57058 0.00014
45.23200 7145.44469 7048.75566 0.00014
45.23600 7059.54884 7048.89025 0.00014
45.24000 7027.54245 7048.97047 0.00014
45.24400 7019.02702 7049.02270 0.00014
45.24800 7083.63269 7049.03602 0.00014
45.25200 7158.28411 7049.01372 0.00014
45.25600 7141.85015 7048.95920 0.00014
45.26000 7002.29811 7048.87588 0.00014
45.26400 7077.92999 7048.76722 0.00014
45.26800 7030.87151 7048.63664 0.00014
45.27200 7113.55550 7048.48751 0.00014
45.27600 7229.97791 7048.32316 0.00014
45.28000 7245.05474 7048.14679 0.00014
45.28400 7212.01011 7047.96152 0.00014
45.28800 7210.78839 7047.77037 0.00014
45.29200 7084.63295 7047.57621 0.00014
45.29600 7106.71172 7047.38183 0.00014
45.30000 7117.47325 7047.18988 0.00014
45.30400 7126.85254 7047.00292 0.00014
45.30800 7069.18771 7046.82340 0.00014
45.31200 7079.53713 7046.65370 0.00014
45.31600 7111.55310 7046.49611 0.00014
45.32000 7110.22817 7046.35289 0.00014
45.32400 7114.42907 7046.22622 0.00014
45.32800 7125.23776 7046.11826 0.00014
45.33200 7126.42108 7046.03114 0.00014
45.33600 7210.60314 7045.96698 0.00014
45.34000 7204.28435 7045.92788 0.00014
45.34400 7074.08278 7045.91596 0.00014
45.34800 7060.03241 7045.93333 0.00014
45.35200 7102.05031 7045.98208 0.00014
45.35600 7190.64999 7046.06435 0.00014
45.36000 7050.99915 7046.18222 0.00014
45.36400 7075.03726 7046.33783 0.00014
45.36800 7007.93556 7046.53325 0.00014
45.37200 7078.23024 7046.77058 0.00014
45.37600 7026.16373 7047.05187 0.00014
45.38000 7120.32526 7047.37914 0.00014
45.38400 7078.80543 7047.75438 0.00014
45.38800 7007.56561 7048.17954 0.00014
45.39200 7050.63284 7048.65650 0.00014
45.39600 7103.46420 7049.18709 0.00014
45.40000 7098.86689 7049.77306 0.00014
45.40400 7143.56508 7050.41610 0.00014
45.40800 7108.20306 7051.11782 0.00014
45.41200 7022.67453 7051.87973 0.00014
45.41600 7181.70056 7052.70329 0.00014
45.42000 7022.45477 7053.58982 0.00014
45.42400 7148.92175 7054.54059 0.00014
45.42800 7161.34444 7055.55675 0.00014
45.43200 7070.57759 7056.63937 0.00014
45.43600 7169.20166 7057.78930 0.00014
45.44000 7234.49641 7059.00596 0.00014
45.44400 7203.75905 7060.28809 0.00014
45.44800 7079.17700 7061.63158 0.00014
45.45200 7087.35213 7063.05890 0.00014
45.45600 7041.82257 7064.55693 0.00014
45.46000 7106.14054 7066.12600 0.00014
45.46400 7179.56817 7067.76633 0.00014
45.46800 7307.90631 7069.47805 0.00014
45.47200 7057.45208 7071.26113 0.00014
45.47600 7116.91029 7073.11547 0.00014
45.48000 7043.11951 7075.04080 0.00014
45.48400 7229.07374 7077.03676 0.00014
45.48800 7081.05968 7079.10284 0.00014
45.49200 6975.63259 7081.23839 0.00014
45.49600 7013.47591 7083.44262 0.00014
45.50000 7097.14031 7085.71460 0.00014
45.50400 7005.86436 7088.05326 0.00014
45.50800 7118.45147 7090.45741 0.00014
45.51200 7175.44062 7092.92566 0.00014
45.51600 7024.13850 7095.45649 0.00014
45.52000 7119.86044 7098.04823 0.00014
45.52400 7089.62843 7100.69905 0.00014
45.52800 7162.39271 7103.40700 0.00014
45.53200 7261.12632 7106.16997 0.00014
45.53600 7198.58806 7108.98571 0.00014
45.54000 7126.60304 7111.85186 0.00014
45.54400 7048.79026 7114.76593 0.00014
45.54800 7071.12143 7117.72530 0.00014
45.55200 7061.21140 7120.72729 0.00014
45.55600 7209.14993 7123.76908 0.00014
45.56000 7073.07407 7126.84782 0.00014
45.56400 7214.76677 7129.96054 0.00014
45.56800 7067.36791 7133.10423 0.00014
45.57200 7170.89273 7136.27584 0.00014
45.57600 7093.46086 7139.47224 0.00014
45.58000 7021.96133 7142.69029 0.00014
45.58400 6997.80160 7145.92676 0.00014
45.58800 7142.33546 7149.17843 0.00014
45.59200 7115.93457 7152.44198 0.00014
45.59600 7133.87939 7155.71405 0.00014
45.60000 7101.02418 7158.99122 0.00014
45.60400 6995.79899 7162.26996 0.00014
45.60800 7073.55857 7165.54664 0.00014
45.61200 7121.15176 7168.81752 0.00014
45.61600 7249.73541 7172.07871 0.00014
45.62000 7103.31656 7175.32615 0.00014
45.62400 7045.42488 7178.55557 0.00014
45.62800 7183.06819 7181.76253 0.00014
45.63200 7266.96326 7184.94234 0.00014
45.63600 7144.54572 7188.09007 0.00014
45.64000 7129.51731 7191.20054 0.00014
45.64400 7136.16656 7194.26832 0.00014
45.64800 7200.43823 7197.28769 0.00014
45.65200 7228.22236 7200.25272 0.00014
45.65600 7271.96219 7203.15722 0.00014
45.66000 7148.43152 7205.99478 0.00014
45.66400 7080.25346 7208.75864 0.00014
45.66800 7033.66773 7211.44067 0.00014
45.67200 7127.91340 7214.03495 0.00014
45.67600 7179.70544 7216.52883 0.00014
45.68000 7154.13232 7218.93057 0.00014
45.68400 7082.72859 7221.22455 0.00014
45.68800 7126.36795 7223.40409 0.00014
45.69200 7132.04584 7225.46268 0.00014
45.69600 7189.17412 7227.39410 0.00014
45.70000 7161.13711 7229.19247 0.00014
45.70400 7150.74663 7230.85236 0.00014
45.70800 7097.99920 7232.36881 0.00014
45.71200 7218.33892 7233.73743 0.00014
45.71600 7208.93699 7234.95446 0.00014
45.72000 7143.98446 7236.01681 0.00014
45.72400 7194.33706 7236.92213 0.00014
45.72800 7298.64856 7237.66884 0.00014
45.73200 7219.10454 7238.25617 0.00014
45.73600 7200.43467 7238.68416 0.00014
45.74000 7283.69649 7238.95369 0.00014
45.74400 7165.07755 7239.06648 0.00014
45.74800 7077.19645 7239.02509 0.00014
45.75200 7207.77476 7238.83286 0.00014
45.75600 7092.56230 7238.49395 0.00014
45.76000 7083.61718 7238.01324 0.00014
45.76400 7148.86703 7237.39633 0.00014
45.76800 7096.81591 7236.64945 0.00014
45.77200 7120.18238 7235.77943 0.00014
45.77600 7232.77692 7234.79365 0.00014
45.78000 7193.64324 7233.69993 0.00014
45.78400 7094.49275 7232.50650 0.00014
45.78800 7214.16640 7231.22193 0.00014
45.79200 7032.89602 7229.85503 0.00014
45.79600 7184.11502 7228.41483 0.00014
45.80000 7141.75063 7226.91044 0.00014
45.80400 7108.04127 7225.35108 0.00014
45.80800 7263.78125 7223.74593 0.00014
45.81200 7119.23935 7222.10414 0.00014
45.81600 7097.22870 7220.43471 0.00014
45.82000 7238.70939 7218.74652 0.00014
45.82400 7193.13585 7217.04819 0.00014
45.82800 7265.77103 7215.34813 0.00014
45.83200 7186.79512 7213.65444 0.00014
45.83600 7252.12109 7211.97480 0.00014
45.84000 7264.14856 7210.31677 0.00014
45.84400 7310.28080 7208.68706 0.00014
45.84800 7193.92526 7207.09310 0.00014
45.85200 7201.22714 7205.54072 0.00014
45.85600 7143.37126 7204.03579 0.00014
45.86000 7280.26107 7202.58366 0.00014
45.86400 7182.17976 7201.18942 0.00014
45.86800 7261.16533 7199.85755 0.00014
45.87200 7335.62472 7198.59213 0.00014
45.87600 7212.34717 7197.39682 0.00014
45.88000 7147.14084 7196.27480 0.00014
45.88400 7134.00706 7195.22885 0.00014
45.88800 7075.24608 7194.26127 0.00014
45.89200 7112.85413 7193.37396 0.00014
45.89600 7211.70127 7192.56836 0.00014
45.90000 7199.37800 7191.84551 0.00014
45.90400 7055.34878 7191.20602 0.00014
45.90800 7269.03082 7190.65010 0.00014
45.91200 7220.55206 7190.17754 0.00014
45.91600 7110.74952 7189.78775 0.00014
45.92000 7212.90858 7189.47975 0.00014
45.92400 7278.63451 7189.25221 0.00014
45.92800 7261.79733 7189.10343 0.00014
45.93200 7320.63728 7189.03135 0.00014
45.93600 7263.42039 7189.03361 0.00014
45.94000 7259.81187 7189.10753 0.00014
45.94400 7301.02622 7189.25016 0.00014
45.94800 7285.13763 7189.45824 0.00014
45.95200 7258.34354 7189.72834 0.00014
45.95600 7149.01567 7190.05676 0.00014
45.96000 7149.88574 7190.43966 0.00014
45.96400 7275.57176 7190.87302 0.00014
45.96800 7240.98722 7191.35273 0.00014
45.97200 7224.72164 7191.87459 0.00014
45.97600 7142.72170 7192.43436 0.00014
45.98000 7321.00341 7193.02780 0.00014
45.98400 7162.97535 7193.65069 0.00014
45.98800 7273.66152 7194.29887 0.00014
45.99200 7145.47119 7194.96825 0.00014
45.99600 7214.23355 7195.65441 0.00014
46.00000 7161.04581 7196.35278 0.00014
46.00400 7168.37561 7197.05888 0.00014
46.00800 7302.13529 7197.77557 0.00014
46.01200 7214.52705 7198.49472 0.00014
46.01600 7162.81012 7199.21365 0.00014
46.02000 7165.32278 7199.92619 0.00014
46.02400 7243.33182 7200.63932 0.00014
46.02800 7163.75870 7201.34511 0.00014
46.03200 7372.36685 7202.04139 0.00014
46.03600 7203.89902 7202.72610 0.00014
46.04000 7298.88096 7203.39735 0.00014
46.04400 7193.77278 7204.05333 0.00014
46.04800 7242.21539 7204.69232 0.00014
46.05200 7249.89614 7205.31262 0.00014
46.05600 7275.09110 7205.91255 0.00014
46.06000 7274.51694 7206.49039 0.00014
46.06400 7196.14188 7207.04439 0.00014
46.06800 7190.82104 7207.57270 0.00014
46.07200 7156.19549 7208.07339 0.00014
46.07600 7184.08728 7208.54441 0.00014
46.08000 7231.56400 7208.98358 0.00014
46.08400 7337.03167 7209.38858 0.00014
46.08800 7283.77657 7209.75698 0.00014
46.09200 7312.39015 7210.08621 0.00014
46.09600 7310.37592 7210.37360 0.00014
46.10000 7190.08093 7210.61639 0.00014
46.10400 7105.75792 7210.81175 0.00014
46.10800 7238.28639 7210.95681 0.00014
46.11200 7270.80799 7211.04871 0.00014
46.11600 7221.12458 7211.08462 0.00014
46.12000 7172.00443 7211.06180 0.00014
46.12400 7073.85011 7210.97764 0.00014
46.12800 7173.77988 7210.82967 0.00014
46.13200 7316.82477 7210.61568 0.00014
46.13600 7144.05554 7210.33370 0.00014
46.14000 7111.16007 7209.98139 0.00014
46.14400 7047.31451 7209.55330 0.00014
46.14800 7033.21296 7209.05817 0.00014
46.15200 7285.34345 7208.47728 0.00014
46.15600 7196.35655 7207.83807 0.00014
46.16000 7189.92437 7207.12693 0.00014
46.16400 7261.81130 7206.34480 0.00014
46.16800 7267.43037 7205.49315 0.00014
46.17200 7087.97253 7204.57375 0.00014
46.17600 7167.92912 7203.58950 0.00014
46.18000 7287.08736 7202.54260 0.00014
46.18400 7282.68808 7201.43816 0.00014
46.18800 7212.22973 7200.27933 0.00014
46.19200 7198.45732 7199.07059 0.00014
46.19600 7187.41443 7197.81682 0.00014
46.20000 7210.53650 7196.52328 0.00014
46.20400 7246.47355 7195.19557 0.00014
46.20800 7108.85700 7193.83955 0.00014
46.21200 7233.99321 7192.46134 0.00014
46.21600 7275.68913 7191.06722 0.00014
46.22000 7205.68906 7189.66360 0.00014
46.22400 7284.45533 7188.25694 0.00014
46.22800 7249.04736 7186.85376 0.00014
46.23200 7326.32382 7185.46048 0.00014
46.23600 7370.92197 7184.08348 0.00014
46.24000 7415.59526 7182.72898 0.00013
46.24400 7285.85114 7181.40303 0.00014
46.24800 7169.71469 7180.11144 0.00014
46.25200 7148.79830 7178.85977 0.00014
46.25600 7277.19102 7177.65328 0.00014
46.26000 7150.86573 7176.49692 0.00014
46.26400 7278.42088 7175.39529 0.00014
46.26800 7195.71118 7174.35259 0.00014
46.27200 7170.79005 7173.37265 0.00014
46.27600 7275.50897 7172.45860 0.00014
46.28000 7360.43343 7171.61106 0.00014
46.28400 7257.15767 7170.83392 0.00014
46.28800 7152.06020 7170.11928 0.00014
46.29200 7127.60702 7169.49588 0.00014
46.29600 7208.50204 7168.94925 0.00014
46.30000 7158.71790 7168.48017 0.00014
46.30400 7253.52498 7168.08894 0.00014
46.30800 7239.96937 7167.77543 0.00014
46.31200 7200.15532 7167.53904 0.00014
46.31600 7216.64227 7167.37871 0.00014
46.32000 7213.16889 7167.29294 0.00014
46.32400 7267.39399 7167.27980 0.00014
46.32800 7195.85402 7167.33690 0.00014
46.33200 7293.82474 7167.46146 0.00014
46.33600 7298.57912 7167.65026 0.00014
46.34000 7259.28731 7167.89970 0.00014
46.34400 7329.27472 7168.20583 0.00014
46.34800 7165.55181 7168.56432 0.00014
46.35200 7286.88519 7168.97054 0.00014
46.35600 7083.01551 7169.41956 0.00014
46.36000 7127.05815 7169.90621 0.00014
46.36400 7217.28381 7170.42510 0.00014
46.36800 7218.28634 7170.97065 0.00014
46.37200 7108.92994 7171.53720 0.00014
46.37600 7170.51350 7172.11897 0.00014
46.38000 7304.50839 7172.71018 0.00014
46.38400 7228.77171 7173.30507 0.00014
46.38800 7228.63997 7173.89795 0.00014
46.39200 7222.86088 7174.48330 0.00014
46.39600 7249.02923 7175.05575 0.00014
46.40000 7248.99734 7175.61016 0.00014
46.40400 7294.61606 7176.14169 0.00014
46.40800 7207.90094 7176.64579 0.00014
46.41200 7303.73080 7177.11830 0.00014
46.41600 7395.73803 7177.55540 0.00014
46.42000 7305.30954 7177.95370 0.00014
46.42400 7116.42979 7178.31023 0.00014
46.42800 7272.87768 7178.62244 0.00014
46.43200 7302.72808 7178.88820 0.00014
46.43600 7292.10885 7179.10551 0.00014
46.44000 7183.90214 7179.27207 0.00014
46.44400 7235.35562 7179.38591 0.00014
46.44800 7123.15866 7179.45337 0.00014
46.45200 7127.71557 7179.47009 0.00014
46.45600 7187.03042 7179.43633 0.00014
46.46000 7172.41710 7179.35264 0.00014
46.46400 7225.46458 7179.21989 0.00014
46.46800 7296.49863 7179.03918 0.00014
46.47200 7251.47766 7178.81184 0.00014
46.47600 7234.56763 7178.53938 0.00014
46.48000 7260.84946 7178.22349 0.00014
46.48400 7289.78200 7177.86597 0.00014
46.48800 7205.00086 7177.46872 0.00014
46.49200 7335.38879 7177.03373 0.00014
46.49600 7271.75683 7176.56304 0.00014
46.50000 7220.78702 7176.05871 0.00014
46.50400 7292.05096 7175.52279 0.00014
46.50800 7295.28656 7174.95735 0.00014
46.51200 7241.27742 7174.36440 0.00014
46.51600 7070.85835 7173.74593 0.00014
46.52000 7215.77771 7173.10384 0.00014
46.52400 7241.93654 7172.44000 0.00014
46.52800 7223.03143 7171.75617 0.00014
46.53200 7223.43564 7171.05402 0.00014
46.53600 7248.05762 7170.33515 0.00014
46.54000 7232.67732 7169.60106 0.00014
46.54400 7099.08316 7168.85313 0.00014
46.54800 7041.99246 7168.09266 0.00014
46.55200 7368.76179 7167.32083 0.00014
46.55600 7194.36652 7166.53876 0.00014
46.56000 7169.42766 7165.74744 0.00014
46.56400 7202.93660 7164.94780 0.00014
46.56800 7083.86224 7164.14069 0.00014
46.57200 7117.31357 7163.32688 0.00014
46.57600 7091.34490 7162.50708 0.00014
46.58000 7257.92368 7161.68198 0.00014
46.58400 7354.05774 7160.85219 0.00014
46.58800 7207.26511 7160.01835 0.00014
46.59200 7245.45614 7159.18100 0.00014
46.59600 7134.46178 7158.34056 0.00014
46.60000 7199.96723 7157.49795 0.00014
46.60400 7230.98398 7156.65301 0.00014
46.60800 7162.92768 7155.80796 0.00014
46.61200 7194.41860 7154.96265 0.00014
46.61600 7178.00217 7154.11782 0.00014
46.62000 7177.26635 7153.27424 0.00014
46.62400 7217.78733 7152.43276 0.00014
46.62800 7290.06623 7151.59425 0.00014
46.63200 7227.79667 7150.75963 0.00014
46.63600 7006.85479 7149.92984 0.00014
46.64000 6965.88006 7149.10586 0.00014
46.64400 7024.19193 7148.28867 0.00014
46.64800 7080.56705 7147.47925 0.00014
46.65200 7057.27152 7146.67857 0.00014
46.65600 7291.89550 7145.88758 0.00014
46.66000 7169.90843 7145.10715 0.00014
46.66400 7119.08119 7144.33811 0.00014
46.66800 7095.98144 7143.58122 0.00014
46.67200 7173.62014 7142.83711 0.00014
46.67600 7054.53918 7142.10634 0.00014
46.68000 7066.39358 7141.38931 0.00014
46.68400 7061.78529 7140.68629 0.00014
46.68800 7053.50489 7139.99742 0.00014
46.69200 7169.40304 7139.32266 0.00014
46.69600 7275.82856 7138.66181 0.00014
46.70000 7247.80811 7138.01450 0.00014
46.70400 7024.29760 7137.38018 0.00014
46.70800 7132.20842 7136.75813 0.00014
46.71200 7179.11044 7136.14744 0.00014
46.71600 7119.82231 7135.54681 0.00014
46.72000 7126.55207 7134.95284 0.00014
46.72400 7178.84250 7134.36604 0.00014
46.72800 7220.04527 7133.77523 0.00014
46.73200 7089.85402 7133.20207 0.00014
46.73600 7169.29721 7132.63151 0.00014
46.74000 7004.26226 7132.06164 0.00014
46.74400 7037.95941 7131.49046 0.00014
46.74800 7119.85434 7130.91590 0.00014
46.75200 7059.64758 7130.33587 0.00014
46.75600 7137.57740 7129.74824 0.00014
46.76000 7222.73774 7129.15093 0.00014
46.76400 7188.04091 7128.54186 0.00014
46.76800 7065.84755 7127.91907 0.00014
46.77200 7041.18691 7127.28067 0.00014
46.77600 7105.23367 7126.62493 0.00014
46.78000 7098.40725 7125.95028 0.00014
46.78400 7252.65649 7125.25535 0.00014
46.78800 7229.86020 7124.53900 0.00014
46.79200 7245.09088 7123.80033 0.00014
46.79600 7151.33254 7123.03872 0.00014
46.80000 7161.60101 7122.25385 0.00014
46.80400 7104.22867 7121.44570 0.00014
46.80800 7115.95095 7120.61457 0.00014
46.81200 7047.64666 7119.76109 0.00014
46.81600 7137.60503 7118.88619 0.00014
46.82000 6977.19216 7117.99114 0.00014
46.82400 6993.02698 7117.07750 0.00014
46.82800 7107.12024 7116.14712 0.00014
46.83200 7231.92700 7115.20215 0.00014
46.83600 6934.19085 7114.24493 0.00014
46.84000 7090.08418 7113.27808 0.00014
46.84400 7090.40804 7112.30437 0.00014
46.84800 7169.20877 7111.32675 0.00014
46.85200 7071.24453 7110.34827 0.00014
46.85600 7179.08511 7109.37212 0.00014
46.86000 7053.94688 7108.40150 0.00014
46.86400 6869.96163 7107.43969 0.00015
46.86800 7085.54637 7106.48993 0.00014
46.87200 7150.66453 7105.55546 0.00014
46.87600 7034.46055 7104.63947 0.00014
46.88000 7218.95522 7103.74506 0.00014
46.88400 7252.00000 7102.87526 0.00014
46.88800 7252.00000 7102.03296 0.00014
46.89200 7134.68657 7101.22097 0.00014
46.89600 7157.35181 7100.44192 0.00014
46.90000 7015.39872 7099.69833 0.00014
46.90400 6933.53518 7098.99258 0.00014
46.90800 6995.58209 7098.32685 0.00014
46.91200 6928.80171 7097.70327 0.00014
46.91600 6959.81237 7097.12371 0.00014
46.92000 6999.33049 7096.58995 0.00014
46.92400 7066.73348 7096.10361 0.00014
46.92800 6982.11514 7095.66618 0.00014
46.93200 6952.34968 7095.27899 0.00014
46.93600 7028.35821 7094.94329 0.00014
46.94000 6964.00000 7094.66016 0.00014
46.94400 6818.89979 7094.43059 0.00015
46.94800 6990.08691 7094.25546 0.00014
46.95200 6951.11940 7094.13556 0.00014
46.95600 7010.33369 7094.07156 0.00014
46.96000 7076.29859 7094.06407 0.00014
46.96400 7120.77505 7094.11360 0.00014
46.96800 7006.81450 7094.22061 0.00014
46.97200 7049.45842 7094.38547 0.00014
46.97600 7058.60890 7094.60850 0.00014
46.98000 7108.49787 7094.88996 0.00014
46.98400 7091.24554 7095.23005 0.00014
46.98800 7037.90832 7095.62893 0.00014
46.99200 7015.60554 7096.08671 0.00014
46.99600 7084.37910 7096.60347 0.00014
47.00000 7014.20576 7097.17923 0.00014
47.00400 6976.00906 7097.81399 0.00014
47.00800 7131.18550 7098.50769 0.00014
47.01200 7041.21962 7099.26028 0.00014
47.01600 7023.01253 7100.07163 0.00014
47.02000 7010.87420 7100.94160 0.00014
47.02400 7049.60917 7101.87003 0.00014
47.02800 6988.50440 7102.85669 0.00014
47.03200 6959.72601 7103.90135 0.00014
47.03600 6989.43802 7105.00374 0.00014
47.04000 6921.18955 7106.16355 0.00014
47.04400 6966.41365 7107.38043 0.00014
47.04800 7001.35484 7108.65400 0.00014
47.05200 7045.50040 7109.98384 0.00014
47.05600 7206.47081 7111.36948 0.00014
47.06000 6818.89392 7112.81041 0.00015
47.06400 6988.14961 7114.30609 0.00014
47.06800 7155.73367 7115.85591 0.00014
47.07200 6980.06551 7117.45921 0.00014
47.07600 7088.33990 7119.11527 0.00014
47.08000 6952.22123 7120.82334 0.00014
47.08400 6997.83178 7122.58239 0.00014
47.08800 7056.52067 7124.39057 0.00014
47.09200 7068.57207 7126.24740 0.00014
47.09600 7112.90264 7128.14844 0.00014
47.10000 7116.78365 7130.10259 0.00014
47.10400 7107.83978 7132.10265 0.00014
47.10800 7084.30945 7134.14733 0.00014
47.11200 6827.68239 7136.23526 0.00015
47.11600 7012.07802 7138.36495 0.00014
47.12000 7341.43467 7140.53410 0.00014
47.12400 7065.48600 7142.73825 0.00014
47.12800 7154.51360 7144.98120 0.00014
47.13200 7239.00480 7147.24856 0.00014
47.13600 7154.69528 7149.56146 0.00014
47.14000 7048.51840 7151.90518 0.00014
47.14400 7087.43588 7154.27754 0.00014
47.14800 7047.73920 7156.67627 0.00014
47.15200 6943.03759 7159.09899 0.00014
47.15600 7022.52267 7161.54327 0.00014
47.16000 7396.02613 7164.00657 0.00014
47.16400 7189.96908 7166.48631 0.00014
47.16800 7247.54667 7168.97982 0.00014
47.17200 7192.58384 7171.48441 0.00014
47.17600 7107.05760 7173.99735 0.00014
47.18000 7143.67369 7176.51591 0.00014
47.18400 7112.34400 7179.03734 0.00014
47.18800 6993.13943 7181.55892 0.00014
47.19200 7349.23114 7184.07797 0.00014
47.19600 7244.53586 7186.59185 0.00014
47.20000 7150.13013 7189.09801 0.00014
47.20400 7202.18875 7191.59399 0.00014
47.20800 7197.41029 7194.07744 0.00014
47.21200 7178.94055 7196.54613 0.00014
47.21600 7014.70435 7198.99799 0.00014
47.22000 7073.82245 7201.43109 0.00014
47.22400 7244.55733 7203.84368 0.00014
47.22800 7157.26046 7206.23421 0.00014
47.23200 7258.51666 7208.60130 0.00014
47.23600 7136.14236 7210.94378 0.00014
47.24000 7017.83684 7213.26069 0.00014
47.24400 7232.40896 7215.55128 0.00014
47.24800 7017.81765 7217.81502 0.00014
47.25200 7235.27859 7220.05157 0.00014
47.25600 7141.07438 7222.26083 0.00014
47.26000 7041.54892 7224.44290 0.00014
47.26400 7016.15832 7226.59806 0.00014
47.26800 7161.34257 7228.72682 0.00014
47.27200 7311.48920 7230.82987 0.00014
47.27600 7147.52066 7232.90807 0.00014
47.28000 7321.40816 7234.96248 0.00014
47.28400 7065.10850 7236.99430 0.00014
47.28800 7136.39872 7239.00489 0.00014
47.29200 7112.65156 7240.99577 0.00014
47.29600 7043.03706 7242.96858 0.00014
47.30000 7046.16311 7244.92507 0.00014
47.30400 7262.00000 7246.86711 0.00014
47.30800 7239.28606 7248.79667 0.00014
47.31200 7130.29104 7250.71580 0.00014
47.31600 7265.43882 7252.62661 0.00014
47.32000 7206.26102 7254.53127 0.00014
47.32400 7030.24983 7256.43199 0.00014
47.32800 7198.47757 7258.33102 0.00014
47.33200 7039.31774 7260.23061 0.00014
47.33600 7123.78047 7262.13300 0.00014
47.34000 7377.24667 7264.04042 0.00014
47.34400 7390.21781 7265.95507 0.00014
47.34800 7129.93807 7267.87910 0.00014
47.35200 7317.36832 7269.81459 0.00014
47.35600 7262.95403 7271.76355 0.00014
47.36000 7154.22899 7273.72789 0.00014
47.36400 7194.83304 7275.70943 0.00014
47.36800 7132.48108 7277.70985 0.00014
47.37200 7219.66702 7279.73072 0.00014
47.37600 7100.97299 7281.77345 0.00014
47.38000 7075.70957 7283.83933 0.00014
47.38400 7133.60661 7285.92945 0.00014
47.38800 7162.67215 7288.04479 0.00014
47.39200 7232.79309 7290.18611 0.00014
47.39600 7161.40841 7292.35403 0.00014
47.40000 7211.27955 7294.54900 0.00014
47.40400 7173.19915 7296.77128 0.00014
47.40800 7120.16719 7299.02097 0.00014
47.41200 7165.99676 7301.29802 0.00014
47.41600 7310.08055 7303.60219 0.00014
47.42000 7125.15778 7305.93311 0.00014
47.42400 7280.12957 7308.29026 0.00014
47.42800 7263.15016 7310.67297 0.00014
47.43200 7294.42127 7313.08046 0.00014
47.43600 7129.57381 7315.51183 0.00014
47.44000 7306.50872 7317.96608 0.00014
47.44400 7384.76144 7320.44210 0.00014
47.44800 7282.06551 7322.93871 0.00014
47.45200 7332.82816 7325.45466 0.00014
47.45600 7361.35877 7327.98862 0.00014
47.46000 7262.88968 7330.53923 0.00014
47.46400 7209.00804 7333.10507 0.00014
47.46800 7118.65658 7335.68468 0.00014
47.47200 7170.54580 7338.27660 0.00014
47.47600 7370.54371 7340.87931 0.00014
47.48000 7282.70093 7343.49130 0.00014
47.48400 7213.10386 7346.11101 0.00014
47.48800 7229.79467 7348.73691 0.00014
47.49200 7309.90744 7351.36741 0.00014
47.49600 7308.65475 7354.00094 0.00014
47.50000 7290.51874 7356.63581 0.00014
47.50400 7210.36323 7359.27050 0.00014
47.50800 7296.13561 7361.90304 0.00014
47.51200 7371.18164 7364.53258 0.00014
47.51600 7418.12286 7367.15698 0.00013
47.52000 7378.01845 7369.77452 0.00014
47.52400 7215.02692 7372.38348 0.00014
47.52800 7202.20645 7374.98206 0.00014
47.53200 7458.99461 7377.56843 0.00013
47.53600 7456.46064 7380.14072 0.00013
47.54000 7417.36765 7382.69701 0.00013
47.54400 7222.31135 7385.23532 0.00014
47.54800 7313.03689 7387.75361 0.00014
47.55200 7436.05068 7390.24982 0.00013
47.55600 7370.73004 7392.72180 0.00014
47.56000 7359.37810 7395.16739 0.00014
47.56400 7385.16435 7397.58438 0.00014
47.56800 7372.76476 7399.97052 0.00014
47.57200 7417.95809 7402.32356 0.00013
47.57600 7424.08334 7404.64122 0.00013
47.58000 7289.63591 7406.92126 0.00014
47.58400 7428.47898 7409.16145 0.00013
47.58800 7523.09815 7411.35960 0.00013
47.59200 7295.94376 7413.51361 0.00014
47.59600 7347.92783 7415.62146 0.00014
47.60000 7381.54051 7417.68125 0.00014
47.60400 7404.92751 7419.69122 0.00014
47.60800 7479.24139 7421.64978 0.00013
47.61200 7443.77343 7423.55554 0.00013
47.61600 7437.19856 7425.40732 0.00013
47.62000 7542.83717 7427.20419 0.00013
47.62400 7490.72939 7428.94549 0.00013
47.62800 7311.25240 7430.63084 0.00014
47.63200 7288.38597 7432.25999 0.00014
47.63600 7402.02656 7433.83095 0.00014
47.64000 7329.00666 7435.34852 0.00014
47.64400 7397.48661 7436.80392 0.00014
47.64800 7376.57223 7438.21556 0.00014
47.65200 7489.97717 7439.57618 0.00013
47.65600 7452.37836 7440.88788 0.00013
47.66000 7460.89150 7442.15318 0.00013
47.66400 7451.03229 7443.37496 0.00013
47.66800 7437.09723 7444.55648 0.00013
47.67200 7403.16529 7445.70137 0.00014
47.67600 7486.66789 7446.81360 0.00013
47.68000 7527.20778 7447.89747 0.00013
47.68400 7335.33545 7448.95759 0.00014
47.68800 7482.16711 7449.99881 0.00013
47.69200 7493.01994 7451.02626 0.00013
47.69600 7504.43263 7452.04524 0.00013
47.70000 7478.55401 7453.06122 0.00013
47.70400 7595.70407 7454.07979 0.00013
47.70800 7416.29763 7455.10658 0.00013
47.71200 7351.34280 7456.14727 0.00014
47.71600 7509.25308 7457.20749 0.00013
47.72000 7392.01213 7458.29280 0.00014
47.72400 7540.28607 7459.40862 0.00013
47.72800 7584.34292 7460.56019 0.00013
47.73200 7507.94318 7461.75252 0.00013
47.73600 7553.06942 7462.99037 0.00013
47.74000 7387.10205 7464.27817 0.00014
47.74400 7403.44353 7465.62003 0.00014
47.74800 7602.62638 7467.01965 0.00013
47.75200 7621.29270 7468.48038 0.00013
47.75600 7531.66720 7470.00511 0.00013
47.76000 7576.61696 7471.59632 0.00013
47.76400 7564.63697 7473.25603 0.00013
47.76800 7582.13856 7474.98582 0.00013
47.77200 7470.70083 7476.78681 0.00013
47.77600 7611.03447 7478.65971 0.00013
47.78000 7608.43032 7480.60477 0.00013
47.78400 7648.34003 7482.62183 0.00013
47.78800 7621.96403 7484.71032 0.00013
47.79200 7532.21322 7486.86933 0.00013
47.79600 7552.92404 7489.09755 0.00013
47.80000 7561.39953 7491.39336 0.00013
47.80400 7604.11227 7493.75484 0.00013
47.80800 7539.23773 7496.17977 0.00013
47.81200 7561.72207 7498.66567 0.00013
47.81600 7598.17526 7501.20988 0.00013
47.82000 7575.64373 7503.80946 0.00013
47.82400 7709.63365 7506.46134 0.00013
47.82800 7536.85806 7509.16226 0.00013
47.83200 7583.17586 7511.90879 0.00013
47.83600 7564.92199 7514.69738 0.00013
47.84000 7616.88303 7517.52433 0.00013
47.84400 7580.43474 7520.38583 0.00013
47.84800 7470.22062 7523.27791 0.00013
47.85200 7467.51692 7526.19651 0.00013
47.85600 7567.30942 7529.13738 0.00013
47.86000 7596.05169 7532.09617 0.00013
47.86400 7477.29513 7535.06835 0.00013
47.86800 7456.74171 7538.04922 0.00013
47.87200 7567.01084 7541.03389 0.00013
47.87600 7465.81188 7544.01726 0.00013
47.88000 7453.82024 7546.99402 0.00013
47.88400 7669.72326 7549.95860 0.00013
47.88800 7680.86781 7552.90519 0.00013
47.89200 7623.87185 7555.82769 0.00013
47.89600 7526.79057 7558.71970 0.00013
47.90000 7451.46441 7561.57453 0.00013
47.90400 7428.05385 7564.38517 0.00013
47.90800 7529.47865 7567.14429 0.00013
47.91200 7793.74532 7569.84426 0.00013
47.91600 7607.10078 7572.47710 0.00013
47.92000 7689.06795 7575.03456 0.00013
47.92400 7636.36220 7577.50812 0.00013
47.92800 7549.33075 7579.88899 0.00013
47.93200 7609.78491 7582.16819 0.00013
47.93600 7613.65344 7584.33656 0.00013
47.94000 7661.77188 7586.38487 0.00013
47.94400 7763.11578 7588.30385 0.00013
47.94800 7700.62746 7590.08426 0.00013
47.95200 7695.69091 7591.71701 0.00013
47.95600 7744.09727 7593.19326 0.00013
47.96000 7683.12054 7594.50448 0.00013
47.96400 7567.10181 7595.64259 0.00013
47.96800 7590.70786 7596.60007 0.00013
47.97200 7669.02877 7597.37003 0.00013
47.97600 7529.87766 7597.94637 0.00013
47.98000 7532.75881 7598.32381 0.00013
47.98400 7680.26921 7598.49806 0.00013
47.98800 7649.15938 7598.46584 0.00013
47.99200 7520.57112 7598.22494 0.00013
47.99600 7616.88208 7597.77432 0.00013
48.00000 7548.30894 7597.11411 0.00013
48.00400 7607.30634 7596.24560 0.00013
48.00800 7588.33301 7595.17129 0.00013
48.01200 7609.25259 7593.89484 0.00013
48.01600 7589.64721 7592.42101 0.00013
48.02000 7495.23171 7590.75565 0.00013
48.02400 7639.31006 7588.90558 0.00013
48.02800 7619.84625 7586.87852 0.00013
48.03200 7650.46151 7584.68301 0.00013
48.03600 7464.31620 7582.32825 0.00013
48.04000 7617.64077 7579.82404 0.00013
48.04400 7637.83271 7577.18062 0.00013
48.04800 7657.23451 7574.40857 0.00013
48.05200 7518.80551 7571.51865 0.00013
48.05600 7629.88705 7568.52172 0.00013
48.06000 7627.45856 7565.42859 0.00013
48.06400 7485.32904 7562.24991 0.00013
48.06800 7613.34577 7558.99605 0.00013
48.07200 7589.27475 7555.67706 0.00013
48.07600 7611.71542 7552.30250 0.00013
48.08000 7515.82222 7548.88144 0.00013
48.08400 7689.57855 7545.42231 0.00013
48.08800 7511.77464 7541.93292 0.00013
48.09200 7567.24561 7538.42039 0.00013
48.09600 7552.31217 7534.89081 0.00013
48.10000 7569.14758 7531.34855 0.00013
48.10400 7545.26416 7527.80098 0.00013
48.10800 7544.56975 7524.24662 0.00013
48.11200 7516.55221 7520.69901 0.00013
48.11600 7577.83639 7517.15526 0.00013
48.12000 7554.32855 7513.61731 0.00013
48.12400 7400.32277 7510.08641 0.00014
48.12800 7492.05328 7506.56319 0.00013
48.13200 7374.33624 7503.04767 0.00014
48.13600 7459.06334 7499.53935 0.00013
48.14000 7429.26372 7496.03723 0.00013
48.14400 7417.21487 7492.53985 0.00013
48.14800 7435.13379 7489.04540 0.00013
48.15200 7543.66431 7485.55174 0.00013
48.15600 7457.28469 7482.05647 0.00013
48.16000 7539.11614 7478.55696 0.00013
48.16400 7481.09430 7475.05048 0.00013
48.16800 7359.68337 7471.53418 0.00014
48.17200 7508.42195 7468.00523 0.00013
48.17600 7504.04602 7464.46080 0.00013
48.18000 7432.85270 7460.89815 0.00013
48.18400 7392.29072 7457.31470 0.00014
48.18800 7309.31197 7453.70807 0.00014
48.19200 7468.94140 7450.07611 0.00013
48.19600 7422.41758 7446.41695 0.00013
48.20000 7481.18959 7442.72907 0.00013
48.20400 7488.11341 7439.01129 0.00013
48.20800 7370.37877 7435.26283 0.00014
48.21200 7405.08423 7431.48332 0.00014
48.21600 7353.75233 7427.67285 0.00014
48.22000 7400.04993 7423.83194 0.00014
48.22400 7218.32583 7419.96155 0.00014
48.22800 7414.74530 7416.06313 0.00013
48.23200 7477.13152 7412.13856 0.00013
48.23600 7449.83169 7408.19013 0.00013
48.24000 7499.99235 7404.22060 0.00013
48.24400 7306.70139 7400.23309 0.00014
48.24800 7339.61047 7396.23110 0.00014
48.25200 7351.21731 7392.21847 0.00014
48.25600 7381.73253 7388.19932 0.00014
48.26000 7254.79941 7384.17804 0.00014
48.26400 7333.65297 7380.15924 0.00014
48.26800 7325.32398 7376.14770 0.00014
48.27200 7293.02823 7372.14833 0.00014
48.27600 7476.62731 7368.16614 0.00013
48.28000 7392.87252 7364.20616 0.00014
48.28400 7370.30158 7360.27346 0.00014
48.28800 7386.21417 7356.37305 0.00014
48.29200 7438.77309 7352.50989 0.00013
48.29600 7431.37071 7348.68881 0.00013
48.30000 7420.57065 7344.91456 0.00013
48.30400 7268.92017 7341.19088 0.00014
48.30800 7418.95686 7337.51812 0.00013
48.31200 7374.00258 7333.91042 0.00014
48.31600 7265.65113 7330.35379 0.00014
48.32000 7207.81478 7326.87790 0.00014
48.32400 7302.51701 7323.47304 0.00014
48.32800 7210.61914 7320.14243 0.00014
48.33200 7199.11771 7316.88881 0.00014
48.33600 7348.29371 7313.71294 0.00014
48.34000 7339.03835 7310.62134 0.00014
48.34400 7279.68409 7307.60484 0.00014
48.34800 7277.72011 7304.67762 0.00014
48.35200 7371.32794 7301.82141 0.00014
48.35600 7371.53502 7299.07931 0.00014
48.36000 7324.12243 7296.42813 0.00014
48.36400 7275.75499 7293.86889 0.00014
48.36800 7449.82678 7291.40239 0.00013
48.37200 7287.04412 7289.02922 0.00014
48.37600 7305.26623 7286.74977 0.00014
48.38000 7290.85672 7284.56427 0.00014
48.38400 7174.57781 7282.47249 0.00014
48.38800 7252.99810 7280.47181 0.00014
48.39200 7214.50388 7278.56753 0.00014
48.39600 7226.83055 7276.74869 0.00014
48.40000 7429.31025 7275.03014 0.00013
48.40400 7284.66558 7273.40334 0.00014
48.40800 7317.86655 7271.86742 0.00014
48.41200 7297.03835 7270.42137 0.00014
48.41600 7232.92753 7269.06407 0.00014
48.42000 7262.65048 7267.79425 0.00014
48.42400 7391.54754 7266.61056 0.00014
48.42800 7130.46760 7265.51150 0.00014
48.43200 7214.86989 7264.49546 0.00014
48.43600 7061.14500 7263.56074 0.00014
48.44000 7089.65726 7262.70550 0.00014
48.44400 7256.74461 7261.92780 0.00014
48.44800 7332.11663 7261.22558 0.00014
48.45200 7185.52756 7260.59666 0.00014
48.45600 7228.92071 7260.03875 0.00014
48.46000 7197.42864 7259.54944 0.00014
48.46400 7263.85806 7259.12619 0.00014
48.46800 7218.59470 7258.76636 0.00014
48.47200 7180.53768 7258.46715 0.00014
48.47600 7095.19086 7258.22567 0.00014
48.48000 7158.47164 7258.03886 0.00014
48.48400 7354.76674 7257.90359 0.00014
48.48800 7187.33203 7257.81655 0.00014
48.49200 7070.37816 7257.77398 0.00014
48.49600 7005.79439 7257.77047 0.00014
48.50000 7236.26178 7257.80590 0.00014
48.50400 7165.99193 7257.86729 0.00014
48.50800 7276.00080 7257.96717 0.00014
48.51200 7101.14731 7258.08897 0.00014
48.51600 7165.53423 7258.23761 0.00014
48.52000 7184.87894 7258.40439 0.00014
48.52400 7311.26775 7258.58505 0.00014
48.52800 7357.56325 7258.77545 0.00014
48.53200 7229.26653 7258.97146 0.00014
48.53600 7270.12495 7259.16899 0.00014
48.54000 7261.01491 7259.36401 0.00014
48.54400 7196.14101 7259.55257 0.00014
48.54800 7216.66905 7259.73087 0.00014
48.55200 7276.92037 7259.89523 0.00014
48.55600 7266.58600 7260.04219 0.00014
48.56000 7240.41076 7260.16849 0.00014
48.56400 7132.68176 7260.27114 0.00014
48.56800 7168.34253 7260.34742 0.00014
48.57200 7267.68763 7260.39491 0.00014
48.57600 7112.75905 7260.41154 0.00014
48.58000 7253.49824 7260.39559 0.00014
48.58400 7289.33520 7260.34568 0.00014
48.58800 7255.78038 7260.26082 0.00014
48.59200 7260.68229 7260.14042 0.00014
48.59600 7168.87605 7259.98422 0.00014
48.60000 7178.49308 7259.79237 0.00014
48.60400 7287.50336 7259.56535 0.00014
48.60800 7133.94026 7259.30399 0.00014
48.61200 7118.11052 7259.00941 0.00014
48.61600 7238.93930 7258.68301 0.00014
48.62000 7293.67658 7258.32648 0.00014
48.62400 7235.17945 7257.94166 0.00014
48.62800 7212.75879 7257.53059 0.00014
48.63200 7157.79625 7257.09545 0.00014
48.63600 7136.33209 7256.63848 0.00014
48.64000 7183.86555 7256.16197 0.00014
48.64400 7330.99037 7255.66820 0.00014
48.64800 7348.64075 7255.15944 0.00014
48.65200 7277.96672 7254.63784 0.00014
48.65600 7145.83687 7254.10545 0.00014
48.66000 7179.54837 7253.56416 0.00014
48.66400 7250.22347 7253.01567 0.00014
48.66800 7148.13976 7252.46147 0.00014
48.67200 7335.14756 7251.90280 0.00014
48.67600 7305.35144 7251.34067 0.00014
48.68000 7197.82694 7250.77577 0.00014
48.68400 7079.43670 7250.20852 0.00014
48.68800 7207.20927 7249.63906 0.00014
48.69200 7150.07507 7249.06720 0.00014
48.69600 7191.70234 7248.49245 0.00014
48.70000 7149.38750 7247.91404 0.00014
48.70400 7198.54334 7247.33088 0.00014
48.70800 7125.01305 7246.74161 0.00014
48.71200 7281.67125 7246.14461 0.00014
48.71600 7268.69968 7245.53801 0.00014
48.72000 7132.38117 7244.91971 0.00014
48.72400 7176.45980 7244.28743 0.00014
48.72800 7135.76490 7243.63869 0.00014
48.73200 7139.00426 7242.97091 0.00014
48.73600 7147.15229 7242.28139 0.00014
48.74000 7244.78115 7241.56740 0.00014
48.74400 7237.47932 7240.82616 0.00014
48.74800 7158.28701 7240.05493 0.00014
48.75200 7142.56549 7239.25104 0.00014
48.75600 7202.07242 7238.41194 0.00014
48.76000 7361.85969 7237.53521 0.00014
48.76400 7244.33546 7236.61865 0.00014
48.76800 7119.23509 7235.66030 0.00014
48.77200 7180.34524 7234.65847 0.00014
48.77600 7297.09478 7233.61178 0.00014
48.78000 7181.77662 7232.51919 0.00014
48.78400 7190.24647 7231.38003 0.00014
48.78800 7267.70154 7230.19400 0.00014
48.79200 7209.49361 7228.96121 0.00014
48.79600 7297.61112 7227.68218 0.00014
48.80000 7208.02849 7226.35781 0.00014
48.80400 7197.00027 7224.98941 0.00014
48.80800 7224.28402 7223.57867 0.00014
48.81200 7351.36528 7222.12765 0.00014
48.81600 7348.85357 7220.63875 0.00014
48.82000 7381.89120 7219.11469 0.00014
48.82400 7325.59960 7217.55846 0.00014
48.82800 7228.01411 7215.97329 0.00014
48.83200 7218.30405 7214.36264 0.00014
48.83600 7233.20684 7212.73012 0.00014
48.84000 7352.81581 7211.07948 0.00014
48.84400 7264.25453 7209.41453 0.00014
48.84800 7359.79127 7207.73915 0.00014
48.85200 7211.25121 7206.05723 0.00014
48.85600 7329.81869 7204.37262 0.00014
48.86000 7255.04328 7202.68911 0.00014
48.86400 7179.12700 7201.01040 0.00014
48.86800 7251.84265 7199.34006 0.00014
48.87200 7200.52473 7197.68152 0.00014
48.87600 7213.01218 7196.03805 0.00014
48.88000 7126.84398 7194.41270 0.00014
48.88400 7244.01225 7192.80836 0.00014
48.88800 7361.68255 7191.22767 0.00014
48.89200 7048.35064 7189.67306 0.00014
48.89600 7155.75639 7188.14674 0.00014
48.90000 7293.44300 7186.65066 0.00014
48.90400 7225.82002 7185.18656 0.00014
48.90800 7255.45527 7183.75592 0.00014
48.91200 7176.24654 7182.36000 0.00014
48.91600 7237.15456 7180.99983 0.00014
48.92000 7193.73722 7179.67622 0.00014
48.92400 7245.44915 7178.38976 0.00014
48.92800 7075.13788 7177.14084 0.00014
48.93200 7094.02529 7175.92964 0.00014
48.93600 7035.45474 7174.75615 0.00014
48.94000 7225.82501 7173.62020 0.00014
48.94400 7108.48669 7172.52145 0.00014
48.94800 7185.59398 7171.45936 0.00014
48.95200 7214.30618 7170.43286 0.00014
48.95600 7196.01038 7169.43997 0.00014
48.96000 7113.32245 7168.48201 0.00014
48.96400 7109.86874 7167.55465 0.00014
48.96800 7200.28408 7166.66403 0.00014
48.97200 7209.32041 7165.80412 0.00014
48.97600 7103.65016 7164.97118 0.00014
48.98000 7056.72750 7164.16863 0.00014
48.98400 7168.87327 7163.38428 0.00014
48.98800 7081.74414 7162.63640 0.00014
48.99200 7197.90643 7161.91299 0.00014
48.99600 7235.95900 7161.21263 0.00014
49.00000 7183.18165 7160.53388 0.00014
49.00400 7228.97178 7159.87533 0.00014
49.00800 7318.30192 7159.23558 0.00014
49.01200 7177.86102 7158.61324 0.00014
49.01600 7253.83212 7158.00698 0.00014
49.02000 7330.51677 7157.41549 0.00014
49.02400 7412.13685 7156.83750 0.00013
49.02800 7431.17354 7156.27183 0.00013
49.03200 7335.72524 7155.71733 0.00014
49.03600 7264.11281 7155.17294 0.00014
49.04000 7284.91241 7154.63768 0.00014
49.04400 7280.90653 7154.11064 0.00014
49.04800 7204.30671 7153.59101 0.00014
49.05200 7114.27617 7153.07806 0.00014
49.05600 7316.68649 7152.57117 0.00014
49.06000 7249.82668 7152.06981 0.00014
49.06400 7159.10513 7151.57354 0.00014
49.06800 7119.18451 7151.08205 0.00014
49.07200 7151.86390 7150.59512 0.00014
49.07600 7204.93284 7150.11261 0.00014
49.08000 7168.25802 7149.63451 0.00014
49.08400 7104.53981 7149.16090 0.00014
49.08800 7171.77236 7148.69193 0.00014
49.09200 7097.57586 7148.22786 0.00014
49.09600 7099.93397 7147.76903 0.00014
49.10000 7150.42747 7147.31584 0.00014
49.10400 7168.45421 7146.86878 0.00014
49.10800 7171.62105 7146.42837 0.00014
49.11200 7030.48698 7145.99522 0.00014
49.11600 7042.78532 7145.56993 0.00014
49.12000 7179.88525 7145.15319 0.00014
49.12400 7078.08148 7144.74567 0.00014
49.12800 7225.87859 7144.34808 0.00014
49.13200 7144.54059 7143.96052 0.00014
49.13600 7144.84456 7143.58057 0.00014
49.14000 7150.36715 7143.21542 0.00014
49.14400 7205.50546 7142.85211 0.00014
49.14800 7199.79500 7142.51424 0.00014
49.15200 7221.35794 7142.19017 0.00014
49.15600 7188.09444 7141.88011 0.00014
49.16000 7158.32283 7141.58275 0.00014
49.16400 7230.33256 7141.30053 0.00014
49.16800 7196.42492 7141.02638 0.00014
49.17200 7137.33878 7140.77513 0.00014
49.17600 7116.53461 7140.53881 0.00014
49.18000 7149.35161 7140.30811 0.00014
49.18400 6972.07561 7140.10675 0.00014
49.18800 7111.27796 7139.92106 0.00014
49.19200 7125.83877 7139.75080 0.00014
49.19600 7044.99996 7139.59566 0.00014
49.20000 7158.44995 7139.45521 0.00014
49.20400 7188.27070 7139.32894 0.00014
49.20800 7097.81629 7139.21624 0.00014
49.21200 7187.79444 7139.11643 0.00014
49.21600 7093.89588 7139.02873 0.00014
49.22000 7144.17736 7138.95231 0.00014
49.22400 7181.26167 7138.88626 0.00014
49.22800 7127.76709 7138.82961 0.00014
49.23200 7242.86904 7138.78135 0.00014
49.23600 7272.84185 7138.74041 0.00014
49.24000 7297.01634 7138.70573 0.00014
49.24400 7264.99681 7138.67618 0.00014
49.24800 7251.85889 7138.65066 0.00014
49.25200 7160.71839 7138.62808 0.00014
49.25600 7194.98722 7138.60720 0.00014
49.26000 7123.14641 7138.58573 0.00014
49.26400 7313.08169 7138.56264 0.00014
49.26800 7320.06110 7138.53198 0.00014
49.27200 7256.16450 7138.50850 0.00014
49.27600 7351.09166 7138.48208 0.00014
49.28000 7313.74406 7138.45197 0.00014
49.28400 7264.28704 7138.41731 0.00014
49.28800 7365.35106 7138.37581 0.00014
49.29200 7299.60377 7138.32578 0.00014
49.29600 7417.74927 7138.25918 0.00013
49.30000 7162.68669 7138.20243 0.00014
49.30400 7316.51089 7138.13941 0.00014
49.30800 7243.73662 7138.07003 0.00014
49.31200 7185.58336 7137.99431 0.00014
49.31600 7132.28674 7137.91236 0.00014
49.32000 7257.97364 7137.82437 0.00014
49.32400 7124.76790 7137.73064 0.00014
49.32800 7271.89197 7137.63150 0.00014
49.33200 7157.61876 7137.52740 0.00014
49.33600 7133.25399 7137.41881 0.00014
49.34000 7202.11738 7137.30628 0.00014
49.34400 7200.66081 7137.19038 0.00014
49.34800 7262.97259 7137.07174 0.00014
49.35200 7084.38046 7136.95102 0.00014
49.35600 7161.87075 7136.82886 0.00014
49.36000 7181.81022 7136.70597 0.00014
49.36400 7247.13578 7136.58303 0.00014
49.36800 7126.24142 7136.46074 0.00014
49.37200 7146.60880 7136.33978 0.00014
49.37600 7004.85331 7136.22084 0.00014
49.38000 7058.57017 7136.10459 0.00014
49.38400 7231.10888 7135.99168 0.00014
49.38800 7124.82224 7135.88274 0.00014
49.39200 7251.42240 7135.77840 0.00014
49.39600 7170.81483 7135.67925 0.00014
49.40000 7091.90924 7135.58586 0.00014
49.40400 6989.45857 7135.49878 0.00014
49.40800 7163.29977 7135.41855 0.00014
49.41200 7225.96487 7135.34567 0.00014
49.41600 7139.04466 7135.28064 0.00014
49.42000 7142.46557 7135.22391 0.00014
49.42400 7164.27282 7135.17595 0.00014
49.42800 7061.76305 7135.13717 0.00014
49.43200 7153.47006 7135.10799 0.00014
49.43600 7224.13461 7135.08881 0.00014
49.44000 7262.46765 7135.08001 0.00014
49.44400 7160.79957 7135.08196 0.00014
49.44800 7245.29313 7135.09500 0.00014
49.45200 7236.67421 7135.11948 0.00014
49.45600 7312.82002 7135.15571 0.00014
49.46000 7164.53660 7135.20400 0.00014
49.46400 7159.54590 7135.26466 0.00014
49.46800 7226.52531 7135.33794 0.00014
49.47200 7304.16902 7135.42411 0.00014
49.47600 7262.14258 7135.52341 0.00014
49.48000 7206.33946 7135.63606 0.00014
49.48400 7210.93612 7135.76226 0.00014
49.48800 7150.61938 7135.90217 0.00014
49.49200 7181.71592 7136.05593 0.00014
49.49600 7186.33910 7136.22307 0.00014
49.50000 7233.22893 7136.40005 0.00014
49.50400 7067.57497 7136.58341 0.00014
49.50800 7094.96593 7136.79349 0.00014
49.51200 7149.18291 7137.01767 0.00014
49.51600 7192.81874 7137.25587 0.00014
49.52000 7087.56722 7137.50798 0.00014
49.52400 7025.47458 7137.77384 0.00014
49.52800 7128.15518 7138.05321 0.00014
49.53200 7118.47657 7138.34582 0.00014
49.53600 7101.61246 7138.65133 0.00014
49.54000 7090.31222 7138.96934 0.00014
49.54400 7059.12502 7139.29939 0.00014
49.54800 7216.58983 7139.64095 0.00014
49.55200 7144.82885 7139.99342 0.00014
49.55600 7246.40682 7140.35613 0.00014
49.56000 7345.64387 7140.72836 0.00014
49.56400 7248.08065 7141.10928 0.00014
49.56800 7096.05388 7141.49804 0.00014
49.57200 7026.29626 7141.89368 0.00014
49.57600 7206.38488 7142.29520 0.00014
49.58000 7140.06325 7142.70153 0.00014
49.58400 7227.52131 7143.11155 0.00014
49.58800 7179.98281 7143.52407 0.00014
49.59200 7137.30636 7143.93786 0.00014
49.59600 7166.50858 7144.35165 0.00014
49.60000 7230.08094 7144.76414 0.00014
49.60400 7091.00213 7145.17400 0.00014
49.60800 7097.37646 7145.57988 0.00014
49.61200 7096.41363 7145.98044 0.00014
49.61600 7174.98700 7146.37433 0.00014
49.62000 7147.62935 7146.76022 0.00014
49.62400 7099.46739 7147.13681 0.00014
49.62800 7149.37061 7147.50285 0.00014
49.63200 7061.00745 7147.85712 0.00014
49.63600 7128.89300 7148.19849 0.00014
49.64000 7120.01142 7148.52589 0.00014
49.64400 7158.45156 7148.83836 0.00014
49.64800 7171.74900 7149.13500 0.00014
49.65200 7100.43009 7149.41507 0.00014
49.65600 7208.35995 7149.67791 0.00014
49.66000 7140.65584 7149.92302 0.00014
49.66400 7127.34256 7150.15001 0.00014
49.66800 7120.67660 7150.35865 0.00014
49.67200 7172.17363 7150.54885 0.00014
49.67600 7158.26621 7150.72066 0.00014
49.68000 7186.01970 7150.87430 0.00014
49.68400 7178.54526 7151.01012 0.00014
49.68800 7063.84615 7151.12864 0.00014
49.69200 7162.30538 7151.23049 0.00014
49.69600 7151.49694 7151.31648 0.00014
49.70000 7168.80132 7151.38751 0.00014
49.70400 7060.10045 7151.44465 0.00014
49.70800 7084.46633 7151.48905 0.00014
49.71200 7036.64323 7151.52197 0.00014
49.71600 7059.01534 7151.54476 0.00014
49.72000 7276.77277 7151.55887 0.00014
49.72400 7160.13229 7151.56579 0.00014
49.72800 7170.98680 7151.56708 0.00014
49.73200 7127.50945 7151.56432 0.00014
49.73600 7209.95533 7151.55914 0.00014
49.74000 7130.18198 7151.55315 0.00014
49.74400 7127.01703 7151.54800 0.00014
49.74800 7061.35889 7151.54527 0.00014
49.75200 7084.98961 7151.54655 0.00014
49.75600 7082.77952 7151.55337 0.00014
49.76000 7168.19649 7151.56720 0.00014
49.76400 7125.35134 7151.58947 0.00014
49.76800 7123.33566 7151.62150 0.00014
49.77200 7026.14651 7151.66454 0.00014
49.77600 7106.42268 7151.71976 0.00014
49.78000 7206.01065 7151.78820 0.00014
49.78400 7109.88794 7151.87082 0.00014
49.78800 7213.59531 7151.96845 0.00014
49.79200 7140.99893 7152.08180 0.00014
49.79600 7316.61336 7152.21148 0.00014
49.80000 7129.12240 7152.35796 0.00014
49.80400 7077.64106 7152.52159 0.00014
49.80800 7176.21347 7152.70260 0.00014
49.81200 7132.68690 7152.90111 0.00014
49.81600 7121.00164 7153.11711 0.00014
49.82000 7128.81082 7153.35047 0.00014
49.82400 7133.12528 7153.60097 0.00014
49.82800 7238.87756 7153.86828 0.00014
49.83200 7129.46858 7154.15196 0.00014
49.83600 7152.64546 7154.45150 0.00014
49.84000 7157.40663 7154.76630 0.00014
49.84400 7138.97177 7155.09569 0.00014
49.84800 7170.13152 7155.43895 0.00014
49.85200 7173.14639 7155.79530 0.00014
49.85600 7092.26030 7156.16391 0.00014
49.86000 7070.50851 7156.54395 0.00014
49.86400 6979.05079 7156.93451 0.00014
49.86800 7181.97418 7157.33392 0.00014
49.87200 7116.74867 7157.74163 0.00014
49.87600 7095.65821 7158.15288 0.00014
49.88000 6974.46258 7158.57713 0.00014
49.88400 7081.77783 7159.00774 0.00014
49.88800 7039.59863 7159.44395 0.00014
49.89200 7026.48289 7159.88506 0.00014
49.89600 6994.57433 7160.33042 0.00014
49.90000 7129.31248 7160.77933 0.00014
49.90400 7002.15309 7161.23001 0.00014
49.90800 7074.61831 7161.68191 0.00014
49.91200 7111.28112 7162.12876 0.00014
49.91600 7218.04422 7162.58771 0.00014
49.92000 7173.56227 7163.04831 0.00014
49.92400 7255.02631 7163.51033 0.00014
49.92800 7127.53430 7163.97361 0.00014
49.93200 7083.26406 7164.43806 0.00014
49.93600 7076.04454 7164.90342 0.00014
49.94000 7187.01544 7165.36812 0.00014
49.94400 7015.00586 7165.83269 0.00014
49.94800 7264.41214 7166.29054 0.00014
49.95200 7158.85998 7166.76086 0.00014
49.95600 7205.34762 7167.23262 0.00014
49.96000 7230.07242 7167.70597 0.00014
49.96400 7106.72965 7168.18106 0.00014
49.96800 7241.06696 7168.65810 0.00014
49.97200 7204.96166 7169.13727 0.00014
49.97600 7153.38541 7169.61878 0.00014
49.98000 6982.45603 7170.10285 0.00014
49.98400 7068.46060 7170.58971 0.00014
49.98800 7021.12403 7171.07958 0.00014
49.99200 7121.46832 7171.57272 0.00014
49.99600 7150.04911 7172.06937 0.00014
50.00000 7061.17359 7172.56980 0.00014
50.00400 7241.39809 7173.07428 0.00014
50.00800 7133.73944 7173.58308 0.00014
50.01200 7235.07976 7174.09652 0.00014
50.01600 7235.86841 7174.61488 0.00014
50.02000 7096.70873 7175.13851 0.00014
50.02400 7093.09130 7175.66772 0.00014
50.02800 7179.32588 7176.20281 0.00014
50.03200 7152.91348 7176.74388 0.00014
50.03600 7194.64200 7177.29100 0.00014
50.04000 7143.27529 7177.84621 0.00014
50.04400 7231.92526 7178.40886 0.00014
50.04800 6974.06337 7178.97936 0.00014
50.05200 7156.45781 7179.55805 0.00014
50.05600 7261.76890 7180.14450 0.00014
50.06000 7113.39348 7180.73890 0.00014
50.06400 7113.03300 7181.33739 0.00014
50.06800 7203.41619 7181.95284 0.00014
50.07200 7114.76171 7182.57831 0.00014
50.07600 7281.34971 7183.21409 0.00014
50.08000 7139.63748 7183.86014 0.00014
50.08400 7118.12158 7184.51484 0.00014
50.08800 7207.57082 7185.18207 0.00014
50.09200 7082.27838 7185.85405 0.00014
50.09600 7082.55422 7186.54403 0.00014
50.10000 7248.75660 7187.24498 0.00014
50.10400 6923.48394 7187.95675 0.00014
50.10800 7076.33200 7188.67916 0.00014
50.11200 7088.65331 7189.41191 0.00014
50.11600 7002.53514 7190.15462 0.00014
50.12000 7116.49271 7190.90682 0.00014
50.12400 7167.89137 7191.66793 0.00014
50.12800 7272.69034 7192.43731 0.00014
50.13200 7360.91374 7193.21420 0.00014
50.13600 7033.99821 7193.99774 0.00014
50.14000 7033.51864 7194.78699 0.00014
50.14400 7212.47205 7195.58091 0.00014
50.14800 7072.18685 7196.37840 0.00014
50.15200 6996.60942 7197.17824 0.00014
50.15600 6951.76883 7197.97917 0.00014
50.16000 7040.53790 7198.77984 0.00014
50.16400 7170.41454 7199.57884 0.00014
50.16800 7127.83919 7200.37474 0.00014
50.17200 7072.10444 7201.16605 0.00014
50.17600 7163.41747 7201.95125 0.00014
50.18000 7236.64652 7202.72882 0.00014
50.18400 7071.77875 7203.49723 0.00014
50.18800 7161.95634 7204.25497 0.00014
50.19200 7060.81617 7205.00057 0.00014
50.19600 7033.03642 7205.73258 0.00014
50.20000 7126.19030 7206.44963 0.00014
50.20400 7263.39936 7207.15040 0.00014
50.20800 7339.89989 7207.83368 0.00014
50.21200 7131.68084 7208.49836 0.00014
50.21600 7289.74574 7209.14343 0.00014
50.22000 7279.87374 7209.76801 0.00014
50.22400 7199.74388 7210.37136 0.00014
50.22800 7230.39297 7210.95289 0.00014
50.23200 7214.16607 7211.51216 0.00014
50.23600 7133.41028 7212.04857 0.00014
50.24000 7135.20512 7212.55992 0.00014
50.24400 7204.92841 7213.04823 0.00014
50.24800 7094.93131 7213.50510 0.00014
50.25200 7192.25612 7213.95193 0.00014
50.25600 7156.44309 7214.37718 0.00014
50.26000 7195.36821 7214.78148 0.00014
50.26400 7252.19755 7215.16563 0.00014
50.26800 7151.10147 7215.53055 0.00014
50.27200 7255.45075 7215.87726 0.00014
50.27600 7235.98562 7216.20691 0.00014
50.28000 7218.15469 7216.52072 0.00014
50.28400 7158.29500 7216.81999 0.00014
50.28800 7072.85516 7217.10608 0.00014
50.29200 7094.95439 7217.38040 0.00014
50.29600 7028.10490 7217.64439 0.00014
50.30000 7149.59105 7217.89948 0.00014
50.30400 7292.35623 7218.14714 0.00014
50.30800 7210.70636 7218.38880 0.00014
50.31200 7110.81506 7218.62585 0.00014
50.31600 7266.81976 7218.85967 0.00014
50.32000 7186.17439 7219.09156 0.00014
50.32400 7222.34090 7219.32276 0.00014
50.32800 7144.49042 7219.55443 0.00014
50.33200 7156.68080 7219.78765 0.00014
50.33600 7266.72311 7220.02337 0.00014
50.34000 7191.21819 7220.26247 0.00014
50.34400 7195.35224 7220.50571 0.00014
50.34800 7192.14856 7220.75371 0.00014
50.35200 7151.15845 7221.00698 0.00014
50.35600 7231.64350 7221.26589 0.00014
50.36000 7163.80955 7221.53070 0.00014
50.36400 7145.87247 7221.80150 0.00014
50.36800 7207.15229 7222.07827 0.00014
50.37200 7175.21725 7222.36083 0.00014
50.37600 7054.11280 7222.64888 0.00014
50.38000 7120.36475 7222.94197 0.00014
50.38400 7200.16004 7223.23953 0.00014
50.38800 7179.44486 7223.54084 0.00014
50.39200 7245.19702 7223.84506 0.00014
50.39600 7214.16933 7224.15125 0.00014
50.40000 7137.44327 7224.45831 0.00014
50.40400 7162.87380 7224.76507 0.00014
50.40800 7034.85703 7225.07022 0.00014
50.41200 7202.06520 7225.37240 0.00014
50.41600 7295.84026 7225.67011 0.00014
50.42000 7214.04153 7225.96183 0.00014
50.42400 7023.77365 7226.24593 0.00014
50.42800 7045.50266 7226.52076 0.00014
50.43200 7211.75240 7226.78460 0.00014
50.43600 7321.66628 7227.03572 0.00014
50.44000 7226.22125 7227.27238 0.00014
50.44400 7122.39750 7227.49282 0.00014
50.44800 7139.51216 7227.69525 0.00014
50.45200 7164.46113 7227.87803 0.00014
50.45600 7287.14982 7228.03924 0.00014
50.46000 7156.77902 7228.17793 0.00014
50.46400 7137.06101 7228.29224 0.00014
50.46800 7315.24228 7228.38076 0.00014
50.47200 7134.85050 7228.44220 0.00014
50.47600 7244.45767 7228.47540 0.00014
50.48000 7160.16114 7228.47935 0.00014
50.48400 7263.92013 7228.45319 0.00014
50.48800 7223.50386 7228.39625 0.00014
50.49200 7344.04190 7228.30804 0.00014
50.49600 7201.83803 7228.18827 0.00014
50.50000 7192.61768 7228.03686 0.00014
50.50400 7130.34161 7227.85394 0.00014
50.50800 7276.34718 7227.63987 0.00014
50.51200 7253.16159 7227.39522 0.00014
50.51600 7285.09525 7227.12080 0.00014
50.52000 7197.84878 7226.81762 0.00014
50.52400 7181.01119 7226.48694 0.00014
50.52800 7104.94782 7226.13021 0.00014
50.53200 7174.90593 7225.74908 0.00014
50.53600 7191.87416 7225.34540 0.00014
50.54000 7240.14484 7224.92121 0.00014
50.54400 7285.80854 7224.47870 0.00014
50.54800 7117.30245 7224.02022 0.00014
50.55200 7112.44999 7223.54825 0.00014
50.55600 7211.42979 7223.06539 0.00014
50.56000 7222.57043 7222.57434 0.00014
50.56400 7298.36848 7222.07788 0.00014
50.56800 7247.20755 7221.57884 0.00014
50.57200 7270.54033 7221.08012 0.00014
50.57600 7242.41571 7220.58462 0.00014
50.58000 7274.12753 7220.09526 0.00014
50.58400 7253.28769 7219.61452 0.00014
50.58800 7309.60527 7219.14228 0.00014
50.59200 7381.61358 7218.67781 0.00014
50.59600 7374.94306 7218.24202 0.00014
50.60000 7220.35117 7217.82665 0.00014
50.60400 7254.89413 7217.43440 0.00014
50.60800 7257.05726 7217.06791 0.00014
50.61200 7157.82499 7216.72971 0.00014
50.61600 7242.85415 7216.42226 0.00014
50.62000 7212.63099 7216.14793 0.00014
50.62400 7188.71638 7215.90899 0.00014
50.62800 7221.40962 7215.70761 0.00014
50.63200 7207.44550 7215.54585 0.00014
50.63600 7256.50466 7215.42569 0.00014
50.64000 7257.70904 7215.34901 0.00014
50.64400 7334.94699 7215.31755 0.00014
50.64800 7191.48202 7215.33300 0.00014
50.65200 7302.40453 7215.39691 0.00014
50.65600 7105.96857 7215.51077 0.00014
50.66000 7187.80744 7215.67593 0.00014
50.66400 7288.64740 7215.89367 0.00014
50.66800 7318.66545 7216.16518 0.00014
50.67200 7158.56726 7216.49154 0.00014
50.67600 7388.19334 7216.87377 0.00014
50.68000 7255.52368 7217.31276 0.00014
50.68400 7341.76059 7217.80935 0.00014
50.68800 7274.89097 7218.36426 0.00014
50.69200 7213.39973 7218.97814 0.00014
50.69600 7231.46498 7219.65156 0.00014
50.70000 7223.95678 7220.38499 0.00014
50.70400 7326.59707 7221.17881 0.00014
50.70800 7335.99130 7222.03333 0.00014
50.71200 7288.28187 7222.94876 0.00014
50.71600 7202.72250 7223.92520 0.00014
50.72000 7344.29374 7224.96268 0.00014
50.72400 7277.40746 7226.06113 0.00014
50.72800 7246.30263 7227.22036 0.00014
50.73200 7237.00053 7228.44010 0.00014
50.73600 7130.95602 7229.71996 0.00014
50.74000 7246.83489 7231.05944 0.00014
50.74400 7199.67305 7232.45793 0.00014
50.74800 7263.67244 7233.91468 0.00014
50.75200 7256.87961 7235.42883 0.00014
50.75600 7263.00143 7236.99939 0.00014
50.76000 7272.55020 7238.62522 0.00014
50.76400 7304.63864 7240.30504 0.00014
50.76800 7285.23240 7242.03745 0.00014
50.77200 7107.77816 7243.82086 0.00014
50.77600 7305.06738 7245.65355 0.00014
50.78000 7342.80150 7247.53364 0.00014
50.78400 7270.53402 7249.45909 0.00014
50.78800 7354.12490 7251.42768 0.00014
50.79200 7264.19991 7253.43706 0.00014
50.79600 7044.82632 7255.48469 0.00014
50.80000 7416.25902 7257.56789 0.00013
50.80400 7162.02184 7259.68380 0.00014
50.80800 7197.02358 7261.82941 0.00014
50.81200 7133.06418 7264.00102 0.00014
50.81600 7313.49390 7266.19526 0.00014
50.82000 7212.30038 7268.40563 0.00014
50.82400 7211.02157 7270.63747 0.00014
50.82800 7217.91794 7272.88210 0.00014
50.83200 7187.29374 7275.13584 0.00014
50.83600 7274.85049 7277.39493 0.00014
50.84000 7152.56431 7279.65558 0.00014
50.84400 7229.41372 7281.91396 0.00014
50.84800 7102.54461 7284.16627 0.00014
50.85200 7214.77323 7286.40870 0.00014
50.85600 7315.28791 7288.63749 0.00014
50.86000 7229.54881 7290.84896 0.00014
50.86400 7204.49055 7293.03950 0.00014
50.86800 7385.92539 7295.20557 0.00014
50.87200 7338.81438 7297.34262 0.00014
50.87600 7144.85762 7299.44933 0.00014
50.88000 7384.00459 7301.51744 0.00014
50.88400 7357.78935 7303.55373 0.00014
50.88800 7218.08741 7305.55036 0.00014
50.89200 7255.59119 7307.50479 0.00014
50.89600 7248.00692 7309.41470 0.00014
50.90000 7249.26478 7311.27797 0.00014
50.90400 7215.69929 7313.09266 0.00014
50.90800 7282.86624 7314.85700 0.00014
50.91200 7284.03435 7316.56942 0.00014
50.91600 7423.31893 7318.22852 0.00013
50.92000 7273.55024 7319.83303 0.00014
50.92400 7279.06738 7321.38185 0.00014
50.92800 7250.86745 7322.87400 0.00014
50.93200 7305.97746 7324.30862 0.00014
50.93600 7395.28737 7325.68493 0.00014
50.94000 7318.78224 7327.00226 0.00014
50.94400 7246.32064 7328.26002 0.00014
50.94800 7251.65743 7329.45769 0.00014
50.95200 7306.86094 7330.59478 0.00014
50.95600 7273.96214 7331.67087 0.00014
50.96000 7282.99832 7332.68562 0.00014
50.96400 7286.41876 7333.63869 0.00014
50.96800 7341.50813 7334.52982 0.00014
50.97200 7355.51694 7335.35879 0.00014
50.97600 7292.21577 7336.12537 0.00014
50.98000 7353.72101 7336.82737 0.00014
50.98400 7215.40064 7337.46917 0.00014
50.98800 7288.03174 7338.04233 0.00014
50.99200 7320.40833 7338.55959 0.00014
50.99600 7284.77624 7339.01485 0.00014
51.00000 7255.99070 7339.40845 0.00014
51.00400 7289.31208 7339.74082 0.00014
51.00800 7300.95640 7340.01250 0.00014
51.01200 7304.62706 7340.22414 0.00014
51.01600 7362.10327 7340.37646 0.00014
51.02000 7249.06471 7340.47034 0.00014
51.02400 7307.07858 7340.50670 0.00014
51.02800 7398.57857 7340.48656 0.00014
51.03200 7350.14031 7340.41104 0.00014
51.03600 7211.80394 7340.28130 0.00014
51.04000 7450.20266 7340.09856 0.00013
51.04400 7350.37519 7339.86409 0.00014
51.04800 7200.46527 7339.57917 0.00014
51.05200 7337.36352 7339.24509 0.00014
51.05600 7372.01918 7338.86316 0.00014
51.06000 7334.92406 7338.43465 0.00014
51.06400 7271.29789 7337.96080 0.00014
51.06800 7265.97295 7337.44285 0.00014
51.07200 7229.82295 7336.88195 0.00014
51.07600 7434.10176 7336.27922 0.00013
51.08000 7502.11312 7335.63573 0.00013
51.08400 7361.46530 7334.95248 0.00014
51.08800 7451.33351 7334.23043 0.00013
51.09200 7353.51176 7333.47047 0.00014
51.09600 7197.03463 7332.67345 0.00014
51.10000 7228.15269 7331.84010 0.00014
51.10400 7398.15903 7330.97089 0.00014
51.10800 7430.61639 7330.06601 0.00013
51.11200 7356.50810 7329.12872 0.00014
51.11600 7418.67011 7328.15830 0.00013
51.12000 7476.36273 7327.15557 0.00013
51.12400 7390.26619 7326.12135 0.00014
51.12800 7411.14278 7325.05657 0.00013
51.13200 7417.00196 7323.96217 0.00013
51.13600 7365.22536 7322.83920 0.00014
51.14000 7327.52143 7321.68881 0.00014
51.14400 7342.38199 7320.51222 0.00014
51.14800 7192.53272 7319.31076 0.00014
51.15200 7297.93407 7318.08589 0.00014
51.15600 7276.51785 7316.83916 0.00014
51.16000 7344.67566 7315.57222 0.00014
51.16400 7349.67799 7314.28684 0.00014
51.16800 7262.88705 7312.98488 0.00014
51.17200 7222.09828 7311.66829 0.00014
51.17600 7315.26452 7310.33909 0.00014
51.18000 7288.32449 7308.99938 0.00014
51.18400 7176.47949 7307.65129 0.00014
51.18800 7297.96431 7306.29700 0.00014
51.19200 7270.00905 7304.93868 0.00014
51.19600 7323.96690 7303.57853 0.00014
51.20000 7263.41826 7302.21870 0.00014
51.20400 7345.93264 7300.86134 0.00014
51.20800 7237.93470 7299.50852 0.00014
51.21200 7267.99008 7298.16224 0.00014
51.21600 7149.62018 7296.82445 0.00014
51.22000 7095.13463 7295.49696 0.00014
51.22400 7262.62797 7294.18150 0.00014
51.22800 7277.96724 7292.87969 0.00014
51.23200 7213.84847 7291.59301 0.00014
51.23600 7301.04821 7290.32281 0.00014
51.24000 7310.51011 7289.07032 0.00014
51.24400 7362.98007 7287.83661 0.00014
51.24800 7289.48189 7286.62264 0.00014
51.25200 7332.38561 7285.42922 0.00014
51.25600 7283.77107 7284.25702 0.00014
51.26000 7332.11465 7283.10659 0.00014
51.26400 7299.08154 7281.97835 0.00014
51.26800 7191.69937 7280.87259 0.00014
51.27200 7185.95336 7279.78953 0.00014
51.27600 7422.32229 7278.72922 0.00013
51.28000 7289.33427 7277.69167 0.00014
51.28400 7266.57265 7276.67676 0.00014
51.28800 7294.19054 7275.68415 0.00014
51.29200 7194.31681 7274.71226 0.00014
51.29600 7275.65147 7273.76121 0.00014
51.30000 7278.10959 7272.82598 0.00014
51.30400 7275.70072 7271.90547 0.00014
51.30800 7334.32060 7271.02041 0.00014
51.31200 7349.55263 7270.15552 0.00014
51.31600 7159.71189 7269.31031 0.00014
51.32000 7247.32517 7268.48428 0.00014
51.32400 7185.00095 7267.67690 0.00014
51.32800 7288.46225 7266.88769 0.00014
51.33200 7169.94111 7266.11614 0.00014
51.33600 7232.37409 7265.36179 0.00014
51.34000 7200.59999 7264.62420 0.00014
51.34400 7149.19504 7263.90294 0.00014
51.34800 7232.10277 7263.19764 0.00014
51.35200 7226.29331 7262.50797 0.00014
51.35600 7208.90976 7261.83364 0.00014
51.36000 7351.78597 7261.17439 0.00014
51.36400 7141.68858 7260.53006 0.00014
51.36800 7125.53266 7259.90049 0.00014
51.37200 7220.10086 7259.28560 0.00014
51.37600 7255.38608 7258.68538 0.00014
51.38000 7217.71550 7258.09984 0.00014
51.38400 7263.82201 7257.52908 0.00014
51.38800 7280.93359 7256.97321 0.00014
51.39200 7166.01679 7256.43244 0.00014
51.39600 7175.81018 7255.90698 0.00014
51.40000 7277.06343 7255.39711 0.00014
51.40400 7339.58513 7254.90315 0.00014
51.40800 7212.47361 7254.42544 0.00014
51.41200 7177.72156 7253.96435 0.00014
51.41600 7169.87565 7253.52030 0.00014
51.42000 7126.33889 7253.09364 0.00014
51.42400 7273.66907 7252.68434 0.00014
51.42800 7224.59296 7252.29234 0.00014
51.43200 7173.73505 7251.92074 0.00014
51.43600 7175.97447 7251.56835 0.00014
51.44000 7155.17897 7251.23563 0.00014
51.44400 7225.26486 7250.92300 0.00014
51.44800 7264.80693 7250.63089 0.00014
51.45200 7265.56967 7250.35969 0.00014
51.45600 7222.75553 7250.10977 0.00014
51.46000 7313.98214 7249.88148 0.00014
51.46400 7199.51871 7249.67516 0.00014
51.46800 7076.99055 7249.49109 0.00014
51.47200 7143.91953 7249.32954 0.00014
51.47600 7175.84492 7249.19075 0.00014
51.48000 7228.36443 7249.07490 0.00014
51.48400 7264.98217 7248.98204 0.00014
51.48800 7206.17860 7248.91248 0.00014
51.49200 7174.06299 7248.86577 0.00014
51.49600 7148.20735 7248.84308 0.00014
51.50000 7145.85623 7248.84383 0.00014
51.50400 7176.74445 7248.86803 0.00014
51.50800 7142.00661 7248.91563 0.00014
51.51200 7044.62523 7248.98655 0.00014
51.51600 7220.37499 7249.08071 0.00014
51.52000 7371.85210 7249.19794 0.00014
51.52400 7283.35029 7249.33809 0.00014
51.52800 7168.28701 7249.50094 0.00014
51.53200 7235.00559 7249.68626 0.00014
51.53600 7284.00907 7249.89378 0.00014
51.54000 7245.34509 7250.12319 0.00014
51.54400 7263.38237 7250.37416 0.00014
51.54800 7301.56054 7250.64633 0.00014
51.55200 7201.16815 7250.93929 0.00014
51.55600 7236.96239 7251.25263 0.00014
51.56000 7216.58849 7251.58591 0.00014
51.56400 7246.86411 7251.93863 0.00014
51.56800 7137.73844 7252.31032 0.00014
51.57200 7180.19456 7252.70044 0.00014
51.57600 7270.70078 7253.10846 0.00014
51.58000 7325.61264 7253.53383 0.00014
51.58400 7283.61205 7253.97599 0.00014
51.58800 7129.00566 7254.43437 0.00014
51.59200 7125.35192 7254.90840 0.00014
51.59600 7244.58958 7255.39752 0.00014
51.60000 7171.79720 7255.90115 0.00014
51.60400 7360.58849 7256.41875 0.00014
51.60800 7307.86407 7256.94979 0.00014
51.61200 7244.88699 7257.49376 0.00014
51.61600 7177.64034 7258.05019 0.00014
51.62000 7286.07878 7258.61863 0.00014
51.62400 7214.12156 7259.19870 0.00014
51.62800 7068.80686 7259.79002 0.00014
51.63200 7221.10140 7260.39232 0.00014
51.63600 7306.14319 7261.00534 0.00014
51.64000 7298.03734 7261.62892 0.00014
51.64400 7312.39909 7262.26294 0.00014
51.64800 7363.57402 7262.90736 0.00014
51.65200 7359.48214 7263.56223 0.00014
51.65600 7268.08901 7264.22765 0.00014
51.66000 7372.47201 7264.90382 0.00014
51.66400 7283.69204 7265.59101 0.00014
51.66800 7273.59774 7266.28956 0.00014
51.67200 7401.41361 7266.99990 0.00014
51.67600 7388.90338 7267.72252 0.00014
51.68000 7233.75264 7268.45800 0.00014
51.68400 7278.54046 7269.20696 0.00014
51.68800 7299.85591 7269.97011 0.00014
51.69200 7216.63518 7270.74820 0.00014
51.69600 7495.85135 7271.54201 0.00013
51.70000 7227.02404 7272.35239 0.00014
51.70400 7311.57509 7273.18022 0.00014
51.70800 7297.76286 7274.02638 0.00014
51.71200 7353.55608 7274.89179 0.00014
51.71600 7224.16947 7275.77737 0.00014
51.72000 7325.12510 7276.68404 0.00014
51.72400 7181.95616 7277.61271 0.00014
51.72800 7171.01511 7278.56426 0.00014
51.73200 7416.39203 7279.53956 0.00013
51.73600 7364.08789 7280.53944 0.00014
51.74000 7357.52725 7281.56469 0.00014
51.74400 7404.88305 7282.61604 0.00014
51.74800 7223.74877 7283.69418 0.00014
51.75200 7264.51475 7284.79973 0.00014
51.75600 7160.15100 7285.93313 0.00014
51.76000 7315.01726 7287.09213 0.00014
51.76400 7251.51044 7288.28195 0.00014
51.76800 7369.16470 7289.49128 0.00014
51.77200 7380.10892 7290.74075 0.00014
51.77600 7202.11406 7292.01980 0.00014
51.78000 7288.57603 7293.32852 0.00014
51.78400 7305.57105 7294.66687 0.00014
51.78800 7316.33490 7296.03473 0.00014
51.79200 7245.97660 7297.43189 0.00014
51.79600 7237.49007 7298.85803 0.00014
51.80000 7368.00693 7300.31275 0.00014
51.80400 7304.93377 7301.79553 0.00014
51.80800 7385.55741 7303.30577 0.00014
51.81200 7255.46925 7304.84275 0.00014
51.81600 7457.40534 7306.40565 0.00013
51.82000 7255.69157 7307.99358 0.00014
51.82400 7293.40164 7309.60552 0.00014
51.82800 7396.05039 7311.24037 0.00014
51.83200 7276.37569 7312.89695 0.00014
51.83600 7307.02506 7314.57395 0.00014
51.84000 7429.12755 7316.27003 0.00013
51.84400 7233.62915 7317.98372 0.00014
51.84800 7299.37277 7319.71351 0.00014
51.85200 7429.87532 7321.45781 0.00013
51.85600 7402.55410 7323.21497 0.00014
51.86000 7434.05285 7324.98331 0.00013
51.86400 7458.42309 7326.76109 0.00013
51.86800 7413.81876 7328.54653 0.00013
51.87200 7378.82858 7330.33688 0.00014
51.87600 7264.41365 7332.12928 0.00014
51.88000 7182.84191 7333.92318 0.00014
51.88400 7264.70061 7335.71242 0.00014
51.88800 7162.31405 7337.50984 0.00014
51.89200 7223.76493 7339.30453 0.00014
51.89600 7469.61024 7341.09491 0.00013
51.90000 7305.50040 7342.87949 0.00014
51.90400 7276.19355 7344.65683 0.00014
51.90800 7207.53666 7346.42562 0.00014
51.91200 7309.10904 7348.18467 0.00014
51.91600 7293.05331 7349.93287 0.00014
51.92000 7309.91789 7351.66927 0.00014
51.92400 7423.67102 7353.39302 0.00013
51.92800 7246.35084 7355.10340 0.00014
51.93200 7266.72194 7356.79982 0.00014
51.93600 7371.54146 7358.48180 0.00014
51.94000 7356.46814 7360.14898 0.00014
51.94400 7208.08478 7361.80110 0.00014
51.94800 7227.64223 7363.43799 0.00014
51.95200 7419.76646 7365.05957 0.00013
51.95600 7490.80992 7366.66584 0.00013
51.96000 7502.04266 7368.25682 0.00013
51.96400 7341.36213 7369.83261 0.00014
51.96800 7406.39723 7371.39330 0.00014
51.97200 7436.45321 7372.93894 0.00013
51.97600 7380.38710 7374.46887 0.00014
51.98000 7408.66649 7375.98390 0.00013
51.98400 7341.62943 7377.48072 0.00014
51.98800 7224.95680 7378.96724 0.00014
51.99200 7399.28179 7380.43893 0.00014
51.99600 7228.84960 7381.89567 0.00014
52.00000 7227.78299 7383.33722 0.00014
52.00400 7509.08184 7384.76328 0.00013
52.00800 7305.83253 7386.17346 0.00014
52.01200 7485.35484 7387.56726 0.00013
52.01600 7486.33804 7388.94412 0.00013
52.02000 7415.54400 7390.30335 0.00013
52.02400 7447.70088 7391.64420 0.00013
52.02800 7359.94560 7392.96582 0.00014
52.03200 7443.46841 7394.26724 0.00013
52.03600 7259.93120 7395.54653 0.00014
52.04000 7310.65902 7396.80424 0.00014
52.04400 7324.95467 7398.03522 0.00014
52.04800 7481.29245 7399.24585 0.00013
52.05200 7678.60251 7400.43102 0.00013
52.05600 7445.28000 7401.58962 0.00013
52.06000 7468.40533 7402.72054 0.00013
52.06400 7315.38683 7403.82273 0.00014
52.06800 7485.16400 7404.89518 0.00013
52.07200 7613.05325 7405.93694 0.00013
52.07600 7459.15836 7406.94715 0.00013
52.08000 7467.31653 7407.92507 0.00013
52.08400 7544.01237 7408.87003 0.00013
52.08800 7507.66432 7409.78155 0.00013
52.09200 7402.92412 7410.65923 0.00014
52.09600 7493.13303 7411.50286 0.00013
52.10000 7581.63464 7412.31237 0.00013
52.10400 7698.21432 7413.08788 0.00013
52.10800 7541.95784 7413.82916 0.00013
52.11200 7617.28067 7414.53296 0.00013
52.11600 7747.30632 7415.20745 0.00013
52.12000 7357.37830 7415.83718 0.00014
52.12400 7522.44800 7416.45031 0.00013
52.12800 7640.01813 7417.03370 0.00013
52.13200 7529.95894 7417.58866 0.00013
52.13600 7697.87950 7418.11661 0.00013
52.14000 7734.19835 7418.61915 0.00013
52.14400 7605.06212 7419.09797 0.00013
52.14800 7560.18022 7419.55491 0.00013
52.15200 7557.86780 7419.99187 0.00013
52.15600 7533.18475 7420.41085 0.00013
52.16000 7518.62863 7420.81391 0.00013
52.16400 7545.41936 7421.20318 0.00013
52.16800 7582.11570 7421.58080 0.00013
52.17200 7621.38736 7421.94895 0.00013
52.17600 7541.92269 7422.30979 0.00013
52.18000 7337.57836 7422.66550 0.00014
52.18400 7534.91336 7423.01821 0.00013
52.18800 7607.66142 7423.37004 0.00013
52.19200 7750.27079 7423.72305 0.00013
52.19600 7675.21141 7424.07923 0.00013
52.20000 7751.56385 7424.44052 0.00013
52.20400 7626.59702 7424.80880 0.00013
52.20800 7575.06158 7425.18586 0.00013
52.21200 7593.37403 7425.57338 0.00013
52.21600 7423.16738 7425.97298 0.00013
52.22000 7369.97921 7426.38621 0.00014
52.22400 7569.61514 7426.81448 0.00013
52.22800 7629.95788 7427.25914 0.00013
52.23200 7459.30917 7427.72146 0.00013
52.23600 7545.11330 7428.20258 0.00013
52.24000 7600.93603 7428.70363 0.00013
52.24400 7617.14156 7429.22560 0.00013
52.24800 7780.98267 7429.76939 0.00013
52.25200 7572.56183 7430.33588 0.00013
52.25600 7605.72548 7430.92583 0.00013
52.26000 7569.01306 7431.53998 0.00013
52.26400 7436.31556 7432.17896 0.00013
52.26800 7462.10448 7432.84338 0.00013
52.27200 7501.25673 7433.53330 0.00013
52.27600 7569.51119 7434.24592 0.00013
52.28000 7670.75053 7434.98893 0.00013
52.28400 7663.56450 7435.74819 0.00013
52.28800 7675.33884 7436.54693 0.00013
52.29200 7574.33156 7437.37363 0.00013
52.29600 7606.70789 7438.22855 0.00013
52.30000 7582.74307 7439.11189 0.00013
52.30400 7527.57569 7440.02381 0.00013
52.30800 7514.02665 7440.96443 0.00013
52.31200 7560.86567 7441.93381 0.00013
52.31600 7538.15886 7442.93196 0.00013
52.32000 7472.14058 7443.95881 0.00013
52.32400 7437.45698 7445.01424 0.00013
52.32800 7470.95978 7446.09803 0.00013
52.33200 7389.76210 7447.20939 0.00014
52.33600 7441.00591 7448.34821 0.00013
52.34000 7493.17830 7449.51140 0.00013
52.34400 7570.84464 7450.70539 0.00013
52.34800 7438.49817 7451.92565 0.00013
52.35200 7447.38989 7453.17148 0.00013
52.35600 7420.87421 7454.44210 0.00013
52.36000 7392.14372 7455.73661 0.00014
52.36400 7524.18877 7457.05401 0.00013
52.36800 7543.32776 7458.39320 0.00013
52.37200 7473.12429 7459.75297 0.00013
52.37600 7463.80590 7461.13199 0.00013
52.38000 7513.34102 7462.52884 0.00013
52.38400 7489.46152 7463.94196 0.00013
52.38800 7446.42976 7465.36969 0.00013
52.39200 7366.57701 7466.81027 0.00014
52.39600 7406.94357 7468.26183 0.00014
52.40000 7531.18184 7469.72238 0.00013
52.40400 7445.45601 7471.18983 0.00013
52.40800 7444.24135 7472.66199 0.00013
52.41200 7401.40266 7474.13658 0.00014
52.41600 7389.49131 7475.61123 0.00014
52.42000 7546.55732 7477.08349 0.00013
52.42400 7518.92009 7478.55083 0.00013
52.42800 7580.74472 7480.01065 0.00013
52.43200 7545.21582 7481.46032 0.00013
52.43600 7423.99414 7482.89713 0.00013
52.44000 7525.26717 7484.31838 0.00013
52.44400 7428.12029 7485.72132 0.00013
52.44800 7465.36150 7487.10323 0.00013
52.45200 7536.04406 7488.46138 0.00013
52.45600 7562.20991 7489.79309 0.00013
52.46000 7525.81387 7491.09574 0.00013
52.46400 7421.60330 7492.36677 0.00013
52.46800 7573.16114 7493.60371 0.00013
52.47200 7591.87640 7494.80423 0.00013
52.47600 7442.63379 7495.96610 0.00013
52.48000 7646.55318 7497.08726 0.00013
52.48400 7568.15452 7498.16582 0.00013
52.48800 7527.21706 7499.20008 0.00013
52.49200 7476.40012 7500.18855 0.00013
52.49600 7519.08620 7501.12995 0.00013
52.50000 7456.61274 7502.02326 0.00013
52.50400 7455.37000 7502.86768 0.00013
52.50800 7471.68437 7503.66268 0.00013
52.51200 7552.75927 7504.40799 0.00013
52.51600 7493.39168 7505.10361 0.00013
52.52000 7403.94684 7505.74978 0.00014
52.52400 7441.96269 7506.34703 0.00013
52.52800 7577.55780 7506.89614 0.00013
52.53200 7563.99676 7507.39812 0.00013
52.53600 7662.19938 7507.85423 0.00013
52.54000 7503.31756 7508.26595 0.00013
52.54400 7493.43430 7508.63495 0.00013
52.54800 7481.88967 7508.96309 0.00013
52.55200 7430.02368 7509.25239 0.00013
52.55600 7541.04180 7509.50499 0.00013
52.56000 7580.70120 7509.72317 0.00013
52.56400 7487.86083 7509.90926 0.00013
52.56800 7469.70181 7510.06565 0.00013
52.57200 7591.60157 7510.19478 0.00013
52.57600 7545.18557 7510.29905 0.00013
52.58000 7560.34970 7510.38086 0.00013
52.58400 7530.24225 7510.44252 0.00013
52.58800 7472.53548 7510.48628 0.00013
52.59200 7509.62819 7510.51427 0.00013
52.59600 7583.34848 7510.52848 0.00013
52.60000 7494.53983 7510.53075 0.00013
52.60400 7434.43292 7510.52275 0.00013
52.60800 7379.75944 7510.50596 0.00014
52.61200 7589.52716 7510.48166 0.00013
52.61600 7521.64643 7510.45092 0.00013
52.62000 7628.82254 7510.41458 0.00013
52.62400 7494.89703 7510.37327 0.00013
52.62800 7458.75443 7510.32739 0.00013
52.63200 7542.49165 7510.27715 0.00013
52.63600 7554.00341 7510.22251 0.00013
52.64000 7598.91592 7510.16325 0.00013
52.64400 7398.10324 7510.09895 0.00014
52.64800 7540.65950 7510.02904 0.00013
52.65200 7541.68076 7509.95275 0.00013
52.65600 7550.54105 7509.86920 0.00013
52.66000 7563.49187 7509.77739 0.00013
52.66400 7543.70418 7509.67621 0.00013
52.66800 7642.27232 7509.56447 0.00013
52.67200 7662.70102 7509.44102 0.00013
52.67600 7743.00662 7509.30420 0.00013
52.68000 7526.02958 7509.15354 0.00013
52.68400 7550.33547 7508.98627 0.00013
52.68800 7507.84559 7508.80360 0.00013
52.69200 7363.47232 7508.60325 0.00014
52.69600 7407.98469 7508.38422 0.00013
52.70000 7631.32459 7508.14560 0.00013
52.70400 7670.19185 7507.88664 0.00013
52.70800 7505.74525 7507.60669 0.00013
52.71200 7514.74616 7507.30528 0.00013
52.71600 7513.18227 7506.98205 0.00013
52.72000 7538.06495 7506.63686 0.00013
52.72400 7424.82063 7506.26967 0.00013
52.72800 7594.73728 7505.88064 0.00013
52.73200 7530.29585 7505.47007 0.00013
52.73600 7491.33966 7505.03841 0.00013
52.74000 7592.17193 7504.58627 0.00013
52.74400 7615.19063 7504.11435 0.00013
52.74800 7463.40977 7503.62350 0.00013
52.75200 7525.95160 7503.11467 0.00013
52.75600 7611.65412 7502.58889 0.00013
52.76000 7611.01632 7502.04727 0.00013
52.76400 7614.89502 7501.49097 0.00013
52.76800 7426.84444 7500.92119 0.00013
52.77200 7541.83480 7500.33914 0.00013
52.77600 7440.75169 7499.74605 0.00013
52.78000 7549.06382 7499.14312 0.00013
52.78400 7446.04964 7498.53155 0.00013
52.78800 7350.08649 7497.91245 0.00014
52.79200 7370.49655 7497.28691 0.00014
52.79600 7510.31442 7496.65592 0.00013
52.80000 7621.54978 7496.02042 0.00013
52.80400 7458.78787 7495.38123 0.00013
52.80800 7456.55864 7494.73908 0.00013
52.81200 7381.80764 7494.09458 0.00014
52.81600 7472.07542 7493.44826 0.00013
52.82000 7585.42799 7492.80050 0.00013
52.82400 7497.50791 7492.15158 0.00013
52.82800 7351.29198 7491.50161 0.00014
52.83200 7515.82712 7490.85023 0.00013
52.83600 7564.10046 7490.19744 0.00013
52.84000 7524.14681 7489.54157 0.00013
52.84400 7424.99342 7488.88697 0.00013
52.84800 7432.53581 7488.23051 0.00013
52.85200 7520.53276 7487.57173 0.00013
52.85600 7473.64131 7486.91009 0.00013
52.86000 7438.44822 7486.24498 0.00013
52.86400 7432.86033 7485.57575 0.00013
52.86800 7438.14331 7484.90169 0.00013
52.87200 7504.73949 7484.22206 0.00013
52.87600 7429.57889 7483.53611 0.00013
52.88000 7385.59909 7482.84307 0.00014
52.88400 7501.08652 7482.14219 0.00013
52.88800 7506.54873 7481.43273 0.00013
52.89200 7601.00533 7480.71400 0.00013
52.89600 7535.07533 7479.98534 0.00013
52.90000 7594.55436 7479.24614 0.00013
52.90400 7447.32034 7478.49587 0.00013
52.90800 7439.59377 7477.73407 0.00013
52.91200 7487.51326 7476.96038 0.00013
52.91600 7419.23991 7476.17452 0.00013
52.92000 7539.66993 7475.37631 0.00013
52.92400 7407.58178 7474.56570 0.00013
52.92800 7503.67825 7473.74271 0.00013
52.93200 7594.10655 7472.90744 0.00013
52.93600 7595.15001 7472.06007 0.00013
52.94000 7431.67817 7471.20051 0.00013
52.94400 7517.70970 7470.33079 0.00013
52.94800 7422.35699 7469.45065 0.00013
52.95200 7452.67421 7468.56080 0.00013
52.95600 7427.44582 7467.66206 0.00013
52.96000 7474.74481 7466.75536 0.00013
52.96400 7577.11114 7465.84171 0.00013
52.96800 7603.33337 7464.92220 0.00013
52.97200 7513.53158 7463.99798 0.00013
52.97600 7642.13843 7463.07029 0.00013
52.98000 7542.03703 7462.14042 0.00013
52.98400 7415.95591 7461.20968 0.00013
52.98800 7576.67896 7460.27945 0.00013
52.99200 7560.55994 7459.35112 0.00013
52.99600 7515.67132 7458.42609 0.00013
53.00000 7467.47212 7457.50579 0.00013
53.00400 7425.21379 7456.59164 0.00013
53.00800 7418.43755 7455.68504 0.00013
53.01200 7352.25667 7454.78740 0.00014
53.01600 7343.11751 7453.90011 0.00014
53.02000 7390.20713 7453.02450 0.00014
53.02400 7481.81415 7452.16191 0.00013
53.02800 7452.60336 7451.31362 0.00013
53.03200 7465.45850 7450.48089 0.00013
53.03600 7526.23034 7449.66490 0.00013
53.04000 7565.59407 7448.86678 0.00013
53.04400 7604.48722 7448.08769 0.00013
53.04800 7412.04674 7447.32752 0.00013
53.05200 7580.21424 7446.58508 0.00013
53.05600 7519.72576 7445.85588 0.00013
53.06000 7456.23044 7445.16336 0.00013
53.06400 7477.80496 7444.49481 0.00013
53.06800 7436.92142 7443.85109 0.00013
53.07200 7358.19691 7443.23304 0.00014
53.07600 7496.60027 7442.64143 0.00013
53.08000 7514.43238 7442.07702 0.00013
53.08400 7524.76372 7441.54055 0.00013
53.08800 7511.92884 7441.03271 0.00013
53.09200 7362.06675 7440.55418 0.00014
53.09600 7534.78925 7440.10554 0.00013
53.10000 7401.83222 7439.68617 0.00014
53.10400 7446.93638 7439.29487 0.00013
53.10800 7458.08604 7438.92794 0.00013
53.11200 7522.72982 7438.60570 0.00013
53.11600 7469.40080 7438.31660 0.00013
53.12000 7353.02384 7438.06125 0.00014
53.12400 7421.77858 7437.84028 0.00013
53.12800 7427.18280 7437.65431 0.00013
53.13200 7406.02841 7437.50355 0.00014
53.13600 7468.16392 7437.38657 0.00013
53.14000 7388.52144 7437.30281 0.00014
53.14400 7598.40733 7437.26318 0.00013
53.14800 7473.59873 7437.26174 0.00013
53.15200 7460.63385 7437.29916 0.00013
53.15600 7405.02663 7437.37609 0.00014
53.16000 7488.60659 7437.49319 0.00013
53.16400 7466.91398 7437.65112 0.00013
53.16800 7508.26975 7437.85052 0.00013
53.17200 7383.40654 7438.09206 0.00014
53.17600 7437.91983 7438.37634 0.00013
53.18000 7358.12956 7438.70400 0.00014
53.18400 7412.64288 7439.07561 0.00013
53.18800 7513.50539 7439.49175 0.00013
53.19200 7459.12676 7439.95295 0.00013
53.19600 7554.73209 7440.45969 0.00013
53.20000 7558.01455 7441.01242 0.00013
53.20400 7556.44236 7441.61152 0.00013
53.20800 7464.21501 7442.25732 0.00013
53.21200 7612.80506 7442.95006 0.00013
53.21600 7483.09939 7443.68993 0.00013
53.22000 7447.94417 7444.47699 0.00013
53.22400 7338.67545 7445.31124 0.00014
53.22800 7376.77550 7446.19230 0.00014
53.23200 7334.33316 7447.11835 0.00014
53.23600 7440.50200 7448.09072 0.00013
53.24000 7427.08192 7449.10239 0.00013
53.24400 7312.16991 7450.16803 0.00014
53.24800 7519.13718 7451.27805 0.00013
53.25200 7464.21662 7452.43143 0.00013
53.25600 7518.07947 7453.62696 0.00013
53.26000 7377.93955 7454.86324 0.00014
53.26400 7524.47741 7456.13868 0.00013
53.26800 7461.90948 7457.45143 0.00013
53.27200 7572.75675 7458.79945 0.00013
53.27600 7311.99627 7460.18045 0.00014
53.28000 7417.92073 7461.59193 0.00013
53.28400 7476.05019 7463.03109 0.00013
53.28800 7398.30924 7464.49495 0.00014
53.29200 7324.79958 7465.98024 0.00014
53.29600 7481.86688 7467.48347 0.00013
53.30000 7413.45164 7469.00090 0.00013
53.30400 7385.86711 7470.52855 0.00014
53.30800 7385.18042 7472.06223 0.00014
53.31200 7442.00343 7473.59743 0.00013
53.31600 7584.03661 7475.12931 0.00013
53.32000 7559.71878 7476.65262 0.00013
53.32400 7451.59899 7478.16467 0.00013
53.32800 7381.16204 7479.65907 0.00014
53.33200 7413.57763 7481.13071 0.00013
53.33600 7512.85026 7482.57441 0.00013
53.34000 7401.03229 7483.98498 0.00014
53.34400 7571.40211 7485.35724 0.00013
53.34800 7488.64547 7486.68607 0.00013
53.35200 7460.66988 7487.96643 0.00013
53.35600 7497.56706 7489.19344 0.00013
53.36000 7579.51438 7490.36241 0.00013
53.36400 7420.40613 7491.46884 0.00013
53.36800 7501.80318 7492.50852 0.00013
53.37200 7406.93553 7493.47754 0.00014
53.37600 7569.44816 7494.37231 0.00013
53.38000 7405.86239 7495.18964 0.00014
53.38400 7496.89537 7495.92673 0.00013
53.38800 7457.35853 7496.58119 0.00013
53.39200 7419.45832 7497.15111 0.00013
53.39600 7485.59274 7497.63502 0.00013
53.40000 7383.58671 7498.03193 0.00014
53.40400 7533.35996 7498.34135 0.00013
53.40800 7464.70025 7498.56323 0.00013
53.41200 7507.10080 7498.69728 0.00013
53.41600 7330.24904 7498.74457 0.00014
53.42000 7519.46725 7498.70209 0.00013
53.42400 7489.14488 7498.58298 0.00013
53.42800 7577.50668 7498.38310 0.00013
53.43200 7374.19782 7498.10502 0.00014
53.43600 7450.69764 7497.75170 0.00013
53.44000 7331.89435 7497.32638 0.00014
53.44400 7516.88638 7496.83260 0.00013
53.44800 7468.72967 7496.27416 0.00013
53.45200 7551.66187 7495.65504 0.00013
53.45600 7461.54698 7494.97941 0.00013
53.46000 7424.06017 7494.25158 0.00013
53.46400 7518.63922 7493.47593 0.00013
53.46800 7442.25141 7492.65694 0.00013
53.47200 7553.39936 7491.79908 0.00013
53.47600 7551.50842 7490.90684 0.00013
53.48000 7418.74467 7489.98467 0.00013
53.48400 7475.06079 7489.03695 0.00013
53.48800 7485.76017 7488.06800 0.00013
53.49200 7515.60117 7487.08199 0.00013
53.49600 7498.96219 7486.08300 0.00013
53.50000 7434.86326 7485.07494 0.00013
53.50400 7451.99893 7484.06155 0.00013
53.50800 7586.78275 7483.04643 0.00013
53.51200 7507.00126 7482.03296 0.00013
53.51600 7550.71666 7481.02434 0.00013
53.52000 7546.69920 7480.02358 0.00013
53.52400 7364.88818 7479.03347 0.00014
53.52800 7452.91613 7478.05660 0.00013
53.53200 7412.78464 7477.09534 0.00013
53.53600 7505.82135 7476.15187 0.00013
53.54000 7561.14316 7475.22815 0.00013
53.54400 7436.47790 7474.32593 0.00013
53.54800 7501.71626 7473.44675 0.00013
53.55200 7483.73332 7472.59197 0.00013
53.55600 7604.71353 7471.76273 0.00013
53.56000 7603.49148 7470.95997 0.00013
53.56400 7568.98727 7470.18446 0.00013
53.56800 7503.49255 7469.43677 0.00013
53.57200 7384.76651 7468.71731 0.00014
53.57600 7491.91910 7468.02630 0.00013
53.58000 7640.93078 7467.36379 0.00013
53.58400 7469.60596 7466.72968 0.00013
53.58800 7376.59380 7466.12289 0.00014
53.59200 7471.34889 7465.54435 0.00013
53.59600 7397.68211 7464.98985 0.00014
53.60000 7341.30253 7464.46545 0.00014
53.60400 7395.22098 7463.96684 0.00014
53.60800 7404.17402 7463.49312 0.00014
53.61200 7281.85277 7463.04330 0.00014
53.61600 7264.60224 7462.61633 0.00014
53.62000 7369.00262 7462.21103 0.00014
53.62400 7504.98349 7461.82620 0.00013
53.62800 7490.90260 7461.46055 0.00013
53.63200 7492.56654 7461.11276 0.00013
53.63600 7557.36369 7460.78147 0.00013
53.64000 7408.21292 7460.46529 0.00013
53.64400 7448.54127 7460.16284 0.00013
53.64800 7225.67479 7459.87269 0.00014
53.65200 7381.55511 7459.59347 0.00014
53.65600 7409.09691 7459.32379 0.00013
53.66000 7398.60170 7459.06230 0.00014
53.66400 7240.41657 7458.80767 0.00014
53.66800 7411.99561 7458.55862 0.00013
53.67200 7291.21976 7458.31392 0.00014
53.67600 7417.53621 7458.07240 0.00013
53.68000 7492.95213 7457.83293 0.00013
53.68400 7328.69542 7457.59446 0.00014
53.68800 7429.72912 7457.35601 0.00013
53.69200 7435.60703 7457.11666 0.00013
53.69600 7513.10450 7456.87559 0.00013
53.70000 7368.88844 7456.63204 0.00014
53.70400 7353.48691 7456.38533 0.00014
53.70800 7406.48443 7456.13488 0.00014
53.71200 7414.63578 7455.88017 0.00013
53.71600 7423.12487 7455.62078 0.00013
53.72000 7374.28526 7455.35638 0.00014
53.72400 7405.42013 7455.08672 0.00014
53.72800 7419.12119 7454.81160 0.00013
53.73200 7418.17935 7454.53096 0.00013
53.73600 7426.86688 7454.24479 0.00013
53.74000 7513.66018 7453.95317 0.00013
53.74400 7375.97471 7453.65624 0.00014
53.74800 7449.04582 7453.35426 0.00013
53.75200 7471.36331 7453.04752 0.00013
53.75600 7358.51597 7452.73621 0.00014
53.76000 7475.14931 7452.41941 0.00013
53.76400 7563.31963 7452.10065 0.00013
53.76800 7437.41321 7451.77453 0.00013
53.77200 7520.10274 7451.45124 0.00013
53.77600 7459.97254 7451.12654 0.00013
53.78000 7565.97115 7450.80120 0.00013
53.78400 7335.37553 7450.47603 0.00014
53.78800 7399.07322 7450.15191 0.00014
53.79200 7499.92760 7449.82975 0.00013
53.79600 7449.83669 7449.51048 0.00013
53.80000 7475.31097 7449.19498 0.00013
53.80400 7527.02113 7448.88178 0.00013
53.80800 7481.52702 7448.57570 0.00013
53.81200 7568.84878 7448.26667 0.00013
53.81600 7376.81797 7447.97694 0.00014
53.82000 7399.20495 7447.69529 0.00014
53.82400 7473.56569 7447.42345 0.00013
53.82800 7369.32322 7447.15794 0.00014
53.83200 7225.37743 7446.91064 0.00014
53.83600 7414.07236 7446.67604 0.00013
53.84000 7409.39617 7446.45460 0.00013
53.84400 7324.54325 7446.24989 0.00014
53.84800 7439.50379 7446.06131 0.00013
53.85200 7450.56522 7445.88976 0.00013
53.85600 7499.62763 7445.73615 0.00013
53.86000 7486.66720 7445.60133 0.00013
53.86400 7418.20729 7445.48610 0.00013
53.86800 7418.19218 7445.39124 0.00013
53.87200 7494.13221 7445.31749 0.00013
53.87600 7483.57455 7445.26553 0.00013
53.88000 7393.37061 7445.23601 0.00014
53.88400 7500.22092 7445.22952 0.00013
53.88800 7459.19550 7445.24663 0.00013
53.89200 7462.81501 7445.28785 0.00013
53.89600 7346.99554 7445.35364 0.00014
53.90000 7469.17306 7445.44443 0.00013
53.90400 7470.19953 7445.56058 0.00013
53.90800 7439.94357 7445.70244 0.00013
53.91200 7376.22594 7445.87028 0.00014
53.91600 7292.79191 7446.06436 0.00014
53.92000 7372.80703 7446.28488 0.00014
53.92400 7485.74903 7446.53198 0.00013
53.92800 7577.01004 7446.80579 0.00013
53.93200 7391.04861 7447.10637 0.00014
53.93600 7447.10220 7447.43376 0.00013
53.94000 7456.21427 7447.78792 0.00013
53.94400 7506.35720 7448.16881 0.00013
53.94800 7319.48456 7448.57630 0.00014
53.95200 7387.89353 7449.01025 0.00014
53.95600 7424.38063 7449.47045 0.00013
53.96000 7315.37583 7449.95666 0.00014
53.96400 7474.75102 7450.46857 0.00013
53.96800 7486.76125 7451.00583 0.00013
53.97200 7449.07649 7451.56805 0.00013
53.97600 7560.24568 7452.15477 0.00013
53.98000 7529.36998 7452.76549 0.00013
53.98400 7381.27915 7453.39964 0.00014
53.98800 7400.39846 7454.05662 0.00014
53.99200 7384.15453 7454.73575 0.00014
53.99600 7435.96779 7455.43631 0.00013
54.00000 7425.26862 7456.15752 0.00013
54.00400 7471.40990 7456.89855 0.00013
54.00800 7574.72026 7457.65851 0.00013
54.01200 7495.85377 7458.43647 0.00013
54.01600 7434.50200 7459.23142 0.00013
54.02000 7536.81130 7460.04235 0.00013
54.02400 7465.84669 7460.86816 0.00013
54.02800 7319.03513 7461.70772 0.00014
54.03200 7346.55725 7462.55986 0.00014
54.03600 7416.82992 7463.42339 0.00013
54.04000 7367.52116 7464.29706 0.00014
54.04400 7483.77163 7465.17961 0.00013
54.04800 7514.20749 7466.06975 0.00013
54.05200 7601.46234 7466.96617 0.00013
54.05600 7584.60634 7467.86754 0.00013
54.06000 7423.93479 7468.77254 0.00013
54.06400 7493.39979 7469.67983 0.00013
54.06800 7397.32951 7470.58807 0.00014
54.07200 7561.22278 7471.49594 0.00013
54.07600 7427.85334 7472.40213 0.00013
54.08000 7559.23689 7473.30533 0.00013
54.08400 7448.09719 7474.20427 0.00013
54.08800 7317.47298 7475.09772 0.00014
54.09200 7439.53340 7475.98444 0.00013
54.09600 7395.11099 7476.86328 0.00014
54.10000 7561.07799 7477.73308 0.00013
54.10400 7336.50941 7478.59275 0.00014
54.10800 7411.64919 7479.44124 0.00013
54.11200 7384.91722 7480.27756 0.00014
54.11600 7391.37708 7481.10075 0.00014
54.12000 7326.83907 7481.90993 0.00014
54.12400 7406.90072 7482.70424 0.00014
54.12800 7418.89539 7483.48291 0.00013
54.13200 7507.05536 7484.24504 0.00013
54.13600 7409.55736 7484.98869 0.00013
54.14000 7413.85798 7485.71328 0.00013
54.14400 7465.47165 7486.41300 0.00013
54.14800 7427.35454 7487.10351 0.00013
54.15200 7549.40085 7487.77476 0.00013
54.15600 7322.23982 7488.42633 0.00014
54.16000 7513.64805 7489.05785 0.00013
54.16400 7475.41249 7489.66898 0.00013
54.16800 7390.65611 7490.25943 0.00014
54.17200 7388.46899 7490.82892 0.00014
54.17600 7377.70721 7491.37725 0.00014
54.18000 7280.60181 7491.90422 0.00014
54.18400 7435.85414 7492.40966 0.00013
54.18800 7447.47032 7492.89343 0.00013
54.19200 7346.09848 7493.35541 0.00014
54.19600 7318.25060 7493.79551 0.00014
54.20000 7385.51876 7494.21363 0.00014
54.20400 7345.40538 7494.60970 0.00014
54.20800 7441.63375 7494.98366 0.00013
54.21200 7541.16396 7495.33543 0.00013
54.21600 7493.93958 7495.66496 0.00013
54.22000 7451.45819 7495.97216 0.00013
54.22400 7605.93053 7496.25697 0.00013
54.22800 7631.66383 7496.51930 0.00013
54.23200 7560.71786 7496.75905 0.00013
54.23600 7453.80623 7496.97609 0.00013
54.24000 7570.00479 7497.17016 0.00013
54.24400 7557.21054 7497.34128 0.00013
54.24800 7517.47431 7497.48874 0.00013
54.25200 7465.61459 7497.61332 0.00013
54.25600 7430.48283 7497.71425 0.00013
54.26000 7390.38249 7497.79125 0.00014
54.26400 7383.58824 7497.84402 0.00014
54.26800 7564.65558 7497.87223 0.00013
54.27200 7526.58714 7497.87552 0.00013
54.27600 7448.41469 7497.85353 0.00013
54.28000 7476.92121 7497.80585 0.00013
54.28400 7316.68299 7497.73206 0.00014
54.28800 7335.42294 7497.63176 0.00014
54.29200 7498.89122 7497.50451 0.00013
54.29600 7482.59995 7497.34989 0.00013
54.30000 7393.78733 7497.16749 0.00014
54.30400 7325.26085 7496.95693 0.00014
54.30800 7481.58531 7496.71784 0.00013
54.31200 7439.19685 7496.44990 0.00013
54.31600 7500.90844 7496.15283 0.00013
54.32000 7504.80969 7495.82642 0.00013
54.32400 7495.81741 7495.47052 0.00013
54.32800 7334.09266 7495.08505 0.00014
54.33200 7511.96008 7494.67003 0.00013
54.33600 7471.40431 7494.22555 0.00013
54.34000 7474.19244 7493.75181 0.00013
54.34400 7495.48576 7493.24913 0.00013
54.34800 7434.07799 7492.71791 0.00013
54.35200 7401.26194 7492.15870 0.00014
54.35600 7562.55150 7491.57212 0.00013
54.36000 7511.57626 7490.95895 0.00013
54.36400 7389.53447 7490.32005 0.00014
54.36800 7439.67394 7489.65643 0.00013
54.37200 7329.61639 7488.96918 0.00014
54.37600 7511.30663 7488.25951 0.00013
54.38000 7459.44450 7487.52871 0.00013
54.38400 7416.21427 7486.77819 0.00013
54.38800 7329.28380 7486.00943 0.00014
54.39200 7311.78503 7485.22399 0.00014
54.39600 7335.05057 7484.42348 0.00014
54.40000 7499.77376 7483.60959 0.00013
54.40400 7612.34496 7482.78404 0.00013
54.40800 7519.24245 7481.94860 0.00013
54.41200 7476.25153 7481.10504 0.00013
54.41600 7499.27096 7480.25518 0.00013
54.42000 7462.33351 7479.40080 0.00013
54.42400 7395.79319 7478.54373 0.00014
54.42800 7306.16445 7477.68574 0.00014
54.43200 7485.35294 7476.82860 0.00013
54.43600 7415.14107 7475.97404 0.00013
54.44000 7434.26830 7475.12311 0.00013
54.44400 7416.80734 7474.27687 0.00013
54.44800 7490.85733 7473.43277 0.00013
54.45200 7473.21294 7472.60507 0.00013
54.45600 7660.80483 7471.78794 0.00013
54.46000 7531.57584 7470.98280 0.00013
54.46400 7466.76843 7470.19100 0.00013
54.46800 7386.04897 7469.41384 0.00014
54.47200 7588.53021 7468.65250 0.00013
54.47600 7464.85520 7467.90814 0.00013
54.48000 7427.73144 7467.18179 0.00013
54.48400 7519.63535 7466.47444 0.00013
54.48800 7543.11658 7465.78699 0.00013
54.49200 7399.66755 7465.12026 0.00014
54.49600 7469.74075 7464.47498 0.00013
54.50000 7268.62047 7463.85182 0.00014
54.50400 7383.14709 7463.25137 0.00014
54.50800 7401.80410 7462.67412 0.00014
54.51200 7433.84243 7462.12051 0.00013
54.51600 7460.53929 7461.59074 0.00013
54.52000 7569.81182 7461.08353 0.00013
54.52400 7428.67634 7460.60228 0.00013
54.52800 7264.73596 7460.14045 0.00014
54.53200 7387.21048 7459.70889 0.00014
54.53600 7516.21081 7459.30201 0.00013
54.54000 7479.52941 7458.91975 0.00013
54.54400 7539.45169 7458.56198 0.00013
54.54800 7403.39154 7458.22851 0.00014
54.55200 7361.40394 7457.91909 0.00014
54.55600 7535.86745 7457.63343 0.00013
54.56000 7437.78866 7457.37115 0.00013
54.56400 7539.09369 7457.13187 0.00013
54.56800 7409.62470 7456.91511 0.00013
54.57200 7475.45636 7456.72039 0.00013
54.57600 7336.95209 7456.54718 0.00014
54.58000 7504.82619 7456.39489 0.00013
54.58400 7550.61485 7456.26293 0.00013
54.58800 7371.26784 7456.15065 0.00014
54.59200 7446.94980 7456.05742 0.00013
54.59600 7393.08651 7455.98254 0.00014
54.60000 7416.30743 7455.92534 0.00013
54.60400 7474.84775 7455.88511 0.00013
54.60800 7392.20542 7455.86115 0.00014
54.61200 7351.92042 7455.85275 0.00014
54.61600 7338.13442 7455.85922 0.00014
54.62000 7448.84323 7455.87987 0.00013
54.62400 7594.59356 7455.91403 0.00013
54.62800 7674.92015 7455.96104 0.00013
54.63200 7449.50795 7456.02028 0.00013
54.63600 7629.08038 7456.09116 0.00013
54.64000 7512.77908 7456.17310 0.00013
54.64400 7463.81182 7456.26560 0.00013
54.64800 7503.99283 7456.36816 0.00013
54.65200 7630.77423 7456.48036 0.00013
54.65600 7625.98190 7456.60181 0.00013
54.66000 7632.54458 7456.73218 0.00013
54.66400 7596.21533 7456.87119 0.00013
54.66800 7576.71261 7457.01862 0.00013
54.67200 7436.41735 7457.17431 0.00013
54.67600 7511.96690 7457.33814 0.00013
54.68000 7586.91003 7457.51007 0.00013
54.68400 7545.50040 7457.69011 0.00013
54.68800 7587.13042 7457.87831 0.00013
54.69200 7649.13442 7458.07480 0.00013
54.69600 7555.47724 7458.27968 0.00013
54.70000 7558.52475 7458.49289 0.00013
54.70400 7489.36944 7458.71416 0.00013
54.70800 7594.55603 7458.94594 0.00013
54.71200 7536.33404 7459.18728 0.00013
54.71600 7508.32606 7459.43858 0.00013
54.72000 7624.33611 7459.70022 0.00013
54.72400 7480.56912 7459.97264 0.00013
54.72800 7517.44158 7460.25627 0.00013
54.73200 7423.54698 7460.55157 0.00013
54.73600 7364.05590 7460.85896 0.00014
54.74000 7426.46793 7461.17602 0.00013
54.74400 7511.24461 7461.50883 0.00013
54.74800 7474.91775 7461.84579 0.00013
54.75200 7359.20708 7462.20636 0.00014
54.75600 7493.72432 7462.58131 0.00013
54.76000 7381.18765 7462.97105 0.00014
54.76400 7569.82672 7463.37597 0.00013
54.76800 7377.00133 7463.79641 0.00014
54.77200 7326.51291 7464.23270 0.00014
54.77600 7512.38914 7464.68513 0.00013
54.78000 7489.56774 7465.15395 0.00013
54.78400 7418.20761 7465.63939 0.00013
54.78800 7509.50812 7466.14163 0.00013
54.79200 7549.25146 7466.66080 0.00013
54.79600 7592.59542 7467.19702 0.00013
54.80000 7571.63561 7467.75034 0.00013
54.80400 7400.19324 7468.32080 0.00014
54.80800 7495.22926 7468.90833 0.00013
54.81200 7428.91536 7469.51279 0.00013
54.81600 7437.29199 7470.13363 0.00013
54.82000 7333.32047 7470.77222 0.00014
54.82400 7447.65185 7471.42758 0.00013
54.82800 7501.98327 7472.09954 0.00013
54.83200 7621.61858 7472.78794 0.00013
54.83600 7494.33457 7473.49255 0.00013
54.84000 7447.96274 7474.21317 0.00013
54.84400 7404.67907 7474.94957 0.00014
54.84800 7429.17648 7475.70148 0.00013
54.85200 7476.52782 7476.46867 0.00013
54.85600 7454.94890 7477.25086 0.00013
54.86000 7507.62417 7478.04780 0.00013
54.86400 7437.51584 7478.85921 0.00013
54.86800 7485.38595 7479.68482 0.00013
54.87200 7558.87623 7480.52435 0.00013
54.87600 7456.11871 7481.37753 0.00013
54.88000 7477.97099 7482.24409 0.00013
54.88400 7474.42108 7483.12374 0.00013
54.88800 7570.21613 7484.01620 0.00013
54.89200 7569.55496 7484.92119 0.00013
54.89600 7575.30237 7485.83840 0.00013
54.90000 7604.46766 7486.76754 0.00013
54.90400 7545.03833 7487.70827 0.00013
54.90800 7714.92281 7488.66026 0.00013
54.91200 7596.48350 7489.62316 0.00013
54.91600 7526.40085 7490.59657 0.00013
54.92000 7503.70162 7491.58010 0.00013
54.92400 7526.28879 7492.57327 0.00013
54.92800 7452.98802 7493.57537 0.00013
54.93200 7599.03927 7494.58568 0.00013
54.93600 7587.35693 7495.60479 0.00013
54.94000 7372.26404 7496.63137 0.00014
54.94400 7576.35800 7497.66476 0.00013
54.94800 7532.76706 7498.70422 0.00013
54.95200 7473.16449 7499.74898 0.00013
54.95600 7460.01517 7500.79820 0.00013
54.96000 7610.72083 7501.85097 0.00013
54.96400 7496.66250 7502.90631 0.00013
54.96800 7444.56561 7503.96321 0.00013
54.97200 7525.12137 7505.02055 0.00013
54.97600 7444.01650 7506.07717 0.00013
54.98000 7625.64067 7507.13184 0.00013
54.98400 7528.79186 7508.18327 0.00013
54.98800 7471.37477 7509.23009 0.00013
54.99200 7482.34336 7510.27089 0.00013
54.99600 7433.53665 7511.30419 0.00013
55.00000 7515.20601 7512.32844 0.00013
