#------------------------------------------------------------------------------
#$Date: 2021-02-05 00:27:37 +0200 (Fri, 05 Feb 2021) $
#$Revision: 261525 $
#$URL: file:///home/coder/svn-repositories/cod/cif/7/12/75/7127528.cif $
#------------------------------------------------------------------------------
#
# This file is available in the Crystallography Open Database (COD),
# http://www.crystallography.net/
#
# All data on this site have been placed in the public domain by the
# contributors.
#
data_7127528
loop_
_publ_author_name
'Chen, Xi'
'Zhang, Zhongyue'
'Chen, Jin'
'Sapchenko, Sergei'
'Han, Xue'
'da-Silva, Ivan'
'Li, Ming'
'Vitorica-Yrezabal, Inigo J'
'Whitehead, George'
'Tang, Chiu C.'
'Awaga, Kunio'
'Yang, Sihai'
'Schr\"oder, Martin'
_publ_section_title
;
 Enhanced proton conductivity in a flexible metal-organic framework
 promoted by single-crystal-to-single-crystal transformation.
;
_journal_issue                   1
_journal_name_full
'Chemical communications (Cambridge, England)'
_journal_page_first              65
_journal_page_last               68
_journal_paper_doi               10.1039/d0cc05270a
_journal_volume                  57
_journal_year                    2021
_chemical_formula_moiety         'C16 H8 O9 Pb2'
_chemical_formula_sum            'C16 H8 O9 Pb2'
_chemical_formula_weight         758.60
_space_group_crystal_system      triclinic
_space_group_IT_number           2
_space_group_name_Hall           '-P 1'
_space_group_name_H-M_alt        'P -1'
_atom_sites_solution_hydrogens   mixed
_audit_creation_date             2020-04-07
_audit_creation_method
;
Olex2 1.3
(compiled 2020.02.04 svn.rd84adfe8 for OlexSys, GUI svn.r6032)
;
_audit_update_record
;
2020-04-07 deposited with the CCDC.	2020-11-17 downloaded from the CCDC.
;
_cell_angle_alpha                81.482(17)
_cell_angle_beta                 74.95(2)
_cell_angle_gamma                73.334(18)
_cell_formula_units_Z            2
_cell_length_a                   7.3121(17)
_cell_length_b                   9.4816(17)
_cell_length_c                   11.803(3)
_cell_measurement_reflns_used    757
_cell_measurement_temperature    99.8(8)
_cell_measurement_theta_max      70.0930
_cell_measurement_theta_min      5.9750
_cell_volume                     754.6(3)
_computing_cell_refinement       'CrysAlisPro 1.171.40.53 (Rigaku OD, 2019)'
_computing_data_collection       'CrysAlisPro 1.171.40.53 (Rigaku OD, 2019)'
_computing_data_reduction        'CrysAlisPro 1.171.40.53 (Rigaku OD, 2019)'
_computing_molecular_graphics    'Olex2 1.3 (Dolomanov et al., 2009)'
_computing_publication_material  'Olex2 1.3 (Dolomanov et al., 2009)'
_computing_structure_refinement  'SHELXL 2018/3 (Sheldrick, 2015)'
_computing_structure_solution    'SHELXT  (Sheldrick, 2015)'
_diffrn_ambient_temperature      99.8(8)
_diffrn_detector_area_resol_mean 10.0000
_diffrn_measured_fraction_theta_full 0.955
_diffrn_measured_fraction_theta_max 0.911
_diffrn_measurement_details
;
List of Runs (angles in degrees, time in seconds):

  # Type    Start    End  Width  t~exp~   \w     \q     \k     \f   Frames
#--------------------------------------------------------------------------
  1  \w    -27.00  28.00   1.00    1.00    --    5.00 -66.00-103.00   55
  2  \w    -80.00   2.00   1.00    1.00    --  -44.10  66.00  31.00   82
  3  \w   -112.00 -80.00   1.00    1.00    --  -44.10 -66.00-103.00   32
  4  \w   -143.00 -77.00   1.00    1.00    -- -107.20  66.00  31.00   66
  5  \w    -76.00 -30.00   1.00    1.00    -- -107.20  66.00  31.00   46
  6  \w   -159.00 -99.00   1.00    1.00    -- -107.20 -66.00-103.00   60
  7  \w     -8.00  19.00   1.00    1.00    --    5.00  66.00  31.00   27
  8  \w    -37.00  41.00   1.00    1.00    --  -44.10  76.00-180.00   78
  9  \w    -78.00 -40.00   1.00    1.00    --  -44.10  76.00-180.00   38
 10  \w    -75.00  39.00   1.00    1.00    --  -44.10  76.00  90.00  114
 11  \w    -77.00 -15.00   1.00    1.00    --  -44.10 -66.00-103.00   62
 12  \w    -69.00 -35.00   1.00    1.00    -- -107.20  76.00-150.00   34
 13  \w   -106.00 -72.00   1.00    1.00    -- -107.20  76.00-150.00   34
 14  \w   -146.00 -98.00   1.00    1.00    -- -107.20  38.00-120.00   48
 15  \w    -47.00 -20.00   1.00    1.00    -- -107.20  76.00 -60.00   27
 16  \w   -112.00 -70.00   1.00    1.00    -- -107.20  76.00 -60.00   42
 17  \w   -195.00 -95.00   1.00    1.00    -- -107.20 -19.00  60.00  100
 18  \w    -94.00 -18.00   1.00    1.00    -- -107.20 -19.00  60.00   76
 19  \w   -147.00 -47.00   1.00    1.00    -- -107.20  76.00-180.00  100
 20  \w   -148.00-107.00   1.00    1.00    -- -107.20  76.00-150.00   41
 21  \w   -131.00 -21.00   1.00    1.00    -- -107.20  76.00  30.00  110
 22  \w    -82.00 -18.00   1.00    1.00    -- -107.20  38.00  30.00   64
 23  \w   -139.00-103.00   1.00    1.00    -- -107.20  38.00  30.00   36
 24  \w    -97.00 -18.00   1.00    1.00    -- -107.20  38.00-120.00   79
;
_diffrn_measurement_device       'four-circle diffractometer'
_diffrn_measurement_device_type  'XtaLAB AFC11 (RINC): Kappa single'
_diffrn_measurement_method       '\w scans'
_diffrn_radiation_type           CuK\a
_diffrn_radiation_wavelength     1.54184
_diffrn_reflns_av_unetI/netI     0.0397
_diffrn_reflns_Laue_measured_fraction_full 0.955
_diffrn_reflns_Laue_measured_fraction_max 0.911
_diffrn_reflns_limit_h_max       9
_diffrn_reflns_limit_h_min       -9
_diffrn_reflns_limit_k_max       11
_diffrn_reflns_limit_k_min       -11
_diffrn_reflns_limit_l_max       14
_diffrn_reflns_limit_l_min       -14
_diffrn_reflns_number            5354
_diffrn_reflns_point_group_measured_fraction_full 0.955
_diffrn_reflns_point_group_measured_fraction_max 0.911
_diffrn_reflns_theta_full        67.684
_diffrn_reflns_theta_max         75.946
_diffrn_reflns_theta_min         3.891
_exptl_absorpt_coefficient_mu    43.406
_exptl_absorpt_correction_T_max  1.00000
_exptl_absorpt_correction_T_min  0.66426
_exptl_absorpt_correction_type   multi-scan
_exptl_absorpt_process_details
;
CrysAlisPro 1.171.40.53 (Rigaku Oxford Diffraction, 2019)
Empirical absorption correction using spherical harmonics,
 implemented in SCALE3 ABSPACK scaling algorithm.
;
_exptl_crystal_colour            'clear light colourless'
_exptl_crystal_colour_lustre     clear
_exptl_crystal_colour_modifier   light
_exptl_crystal_colour_primary    colourless
_exptl_crystal_density_diffrn    3.338
_exptl_crystal_description       needle
_exptl_crystal_F_000             680
_exptl_crystal_size_max          0.24
_exptl_crystal_size_mid          0.051
_exptl_crystal_size_min          0.031
_refine_diff_density_max         10.433
_refine_diff_density_min         -5.235
_refine_diff_density_rms         0.633
_refine_ls_extinction_method     none
_refine_ls_goodness_of_fit_ref   1.202
_refine_ls_hydrogen_treatment    constr
_refine_ls_matrix_type           full
_refine_ls_number_parameters     246
_refine_ls_number_reflns         5354
_refine_ls_number_restraints     193
_refine_ls_restrained_S_all      1.182
_refine_ls_R_factor_all          0.1251
_refine_ls_R_factor_gt           0.1003
_refine_ls_shift/su_max          0.000
_refine_ls_shift/su_mean         0.000
_refine_ls_structure_factor_coef Fsqd
_refine_ls_weighting_details
'w=1/[\s^2^(Fo^2^)+(0.2000P)^2^] where P=(Fo^2^+2Fc^2^)/3'
_refine_ls_weighting_scheme      calc
_refine_ls_wR_factor_gt          0.2797
_refine_ls_wR_factor_ref         0.3038
_reflns_Friedel_coverage         0.000
_reflns_number_gt                3809
_reflns_number_total             5354
_reflns_threshold_expression     'I > 2\s(I)'
_twin_special_details
;
Component 2 rotated by -179.9275\% 
 around [0.33 0.88 0.33] (reciprocal) or [0.26 0.96 0.09] (direct)
;
_cod_data_source_file            d0cc05270a2.cif
_cod_data_source_block           rms139_twin1_hklf4
_cod_depositor_comments
'Adding full bibliography for 7127527--7127529.cif.'
_cod_database_code               7127528
_shelx_shelxl_version_number     2018/3
_shelx_space_group_comment
;
The symmetry employed for this shelxl refinement is uniquely defined
by the following loop, which should always be used as a source of
symmetry information in preference to the above space-group names.
They are only intended as comments.
;
_shelx_estimated_absorpt_t_max   0.346
_shelx_estimated_absorpt_t_min   0.034
_olex2_refinement_description
;
1. Twinned data refinement
 Scales: 0.442(3)
 0.558(3)
2. Fixed Uiso
 At 1.2 times of:
  All C(H) groups
 At 1.5 times of:
  All O(H,H) groups
3. Rigid body (RIGU) restrains
 C14, Pb01, O00M, C00E, C004, O006, C00D, C00O, C00V, C00F, C00Q, C005, C00R,
 C00S, O00C, O00L, C00J, C00W, Pb02, C003, C00K, C00N, O00B, O00P, O008, O009
 with sigma for 1-2 distances of 0.002 and sigma for 1-3 distances of 0.002
4.a Rotating group:
 O4(H4A,H4B)
4.b Aromatic/amide H refined with riding coordinates:
 C00D(H00D), C00F(H00F), C00K(H00K), C00R(H00R), C00S(H00S), C14(H14)
;
_shelx_res_file
;
TITL rms139_twin1_hklf4_a.res in P-1
    rms139_twin1_hklf4.res
    created by SHELXL-2018/3 at 15:25:37 on 07-Apr-2020
REM Old TITL rms139_twin1_hklf4_a.res in P-1
REM SHELXT solution in P-1: R1 0.304, Rweak 0.081, Alpha 0.100
REM <I/s> 0.000 for 0 systematic absences, Orientation as input
REM Formula found by SHELXT: C27 O5 Pb2
CELL 1.54184 7.3121 9.4816 11.8029 81.482 74.954 73.334
ZERR 2 0.0017 0.0017 0.0028 0.017 0.021 0.018
LATT 1
SFAC C H O Pb
UNIT 32 16 18 4
RIGU 0.002 0.002 C14 Pb01 O00M C00E C004 O006 C00D C00O C00V C00F C00Q C005 =
 C00R C00S O00C O00L C00J C00W PB02 C003 C00K C00N O00B O00P O008 O009

L.S. 20 0 0
PLAN  5
SIZE 0.031 0.051 0.24
TEMP -173.3(8)
CONF
BOND
list 4
MORE -1
BOND $H
fmap 2 53
acta
MERG 0
REM <olex2.extras>
REM <HklSrc "%.\\rms139_twin1_hklf4.hkl">
REM </olex2.extras>

WGHT    0.200000
BASF   0.55814
FVAR       4.12647
PB01  4    0.597105    0.256058    0.032993    11.00000    0.04349    0.02425 =
         0.03552    0.01115   -0.00205    0.00232
PB02  4    0.162192    1.053671    0.234224    11.00000    0.04515    0.02257 =
         0.04126    0.01097   -0.00137    0.00040
C003  1    0.303568    0.065572    0.891495    11.00000    0.06857    0.01995 =
         0.03796    0.00594   -0.01137    0.00292
C004  1    0.548667    0.336105    0.344894    11.00000    0.05334    0.02604 =
         0.04026    0.01546   -0.00433   -0.00030
C005  1    0.260837    0.733363    0.297437    11.00000    0.05036    0.02047 =
         0.03255    0.00373   -0.00556   -0.00576
O006  3    0.824719    0.133190    0.357672    11.00000    0.05423    0.03528 =
         0.04765    0.01320   -0.00810    0.00253
O008  3   -0.297241    0.508217    0.990717    11.00000    0.04703    0.02870 =
         0.04739    0.01291   -0.01421    0.00045
O009  3   -0.254578    0.680234    0.846162    11.00000    0.04187    0.03330 =
         0.04369    0.01310   -0.00201   -0.00164
O00B  3    0.448789   -0.025065    0.830800    11.00000    0.05782    0.02205 =
         0.04596    0.00868   -0.00622   -0.00011
O00C  3    0.129992    0.826502    0.361110    11.00000    0.05074    0.02368 =
         0.03682    0.00761    0.00055   -0.00207
C00D  1    0.454724    0.303016    0.461466    11.00000    0.04150    0.02474 =
         0.04271    0.01555   -0.00522   -0.00540
AFIX  43
H00D  2    0.498639    0.207376    0.498232    11.00000   -1.20000
AFIX   0
C00E  1    0.737372    0.228496    0.287904    11.00000    0.04827    0.02262 =
         0.04096    0.00987   -0.00583   -0.00558
C00F  1    0.241013    0.543408    0.463106    11.00000    0.04677    0.02466 =
         0.05091    0.01349   -0.00945   -0.00404
AFIX  43
H00F  2    0.137363    0.617966    0.503069    11.00000   -1.20000
AFIX   0
C00J  1    0.215586    0.203458    0.829234    11.00000    0.04664    0.02469 =
         0.04866    0.01567   -0.00991   -0.00570
C00K  1    0.063601    0.305037    0.892451    11.00000    0.03826    0.02697 =
         0.04593    0.01526   -0.01172   -0.00824
AFIX  43
H00K  2    0.012484    0.282494    0.973622    11.00000   -1.20000
AFIX   0
O00L  3    0.340181    0.763677    0.190949    11.00000    0.05016    0.02590 =
         0.03456    0.00916   -0.00513   -0.00136
O00M  3    0.800998    0.239879    0.181393    11.00000    0.05219    0.03800 =
         0.04123    0.01070   -0.00351   -0.00562
C00N  1   -0.200173    0.550790    0.895665    11.00000    0.05486    0.03216 =
         0.04564    0.01048   -0.01223   -0.00205
C00O  1    0.296409    0.407403    0.526375    11.00000    0.03799    0.02562 =
         0.04641    0.01340   -0.00712   -0.00727
O00P  3    0.229682    0.032791    0.998044    11.00000    0.07639    0.03716 =
         0.04653    0.01930   -0.00396    0.01740
C00Q  1    0.213422    0.368769    0.651063    11.00000    0.04455    0.02524 =
         0.04427    0.01283   -0.00757   -0.00509
C00R  1    0.287308    0.234565    0.710043    11.00000    0.04671    0.02670 =
         0.04883    0.01657   -0.00764   -0.00482
AFIX  43
H00R  2    0.390120    0.161925    0.667359    11.00000   -1.20000
AFIX   0
C00S  1    0.065226    0.469488    0.709118    11.00000    0.05085    0.02706 =
         0.03858    0.01092   -0.01544   -0.00020
AFIX  43
H00S  2    0.010303    0.559956    0.668962    11.00000   -1.20000
AFIX   0
C00V  1    0.329544    0.579349    0.341296    11.00000    0.02656    0.02387 =
         0.05231    0.01367   -0.01535   -0.01340
C00W  1   -0.014551    0.439598    0.837981    11.00000    0.06497    0.01906 =
         0.03455    0.00169   -0.01656   -0.00496
C14   1    0.481538    0.477863    0.288747    11.00000    0.05585    0.03105 =
         0.04697    0.02136   -0.00510    0.00106
AFIX  43
H14   2    0.548097    0.500743    0.210622    11.00000   -1.20000
AFIX   0
O4    3    0.199427    1.078109    0.445469    11.00000    0.06369    0.03884 =
         0.05582    0.00737   -0.00472   -0.02325
AFIX   7
H4A   2    0.141311    1.019699    0.497580    11.00000   -1.50000
H4B   2    0.135615    1.166172    0.467917    11.00000   -1.50000
AFIX   0
HKLF 5




REM  rms139_twin1_hklf4_a.res in P-1
REM wR2 = 0.3038, GooF = S = 1.202, Restrained GooF = 1.182 for all data
REM R1 = 0.1003 for 3809 Fo > 4sig(Fo) and 0.1251 for all 5354 data
REM 246 parameters refined using 193 restraints

END

WGHT      0.2000      0.0000

REM Highest difference peak 10.433,  deepest hole -5.235,  1-sigma level  0.633
Q1    1   0.0793  1.0184  0.2034  11.00000  0.05   10.43
Q2    1   0.5196  0.2172  0.0047  11.00000  0.05    9.66
Q3    1   0.6816  0.2993  0.0634  11.00000  0.05    8.59
Q4    1   0.2404  1.0988  0.2616  11.00000  0.05    6.94
Q5    1   0.5706  0.3947  0.0345  11.00000  0.05    4.39
;
_shelx_res_checksum              74199
_shelx_hkl_file
;
   0   0   1 217476. 824.249   1
   0   0   2 8907.29 827.909   1
   0   0   3 35600.2 848.482   1
   0   0   4 258414. 1536.28   1
   0   0   5 94517.0 1461.74   1
   0   0   6 3510.59 1186.72   1
   0   0   7 6454.27 1801.80   1
   0   0   8 13773.4 751.027   1
   0   0   9 6626.84 945.891   1
   0   0  10 20049.1 1162.40   1
   1   2  -9 55502.4 2518.19  -2
   0   0  10 55502.4 2518.19   1
   0   0 -11 17717.3 1066.50   1
   1   2 -10 53356.2 2485.09  -2
   0   0  11 53356.2 2485.09   1
   0   0  12 3817.05 879.950   1
   0   0  13 708.635 721.056   1
   0   0  14 4960.00 959.762   1
   0  -1  12 18232.5 1105.84  -2
   0   1 -12 18232.5 1105.84   1
   0   1 -11 3117.91 1138.68  -2
   0  -1  11 3117.91 1138.68   1
   0  -1  10 31194.9 1354.23  -2
   0   1 -10 31194.9 1354.23   1
   0  -1   9 374962. 2756.61  -2
   0   1  -9 374962. 2756.61   1
   0  -1   8 102813. 3025.79   1
   0  -1   8 240541. 3325.58  -2
   0   1  -8 240541. 3325.58   1
   0  -1   7 1337.51 1991.14   1
   0  -1   6 5913.81 2125.02   1
   0  -1   5 358773. 2142.16   1
   0  -1   4 175293. 1373.10   1
   0  -1   3 752.809 478.775   1
   0  -1   2 33581.8 418.673   1
   0   1  -1 61552.6 477.360   1
   0   1   0 84536.2 331.200   1
   0   1   1 13114.6 380.194   1
   0   1   2 273880. 705.826   1
   0   1   3 58507.5 463.148   1
   0   1   4 8183.76 1320.55   1
   0   1   5 23357.6 1175.14   1
   1   2  -5 607182. 4006.04  -2
   0   1   6 607182. 4006.04   1
   1   2  -6 330214. 3912.95  -2
   0   1   7 330214. 3912.95   1
   1   2  -7 1604.60 1261.58  -2
   0   1   8 1604.60 1261.58   1
   1   2  -8 10280.5 1495.58  -2
   0   1   9 10280.5 1495.58   1
   0   1  10 58595.2 1348.09   1
   0   1  11 22130.2 1263.99   1
   0   1  12 409.106 841.532   1
   0   1  13 1097.64 702.699   1
   0   1  14 1881.42 692.611   1
   0   2 -13 19214.2 1334.70   1
   0   2 -12 5670.26 1049.91   1
   0  -2  11 3986.60 954.036   1
   0   2 -10 7219.30 996.544   1
   0  -2   9 74282.0 1078.23   1
   0  -2   8 2034.79 618.836   1
   0  -2   7 43968.5 1357.59   1
   1   0   8 209942. 3064.17  -2
   0   2  -7 209942. 3064.17   1
   0  -2   6 40665.0 1446.05   1
  -1  -1  -6 21218.6 3186.13  -2
   0  -2   5 21218.6 3186.13   1
  -1  -1  -5 10060.7 1498.05  -2
   0  -2   4 10060.7 1498.05   1
   1   1   4 718086. 1833.05  -2
   0   2  -3 718086. 1833.05   1
   0   2  -2 313536. 943.068   1
   0   2  -1 2155.95 582.741   1
   0   2   0 6452.65 400.121   1
   0   2   1 279855. 1048.31   1
   0   2   2 158693. 814.709   1
   0   2   3 11789.8 424.625   1
   0   2   4 24641.8 619.773   1
   0   2   5 35733.1 1298.37   1
   0   2   6 92057.1 1497.20   1
   2   3  -6 129308. 2051.22  -2
   0   2   8 129308. 2051.22   1
   2   3  -7 22762.2 1298.89  -2
   0   2   9 22762.2 1298.89   1
   2   3  -8 48849.9 1752.91  -2
   0   2  10 48849.9 1752.91   1
   0   2  11 442.683 1675.70   1
   2   3  -9 42047.3 2204.53  -2
   0   2  11 42047.3 2204.53   1
   0   2  12 19245.8 932.213   1
   0   2  13 8105.29 690.767   1
   0   2  14 65.1259 665.661   1
   0   3 -13-132.665 1095.44   1
   0   3 -12 16713.3 1761.63   1
   0  -3  11 67754.8 1638.68   1
   0   3 -10 9481.30 1315.93   1
   0  -3   9 834.306 1116.96   1
   0  -3   8 67714.0 1413.92   1
   0   3  -7 225196. 1867.63   1
   0  -3   6 46488.1 1303.87   1
   0  -3   5 2975.86 803.282   1
   0   3  -4 34059.0 772.006   1
   0   3  -3 361208. 1321.24   1
   0  -3   2 38243.0 877.352   1
   2   2   3 280493. 2430.93  -2
   0   3  -1 280493. 2430.93   1
   0  -3   0 28332.6 428.174   1
   2   2   2 145651. 1819.33  -2
   0   3   0 145651. 1819.33   1
   0   3   1 21258.5 622.438   1
   0   3   2 131.056 546.712   1
   0  -3  -3 99624.3 915.776   1
   0  -3  -4 167866. 2140.96   1
   2   3  -2 526481. 3003.68  -2
   0   3   4 526481. 3003.68   1
   0  -3  -5 7667.86 992.829   1
   0   3   6 1304.63 1419.10   1
   0   3   7 46281.4 1245.37   1
   0   3   8 66091.5 1321.05   1
   0   3   9 13878.1 990.002   1
   0   3  10-248.385 912.382   1
   3   4  -7 2383.07 2077.04  -2
   0   3  10 2383.07 2077.04   1
   0   3  11 1142.75 821.838   1
   0   3  12 7607.98 1078.72   1
   0   3  13 1318.78 1267.45   1
   0   3  14 1097.60 846.359   1
   2   1  14 49721.6 1621.62  -2
   0   4 -12 49721.6 1621.62   1
   2   1  13 39022.2 2004.70  -2
   0   4 -11 39022.2 2004.70   1
   2   1  12 17970.3 2847.85  -2
   0   4 -10 17970.3 2847.85   1
  -2  -2 -10 54883.7 1834.61  -2
   0  -4   8 54883.7 1834.61   1
   0  -4   7 686.248 1037.76   1
   0  -4   6 52807.8 1733.06   1
   0  -4   5 165388. 2208.09   1
   0  -4   4 30154.3 1353.09   1
   0  -4   3 2750.79 955.994   1
   0   4  -2 38742.0 1163.90   1
   0   4  -1 652609. 3549.70   1
   0   4   0 210593. 2292.79   1
   0  -4  -1 1537.99 628.507   1
   0   4   2 12045.9 739.226   1
   0   4   3 118598. 1096.80   1
   0   4   4 169454. 1253.45   1
   3   4  -2 4861.91 976.701  -2
   0   4   5 4861.91 976.701   1
   3   4  -3 43571.9 2204.98  -2
   0   4   6 43571.9 2204.98   1
   0   4   7 4011.29 1305.47   1
   3   4  -4 11723.7 2065.79  -2
   0   4   7 11723.7 2065.79   1
   0   4   8 2154.61 784.100   1
   0   4   9 13683.9 998.482   1
   0   4  10 4911.47 866.820   1
   0   4  11-345.041 1428.97   1
   0   4  12-2100.33 1234.75   1
   0   4  13 1314.66 755.257   1
   0   5 -12-1402.65 818.156   1
   0   5 -11 6466.24 1194.92   1
   0   5 -10 101880. 1980.03   1
   0  -5   9 68570.5 1899.76   1
   0  -5   8-42.3283 2148.16   1
   3   3   9 198327. 3754.71  -2
   0   5  -6 198327. 3754.71   1
  -3  -3  -8 215927. 2587.84  -2
   0  -5   5 215927. 2587.84   1
  -3  -3  -7 2401.05 1764.86  -2
   0  -5   4 2401.05 1764.86   1
   0  -5   3 22983.7 1778.48   1
   0  -5   2 18997.6 1839.94   1
   0  -5   1 73381.2 2167.77   1
   0   5   0 6412.53 1302.72   1
   0  -5  -1 136694. 2488.89   1
   0  -5  -2 43376.0 1975.80   1
   0   5   3 1655.27 778.774   1
   0   5   4 13389.1 922.711   1
   0  -5  -5 99061.7 1415.15   1
   4   5  -3 6750.13 2132.03  -2
   0   5   7 6750.13 2132.03   1
   4   5  -4 3105.39 1637.56  -2
   0   5   8 3105.39 1637.56   1
   0   5   9 16976.3 1188.16   1
   0   5  10 9976.13 853.086   1
   0   5  11 11.6488 680.654   1
   0  -6  11 3332.04 892.134   1
   0  -6  10 33299.6 1877.92   1
   0  -6   9 2693.84 1858.71   1
   0  -6   8 23550.4 2227.43   1
   0   6  -7 25449.0 1626.08   1
   0  -6   6 6969.19 1350.19   1
   0  -6   5-459.413 1062.20   1
   0  -6   4 190595. 1512.30   1
   0   6  -3 175963. 1451.40   1
  -4  -4  -6 25624.8 1288.60  -2
   0  -6   2 25624.8 1288.60   1
   0   6  -1 975.874 1996.06   1
   4   4   5 562.443 1582.21  -2
   0   6  -1 562.443 1582.21   1
  -4  -5  -3 198179. 3416.71  -2
   0  -6  -1 198179. 3416.71   1
   4   5   2 54201.1 2250.52  -2
   0   6   2 54201.1 2250.52   1
   0  -6  -3 17850.1 1181.23   1
   0   6   4 12040.2 1174.31   1
   0   6   5 49730.4 1417.27   1
   0   6   6 1039.19 2159.61   1
   0   6   7 8354.72 1590.25   1
   0   6   8 4316.19 1560.12   1
   0   6   9-840.199 725.193   1
   0   6  10-634.812 647.080   1
   0   6  11 6396.66 706.126   1
   0   6  12 5994.65 1012.36   1
  -4  -4 -14 5753.98 1029.88  -2
   0  -7  10 5753.98 1029.88   1
   4   4  13 43744.9 1656.76  -2
   0   7  -9 43744.9 1656.76   1
   0  -7   8 110521. 1888.87   1
   0  -7   7 39846.9 1600.84   1
   0   7  -6-740.542 1379.41   1
   0   7  -5 10952.0 1476.39   1
   0  -7   4 131628. 1586.49   1
   0  -7   3 44225.6 1100.30   1
   0   7  -2 34479.5 966.695   1
   0   7  -1 25404.9 1029.36   1
   0   7   0 13769.3 1505.03   1
   0   7   1 9691.96 1208.47   1
   0   7   2 52412.7 1986.62   1
   0   7   3 97461.7 1800.21   1
  -5  -6  -1 90015.4 2503.73  -2
   0  -7  -4 90015.4 2503.73   1
   5   6   0 1547.64 2031.86  -2
   0   7   5 1547.64 2031.86   1
   0   7   6 18992.8 1148.89   1
   0   7   7 24293.3 1639.53   1
   0   7   8 4395.42 1342.39   1
   5   7  -4 394.928 1623.22  -2
   0   7   9 394.928 1623.22   1
   0   7  10 17.5206 679.370   1
   0   7  11 3918.06 767.584   1
   0   8  -7 14023.9 1733.33   1
   5   5  11 99024.5 3207.82  -2
   0   8  -6 99024.5 3207.82   1
   5   5  10 61849.3 2221.80  -2
   0   8  -5 61849.3 2221.80   1
   0   8  -4 47.5189 1462.06   1
   0   8  -3 40343.2 2891.11   1
   5   6   8 46600.7 2415.88  -2
   0   8  -3 46600.7 2415.88   1
   5   6   7 168625. 2539.26  -2
   0   8  -2 168625. 2539.26   1
   0   8  -1 71129.7 1604.95   1
   0   8   0-851.647 1552.57   1
   0   8   1 6064.37 1291.31   1
   0  -8  -2 43305.2 2584.71   1
   0   8   3 60127.9 1754.21   1
   0   8   4 25.4593 1787.52   1
   0   8   5 3576.01 1772.35   1
   0   8   6 2048.88 1108.98   1
   0   8   7 2496.06 1368.35   1
   0   8   8 1996.81 933.463   1
   0   8   9 9066.04 873.400   1
   0   8  10 1007.92 692.602   1
   0   9  -6 61416.4 1458.63   1
   0   9  -5 734.710 1076.60   1
   0   9  -4 9004.63 2071.15   1
   0   9  -3 2472.30 1620.59   1
   0   9  -2 27685.4 1854.19   1
   6   6   8 29468.6 3139.57  -2
   0   9  -2 29468.6 3139.57   1
   0   9  -1-487.112 1451.82   1
   0   9   0 41968.4 3087.80   1
   0   9   2-660.991 2548.03   1
   0   9   3 8355.01 2621.70   1
   0   9   4 56249.4 1744.17   1
   0   9   5 16784.3 2445.75   1
   6   8   1 32906.2 2887.73  -2
   0   9   5 32906.2 2887.73   1
   0   9   6 617.422 996.254   1
   0   9   7 860.166 1027.80   1
   0   9   8 5706.73 904.178   1
   0  10  -5 52185.9 1902.35   1
   0  10  -4 57701.7 2504.31   1
   0  10  -3 5653.73 1789.33   1
   0  10  -2 1095.46 2039.71   1
   0  10  -1 26352.4 2452.75   1
   0  10   0 68936.4 2007.87   1
   0  10   1 10807.6 1657.33   1
   0  10   2 4413.42 1609.41   1
   0  10   3 5443.03 1565.46   1
   7   8   3 22800.9 1792.90  -2
   0  10   4 22800.9 1792.90   1
   0  10   5 70.9011 804.725   1
   0  10   6 2535.65 815.573   1
   0  10   7 1788.42 622.089   1
   0  11  -2 10241.2 1568.94   1
   0  11  -1 4730.49 1428.93   1
   0  11   0 6231.91 1171.55   1
   0  11   1 8922.76 1183.48   1
   0  11   2 11627.6 675.437   1
   0  11   3 788.471 564.032   1
   0  11   4-73.6541 515.845   1
  -1  10   5 616.263 702.957   1
  -1  10   4 1339.78 687.064   1
  -1  10   3 43976.4 2140.77   1
  -1  10   2 36522.5 1512.51   1
  -1  10   1-829.994 1831.19   1
  -1  10   0 1245.15 1339.12   1
  -1  10  -1 53901.9 1629.07   1
  -1  10  -2 48138.9 2161.71   1
  -1  10  -3 1878.55 1514.49   1
  -1   9   8 4216.96 598.774   1
  -1   9   5 798.314 1327.01   1
  -1   9   1 19834.2 2581.99   1
  -1   9   0 18802.0 1843.84   1
  -1   9  -1 8799.47 1450.86   1
  -1   9  -2 965.283 1333.67   1
  -1   9  -3 53897.3 1501.69   1
  -1   9  -4 64091.0 1760.45   1
  -1   9  -5 3549.65 1835.71   1
  -1   9  -6-2165.14 1446.08   1
  -1   8   9 505.868 639.352   1
  -1   8   8-40.0285 851.526   1
  -1   8   7 588.580 1093.78   1
  -1   8   6 12418.0 2170.50   1
  -1   8   5 39577.1 1891.42   1
  -1   8   4 4907.06 1746.23   1
  -1   8   3-54.4734 1722.96   1
  -1   8   2 20012.3 2805.17   1
   6   6   5 82299.4 2821.30  -2
  -1   8   0 82299.4 2821.30   1
  -1   8  -1 502.578 1551.16   1
   6   5   7 43620.7 2059.91  -2
  -1   8  -2 43620.7 2059.91   1
   6   5   8 123776. 2364.06  -2
  -1   8  -3 123776. 2364.06   1
  -1   8  -4 15009.1 1814.98   1
  -1   8  -5 10300.8 2422.43   1
  -1   8  -6 12503.2 2259.53   1
  -1   8  -7 8638.82 1874.91   1
  -1   7  10 8300.14 768.400   1
  -1   7   9 5732.50 975.692   1
   6   6  -3 4307.77 2003.08  -2
  -1   7   8 4307.77 2003.08   1
   6   6  -2 28990.4 2771.65  -2
  -1   7   7 28990.4 2771.65   1
  -1   7   6 26781.8 1515.06   1
  -1   7   5 53442.4 2027.15   1
  -1   7   4 1490.17 1291.09   1
   1  -7  -3 11240.8 1374.44   1
  -1   7   2 14949.9 1493.90   1
  -1   7   1 3333.86 1398.09   1
  -1   7   0 35841.9 1421.13   1
  -1   7  -1 119899. 1727.94   1
   1  -7   2 18587.5 1169.55   1
  -1   7  -3 1161.73 1171.19   1
   1  -7   4 20357.6 1059.87   1
  -1   7  -5 219377. 2617.10   1
   5   4  10 122668. 3419.58  -2
  -1   7  -6 122668. 3419.58   1
   5   4  11 18153.4 2578.80  -2
  -1   7  -7 18153.4 2578.80   1
  -1   7  -8 4336.74 1676.15   1
   5   3  13 60663.2 2279.41  -2
  -1   7  -9 60663.2 2279.41   1
  -1   7 -10 47850.5 1398.10   1
  -1   6  11-577.240 876.384   1
  -1   6  10 2805.23 866.005   1
  -1   6   9 614.740 1046.02   1
  -1   6   8 14693.3 1047.63   1
  -1   6   7 3966.76 1015.08   1
  -1   6   6 1454.30 1079.28   1
   5   5  -1 18948.4 1968.99  -2
  -1   6   5 18948.4 1968.99   1
   5   5   0 157208. 2593.42  -2
  -1   6   4 157208. 2593.42   1
  -1   6   3 156300. 1865.67   1
  -1   6   2 11783.2 2223.26   1
  -5  -4  -2 13737.3 2595.50  -2
   1  -6  -2 13737.3 2595.50   1
  -5  -4  -3 9047.90 1298.36  -2
   1  -6  -1 9047.90 1298.36   1
  -1   6   0 165026. 1470.79   1
  -1   6  -1 194419. 2440.48   1
  -1   6  -2 9662.35 1051.81   1
   1  -6   3 5971.89 1073.78   1
  -1   6  -4 15719.0 1072.86   1
   1  -6   5 89811.3 1721.68   1
   1  -6   6-113.220 1283.59   1
   1  -6   7 79011.5 1540.39   1
   1  -6   8 15525.6 1394.88   1
   1  -6   9 1195.88 1225.30   1
  -1   6 -10 1696.72 1050.43   1
  -1   6 -11 33006.9 1515.65   1
  -1   5  12 7655.71 987.591   1
   5   5  -7 2316.08 1087.01  -2
  -1   5  11 2316.08 1087.01   1
  -1   5  10 368.189 1183.42   1
   5   5  -6 1312.09 1693.13  -2
  -1   5  10 1312.09 1693.13   1
  -1   5   9 15390.5 847.157   1
  -1   5   8 47156.2 1096.97   1
  -1   5   7 6326.04 1067.82   1
  -1   5   6 674.291 1340.75   1
  -1   5   5 3061.14 1005.96   1
   1  -5  -4 105061. 2383.68   1
   1  -5  -3 31948.9 1831.36   1
   1  -5  -2 33922.5 1827.70   1
   1  -5  -1 53330.9 1959.91   1
   1  -5   0 11864.7 1118.58   1
  -4  -3  -5 141655. 3446.75  -2
   1  -5   2 141655. 3446.75   1
   4   3   6 156642. 2178.74  -2
  -1   5  -3 156642. 2178.74   1
   1  -5   4 25887.7 1062.20   1
  -1   5  -5 528.171 996.944   1
  -1   5  -6 132606. 2101.12   1
  -1   5  -7 152198. 2530.10   1
  -1   5  -8 17189.7 2077.35   1
  -1   5  -9 5634.25 1377.67   1
   1  -5  10 8115.03 1836.36   1
   1  -5  11 35837.2 1809.45   1
   1  -5  12 3416.20 794.535   1
  -1   4  12 3603.42 821.322   1
  -1   4  11 186.362 956.982   1
  -1   4  10 4849.31 878.215   1
   4   4  -6 19090.2 1328.06  -2
  -1   4   9 19090.2 1328.06   1
   4   4  -5 5145.75 1107.33  -2
  -1   4   8 5145.75 1107.33   1
  -1   4   7 12466.7 1167.20   1
   4   4  -4 32216.7 2189.14  -2
  -1   4   7 32216.7 2189.14   1
  -1   4   6 60638.4 1174.31   1
  -1   4   5 12291.6 1481.63   1
   1  -4  -4 248.151 919.594   1
  -1   4   3 39620.5 885.328   1
  -1   4   2 262216. 1166.39   1
   1  -4  -1 152065. 2192.86   1
  -1   4   0 4274.59 846.483   1
  -1   4  -1 17707.6 1076.86   1
  -1   4  -2 181076. 1368.95   1
  -1   4  -3 155815. 1594.81   1
   1  -4   4 8786.02 1500.07   1
   1  -4   5 40872.6 1760.61   1
   3   2   8 92866.1 1536.58  -2
  -1   4  -6 92866.1 1536.58   1
  -3  -1  -9 58093.2 1691.02  -2
   1  -4   7 58093.2 1691.02   1
  -3  -1 -10 67950.1 2345.18  -2
   1  -4   8 67950.1 2345.18   1
  -3  -1 -11 86706.5 2781.46  -2
   1  -4   9 86706.5 2781.46   1
  -1   4 -10 6413.80 1977.05   1
  -1   4 -11 3862.88 1791.28   1
   1  -4  12 15281.9 1165.60   1
  -1   4 -13 25283.8 1175.15   1
  -1   3  13-1951.56 979.313   1
  -1   3  12 2425.34 1295.57   1
  -1   3  11 24540.6 1847.20   1
  -1   3  10 14316.0 1023.25   1
  -1   3   9 771.828 736.348   1
  -1   3   8 284.813 1214.06   1
   3   3  -6 11169.5 2063.79  -2
  -1   3   8 11169.5 2063.79   1
   3   3  -5 172190. 2161.88  -2
  -1   3   7 172190. 2161.88   1
  -1   3   5 1976.81 1272.70   1
  -1   3   4 36722.9 1083.13   1
  -1   3   3 53099.5 1147.60   1
  -3  -2   0 176195. 2610.85  -2
   1  -3  -2 176195. 2610.85   1
   1  -3  -1 64221.8 783.596   1
   1  -3   0 322946. 1384.42   1
  -1   3  -1 95741.9 1141.91   1
  -1   3  -2 6810.88 638.786   1
   1  -3   3 90131.2 1013.07   1
   1  -3   4 512983. 2185.79   1
   1  -3   5 207355. 2208.44   1
   1  -3   6 3508.32 2257.95   1
   1  -3   7 6111.41 1141.02   1
   1  -3   8 56429.8 1342.46   1
   1  -3   9 103190. 1676.49   1
  -1   3 -10 10520.6 2017.88   1
  -2   0 -11 8746.68 2298.67  -2
   1  -3  10 8746.68 2298.67   1
  -2   0 -12 3265.02 1674.56  -2
   1  -3  11 3265.02 1674.56   1
   2   0  13 37632.4 2516.39  -2
  -1   3 -12 37632.4 2516.39   1
   2   0  14 23565.7 1365.47  -2
  -1   3 -13 23565.7 1365.47   1
   3   3 -11 28840.1 1807.58  -2
  -1   2  13 28840.1 1807.58   1
   3   3 -10 2888.03 2011.22  -2
  -1   2  12 2888.03 2011.22   1
  -1   2   9 27072.6 845.685   1
  -1   2   8 11652.0 1008.35   1
  -1   2   7 215.226 1745.86   1
  -1   2   6-94.1195 1296.68   1
  -1   2   5 237536. 2498.66   1
  -1   2   4 355670. 1171.51   1
   1  -2  -3 14146.4 595.569   1
   1  -2  -2 7995.78 526.717   1
  -1   2   1 237379. 964.896   1
  -1   2   0 437124. 1305.38   1
   2   1   2 41694.4 985.656  -2
  -1   2  -1 41694.4 985.656   1
  -1   2  -2 6696.41 357.427   1
  -1   2  -3 18702.3 517.059   1
   1  -2   4 220661. 922.045   1
   1  -2   5 5.88372 644.851   1
   1  -2   6 89418.3 2735.53   1
   1  -2   7 21764.1 1282.08   1
   1  -2   8 669.424 803.652   1
   1  -2   9 1652.01 1026.50   1
  -1   2 -10 61909.6 1639.51   1
   1  -2  11 54268.9 1582.04   1
   1  -2  12 3260.94 1090.75   1
  -1   2 -13 1847.81 1394.72   1
   1  -2  14 18023.3 1163.08   1
  -1   1  13 19454.0 1021.52   1
   2   2 -11 6869.76 1088.15  -2
  -1   1  12 6869.76 1088.15   1
   2   2 -10 833.684 1209.34  -2
  -1   1  11 833.684 1209.34   1
   2   2  -9 157655. 3011.47  -2
  -1   1  10 157655. 3011.47   1
   2   2  -8 321724. 2914.01  -2
  -1   1   9 321724. 2914.01   1
  -1   1   8 28284.5 1296.71   1
   2   2  -7 81813.5 1652.37  -2
  -1   1   8 81813.5 1652.37   1
  -1   1   7-793.873 1544.43   1
   2   1  -5 10515.0 2274.39  -2
  -1   1   6 10515.0 2274.39   1
   2   1  -4 373047. 3684.80  -2
  -1   1   5 373047. 3684.80   1
  -1   1   4 64277.1 871.170   1
   1  -1  -3 60212.7 507.480   1
   1  -1  -2 82279.5 522.701   1
  -1   1   1 5534.79 562.559   1
  -1   1   0 8039.53 578.735   1
  -1   1  -1 289715. 1576.88   1
  -1   1  -2 221014. 815.814   1
   1  -1   3 42117.2 467.742   1
   1  -1   4 676.226 447.364   1
   1  -1   5 158077. 1093.17   1
  -1   1  -6 710982. 4123.10  -2
   1  -1   6 710982. 4123.10   1
  -1   1  -7 97412.7 2598.30  -2
   1  -1   7 97412.7 2598.30   1
  -1   1  -8 14956.8 1308.28  -2
   1  -1   8 14956.8 1308.28   1
  -1   1  -9 10817.6 1587.12  -2
   1  -1   9 10817.6 1587.12   1
   1  -1  10 141845. 3561.12  -2
  -1   1 -10 141845. 3561.12   1
  -1   1 -11 6430.86 968.172   1
   1  -1  12 7652.30 912.849   1
  -1   1 -13 4558.59 901.096   1
  -1   0  13 10281.6 747.829   1
  -1   0  12 2057.74 803.048   1
  -1   0  11 8346.96 956.414   1
  -1   0  10 3989.05 973.174   1
  -1   0   9 12213.2 1002.85   1
  -1   0   8 19820.4 961.106   1
   1   1  -8 129315. 3469.08  -2
  -1   0   8 129315. 3469.08   1
  -1   0   7 162487. 2168.93   1
  -1   0   6 55754.4 1553.52   1
   1   0  -5 6067.90 2955.97  -2
  -1   0   5 6067.90 2955.97   1
   1   0  -4 349251. 4065.91  -2
  -1   0   4 349251. 4065.91   1
   1   0  -3 999147. 5943.84  -2
  -1   0   3 999147. 5943.84   1
  -1   0   2 419409. 1501.42   1
  -1   0   1 2211.79 735.776   1
  -1   0   0 19687.4 964.455   1
  -1   0  -1 326581. 1057.64   1
  -1   0  -2 241064. 1049.31   1
  -1   0  -3 3502.01 545.204   1
  -1   0  -4 43983.6 473.122   1
   1   0   5 28575.2 1235.76   1
   1   0   6 30101.9 1334.79   1
   1   0   7 28216.5 1293.31   1
   1   0   8 117767. 1782.84   1
  -1   0  -9 12532.6 1120.64   1
  -1   0 -10-643.247 1689.14   1
   1   0  11 13734.3 1274.50   1
   1   0  12 39872.2 1122.69   1
   1   0  13 10524.4 1410.54   1
   0  -3  12 22396.6 1886.66  -2
  -1   0 -13 22396.6 1886.66   1
   0   3 -13-316.434 1239.89  -2
   1   0  14-316.434 1239.89   1
   1   1 -13 8602.44 1201.45  -2
  -1  -1  13 8602.44 1201.45   1
   1   1 -12 161177. 2447.39  -2
  -1  -1  12 161177. 2447.39   1
   1   1 -11 128311. 1869.21  -2
  -1  -1  11 128311. 1869.21   1
  -1  -1  10 1994.19 1170.54   1
   1   0 -10 1141.95 2511.43  -2
  -1  -1  10 1141.95 2511.43   1
  -1  -1   9 2008.31 717.953   1
   1   1  -8 94704.3 1028.05   1
   1   0  -8 113479. 4053.40  -2
  -1  -1   8 113479. 4053.40   1
  -1  -1   7 212644. 1797.23   1
  -1  -1   6 95.1502 1236.69   1
  -1  -1   5 80387.8 1620.89   1
  -1  -1   4 23936.0 1267.13   1
  -1  -1   3 88944.2 1484.84   1
  -1  -1   2 1298.71 637.845   1
  -1  -1   1 139510. 815.984   1
  -1  -1   0 130634. 1397.61   1
  -1  -1  -1 11454.0 593.001   1
   1   1   2 31586.6 857.353   1
  -1  -1  -3 745154. 1883.62   1
   0   2  -3 771216. 3581.17  -2
   1   1   4 771216. 3581.17   1
   1   1   5 6557.19 1390.57   1
   0   2  -4 8853.57 2228.99  -2
   1   1   5 8853.57 2228.99   1
   1   1   6 3255.76 1439.94   1
   1   1   7 68669.8 1756.65   1
   0   2  -6 124666. 2696.85  -2
   1   1   7 124666. 2696.85   1
   1   1   8 87702.5 2279.12   1
   1   1   9 4923.38 1174.58   1
  -1  -1 -10 3854.77 922.946   1
  -1  -1 -11 5925.96 1142.64   1
   1   1  12 5898.97 784.332   1
   1   1  13 943.410 747.008   1
   1   1  14 4234.79 714.100   1
  -1  -2  13 2057.56 1179.56   1
  -1  -2  12 18620.0 1204.47   1
  -1  -2  11 4355.52 1206.52   1
   0   0  12 8187.75 2302.75  -2
   1   2 -11 8187.75 2302.75   1
   0   0 -11 49432.6 1365.31  -2
  -1  -2  10 49432.6 1365.31   1
  -1  -2   9 22665.0 2894.53   1
   0   0 -10 51306.2 2755.33  -2
  -1  -2   9 51306.2 2755.33   1
   0  -1  -9 11267.8 973.089  -2
  -1  -2   8 11267.8 973.089   1
   0  -1  -8 1805.19 799.109  -2
  -1  -2   7 1805.19 799.109   1
   0  -1  -7 343311. 3732.32  -2
  -1  -2   6 343311. 3732.32   1
   0  -1  -6 684201. 4002.91  -2
  -1  -2   5 684201. 4002.91   1
  -1  -2   4 22126.9 637.841   1
  -1  -2   3 3911.22 776.231   1
  -1  -2   2 181521. 1322.10   1
  -1  -2   1 576427. 1940.81   1
  -1  -2   0 99512.7 1558.60   1
  -1  -2  -1 72693.8 903.749   1
  -1  -2  -2 13647.6 1102.03   1
  -1  -2  -5 88997.4 1550.26   1
   1   2   8 478.185 831.204   1
   1   2   9 47643.8 996.757   1
   1   2  10 47523.3 1471.56   1
   1   2  11 3118.87 1131.48   1
   1   2  12 1294.86 1355.80   1
   1   2  13 5960.78 1470.61   1
   1   4 -11 7965.62 1262.82  -2
   1   2  13 7965.62 1262.82   1
   1   2  14 8048.66 589.828   1
  -1  -3  13 6627.93 1037.89   1
  -1  -3  12-1659.78 1025.15   1
   1   3 -11 10071.3 1846.81   1
   1   3 -10 113586. 1559.60   1
  -1  -3   9 50892.0 1204.29   1
  -1  -3   8-304.280 788.394   1
  -1  -3   7 2894.57 865.759   1
  -1  -3   6 90067.2 1710.53   1
  -1  -2  -7 61443.1 1999.79  -2
  -1  -3   5 61443.1 1999.79   1
  -1  -2  -6 56007.3 2080.61  -2
  -1  -3   4 56007.3 2080.61   1
   1   2   5 165805. 1242.04  -2
   1   3  -3 165805. 1242.04   1
  -1  -3   2 9451.85 773.042   1
  -1  -3   1 16530.2 974.926   1
  -1  -3   0 318966. 2343.81   1
  -1  -3  -1 271927. 1451.56   1
   1   3   2 24698.0 640.787   1
  -1  -3  -3 545.040 650.762   1
  -1  -3  -4 54656.0 936.987   1
   1   3   5 160829. 1452.75   1
   1   3   6 28304.7 848.162   1
   1   3   8 377.949 1033.27   1
   1   3   9 34185.6 1369.50   1
   1   3  10 7753.30 899.172   1
   1   3  11 1517.94 1078.31   1
   2   5  -9 9610.15 1836.23  -2
   1   3  12 9610.15 1836.23   1
   2   5 -10 2049.14 1154.69  -2
   1   3  13 2049.14 1154.69   1
   2   5 -11 43318.5 1774.16  -2
   1   3  14 43318.5 1774.16   1
   1   2  14 22449.0 1876.87  -2
   1   4 -12 22449.0 1876.87   1
   1   2  13 25503.6 2502.41  -2
   1   4 -11 25503.6 2502.41   1
   1   2  12 17254.3 2799.25  -2
   1   4 -10 17254.3 2799.25   1
   1   4  -9 11201.2 2115.91   1
  -1  -4   8 118916. 2450.29   1
  -1  -4   7 38249.7 1305.88   1
  -1  -4   6 867.098 1022.32   1
  -1  -4   4 294426. 4074.11   1
  -1  -4   3 164299. 1403.86   1
  -1  -4   2 7861.89 948.869   1
  -1  -4   1 4542.56 916.053   1
  -1  -4   0 304968. 1932.78   1
  -1  -4  -1 118270. 991.201   1
  -1  -4  -2 6446.31 1259.84   1
  -2  -4  -1 12055.5 1516.84  -2
  -1  -4  -2 12055.5 1516.84   1
   2   4   0 129007. 1643.36  -2
   1   4   3 129007. 1643.36   1
  -1  -4  -4 5868.78 840.566   1
   1   4   5 25378.4 852.232   1
   1   4   6 5036.36 1560.83   1
   1   4   7 44011.5 1302.09   1
   1   4   8 9066.56 1178.54   1
   1   4   9-89.3569 949.082   1
   1   4  10 4499.40 1124.80   1
   1   4  11 11982.9 1113.47   1
   1   4  12 5068.41 913.453   1
   1   4  13 1116.68 680.906   1
   3   6 -10-780.208 843.384  -2
   1   4  14-780.208 843.384   1
   1   5 -11 4380.58 1126.54   1
  -1  -5  10 2375.58 1368.15   1
  -2  -3 -12 89191.6 2372.80  -2
  -1  -5   9 89191.6 2372.80   1
  -2  -3 -11 209704. 3509.35  -2
  -1  -5   8 209704. 3509.35   1
  -2  -3 -10 21732.4 2135.87  -2
  -1  -5   7 21732.4 2135.87   1
  -1  -5   6 50280.2 1741.50   1
  -1  -5   5 6078.55 1591.24   1
  -1  -5   4 58121.9 1722.28   1
  -1  -5   3-184.259 2136.02   1
  -2  -4  -6-985.393 2229.07  -2
  -1  -5   3-985.393 2229.07   1
  -1  -5   2 78291.4 1214.94   1
  -1  -5   1 31972.6 1039.36   1
   1   5   0 2083.27 771.084   1
   1   5   1 7905.27 707.893   1
  -1  -5  -2 153935. 1496.26   1
   1   5   3 83347.1 1099.97   1
  -1  -5  -4 1342.10 767.064   1
   3   5  -1 5051.87 1420.71  -2
   1   5   5 5051.87 1420.71   1
   1   5   6 30578.1 1206.69   1
   1   5   7 42369.3 1102.86   1
   1   5   8 1589.92 853.788   1
   1   5   9 3835.99 1365.71   1
   3   6  -5 2083.20 2068.68  -2
   1   5   9 2083.20 2068.68   1
   3   6  -6 153.526 1844.57  -2
   1   5  10 153.526 1844.57   1
   3   6  -7 29342.4 1873.52  -2
   1   5  11 29342.4 1873.52   1
   1   5  12 1402.94 624.138   1
   1   5  13 3182.24 998.800   1
   1   6 -11 20192.5 935.532   1
   1   6 -10 21137.9 1284.14   1
  -1  -6   9 926.010 1353.83   1
   1   6  -8-854.994 1463.34   1
  -1  -6   7 80724.9 2903.42   1
  -1  -6   6 108142. 2476.94   1
  -3  -4  -9 59858.5 2004.80  -2
  -1  -6   5 59858.5 2004.80   1
   3   4   8 1709.71 2150.86  -2
   1   6  -4 1709.71 2150.86   1
   1   6  -3 73358.2 1267.09   1
  -1  -6   2 249840. 1751.26   1
  -3  -5  -5 108830. 2382.32  -2
  -1  -6   1 108830. 2382.32   1
  -3  -5  -4 9261.76 2410.96  -2
  -1  -6   0 9261.76 2410.96   1
  -1  -6  -1 7335.94 1740.49   1
  -1  -6  -2 49903.3 2145.45   1
  -1  -6  -3 10557.0 1824.29   1
  -1  -6  -4 33702.8 1535.70   1
   1   6   5 21189.0 930.878   1
   1   6   6 527.944 865.871   1
   1   6   7 582.954 815.435   1
   1   6   8 15731.9 924.741   1
   1   6   9 14888.5 901.592   1
   1   6  10-41.5731 865.683   1
   4   7  -6 3535.87 1569.91  -2
   1   6  11 3535.87 1569.91   1
   4   7  -7 7078.72 1421.50  -2
   1   6  12 7078.72 1421.50   1
  -1  -7  10 33670.9 1360.98   1
  -1  -7   9-379.744 1488.25   1
  -1  -7   8 3362.15 1819.12   1
  -1  -7   7 38285.4 2375.37   1
   1   7  -6 33257.5 1737.48   1
  -1  -7   5 16156.1 1628.76   1
  -1  -7   4 24869.5 1481.75   1
  -1  -7   3 3731.17 1010.96   1
   1   7  -2 15149.7 951.164   1
  -1  -7   1 76644.9 1264.20   1
  -1  -7   0 153002. 1486.95   1
   1   7   1 29006.1 2718.90   1
   4   6   4 138235. 2603.10  -2
   1   7   1 138235. 2603.10   1
  -4  -6  -3 11951.6 2865.04  -2
  -1  -7  -2 11951.6 2865.04   1
  -1  -7  -3 19391.3 1399.45   1
   1   7   4 126820. 1967.83   1
   1   7   5 34664.4 1569.44   1
   1   7   6-1825.54 1516.30   1
   4   7  -1 20422.5 2170.90  -2
   1   7   6 20422.5 2170.90   1
   4   7  -2 3981.89 2590.02  -2
   1   7   7 3981.89 2590.02   1
   1   7   8 7109.23 1084.49   1
   1   7   9 1882.05 918.608   1
   1   7  10 348.474 808.614   1
   1   7  11 96.4879 1085.32   1
   1   8  -7 99.8028 1142.22   1
  -1  -8   6 10398.8 1841.07   1
   4   6  11 17917.8 2663.87  -2
   1   8  -6 17917.8 2663.87   1
  -4  -6 -10 110924. 2362.88  -2
  -1  -8   5 110924. 2362.88   1
   1   8  -4 76383.9 1912.63   1
  -1  -8   3 1121.77 1544.60   1
   1   8  -2 218.899 1329.24   1
   1   8  -1 83340.4 1380.26   1
   1   8   0 65420.2 1454.80   1
   1   8   1 394.272 1454.27   1
   1   8   2 11749.4 1762.30   1
  -1  -8  -3-869.892 1678.81   1
   1   8   4 19871.9 2051.20   1
  -5  -7  -2 16328.0 3048.93  -2
  -1  -8  -4 16328.0 3048.93   1
   1   8   5-439.700 1539.00   1
   1   8   6 22889.1 1304.33   1
   1   8   7 4371.26 984.484   1
   5   8  -2 8033.56 1384.05  -2
   1   8   8 8033.56 1384.05   1
   5   8  -3 4681.48 1200.23  -2
   1   8   9 4681.48 1200.23   1
   1   8  10 5682.56 683.184   1
   1   9  -7 4985.98 1049.60   1
   1   9  -6 119.900 1218.63   1
   1   9  -4 3335.11 1477.17   1
   1   9  -3 27149.2 1496.01   1
   5   7   8 86561.2 2567.03  -2
   1   9  -2 86561.2 2567.03   1
   1   9  -1 8490.97 2891.03   1
   1   9   0 2614.26 1931.78   1
   1   9   1 63622.2 2443.53   1
   1   9   2 41667.2 3206.35   1
   5   8   3 27257.9 3396.87  -2
   1   9   3 27257.9 3396.87   1
   1   9   4-419.009 1546.74   1
   1   9   5 13145.3 1177.28   1
   1   9   6 17194.6 1275.31   1
   1   9   7 1821.63 739.460   1
   1   9   8 257.073 613.411   1
   1   9   9 158.766 491.983   1
   6   9  -3 3564.04 971.360  -2
   1   9  10 3564.04 971.360   1
   1  10  -5 1807.59 1504.98   1
   1  10  -4 27153.1 2322.65   1
   1  10  -3 75376.9 1864.31   1
   1  10  -2 7528.45 1724.91   1
   1  10  -1 2580.55 2353.40   1
   1  10   0 2446.68 2464.65   1
   6   8   6 28373.4 2351.34  -2
   1  10   1 28373.4 2351.34   1
   1  10   2 8559.67 2778.75   1
   1  10   3 5939.22 1783.33   1
   1  10   4 9418.94 969.355   1
   1  10   6 849.690 784.659   1
   1  10   7 4487.59 775.593   1
   1  10   8 5108.41 639.668   1
   1  11  -3 4445.30 1415.78   1
   1  11  -2 11484.8 1816.26   1
   1  11  -1 44662.6 1500.55   1
   1  11   0 8000.67 1892.16   1
   1  11   1 301.251 1360.68   1
   1  11   2 846.612 600.082   1
   1  11   3 18351.4 700.906   1
   1  11   4 5628.38 614.432   1
   1  11   5-12.8741 503.228   1
  -2  10   3 189.735 1181.92   1
  -2  10   2 19740.5 1542.53   1
  -2  10   1 36011.8 1755.36   1
  -2  10   0 1610.94 852.944   1
  -2  10  -1 3797.59 1479.78   1
  -2  10  -2 1609.95 1316.58   1
   8   7   0 16438.7 1166.72  -2
  -2   9   6 16438.7 1166.72   1
  -2   9   5 852.076 697.926   1
  -2   9   4 7551.07 813.294   1
  -2   9   3 14430.8 1456.19   1
  -2   9   2 1683.16 2025.69   1
  -2   9   1 124.996 2024.69   1
  -2   9   0 47762.5 1788.80   1
  -2   9  -1 105037. 2094.97   1
  -2   9  -2 13795.8 1245.62   1
  -2   9  -3-462.655 1055.52   1
  -2   9  -4 33795.9 1393.51   1
  -2   9  -5 77721.0 2156.78   1
  -2   9  -6 15610.7 1363.05   1
  -2   8   8 5747.34 535.452   1
  -2   8   7 3265.95 773.817   1
  -2   8   6-571.640 817.011   1
  -2   8   5 8986.48 938.340   1
  -2   8   4 84394.6 2921.19   1
   7   6   1 87778.9 3078.12  -2
  -2   8   4 87778.9 3078.12   1
  -2   8   2-1800.37 2321.11   1
   7   5   4 29918.4 3176.46  -2
  -2   8   1 29918.4 3176.46   1
   7   5   5 87872.5 2704.47  -2
  -2   8   0 87872.5 2704.47   1
  -2   8  -1 76794.6 1878.28   1
  -2   8  -2 3560.91 1435.08   1
  -2   8  -3 30505.4 1545.27   1
  -2   8  -4 3704.81 1645.66   1
  -2   8  -5 8953.32 2416.85   1
  -2   8  -6 24594.9 2273.87   1
  -2   8  -7 57676.9 2169.07   1
  -2   8  -8 10032.4 1356.34   1
  -2   7   9 4725.84 557.120   1
  -2   7   8 8617.61 888.473   1
  -2   7   7-633.733 987.917   1
  -2   7   6 2448.51 1089.55   1
  -2   7   5 1468.41 1513.18   1
  -2   7   4 23696.5 1772.27   1
  -2   7   3 11624.8 1744.38   1
  -2   7   2 82389.4 3214.64   1
   2  -7  -1 22912.8 1427.55   1
   2  -7   0 3331.05 1180.79   1
  -2   7  -1 8554.04 1433.95   1
  -2   7  -2 218849. 2490.72   1
   6   4   7 166322. 2381.32  -2
  -2   7  -3 166322. 2381.32   1
  -2   7  -5-525.948 2296.62   1
  -2   7  -6 68646.5 2838.83   1
  -2   7  -7 44319.4 1715.74   1
  -2   7  -8 1381.62 1219.75   1
  -2   6   9 1524.50 719.145   1
   6   5  -4 3276.13 1759.50  -2
  -2   6   8 3276.13 1759.50   1
   6   5  -3 31577.3 2531.95  -2
  -2   6   7 31577.3 2531.95   1
  -2   6   6 33571.0 1490.91   1
  -2   6   5 9264.86 1598.56   1
   6   4   0 6067.78 1567.79  -2
  -2   6   4 6067.78 1567.79   1
  -2   6   3 90376.9 1679.76   1
  -2   6   2 246106. 2006.34   1
  -2   6   1 41768.6 1400.84   1
  -2   6   0 34782.5 1224.57   1
  -2   6  -1 9113.72 1305.77   1
  -2   6  -2 75435.5 1622.55   1
  -2   6  -3 3238.42 1121.43   1
  -2   6  -4 86652.6 1726.05   1
  -2   6  -5 41073.9 2783.84   1
  -2   6  -6 1485.55 1387.92   1
  -2   6  -7-187.436 1334.95   1
  -2   6  -8 56288.2 1661.14   1
   5   2  12 72468.4 2628.35  -2
  -2   6  -9 72468.4 2628.35   1
  -2   5  10 7129.70 1104.33   1
  -2   5   9-321.685 674.540   1
  -2   5   8-393.225 1019.18   1
  -2   5   7 9967.85 1468.29   1
  -2   5   6 5409.67 1506.99   1
  -2   5   5 32411.7 2259.62   1
  -2   5   4 37193.1 1293.44   1
   2  -5  -3-2796.31 1248.56   1
  -2   5   2 7291.39 2811.54   1
   5   3   1 23052.5 1345.90  -2
  -2   5   2 23052.5 1345.90   1
  -5  -3  -2 109456. 2597.03  -2
   2  -5  -1 109456. 2597.03   1
   5   3   3 251304. 1707.07  -2
  -2   5   0 251304. 1707.07   1
  -2   5  -1 49045.6 1039.18   1
  -2   5  -2 1479.26 1197.66   1
   2  -5   3 72917.5 1168.85   1
  -2   5  -4 227821. 2457.47   1
   2  -5   5 83150.5 1433.46   1
  -2   5  -6 104.590 1314.75   1
   2  -5   7 4533.19 1253.70   1
  -2   5  -8 61731.1 1759.73   1
  -2   5  -9 14098.2 1859.44   1
  -2   5 -10 13838.1 1176.64   1
  -2   5 -11 11878.8 1497.33   1
  -2   5 -12-257.766 1004.44   1
   5   4  -8 6359.33 1125.17  -2
  -2   4  11 6359.33 1125.17   1
   5   4  -7 10950.2 1322.78  -2
  -2   4  10 10950.2 1322.78   1
  -2   4   9 26832.5 873.403   1
  -2   4   8 11538.6 945.075   1
  -2   4   7 1954.20 769.422   1
  -2   4   6 10986.4 864.492   1
  -2   4   5 134811. 1799.96   1
  -2   4   4 87241.3 1439.65   1
   2  -4  -3 1625.95 953.372   1
   2  -4  -2 402.640 949.867   1
   2  -4  -1 101367. 2041.42   1
  -2   4   0 148334. 2251.44   1
  -2   4  -1 17637.5 1492.90   1
  -2   4  -2 41758.7 1203.57   1
  -2   4  -3-2944.97 1431.04   1
  -4  -2  -5 202115. 2995.52  -2
   2  -4   3 202115. 2995.52   1
  -4  -1  -6 81832.1 1562.87  -2
   2  -4   4 81832.1 1562.87   1
   4   1   7 33410.0 1573.28  -2
  -2   4  -5 33410.0 1573.28   1
  -2   4  -6 165893. 3327.81   1
   4   1   8 140709. 2952.94  -2
  -2   4  -6 140709. 2952.94   1
  -2   4  -7 46572.9 1452.08   1
   2  -4   8 1122.26 1014.27   1
   2  -4   9 22981.1 1253.77   1
  -2   4 -10 111544. 2838.17   1
   2  -4  11 30490.5 1866.56   1
   2  -4  12 602.427 1263.00   1
  -2   3  12 961.139 771.180   1
  -2   3  11 804.843 948.111   1
  -2   3  10 17546.4 1750.82   1
  -2   3   9 24909.8 1263.77   1
   4   3  -7 85502.0 2900.47  -2
  -2   3   9 85502.0 2900.47   1
  -2   3   8 1621.61 1013.98   1
   4   3  -6 5084.95 1634.41  -2
  -2   3   8 5084.95 1634.41   1
  -2   3   7 8329.96 811.747   1
   4   2  -5 32318.1 2582.87  -2
  -2   3   7 32318.1 2582.87   1
  -2   3   6 1669.31 1132.78   1
   4   2  -4 24658.3 1906.51  -2
  -2   3   6 24658.3 1906.51   1
   4   2  -3 147421. 2157.43  -2
  -2   3   5 147421. 2157.43   1
   4   2  -2 11889.8 899.976  -2
  -2   3   4 11889.8 899.976   1
   2  -3  -3 190426. 1159.42   1
   2  -3  -2 78638.4 1265.11   1
  -2   3   1 1652.84 1317.33   1
  -2   3  -1 367957. 2826.50   1
  -2   3  -2 275099. 1843.59   1
  -2   3  -3 5465.01 964.868   1
   2  -3   4 2845.99 908.031   1
  -2   3  -5 112259. 1148.88   1
  -2   3  -6 152519. 1446.64   1
  -2   3  -7 8447.32 880.336   1
   2  -3   8 3806.60 1441.64   1
  -3   0  -9 6530.34 1960.46  -2
   2  -3   8 6530.34 1960.46   1
  -3   0 -10 57680.2 2148.70  -2
   2  -3   9 57680.2 2148.70   1
  -2   3 -11 3011.12 1087.12   1
  -2   3 -12 23564.7 1781.75   1
  -2   3 -13 7013.82 907.354   1
  -2   2  12 5494.74 1343.90   1
  -2   2  11 10210.4 1658.68   1
  -2   2  10-33.1154 1168.64   1
  -2   2   9 6091.38 1234.68   1
  -2   2   8 125367. 2087.12   1
  -2   2   7 70879.9 1281.33   1
  -2   2   6 16761.6 769.508   1
  -2   2   5-20.3816 1011.39   1
  -2   2   4 116109. 1127.41   1
  -3  -1   2 802019. 1743.04  -2
   2  -2  -3 802019. 1743.04   1
   3   1  -1 267819. 1233.40  -2
  -2   2   2 267819. 1233.40   1
   3   1   0 43645.5 1324.37  -2
  -2   2   1 43645.5 1324.37   1
   2  -2   0 5305.27 1091.55   1
  -2   2  -1 196195. 2041.10   1
  -2   2  -2 81556.7 740.800   1
   2  -2   3 21800.6 642.411   1
   2  -2   4 166636. 1195.36   1
   2  -2   5 3379.94 774.943   1
   2  -2   6 27.7948 1060.21   1
  -2   2  -7 110098. 1489.64   1
   2  -2   8 79227.4 1681.11   1
   2  -2   9 2470.76 1248.20   1
   2  -2  10 978.722 1151.18   1
  -2   2 -11 23236.7 1328.91   1
   2  -2  12 40039.8 1336.14   1
  -2   2 -13 14833.8 1286.25  -2
   2  -2  13 14833.8 1286.25   1
   3   2 -12 11626.8 1542.30  -2
  -2   1  13 11626.8 1542.30   1
   3   2 -11 113867. 2793.91  -2
  -2   1  12 113867. 2793.91   1
   3   1  -7 95530.2 3309.20  -2
  -2   1   8 95530.2 3309.20   1
   3   1  -6 139487. 1831.76  -2
  -2   1   7 139487. 1831.76   1
  -2   1   6 23030.7 960.281   1
  -2   1   5 72493.1 1467.13   1
  -2   1   4 4669.82 788.221   1
  -2   1   3 27966.7 689.574   1
  -2   1   2 189389. 995.889   1
  -2   1   1 532846. 1369.85   1
   2  -1   0 77989.6 996.474   1
  -2   1  -1 291.352 624.018   1
  -2   1  -2 79477.0 996.580   1
   2  -1   3 358965. 1427.94   1
  -2   1  -3 799697. 3531.62  -2
   2  -1   3 799697. 3531.62   1
   2  -1   4 364724. 1877.20  -2
  -2   1  -4 364724. 1877.20   1
  -2   1  -5 1274.06 906.514  -2
   2  -1   5 1274.06 906.514   1
  -2   1  -6 14443.4 1932.09  -2
   2  -1   6 14443.4 1932.09   1
  -2   1  -7 196615. 2651.46  -2
   2  -1   7 196615. 2651.46   1
   2  -1   8 18816.6 968.190   1
   2  -1   9 7178.50 1140.05   1
   2  -1  10 15114.6 1290.08   1
   2  -1  11 1374.96 1143.71   1
  -2   1 -12 1683.86 1070.45   1
  -2   1 -13 10157.1 988.505   1
  -2   1 -14 14587.9 1172.58   1
  -2   0  13-1634.67 838.901   1
  -2   0  12 6354.89 1078.63   1
  -2   0  11 1904.99 1200.20   1
  -2   0  10 48107.3 1654.00   1
   2   1 -10 140981. 2430.41  -2
  -2   0  10 140981. 2430.41   1
  -2   0   9 25965.3 1229.70   1
   2   1  -9 38697.7 3011.64  -2
  -2   0   9 38697.7 3011.64   1
  -2   0   8 1313.18 2034.69   1
   2   0  -8 702.889 1252.00  -2
  -2   0   8 702.889 1252.00   1
   2   0  -7 20477.9 1105.89  -2
  -2   0   7 20477.9 1105.89   1
   2   0  -6 346246. 5184.04  -2
  -2   0   6 346246. 5184.04   1
   2   0  -5 426371. 5331.99  -2
  -2   0   5 426371. 5331.99   1
  -2   0   4 1709.02 917.818   1
   2   0  -4 5792.23 2713.55  -2
  -2   0   4 5792.23 2713.55   1
  -2   0   3 3591.20 921.839   1
  -2   0   2 165029. 1520.44   1
  -2   0   1 192828. 1072.06   1
  -2   0   0 68450.5 1689.90   1
  -2   0  -1 69621.3 763.695   1
  -2   0  -2 1253.27 873.769   1
   2   0   3 28108.4 875.601   1
   2   0   4 29847.6 935.027   1
   2   0   5 225965. 1246.56   1
   2   0   6 48201.2 912.687   1
   2   0   7 893.631 1148.63   1
   2   0   8 18160.1 1095.26   1
   2   0   9 116969. 1786.41   1
  -2   0 -10 45362.6 1528.02   1
   1  -3  10 13799.4 1690.23  -2
  -2   0 -11 13799.4 1690.23   1
   1  -3  11 1960.29 1535.96  -2
  -2   0 -12 1960.29 1535.96   1
  -1   3 -12 19675.3 1118.18  -2
   2   0  13 19675.3 1118.18   1
   1  -3  13 16244.1 1078.28  -2
  -2   0 -14 16244.1 1078.28   1
   2   0 -12 121.724 2214.80  -2
  -2  -1  12 121.724 2214.80   1
  -2  -1  11 28463.9 1848.52   1
   2   0 -11 25135.4 1875.45  -2
  -2  -1  11 25135.4 1875.45   1
  -2  -1  10 64650.3 1758.93   1
  -2  -1   9 6721.15 878.338   1
  -2  -1   8 12491.9 826.149   1
  -2  -1   7 1713.98 689.059   1
  -2  -1   6 73465.7 1711.73   1
  -2  -1   5 3281.95 1514.88   1
   1  -1  -6 1456.20 3146.45  -2
  -2  -1   5 1456.20 3146.45   1
   1  -1  -5 378717. 3381.64  -2
  -2  -1   4 378717. 3381.64   1
  -2  -1   3 129288. 1247.38   1
  -2  -1   2-180.701 694.227   1
  -2  -1   1 4842.00 1592.37   1
  -2  -1   0 385922. 2712.77   1
  -2  -1  -1 514409. 2935.69   1
  -1   2  -2 6665.20 2142.42  -2
   2   1   3 6665.20 2142.42   1
  -2  -1  -4 143424. 1719.41   1
  -1   2  -3 195576. 2839.99  -2
   2   1   4 195576. 2839.99   1
   2   1   5 173025. 1550.66   1
   2   1   6 2080.41 1115.65   1
   2   1   7 4234.02 1767.90   1
   2   1   8-875.165 691.966   1
   2   1   9 23170.2 814.900   1
   2   1  10 466.903 934.418   1
   2   1  11 18319.4 1028.85   1
   0  -4  10 12353.6 2268.72  -2
  -2  -1 -12 12353.6 2268.72   1
   0   4 -11 29655.4 1484.07  -2
   2   1  13 29655.4 1484.07   1
   2   1  14 3535.04 1066.56   1
   1  -1 -12 8159.10 1621.16  -2
  -2  -2  11 8159.10 1621.16   1
   1  -1 -10 162401. 2915.75  -2
  -2  -2   9 162401. 2915.75   1
   1  -1  -9 369542. 2168.44  -2
  -2  -2   8 369542. 2168.44   1
  -2  -2   7 33377.0 1376.41   1
   1  -1  -8 90523.6 1657.30  -2
  -2  -2   7 90523.6 1657.30   1
  -2  -2   6 479.556 766.209   1
  -2  -2   5 120225. 1851.95   1
  -2  -2   4 599735. 3861.67   1
  -2  -2   3 59804.9 1513.39   1
  -2  -2   2 9965.36 1162.74   1
  -2  -2   1-64.9578 979.514   1
  -2  -2   0 93579.1 2019.38   1
  -2  -2  -1 56998.6 1107.85   1
  -2  -2  -2 90139.6 1389.14   1
   0  -3   0 139763. 2148.71  -2
  -2  -2  -2 139763. 2148.71   1
   0  -3   1 293498. 2797.76  -2
  -2  -2  -3 293498. 2797.76   1
   2   2   4 124.742 1900.95   1
   0  -3   2 43562.7 1987.10  -2
  -2  -2  -4 43562.7 1987.10   1
   2   2   5-263.097 2070.04   1
   2   2   6 99079.9 2507.70   1
   2   2   7 109314. 2594.67   1
   2   2   8 1942.13 663.390   1
   2   2   9 726.240 784.293   1
   2   2  10 21862.4 1419.00   1
  -2  -2 -11 31514.7 1389.93   1
  -2  -2 -12 5391.16 1071.43   1
  -2  -2 -13-507.634 894.735   1
   2   2  14-111.760 711.481   1
  -2  -3  12 30090.2 1106.82   1
  -2  -3  11-1372.62 994.607   1
   2   3 -10 1680.19 1055.44   1
  -2  -3   9 41714.5 1327.69   1
   0  -2 -10 43020.4 1565.54  -2
  -2  -3   8 43020.4 1565.54   1
   0  -2  -9 31209.4 1446.43  -2
  -2  -3   7 31209.4 1446.43   1
   0  -2  -8 165528. 1384.71  -2
  -2  -3   6 165528. 1384.71   1
  -2  -3   5 2059.55 1423.46   1
  -2  -3   4 22824.7 2386.10   1
  -2  -3   3 36737.4 1459.44   1
  -2  -3   2 378889. 3926.91   1
   0  -3  -4 590121. 3941.09  -2
  -2  -3   2 590121. 3941.09   1
  -2  -3   1 106678. 1634.96   1
  -2  -3   0-253.307 1557.29   1
  -2  -3  -1 75120.3 1712.56   1
  -2  -3  -2 402408. 2340.56   1
  -2  -3  -3 132132. 2323.71   1
  -2  -3  -4 2794.27 1787.37   1
  -2  -3  -5 6559.39 1730.09   1
   2   3   8 3223.02 723.345   1
   2   3   9 7108.56 1074.39   1
   1   5  -6 47253.0 2222.26  -2
   2   3   9 47253.0 2222.26   1
   1   5  -7 16715.6 1803.88  -2
   2   3  10 16715.6 1803.88   1
  -1  -5   8 130899. 2368.53  -2
  -2  -3 -11 130899. 2368.53   1
   1   5  -9 59712.4 1755.16  -2
   2   3  12 59712.4 1755.16   1
   2   3  13 9561.20 1261.04   1
   2   3  14 1232.74 562.132   1
  -2  -4  11 39625.7 1078.91   1
  -2  -4  10 30261.9 1301.73   1
  -2  -4   9-2087.75 1254.25   1
  -2  -4   8 6799.78 1174.40   1
   2   4  -7 108043. 1764.26   1
   2   4  -6 135375. 2986.68   1
   2   4  -5 1216.56 1360.40   1
  -2  -4   4 699.146 2269.06   1
  -1  -3  -7 2493.81 1863.63  -2
  -2  -4   4 2493.81 1863.63   1
  -2  -4   3 75516.5 1180.97   1
  -2  -4   2 194239. 3363.17   1
  -2  -4   1 4628.03 2251.88   1
  -1  -4  -3 151747. 3607.79  -2
  -2  -4   0 151747. 3607.79   1
  -1  -4  -2 1186.03 2437.51  -2
  -2  -4  -1 1186.03 2437.51   1
  -2  -4  -2 47672.1 1650.80   1
   2   4   3 11609.4 2188.55   1
   2   4   4 169641. 2784.15   1
  -2  -4  -5 31837.1 974.896   1
   2   4   6 1232.81 715.344   1
   2   4   7 3316.41 932.328   1
   2   4   8 34393.9 868.384   1
   2   4   9 20209.4 816.221   1
   2   4  10 949.309 622.362   1
   2   6  -7-10.7837 2224.43  -2
   2   4  11-10.7837 2224.43   1
   2   6  -8 20546.3 1493.02  -2
   2   4  12 20546.3 1493.02   1
   2   4  13 3828.34 1077.69   1
   2   4  14-126.579 559.107   1
  -1  -3 -14 63976.7 2186.20  -2
  -2  -5  11 63976.7 2186.20   1
   1   3  13 4141.33 2337.60  -2
   2   5 -10 4141.33 2337.60   1
   1   3  12 14798.2 2184.37  -2
   2   5  -9 14798.2 2184.37   1
  -2  -5   8-830.625 1687.20   1
   2   5  -7 53224.1 2079.72   1
  -2  -5   6 1193.01 1651.49   1
  -1  -4  -9 5456.29 3997.78  -2
  -2  -5   6 5456.29 3997.78   1
   2   5  -5 71849.4 1608.82   1
  -2  -5   4 57394.3 1097.14   1
  -2  -5   3 249.104 1396.72   1
  -2  -5   2 53.0907 2083.28   1
  -2  -5   1 146488. 2992.97   1
   2   5   0 242497. 2118.77   1
  -2  -5  -1 10010.4 953.202   1
  -2  -5  -2-245.293 1702.46  -2
  -2  -5  -2-245.293 1702.46   1
   2   5   3 51379.7 1312.58   1
   2   5   4 121721. 2425.00   1
   2   5   5 7726.40 1636.86   1
  -2  -5  -6 6143.15 830.659   1
   2   6  -3 4280.73 1213.76  -2
   2   5   7 4280.73 1213.76   1
   2   6  -4 56079.0 1463.24  -2
   2   5   8 56079.0 1463.24   1
   2   5   9 2855.54 903.423   1
   2   5  10 4564.05 870.732   1
   2   5  11-263.115 1030.86   1
   2   5  12-72.5275 874.995   1
   2   5  13 131.059 676.526   1
   2   5  14 3888.78 566.791   1
  -2  -6   9 84313.8 1800.81   1
   2   4  12 45072.0 2116.65  -2
   2   6  -8 45072.0 2116.65   1
  -2  -4 -11 1453.15 2006.96  -2
  -2  -6   7 1453.15 2006.96   1
   2   6  -6 24720.9 1373.74   1
  -2  -6   5 284082. 2330.91   1
  -2  -5  -8 88168.1 2304.89  -2
  -2  -6   4 88168.1 2304.89   1
  -2  -5  -7 2941.43 1479.96  -2
  -2  -6   3 2941.43 1479.96   1
   2   6  -2 514.551 1010.66   1
  -2  -6   1 65251.6 1400.16   1
  -2  -6   0 22487.8 1991.01   1
   2   6   1 6391.60 1462.57   1
   2   6   2 19244.5 1181.43   1
   2   6   3 570.382 1378.42   1
   2   6   4-163.403 1413.22   1
   2   6   5 36927.3 1182.61   1
  -2  -6  -6 28878.4 995.168   1
   2   6   7 3404.19 1042.75   1
   2   6   8 237.363 1683.68   1
   3   7  -3 8314.66 1689.72  -2
   2   6   8 8314.66 1689.72   1
   3   7  -4 13721.9 1683.25  -2
   2   6   9 13721.9 1683.25   1
   2   6  10 15780.0 1045.48   1
   2   6  11 4548.45 722.359   1
   2   6  12 752.960 737.450   1
   2   6  13-467.660 830.721   1
  -2  -7  10 27307.8 1127.14   1
  -2  -7   9 32383.7 1693.37   1
  -2  -7   8 1768.34 1235.00   1
  -2  -7   7 36500.0 1673.45   1
   2   7  -6 952.395 1523.87   1
  -2  -7   5 6969.43 2223.66   1
  -2  -7   4 8738.87 1783.63   1
  -2  -7   3 110445. 1625.72   1
  -2  -7   2 57220.4 2186.19   1
   3   6   7 105378. 2465.76  -2
   2   7  -2 105378. 2465.76   1
   3   6   6 19697.5 1741.06  -2
   2   7  -1 19697.5 1741.06   1
   2   7   0 22004.0 1189.42   1
   2   7   1 125463. 1923.54   1
   2   7   2 54337.1 1637.72   1
   2   7   3-773.565 1052.64   1
   3   7   1 3687.93 1473.92  -2
   2   7   4 3687.93 1473.92   1
   2   7   5 41519.3 1826.62   1
   2   7   6 13138.0 1251.97   1
   2   7   7 1193.01 1368.35   1
   2   7   8 5994.40 1047.16   1
   2   7   9 775.950 763.801   1
   2   7  10 140.696 1148.98   1
   4   8  -4 1478.42 1826.35  -2
   2   7  10 1478.42 1826.35   1
   2   7  11 627.421 626.266   1
   2   7  12 4757.78 799.870   1
   2   8  -9 418.453 783.952   1
  -3  -6 -13 67871.2 1581.63  -2
  -2  -8   8 67871.2 1581.63   1
  -2  -8   7 70706.0 2165.23   1
  -2  -8   6-329.209 1777.90   1
  -2  -8   5 690.398 1930.07   1
   2   8  -4 36377.1 1936.54   1
  -2  -8   3 67744.1 2077.03   1
   2   8  -2 2597.95 1399.42   1
   2   8  -1 23637.4 1394.42   1
   2   8   0 159.745 1515.10   1
   4   7   5 16557.5 1903.06  -2
   2   8   1 16557.5 1903.06   1
   2   8   2 125.416 1371.46   1
   2   8   3 46421.7 1694.40   1
   2   8   4 29907.4 2385.64   1
   2   8   5 3674.35 1349.10   1
   4   8   1 56469.9 3678.16  -2
   2   8   5 56469.9 3678.16   1
   4   8   0 1846.56 1614.10  -2
   2   8   6 1846.56 1614.10   1
   2   8   7 15654.6 1526.93   1
   2   8   8 12503.5 968.455   1
   2   8   9 485.704 634.881   1
   2   8  10-222.414 691.939   1
   2   8  11 5004.35 1004.48   1
   2   9  -7 1431.06 1020.61   1
   2   9  -6 27858.6 1091.77   1
   4   7  11 52608.3 1821.52  -2
   2   9  -5 52608.3 1821.52   1
   4   7  10 28341.8 1570.68  -2
   2   9  -4 28341.8 1570.68   1
   2   9  -3 4.33523 993.180   1
   2   9  -2 38528.0 1558.07   1
   2   9  -1 69223.6 1979.26   1
   4   8   6 54593.9 2545.62  -2
   2   9   0 54593.9 2545.62   1
   2   9   1-1089.43 1260.54   1
   2   9   2 13004.4 1223.50   1
   2   9   3 54067.9 3739.98   1
   2   9   4 8973.42 2164.00   1
   2   9   5 451.834 989.588   1
   2   9   6-85.2830 924.514   1
   2   9   7 3120.28 1067.19   1
   5   9  -1 10493.9 1163.27  -2
   2   9   8 10493.9 1163.27   1
   2   9   9 4351.94 643.660   1
   2   9  10 1081.96 496.203   1
   2  10  -5 17213.7 984.144   1
   2  10  -4-255.290 898.145   1
   2  10  -3 731.446 777.752   1
   5   8   9 36911.6 3399.74  -2
   2  10  -2 36911.6 3399.74   1
   2  10  -1 16454.9 1060.58   1
   2  10   0 5486.50 972.647   1
   2  10   1 20553.2 2802.92   1
   5   9   5 36287.0 3490.49  -2
   2  10   2 36287.0 3490.49   1
   2  10   3 4434.85 2807.59   1
   2  10   4 8308.99 868.877   1
   2  10   5 11828.5 872.732   1
   2  10   6 1485.38 592.436   1
   2  10   7 800.980 517.644   1
   2  10   8 763.792 578.969   1
   2  10   9 3703.62 489.383   1
  -2 -11   2-354.303 775.605   1
   2  11  -1 6482.10 2004.21   1
   2  11   0 50346.7 2550.79   1
   2  11   1 20865.5 2163.72   1
   2  11   2-485.609 1434.04   1
   2  11   3-380.740 2023.74   1
   6  10   4 29798.3 2257.42  -2
   2  11   4 29798.3 2257.42   1
  -3   9   3 15869.1 617.720   1
  -3   9   2 72284.3 2021.34   1
  -3   9   1 16709.9 1730.40   1
  -3   9   0-977.325 1147.92   1
  -3   9  -1 31710.8 1331.22   1
  -3   9  -2 108169. 1605.59   1
  -3   9  -3 18154.5 1530.96   1
  -3   8   5 773.227 610.187   1
  -3   8   4 354.832 701.455   1
   8   5   2 60497.0 1986.74  -2
  -3   8   3 60497.0 1986.74   1
  -3   8   2 42103.2 2431.83   1
  -3   8   1 962.540 2009.97   1
  -3   8   0 22762.0 1649.21   1
  -3   8  -1 1995.97 1477.26   1
  -3   8  -2 14150.3 1535.68   1
  -3   8  -3 10045.4 1429.02   1
  -3   8  -4 93483.2 1915.22   1
  -3   8  -5 27962.0 2197.16   1
  -3   8  -6-83.7698 1699.37   1
  -3   8  -7 7227.99 1412.59   1
  -3   7   7 2819.51 497.205   1
  -3   7   6-672.094 736.328   1
  -3   7   5 20275.1 1068.09   1
  -3   7   4 42143.1 1695.64   1
  -3   7   3-317.435 1515.42   1
  -3   7   2 3513.71 2315.95   1
  -3   7   1 67574.7 2939.72   1
  -3   7   0 107070. 3846.93   1
   7   4   4 117315. 2498.77  -2
  -3   7   0 117315. 2498.77   1
   7   4   5 31961.2 3003.07  -2
  -3   7  -1 31961.2 3003.07   1
   7   4   6 4412.83 1581.33  -2
  -3   7  -2 4412.83 1581.33   1
  -3   7  -3 47567.6 2658.80   1
   7   3   7 63889.8 3221.67  -2
  -3   7  -3 63889.8 3221.67   1
  -3   7  -4 107886. 1787.88   1
  -3   7  -5 2178.96 1282.13   1
  -3   7  -6 13176.3 2103.89   1
  -3   7  -8 13518.5 1858.21   1
  -3   7  -9 358.370 1306.33   1
  -3   6   7-653.739 684.642   1
  -3   6   6 8458.11 926.617   1
  -3   6   5 51328.3 1463.61   1
  -3   6   4 26470.4 1692.23   1
  -3   6   3 9124.48 1648.80   1
  -3   6   2-1026.99 2389.86   1
  -3   6   1 50693.0 1574.84   1
  -3   6   0 869.001 1126.80   1
  -3   6  -1 23919.4 1531.41   1
  -3   6  -2 51297.9 1406.50   1
   3  -6   3-2078.26 1275.82   1
  -3   6  -4 1277.36 1335.69   1
  -3   6  -5 86456.5 2200.98   1
   6   2   9 171540. 4128.04  -2
  -3   6  -6 171540. 4128.04   1
   6   2  11 12919.5 2254.95  -2
  -3   6  -8 12919.5 2254.95   1
  -3   5   7 5089.88 906.327   1
  -3   5   6-706.055 1050.99   1
   6   3  -2 13616.9 2577.96  -2
  -3   5   5 13616.9 2577.96   1
   6   3  -1 45168.5 3001.13  -2
  -3   5   4 45168.5 3001.13   1
  -6  -3   0 158140. 2816.12  -2
   3  -5  -3 158140. 2816.12   1
   3  -5  -2 56869.8 1560.06   1
  -3   5   1 167.574 859.021   1
  -3   5   0 32389.8 1176.58   1
  -3   5  -1 436920. 2127.50   1
  -3   5  -2 143506. 1365.58   1
  -3   5  -3 1012.43 935.431   1
  -3   5  -4 1580.00 1177.65   1
   3  -5   5 67872.9 1896.31   1
  -3   5  -6 32909.3 2632.02   1
  -3   5  -7 3206.68 1269.37   1
  -3   5  -8 13177.9 1320.71   1
  -3   5  -9-1500.21 1153.71   1
  -3   5 -10 1775.27 1354.93   1
  -3   5 -11 7366.74 1117.92   1
  -3   4  10 176.444 932.639   1
  -3   4   9 2204.54 1154.37   1
  -3   4   8 42432.3 1607.33   1
  -3   4   6 587.062 1079.84   1
  -3   4   5-197.646 1012.47   1
  -3   4   4 81922.9 1677.55   1
  -3   4   3 79652.8 1150.96   1
  -3   4   2 453.515 751.431   1
  -3   4   1 41144.3 1196.94   1
  -3   4   0 182.557 1451.46   1
  -3   4  -1 34295.0 2153.21   1
   5   1   3 86869.4 1618.76  -2
  -3   4  -1 86869.4 1618.76   1
   5   1   4 16219.3 1119.69  -2
  -3   4  -2 16219.3 1119.69   1
   5   1   5 195016. 1924.33  -2
  -3   4  -3 195016. 1924.33   1
  -3   4  -4 68147.0 1152.50   1
  -3   4  -5 1100.09 879.044   1
  -3   4  -6 12659.3 1294.16   1
  -3   4  -7 97232.8 1921.54   1
  -3   4  -8 80044.5 1844.98   1
  -3   4  -9 2336.16 1266.77   1
  -3   4 -10-16.3418 1528.73   1
  -3   4 -11 22078.8 1575.91   1
  -3   4 -12 13182.6 1233.75   1
   5   3  -9 917.849 1492.58  -2
  -3   3  11 917.849 1492.58   1
   5   3  -8 5308.02 1287.04  -2
  -3   3  10 5308.02 1287.04   1
   5   2  -5 17429.4 1561.99  -2
  -3   3   7 17429.4 1561.99   1
  -3   3   6 36505.9 1957.58   1
  -3   3   5 88413.0 2388.96   1
  -3   3   4 447.785 1051.03   1
  -3   3   3 7695.79 1059.48   1
  -3   3   2 121285. 2095.53   1
  -3   3   1 193802. 2463.97   1
  -3   3  -1 436.773 1340.90   1
  -3   3  -2 99196.9 2037.50   1
  -3   3  -3 161192. 2374.07   1
  -3   3  -4 4744.02 1094.93   1
  -3   3  -5 40949.7 1370.88   1
  -3   3  -6 3585.24 2130.11   1
  -4   0  -7 36405.6 2228.77  -2
   3  -3   6 36405.6 2228.77   1
   4   0   8 111475. 2191.45  -2
  -3   3  -7 111475. 2191.45   1
   4   0   9 5902.85 1708.84  -2
  -3   3  -8 5902.85 1708.84   1
  -3   3  -9 56161.7 2318.35   1
  -3   3 -10 23195.3 1181.08   1
  -3   3 -11-488.938 1520.76   1
  -3   2  11 11217.0 988.112   1
  -3   2  10 55207.3 1436.19   1
  -3   2   9 13542.1 1258.55   1
  -3   2   8-1224.14 1154.65   1
  -3   2   7 14524.1 1361.13   1
   4   1  -6 90222.7 2695.85  -2
  -3   2   7 90222.7 2695.85   1
   4   1  -5 353145. 2318.55  -2
  -3   2   6 353145. 2318.55   1
   4   1  -4 104805. 1372.44  -2
  -3   2   5 104805. 1372.44   1
   4   1  -3 8886.23 1125.95  -2
  -3   2   4 8886.23 1125.95   1
   4   1  -2 24319.2 2532.22  -2
  -3   2   3 24319.2 2532.22   1
  -3   2   2 102917. 1575.80   1
  -3   2   1 15261.7 1133.83   1
   3  -2   0 66321.8 2043.56   1
  -3   2  -1 82913.8 1440.64   1
  -3   2  -2-232.123 1382.95   1
  -3   2  -3 2914.45 1387.36   1
  -3   2  -4 137192. 2221.37   1
  -3   2  -5 158333. 2222.45   1
  -3   2  -6 23691.5 2068.00   1
  -3   2  -7 511.993 1172.46   1
  -3   2  -8 21062.2 1017.39   1
   3  -2   9 79555.8 1614.64   1
  -3   2 -10 85528.7 2586.08  -2
   3  -2  10 85528.7 2586.08   1
  -3   2 -11 473.311 1749.22  -2
   3  -2  11 473.311 1749.22   1
  -3   2 -12 224.166 1633.85  -2
   3  -2  12 224.166 1633.85   1
   3  -2  13 22978.9 1932.06  -2
  -3   2 -13 22978.9 1932.06   1
   4   1 -11 202.310 1625.09  -2
  -3   1  12 202.310 1625.09   1
   4   1 -10 42844.1 1657.39  -2
  -3   1  11 42844.1 1657.39   1
   4   1  -9 80153.8 1995.60  -2
  -3   1  10 80153.8 1995.60   1
  -3   1   9 895.184 1813.46   1
   4   1  -8 4999.31 2315.94  -2
  -3   1   9 4999.31 2315.94   1
  -3   1   8 45797.2 1574.39   1
  -3   1   7 1593.40 902.348   1
  -3   1   6 1832.58 836.451   1
  -3   1   5 56121.1 987.371   1
  -3   1   4 181761. 1705.60   1
  -3   1   3 79979.9 1367.57   1
  -3   1   2 99.9534 1293.92   1
  -3   1   1 9983.05 1467.24   1
   3  -1   0 999999. 5773.32  -2
  -3   1   0 999999. 5773.32   1
   3  -1   1 607701. 4684.56  -2
  -3   1  -1 607701. 4684.56   1
   3  -1   2 7229.35 2204.68  -2
  -3   1  -2 7229.35 2204.68   1
   3  -1   3 1070.66 1599.40  -2
  -3   1  -3 1070.66 1599.40   1
   3  -1   4 208959. 1994.70  -2
  -3   1  -4 208959. 1994.70   1
   3  -1   5 114941. 1459.44   1
   3  -1   6 305.038 900.006   1
   3  -1   8 346.484 1211.64   1
   3  -1   9 3326.04 1352.82   1
   3  -1  10 23974.3 1661.68   1
  -3   1 -11 26656.0 1298.65   1
  -3   1 -12 1219.80 994.251   1
  -3   1 -13-125.350 827.631   1
  -3   1 -14 2175.37 1003.77   1
   3   1 -12 22092.9 1895.33  -2
  -3   0  12 22092.9 1895.33   1
   3   0 -11 214.958 2291.11  -2
  -3   0  11 214.958 2291.11   1
   3   0  -8 250454. 4625.53  -2
  -3   0   8 250454. 4625.53   1
   3   0  -7 8581.30 1849.81  -2
  -3   0   7 8581.30 1849.81   1
   3   0  -6 802.856 1330.52  -2
  -3   0   6 802.856 1330.52   1
  -3   0   5 68951.6 1060.23   1
  -3   0   4 108876. 1203.80   1
  -3   0   3 5274.72 1226.97   1
  -3   0   2 34616.6 1490.62   1
  -3   0   1 4367.57 1135.72   1
  -3   0   0 67242.8 2239.48   1
  -3   0  -1 20955.7 1140.93   1
  -3   0  -2 231121. 1869.36   1
  -3   0  -3 107328. 1975.88   1
   3   0   4 2192.37 1136.75   1
   3   0   5 8369.53 1071.63   1
  -3   0  -6 117731. 1477.68   1
   3   0   7 115148. 1545.34   1
   3   0   8 4074.83 757.453   1
  -2   3  -8 5535.59 1559.30  -2
   3   0   9 5535.59 1559.30   1
  -2   3  -9 46235.6 2452.22  -2
   3   0  10 46235.6 2452.22   1
  -2   3 -10 52851.8 2497.63  -2
   3   0  11 52851.8 2497.63   1
  -2   3 -11 1833.99 1459.25  -2
   3   0  12 1833.99 1459.25   1
  -3   0 -13 1887.13 930.337   1
  -3   0 -14-1369.15 673.868   1
  -3  -1  12 6247.50 1003.46   1
  -3  -1  11 3651.34 1696.50   1
  -3  -1  10 3452.30 1308.07   1
  -3  -1   9 15535.2 2139.49   1
  -3  -1   8 1255.05 1934.34   1
   2  -1  -8 105380. 2033.12  -2
  -3  -1   7 105380. 2033.12   1
   2  -1  -7 134707. 1949.34  -2
  -3  -1   6 134707. 1949.34   1
  -3  -1   5-592.073 758.558   1
  -3  -1   4 768.517 967.788   1
  -3  -1   3 135718. 1835.07   1
  -3  -1   2 226610. 2427.47   1
   2  -2  -3 835940. 5574.71  -2
  -3  -1   2 835940. 5574.71   1
   2  -2  -2 281097. 2707.37  -2
  -3  -1   1 281097. 2707.37   1
   2  -2  -1 43095.0 1902.58  -2
  -3  -1   0 43095.0 1902.58   1
   2  -2   0 161406. 2978.40  -2
  -3  -1  -1 161406. 2978.40   1
  -3  -1  -2 212000. 1765.46   1
  -3  -1  -3 22105.1 1538.09   1
  -3  -1  -4 50106.6 1475.20   1
   3   1   5 462.555 1033.11   1
   3   1   6 29032.3 1107.00   1
   3   1   7 3758.27 1870.37   1
   3   1   8 36309.7 1017.92   1
  -1   4  -7 51254.6 2523.67  -2
   3   1   9 51254.6 2523.67   1
  -1   4  -8 76635.8 2088.44  -2
   3   1  10 76635.8 2088.44   1
  -3  -1 -11 2047.10 1824.64   1
  -1   4  -9 92865.8 2835.26  -2
   3   1  11 92865.8 2835.26   1
  -3  -1 -12 16415.4 1215.05   1
  -3  -1 -13 16801.4 1066.94   1
   3   1  14 1437.30 552.680   1
   2  -1 -13 22324.1 2091.44  -2
  -3  -2  12 22324.1 2091.44   1
   2  -1 -12 161651. 2639.29  -2
  -3  -2  11 161651. 2639.29   1
   2  -1 -11 79034.0 3277.39  -2
  -3  -2  10 79034.0 3277.39   1
  -3  -2   9 122.880 1072.95   1
  -3  -2   8 21779.3 1220.67   1
  -3  -2   7 119112. 1496.44   1
  -3  -2   6 69320.3 1466.74   1
  -3  -2   5 1761.09 1504.06   1
  -3  -2   4 496.463 948.813   1
  -3  -2   3 98957.0 3047.03   1
  -3  -2   2 60780.9 1562.41   1
   1  -3  -3 160181. 3640.42  -2
  -3  -2   1 160181. 3640.42   1
   1  -3  -2 168443. 3483.33  -2
  -3  -2   0 168443. 3483.33   1
   1  -3  -1 79141.0 2695.47  -2
  -3  -2  -1 79141.0 2695.47   1
  -3  -2  -2 9654.70 1629.05   1
  -3  -2  -3 78592.0 2005.17   1
   3   2   4 186944. 3586.21   1
   3   2   5 14882.4 2408.51   1
   3   2   6-1771.46 2005.53   1
   3   2   7 12515.8 1997.73   1
   3   2   8 66026.6 1656.90   1
   3   2   9 18684.0 867.942   1
   3   2  10-273.393 746.445   1
   3   2  11-217.744 1028.99   1
  -3  -2 -12 3669.94 1092.34   1
  -3  -2 -13 2188.89 920.582   1
  -3  -2 -14 1209.67 574.858   1
  -3  -3  11 27537.2 1747.90   1
   1  -2 -13 43728.9 2847.70  -2
  -3  -3  11 43728.9 2847.70   1
   1  -2 -12 1652.90 1376.64  -2
  -3  -3  10 1652.90 1376.64   1
   1  -2 -11 65093.6 2280.85  -2
  -3  -3   9 65093.6 2280.85   1
   1  -2 -10 1888.99 1883.52  -2
  -3  -3   8 1888.99 1883.52   1
  -3  -3   7 10026.6 1304.35   1
  -3  -3   6 11973.0 974.350   1
  -3  -3   5 128189. 1897.85   1
   1  -3  -7 214747. 2509.46  -2
  -3  -3   5 214747. 2509.46   1
   1  -3  -5 2507.47 3215.67  -2
  -3  -3   3 2507.47 3215.67   1
  -3  -3   2 26371.7 2573.74   1
  -3  -3   1 352156. 2636.53   1
  -3  -3   0 164064. 3093.23   1
  -3  -3  -1 2287.70 1907.78   1
  -3  -3  -2-85.6343 1302.15   1
  -3  -3  -3 65431.2 1304.29   1
  -3  -3  -4 126021. 2615.27   1
   3   3   5 2769.44 2284.38   1
   3   3   6 10956.2 2112.57   1
   0   5  -4 289.411 1561.54  -2
   3   3   7 289.411 1561.54   1
   0   5  -5 144989. 2632.62  -2
   3   3   8 144989. 2632.62   1
   0   5  -6 155335. 1970.41  -2
   3   3   9 155335. 1970.41   1
   3   3  10 24032.9 946.874   1
   3   3  11 5706.71 1153.30   1
  -3  -3 -12-440.135 995.883   1
  -3  -3 -13 1071.64 1239.37   1
   3   3  14 6588.69 1092.47   1
  -3  -4  11 987.031 1672.52   1
  -3  -4  10 56333.0 1279.66   1
   3   4  -9 84351.8 1349.52   1
  -3  -4   8 2543.55 1067.36   1
  -3  -4   7 898.424 1307.15   1
  -3  -4   6 28582.9 1340.35   1
  -3  -4   5 100081. 1477.03   1
  -3  -4   4 6374.85 1458.59   1
   0   4   7 21280.0 1559.83  -2
   3   4  -4 21280.0 1559.83   1
   0  -4  -6 64230.5 3786.52  -2
  -3  -4   3 64230.5 3786.52   1
   0  -4  -5 5054.55 1877.46  -2
  -3  -4   2 5054.55 1877.46   1
  -3  -4   1 46730.6 1637.78   1
  -3  -4   0 5918.16 1473.74   1
  -3  -4  -1 161617. 2887.22   1
  -3  -4  -2 78901.7 1533.54   1
  -3  -4  -3 13942.3 2055.19   1
  -3  -4  -4 4493.76 1488.85   1
  -3  -4  -5 170281. 2849.95   1
   3   4   7 2944.17 731.287   1
   1   6  -4 220.783 1346.41  -2
   3   4   8 220.783 1346.41   1
   1   6  -5 33921.9 1633.84  -2
   3   4   9 33921.9 1633.84   1
   3   4  10 11838.9 1088.71   1
   3   4  11-635.023 883.163   1
  -3  -4 -12 2045.53 985.595   1
   3   4  13 7.10697 799.480   1
   3   4  14 2756.99 501.755   1
  -3  -5  10 11717.5 1164.29   1
  -3  -5   9 1820.75 1421.55   1
  -3  -5   8 27900.6 1411.27   1
   3   5  -7 50435.5 1626.14   1
   3   5  -6-184.031 1235.99   1
  -3  -5   5 417.209 1204.19   1
  -3  -5   4 98285.4 1601.89   1
  -3  -5   3 155532. 1487.13   1
  -3  -5   2 27445.5 1164.92   1
  -1  -5  -5 9987.23 1899.69  -2
  -3  -5   1 9987.23 1899.69   1
  -3  -5   0 50246.5 1636.18   1
  -3  -5  -1 186498. 2954.76   1
  -3  -5  -2 71435.2 2477.32   1
  -3  -5  -3 24417.2 1564.54   1
   1   6   0 16561.8 1916.56  -2
   3   5   4 16561.8 1916.56   1
  -1  -6   1 123037. 2422.81  -2
  -3  -5  -5 123037. 2422.81   1
   3   5   6 3910.51 736.943   1
  -1  -6   2 286645. 3751.23  -2
  -3  -5  -6 286645. 3751.23   1
   3   5   7 11091.1 824.518   1
   3   5   8 11728.6 862.223   1
   3   5   9-5.04284 758.984   1
   3   5  10-543.671 687.953   1
   3   5  11 6238.81 1152.18   1
   3   5  12 9249.47 1015.59   1
   3   5  13 166.738 731.130   1
  -1  -4 -14-30.4358 1251.92  -2
  -3  -6  10-30.4358 1251.92   1
  -3  -6   9 14603.3 1622.27   1
  -3  -6   8 58804.2 1873.25   1
  -1  -5 -11 56825.9 2579.17  -2
  -3  -6   7 56825.9 2579.17   1
  -1  -5 -10 427.759 2406.52  -2
  -3  -6   6 427.759 2406.52   1
   3   6  -5 1185.76 1836.48   1
  -1  -5  -9 9263.37 4104.32  -2
  -3  -6   5 9263.37 4104.32   1
  -3  -6   4 53348.6 1867.29   1
   3   6  -3 32349.4 1358.91   1
  -3  -6   2 22882.1 1345.62   1
   3   6  -1 66836.3 1180.13   1
  -3  -6   0-2591.18 950.837   1
  -3  -6  -1 6023.64 1037.77   1
   3   6   2 8583.31 963.199   1
  -3  -6  -3 144557. 1702.91   1
   3   6   4 29578.4 1040.36   1
  -3  -6  -5 1055.72 905.660   1
   2   7  -1 12554.0 1149.32  -2
   3   6   6 12554.0 1149.32   1
   3   6   7 20685.0 929.826   1
   3   6   8 8730.77 829.912   1
   3   6   9-337.453 688.276   1
   3   6  10 363.917 655.032   1
   3   6  11 1006.74 1037.61   1
   2   8  -7 68518.2 1473.62  -2
   3   6  12 68518.2 1473.62   1
   3   6  13 3863.36 812.763   1
   2   8  -8 69393.0 1719.82  -2
   3   6  13 69393.0 1719.82   1
   3   7  -9 706.018 951.002   1
   3   7  -8 3729.37 1421.32   1
  -3  -7   7 4971.89 2186.81   1
  -3  -7   6 41574.4 3035.24   1
   3   7  -5 34826.1 1576.81   1
  -2  -6  -9 17994.8 2390.10  -2
  -3  -7   4 17994.8 2390.10   1
  -2  -6  -8 5473.84 1458.86  -2
  -3  -7   3 5473.84 1458.86   1
  -3  -7   2 151015. 1552.13   1
  -3  -7   1 110611. 1594.95   1
   3   7   0 934.594 1041.39   1
   2   7   4 3422.48 1930.51  -2
   3   7   1 3422.48 1930.51   1
   3   7   2 24554.2 2042.91   1
   2   7   3 46702.6 3883.86  -2
   3   7   2 46702.6 3883.86   1
  -3  -7  -3 48133.8 1725.53   1
   3   7   4 1738.43 946.346   1
   3   7   5 21188.1 1010.51   1
   3   7   6-232.726 703.976   1
   3   7   7 3065.40 766.540   1
   3   7   8 673.045 752.346   1
   3   7   9 7048.50 937.195   1
   3   7  10 1976.16 718.417   1
   3   7  11-3770.12 1331.65   1
   3   7  12 1164.88 656.730   1
   3   9  -7 8685.11 1039.02  -2
   3   7  13 8685.11 1039.02   1
   3   8  -8 522.691 710.292   1
   3   8  -7 10410.4 1040.70   1
   3   8  -6 48239.2 1500.59   1
   3   8  -5 3460.43 1277.91   1
  -3  -8   4 23963.8 2198.65   1
   3   8  -3 162.248 1220.95   1
  -3  -8   2 12669.7 2184.56   1
   3   7   8 13678.2 2505.03  -2
   3   8  -2 13678.2 2505.03   1
   3   8  -1 447.993 1509.31   1
   3   7   7 6765.50 2307.40  -2
   3   8  -1 6765.50 2307.40   1
   3   8   0 58167.9 1550.86   1
   3   8   1 28140.2 1617.98   1
  -3  -8  -2 8699.87 1349.22   1
   3   8   3-903.122 2165.03  -2
   3   8   3-903.122 2165.03   1
   3   8   4 55329.9 1425.89   1
   3   8   5 48067.0 1335.86   1
   3   8   6 3789.20 800.539   1
   3   8   7-51.6122 696.284   1
   3   8   8 2596.35 978.825   1
   3   8   9 7406.99 831.148   1
   3   8  10 496.371 647.024   1
   3   8  11 522.049 777.696   1
   3   7  13 16147.4 1490.36  -2
   3   9  -7 16147.4 1490.36   1
  -3  -9   5 40324.5 1824.79   1
   3   9  -4 60791.7 1552.04   1
   3   8   9 37947.7 2065.44  -2
   3   9  -3 37947.7 2065.44   1
   3   9  -2 2619.73 1473.24   1
   3   9  -1 7683.22 1545.88   1
   3   9   0 58421.1 1718.40   1
   3   9   1 17612.1 1464.79   1
   3   9   2 1012.50 1372.68   1
   3   9   3 839.609 1307.97   1
   3   9   4 8459.38 1168.97   1
   4   9   2 18344.9 2451.87  -2
   3   9   5 18344.9 2451.87   1
   3   9   6 3323.56 877.130   1
   3   9   7 4133.65 884.248   1
   3   9   8 728.127 626.823   1
   3   9   9-571.343 490.254   1
   4  10  -3 12250.8 1409.01  -2
   3   9  10 12250.8 1409.01   1
   3   9  11 7064.29 734.552   1
   3  10  -4 10843.2 1111.97   1
   3  10  -3 1618.23 996.908   1
  -3 -10   2 19923.3 995.608   1
   4   9   8 40877.7 3312.23  -2
   3  10  -1 40877.7 3312.23   1
   4   9   7 15982.5 1910.14  -2
   3  10   0 15982.5 1910.14   1
   3  10   1 2711.26 1146.10   1
   3  10   2 28721.7 1305.36   1
   3  10   3 6219.40 1028.53   1
   3  10   4-3555.03 2686.51   1
   4  10   2 3018.50 2902.32  -2
   3  10   5 3018.50 2902.32   1
  -3 -10  -6 12324.4 1516.87   1
   3  10   7 4742.83 933.118   1
   3  10   8 136.873 859.590   1
   3  10   9 792.187 674.703   1
   3  11  -2 29899.4 1762.37   1
   3  11  -1-573.725 903.691   1
   3  11   0-504.695 1053.56   1
   3  11   1 10646.4 2225.12   1
  -3 -11  -3 2248.33 1144.86   1
   3  11   4 7282.04 1108.64   1
  -3 -11  -5-452.261 1114.11   1
  -3 -11  -6 2184.88 878.886   1
  -4   8   3 9017.44 1316.06   1
  -4   8   2 528.937 540.298   1
  -4   8   1 11733.2 1173.76   1
  -4   8   0 4323.53 1587.15   1
  -4   8  -1 81742.9 1589.84   1
  -4   8  -2 42065.6 1345.24   1
  -4   8  -3 18.0706 997.611   1
  -4   8  -4 3883.27 1280.78   1
  -4   7   4 45390.8 1252.52   1
  -4   7   3 38573.1 1047.32   1
   8   4   2 26375.2 2511.68  -2
  -4   7   2 26375.2 2511.68   1
   8   4   3 1020.10 2337.25  -2
  -4   7   1 1020.10 2337.25   1
   8   3   4 41348.3 2764.43  -2
  -4   7   0 41348.3 2764.43   1
  -4   7  -1 72591.6 1337.90   1
  -4   7  -2 10847.2 1057.48   1
  -4   7  -3 7612.78 1010.66   1
  -4   7  -4 1204.40 1065.21   1
  -4   7  -5 15737.6 1106.77   1
  -4   7  -6 1185.04 1579.72   1
  -4   6   5 1380.01 1571.51   1
  -4   6   4 10406.0 777.180   1
  -4   6   3 21131.5 1562.02   1
  -4   6   2 27702.0 1693.03   1
  -4   6   1 74363.5 2987.47   1
  -4   6   0 306.597 1256.22   1
  -4   6  -1-1538.93 1281.64   1
  -4   6  -2 52810.4 1621.37   1
   7   2   6 93816.3 1746.52  -2
  -4   6  -3 93816.3 1746.52   1
   7   2   7 55026.5 1947.10  -2
  -4   6  -4 55026.5 1947.10   1
   7   2   8 21288.4 1877.97  -2
  -4   6  -5 21288.4 1877.97   1
  -4   6  -6 21395.9 2237.86   1
  -4   6  -7 70274.4 2451.74   1
  -4   6  -8 18004.6 1707.30   1
  -4   5   4 7.63016 1403.73   1
  -4   5   3 11181.5 2110.74   1
  -4   5   2 141021. 3359.77   1
  -4   5   1 118486. 3017.24   1
   4  -5   0-1046.45 1041.91   1
  -4   5  -1 1428.95 831.403   1
  -4   5  -2 32430.8 1086.86   1
  -4   5  -3 33737.4 1411.91   1
  -4   5  -4 395.305 1363.13   1
  -4   5  -5 33725.8 2594.76   1
  -4   5  -6-982.547 2250.38   1
  -4   5  -7 2491.20 2221.93   1
  -4   5  -8 12145.9 2041.02   1
   6   0  11 57282.9 2274.66  -2
  -4   5  -9 57282.9 2274.66   1
  -4   4   5 1826.90 1807.28   1
  -4   4   4 44286.1 2362.73   1
  -4   4   3 886.734 1048.64   1
   6   1   0 63407.2 1733.20  -2
  -4   4   2 63407.2 1733.20   1
   6   1   1 5988.34 1513.13  -2
  -4   4   1 5988.34 1513.13   1
   6   1   2 78001.5 1833.75  -2
  -4   4   0 78001.5 1833.75   1
  -4   4  -1 52203.5 1111.63   1
  -4   4  -2 8750.75 1001.49   1
  -4   4  -3 2287.74 959.146   1
  -4   4  -4 112232. 1403.25   1
  -4   4  -5 114691. 1441.73   1
  -4   4  -6 10080.2 2422.12   1
  -4   4  -7 1831.85 2228.30   1
  -4   4  -8 21277.3 1281.08   1
  -4   4  -9 24609.0 1246.07   1
  -4   4 -10-391.203 1175.08   1
  -4   4 -11 4977.71 1013.31   1
  -4   3   8 24097.3 1726.28   1
  -4   3   7-369.516 1655.70   1
  -4   3   5 63846.9 2332.62   1
  -4   3   4 166935. 2147.38   1
  -4   3   3 32391.9 1133.68   1
  -4   3   2-804.450 937.572   1
  -4   3   1 31374.7 1291.64   1
  -4   3   0 140773. 1673.68   1
  -4   3  -1 39854.6 1044.37   1
  -4   3  -2 15260.6 915.145   1
  -4   3  -3 1750.71 1027.37   1
   5   0   4 20317.7 2253.67  -2
  -4   3  -3 20317.7 2253.67   1
   5   0   5 126609. 1782.05  -2
  -4   3  -4 126609. 1782.05   1
   5   0   6 20095.0 1451.44  -2
  -4   3  -5 20095.0 1451.44   1
  -4   3  -6 63231.9 3046.61   1
  -4   3  -7 26894.2 1427.24   1
  -4   3  -8 1209.19 1236.07   1
  -4   3  -9 1315.89 1198.82   1
  -4   3 -10 26095.8 1722.17   1
  -4   3 -11 30813.2 1585.50   1
  -4   3 -12 2982.76 1076.92   1
  -4   2  10 4764.49 938.478   1
  -4   2   9 47212.3 2060.07   1
   5   1  -7 59156.8 1902.82  -2
  -4   2   8 59156.8 1902.82   1
   5   1  -6-640.366 2603.83  -2
  -4   2   7-640.366 2603.83   1
   5   1  -5 8963.41 1649.77  -2
  -4   2   6 8963.41 1649.77   1
  -4   2   5 20921.8 1592.32   1
  -4   2   4 32109.2 1314.86   1
  -4   2   3 29011.5 934.999   1
  -4   2   2 89656.6 1194.87   1
  -4   2   1 2810.95 854.071   1
  -4   2   0 2352.51 1332.27   1
  -4   2  -1 77408.2 2415.88   1
  -4   2  -2 180948. 1956.11   1
  -4   2  -3 59115.4 1182.51   1
  -4   2  -4 447.539 855.830   1
  -4   2  -5 29039.3 1107.48   1
  -4   2  -6 116273. 1926.51   1
   4  -2   7 81265.1 3490.67  -2
  -4   2  -7 81265.1 3490.67   1
   4  -2   8 1723.37 1665.80  -2
  -4   2  -8 1723.37 1665.80   1
   4  -2   9 93.1965 1622.43  -2
  -4   2  -9 93.1965 1622.43   1
   4  -2  10 22638.2 2421.24  -2
  -4   2 -10 22638.2 2421.24   1
   4  -2  11 20949.7 2233.11  -2
  -4   2 -11 20949.7 2233.11   1
   4  -2  12 6681.24 1804.04  -2
  -4   2 -12 6681.24 1804.04   1
  -4   2 -13 7174.68 1081.51   1
  -4   1  10 790.584 1539.67   1
  -4   1   9 2839.82 1796.33   1
  -4   1   8 9382.56 1298.67   1
  -4   1   7 79187.5 1804.29   1
  -4   1   6 39273.6 1286.19   1
  -4   1   5-2.26124 1038.38   1
  -4   1   4 8578.31 875.233   1
   4  -1  -3 345593. 2404.95  -2
  -4   1   3 345593. 2404.95   1
   4  -1  -2 357860. 4340.32  -2
  -4   1   2 357860. 4340.32   1
   4  -1  -1 16235.6 2103.31  -2
  -4   1   1 16235.6 2103.31   1
   4  -1   0 9882.96 1691.94  -2
  -4   1   0 9882.96 1691.94   1
   4  -1   2 178646. 3048.08  -2
  -4   1  -2 178646. 3048.08   1
  -4   1  -3-111.676 1404.26   1
  -4   1  -4 54472.9 1882.81   1
  -4   1  -5 4807.37 1447.89   1
   4  -1   6 9612.78 815.256   1
  -4   1  -8 78667.5 3054.24   1
  -4   1  -9 18368.3 1492.18   1
  -4   1 -10-202.234 966.021   1
  -4   1 -11 5308.65 967.926   1
   4  -1  12 14602.8 1149.59   1
   4  -1  13 9057.19 855.167   1
   4   0 -11 62607.4 2342.05  -2
  -4   0  11 62607.4 2342.05   1
  -4   0   8 19189.3 1477.52   1
  -4   0   7 113990. 2140.61   1
  -4   0   6 32739.7 1311.14   1
  -4   0   5 58309.7 1390.20   1
  -4   0   4 3861.63 998.975   1
  -4   0   3 12210.4 1104.93   1
  -4   0   2-963.555 1306.79   1
  -4   0   1 69052.2 1484.47   1
  -4   0   0 39591.5 1345.35   1
  -4   0  -1 2756.45 2021.43   1
  -4   0  -2 2731.46 1133.93   1
  -4   0  -3 101677. 2185.54   1
   4   0   4 108761. 1714.04   1
  -4   0  -5 1491.01 1100.27   1
   4   0   6 3672.93 720.022   1
   4   0   7 19950.1 1054.28   1
  -3   3  -7 90484.9 2556.62  -2
   4   0   8 90484.9 2556.62   1
   4   0   9 4268.40 1317.39   1
   3  -3   8 6223.77 2464.04  -2
  -4   0  -9 6223.77 2464.04   1
   4   0  10 8035.53 1446.14   1
   4   0  11 4041.53 1310.60   1
  -4   0 -12 3777.09 945.338   1
   4   0  13-145.520 760.623   1
  -4   0 -14 8266.23 991.099   1
  -4  -1  11 2492.70 1328.61   1
   3  -1 -11 52219.3 2818.98  -2
  -4  -1  10 52219.3 2818.98   1
   3  -1 -10 89921.1 3481.74  -2
  -4  -1   9 89921.1 3481.74   1
  -4  -1   7-563.898 1931.14   1
  -4  -1   6 52314.4 2849.55   1
   3  -2  -7 86670.1 3074.00  -2
  -4  -1   6 86670.1 3074.00   1
   3  -2  -6 417229. 3442.53  -2
  -4  -1   5 417229. 3442.53   1
   3  -2  -5 132649. 2303.72  -2
  -4  -1   4 132649. 2303.72   1
   3  -2  -4 10651.2 1481.27  -2
  -4  -1   3 10651.2 1481.27   1
   3  -2  -3 18122.3 1581.43  -2
  -4  -1   2 18122.3 1581.43   1
  -4  -1   1 110352. 1689.01   1
  -4  -1   0 62026.2 1435.28   1
  -4  -1  -1 8066.43 1931.10   1
  -4  -1  -2 1440.04 1119.30   1
  -4  -1  -3 26705.6 1567.91   1
  -4  -1  -4 1921.08 1150.04   1
   4   1   5 58006.4 1458.03   1
   2  -4   4 69158.1 1873.87  -2
  -4  -1  -6 69158.1 1873.87   1
  -2   4  -5 31568.3 1266.05  -2
   4   1   7 31568.3 1266.05   1
  -2   4  -6 149008. 1744.58  -2
   4   1   8 149008. 1744.58   1
   4   1   9 30600.4 1066.94   1
   4   1  10 53433.0 1992.33   1
   4   1  11 4275.50 1420.44   1
  -4  -1 -12-190.141 971.698   1
   4   1  13 3657.89 842.591   1
  -4  -1 -14 7126.79 655.251   1
  -4  -2  11 2510.58 956.844   1
  -4  -2  10 35037.1 2100.25   1
  -4  -2   9 24162.7 2243.25   1
  -4  -2   8 272.729 2135.50   1
  -4  -2   7 1886.42 2179.04   1
  -4  -2   6 20912.4 1368.85   1
  -4  -2   5 26103.1 1567.83   1
   2  -3  -6 35108.6 2935.88  -2
  -4  -2   4 35108.6 2935.88   1
   2  -3  -5 135373. 1974.78  -2
  -4  -2   3 135373. 1974.78   1
   2  -3  -4 14495.2 2902.87  -2
  -4  -2   2 14495.2 2902.87   1
  -4  -2   1 5465.54 2054.30   1
  -4  -2   0 45296.9 2346.91   1
  -4  -2  -1 250647. 3403.35   1
  -4  -2  -2 132016. 2602.96   1
  -4  -2  -3-2779.34 1768.12   1
   4   2   5 139235. 3308.78   1
   4   2   6 35760.1 1334.21   1
   4   2   7-922.806 795.673   1
   4   2   8-84.9650 857.014   1
   4   2   9 10512.0 989.432   1
   4   2  10 6563.69 1629.52   1
   4   2  11 1529.48 1458.18   1
  -4  -2 -12 5472.16 1058.69   1
  -4  -2 -13 675.811 853.663   1
  -4  -3  10 3765.60 1329.64   1
  -4  -3   9 1556.66 1556.98   1
  -4  -3   8 71488.1 2100.41   1
   2  -3 -10 112975. 3925.40  -2
  -4  -3   8 112975. 3925.40   1
  -4  -3   7 40513.6 2115.01   1
   2  -3  -9 142365. 4270.35  -2
  -4  -3   7 142365. 4270.35   1
  -4  -3   6 722.884 1388.48   1
  -4  -3   5 4017.59 1415.91   1
  -4  -3   4 96095.6 1644.99   1
  -4  -3   3 121339. 1887.57   1
  -4  -3   2-502.644 2003.83   1
  -4  -3   1 1982.23 1959.24   1
  -4  -3   0 61359.1 2429.33   1
  -4  -3  -1 93637.5 2505.62   1
  -4  -3  -2 2620.30 1696.16   1
  -4  -3  -3 24822.4 1661.73   1
  -1   5  -2 210545. 5041.99  -2
   4   3   5 210545. 5041.99   1
  -1   5  -3 178380. 2421.64  -2
   4   3   6 178380. 2421.64   1
   4   3   7 48980.1 1529.23   1
   4   3   8 25946.8 1551.95   1
   4   3   9-628.153 1368.43   1
   4   3  10 4418.26 1709.64   1
   4   3  11 15131.6 1082.96   1
   4   3  12 7232.36 1471.43   1
  -4  -3 -13 775.315 843.947   1
  -4  -3 -14 575.684 604.058   1
  -4  -4  10 682.429 1088.70   1
  -4  -4   9 7977.48 1115.63   1
   1  -3 -12 18918.8 2751.14  -2
  -4  -4   9 18918.8 2751.14   1
  -4  -4   8 50735.4 1447.83   1
  -4  -4   7 23563.6 2489.12   1
   1  -4 -10 37420.9 2161.19  -2
  -4  -4   7 37420.9 2161.19   1
   1  -4  -9 25854.3 1913.94  -2
  -4  -4   6 25854.3 1913.94   1
   1  -4  -8 8316.76 1625.56  -2
  -4  -4   5 8316.76 1625.56   1
   1  -4  -7 48342.8 1869.21  -2
  -4  -4   4 48342.8 1869.21   1
  -4  -4   3 5734.66 1238.89   1
  -4  -4   2 23948.9 1285.68   1
  -4  -4   1 124573. 3070.73   1
  -4  -4   0-2060.27 1796.14   1
  -4  -4  -1 3090.31 1799.87   1
  -4  -4  -2 164453. 1978.12   1
   4   4   7 51743.9 2842.23   1
   4   4   8 7184.55 1471.04   1
   4   4   9 906.642 990.637   1
   4   4  10-271.858 1020.52   1
   4   4  11 392.153 784.450   1
   0   7  -8 91883.5 1635.66  -2
   4   4  12 91883.5 1635.66   1
   0  -7   9 36954.7 1840.19  -2
  -4  -4 -13 36954.7 1840.19   1
   4   4  14 2457.65 780.357   1
  -4  -5   9 2997.72 999.777   1
  -4  -5   8 89.6936 1083.68   1
  -4  -5   7 21278.8 1101.86   1
  -4  -5   6 85317.2 1840.34   1
  -4  -5   5 25211.6 1402.07   1
   0  -5  -8 6052.18 1675.46  -2
  -4  -5   4 6052.18 1675.46   1
   0  -5  -7 13480.7 1686.49  -2
  -4  -5   3 13480.7 1686.49   1
  -4  -5   2 76537.0 1310.13   1
  -4  -5   1 28983.7 840.337   1
  -4  -5   0 5233.35 802.475   1
   4   5   1 1391.58 1067.27   1
   0   6   2 63093.2 1653.21  -2
   4   5   2 63093.2 1653.21   1
   0  -6  -1 239926. 4038.19  -2
  -4  -5  -3 239926. 4038.19   1
  -4  -5  -4 35685.1 1357.94   1
   4   5   5 60991.9 1504.75   1
   4   5   6-2087.42 1362.79   1
   4   5   7-83.4120 1230.94   1
   4   5   8 12655.8 1321.39   1
   4   5   9 31071.2 1367.83   1
   4   5  10 1882.98 1035.79   1
   4   5  11 125.052 752.966   1
   4   5  12 458.733 1226.85   1
   1   8  -8 25567.5 1475.51  -2
   4   5  13 25567.5 1475.51   1
   0  -5 -13 3184.96 1872.55  -2
  -4  -6   9 3184.96 1872.55   1
   0  -5 -12 1980.82 1186.92  -2
  -4  -6   8 1980.82 1186.92   1
  -4  -6   7 8614.56 1086.91   1
  -4  -6   6 17567.6 1301.35   1
  -4  -6   5 8043.23 1793.28   1
  -4  -6   4 31270.5 1648.04   1
  -4  -6   3 4511.47 1038.23   1
  -4  -6   2 7295.54 1078.27   1
  -1  -6  -7 16672.8 2795.27  -2
  -4  -6   2 16672.8 2795.27   1
  -4  -6   1 18675.4 933.395   1
   4   6   0 114729. 1244.13   1
   4   6   1 55167.4 1460.66   1
   4   6   2 2179.50 1063.21   1
   1   7   2 6059.12 1852.41  -2
   4   6   3 6059.12 1852.41   1
  -1  -7  -1 138051. 2777.11  -2
  -4  -6  -4 138051. 2777.11   1
   4   6   5 51941.8 1191.79   1
   4   6   6 352.232 961.678   1
   4   6   7 1403.34 1267.57   1
   4   6   8 5702.77 772.717   1
   4   6   9 5371.34 1330.69   1
   1   8  -5 137700. 2828.93  -2
   4   6  10 137700. 2828.93   1
   4   6  11 3497.25 800.945   1
   4   6  12-382.153 1152.61   1
   4   6  13-55.6704 577.339   1
   4   7  -8 24749.4 809.608   1
  -1  -6 -12 11102.3 1266.09  -2
  -4  -7   7 11102.3 1266.09   1
  -1  -6 -11 845.779 1485.35  -2
  -4  -7   6 845.779 1485.35   1
  -4  -7   5 37824.7 1409.48   1
   4   7  -4 73172.9 2223.31   1
  -4  -7   3 1417.49 1180.66   1
  -1  -7  -7 4917.51 1706.89  -2
  -4  -7   2 4917.51 1706.89   1
   1   7   6 27686.1 1618.92  -2
   4   7  -1 27686.1 1618.92   1
  -4  -7   0 40652.7 1378.99   1
   4   7   1 867.920 3258.52   1
   4   7   2 13528.9 1548.14   1
   4   7   3 6340.85 1159.41   1
   4   7   4 4815.64 1187.81   1
   4   7   5-1835.04 1794.95   1
   2   8   1 31468.9 2291.66  -2
   4   7   5 31468.9 2291.66   1
   4   7   6 28188.4 1113.93   1
  -4  -7  -7 12652.7 1242.35   1
   4   7   8-273.948 709.963   1
   4   7   9-168.986 672.987   1
   2   9  -4 14914.1 1355.08  -2
   4   7  10 14914.1 1355.08   1
   2   9  -5 49439.0 1558.38  -2
   4   7  11 49439.0 1558.38   1
   4   7  12 1427.65 672.321   1
   4   8  -7 2873.94 944.861   1
   4   8  -6 1790.98 1286.78   1
   2   7  11 6364.84 2556.34  -2
   4   8  -5 6364.84 2556.34   1
   2   7  10 5072.91 2886.59  -2
   4   8  -4 5072.91 2886.59   1
   4   8  -3 3860.69 1188.80   1
  -4  -8   2 41095.3 1260.70   1
  -4  -8   1 7863.65 1742.16   1
   2   8   6 4819.75 2374.62  -2
   4   8   0 4819.75 2374.62   1
   2   8   5 68541.4 4272.55  -2
   4   8   1 68541.4 4272.55   1
   4   8   2 77862.3 2237.36   1
  -4  -8  -3 2700.35 1440.10   1
   4   8   4 3860.99 1665.55   1
   4   8   5 7334.46 1189.60   1
   4   8   6 21508.0 1335.54   1
   4   8   7 1550.45 1018.75   1
   4   8   8 3347.46 1079.30   1
   4   8   9-162.609 723.404   1
   4   8  10 758.917 876.597   1
   4   8  11 677.227 682.926   1
   3  10  -5 23847.3 1163.32  -2
   4   8  12 23847.3 1163.32   1
   4   9  -6 7516.06 900.965   1
   2   8  11 14151.9 2024.33  -2
   4   9  -5 14151.9 2024.33   1
   4   9  -4 6787.13 1375.82   1
   4   9  -2 16837.2 1460.84   1
   4   9  -1 2455.73 1513.46   1
   4   9   0 3516.75 1155.61   1
   4   9   1 7146.70 1493.04   1
   3   9   5 14091.3 2260.07  -2
   4   9   2 14091.3 2260.07   1
   4   9   3 4942.90 1573.68   1
   4   9   4 18195.3 1322.85   1
   4   9   5 468.395 998.954   1
  -4  -9  -6 178.637 921.896   1
   3  10   0 12684.1 1341.12  -2
   4   9   7 12684.1 1341.12   1
   3  10  -1 31950.3 2137.15  -2
   4   9   8 31950.3 2137.15   1
   4   9   9 2718.67 1124.20   1
   4   9  10-1159.77 785.303   1
  -4 -10   2 4144.81 751.241   1
   4  10  -1 36378.5 1066.91   1
   4  10   0 12696.5 1016.76   1
   4  10   1-1193.83 912.019   1
   4  10   2 508.841 1124.81   1
   4  10   3 21273.1 1132.45   1
   4  10   4 12284.6 1211.42   1
   4  10   4 50135.7 2208.40  -2
   4  10   4 50135.7 2208.40   1
   4  10   5-873.772 756.946   1
  -4 -10  -6 1313.64 1323.02   1
  -4 -10  -7 3791.25 1087.00   1
   4  10   8 2129.56 865.659   1
  -4 -11   0 1061.58 589.705   1
   4  11   1 4750.80 617.754   1
   4  11   2 277.383 643.914   1
  -4 -11  -3 1545.86 1246.64   1
  -4 -11  -4 34.3478 1770.67  -2
  -4 -11  -4 34.3478 1770.67   1
  -4 -11  -5 11044.4 1166.40   1
  -4 -11  -6 2851.08 857.371   1
  -5   7   2 40470.9 1040.02   1
  -5   7   1 29206.2 1601.87   1
  -5   7   0 3713.82 1421.11   1
  -5   7  -1 2604.37 1057.64   1
  -5   7  -2 12864.7 1097.42   1
  -5   7  -3 6446.62 972.136   1
  -5   7  -4 12016.2 1372.01   1
  -5   6   4 25346.7 1374.41   1
  -5   6   3 1901.79 1032.58   1
  -5   6   2 614.892 1168.65   1
  -5   6   1 21921.1 2030.12   1
   8   2   3 94331.4 2962.89  -2
  -5   6   0 94331.4 2962.89   1
   8   2   4 56767.9 2071.26  -2
  -5   6  -1 56767.9 2071.26   1
   8   2   5 24145.7 1380.86  -2
  -5   6  -2 24145.7 1380.86   1
  -5   6  -3 5250.37 1052.57   1
   8   2   6 8527.74 2248.47  -2
  -5   6  -3 8527.74 2248.47   1
  -5   6  -4 50075.0 1084.04   1
  -5   6  -5 23924.9 1338.73   1
  -5   6  -6-942.795 1115.18   1
  -5   6  -7-1135.98 959.614   1
  -5   5   4 45411.0 1949.38   1
  -5   5   3 742.719 1232.30   1
  -5   5   2 2279.63 1879.42   1
  -5   5   0 40696.5 1550.29   1
  -5   5  -1 5597.24 1178.45   1
  -5   5  -2 30002.8 1138.46   1
  -5   5  -3 5198.33 1020.76   1
  -5   5  -4 1404.46 1178.74   1
  -5   5  -5 7794.67 2284.29   1
   7   0   8 49621.3 1752.15  -2
  -5   5  -6 49621.3 1752.15   1
  -5   5  -7 32459.9 2105.94   1
  -5   5  -8 4602.60 1583.55   1
  -5   5  -9 2527.57 1177.78   1
  -5   4   5 7306.99 1574.13   1
   7   1  -2 12852.5 2235.54  -2
  -5   4   4 12852.5 2235.54   1
   7   1  -1 30988.3 2570.35  -2
  -5   4   3 30988.3 2570.35   1
  -5   4   2 60304.6 2596.97   1
   7   1   0 64698.7 2825.43  -2
  -5   4   2 64698.7 2825.43   1
  -5   4   1 5944.86 1860.87   1
  -5   4   0 1652.28 1090.00   1
  -5   4  -1 78026.9 1960.36   1
  -5   4  -2 133855. 1667.66   1
  -5   4  -3 1536.20 1028.30   1
  -5   4  -4-125.341 1114.55   1
  -5   4  -5 14026.0 1355.93   1
  -5   4  -6 42421.1 2601.31   1
  -5   4  -7 5016.79 2041.58   1
  -5   4  -8 5955.04 1891.28   1
  -5   4  -9 3597.94 1617.28   1
  -5   4 -10 2926.38 1167.44   1
  -5   3   5-411.511 1522.52   1
  -5   3   4 11469.4 1917.84   1
  -5   3   3 92636.6 1885.98   1
  -5   3   2 29166.0 1552.94   1
  -5   3   1 5534.24 1221.03   1
  -5   3   0 3636.25 1025.90   1
  -5   3  -1 15762.2 2276.89   1
   6   0   2 77509.1 3295.68  -2
  -5   3  -1 77509.1 3295.68   1
   6   0   3 23454.5 1345.00  -2
  -5   3  -2 23454.5 1345.00   1
  -5   3  -3 3258.26 967.565   1
  -5   3  -4 34231.8 1140.53   1
  -5   3  -5 3881.41 1274.26   1
  -5   3  -6 537.825 1324.68   1
  -5   3  -7 26032.5 2605.27   1
  -5   3  -8 62510.1 2822.69   1
  -5   3  -9 6522.52 979.114   1
  -5   3 -10 673.946 818.744   1
  -5   2   8 4083.31 1358.09   1
  -5   2   7 5934.49 1761.34   1
  -5   2   6 2271.22 1884.66   1
  -5   2   5 29879.5 1460.50   1
  -5   2   4 4052.91 1889.20   1
  -5   2   3 3795.73 1230.53   1
  -5   2   2 12007.1 1038.96   1
  -5   2   1 120922. 1665.33   1
  -5   2   0 48103.8 1287.78   1
  -5   2  -1-865.472 1380.64   1
  -5   2  -2 9075.14 971.059   1
  -5   2  -3 65304.3 1316.63   1
   5  -2   4 121911. 1958.01  -2
  -5   2  -4 121911. 1958.01   1
   5  -2   5 1246.76 1326.16  -2
  -5   2  -5 1246.76 1326.16   1
   5  -2   6 2340.37 1723.55  -2
  -5   2  -6 2340.37 1723.55   1
   5  -2   7 35854.0 2792.32  -2
  -5   2  -7 35854.0 2792.32   1
   5  -2   8 25027.9 1686.29  -2
  -5   2  -8 25027.9 1686.29   1
   5  -2   9 11639.5 1511.87  -2
  -5   2  -9 11639.5 1511.87   1
  -5   2 -10 13023.9 1133.31   1
  -5   2 -11-800.689 1109.63   1
  -5   2 -12-353.255 875.161   1
  -5   1   9 11804.6 1415.25   1
  -5   1   8 118.169 1154.87   1
  -5   1   7 953.362 1372.58   1
   5  -1  -6 96776.4 2539.21  -2
  -5   1   6 96776.4 2539.21   1
   5  -1  -5 145673. 4467.67  -2
  -5   1   5 145673. 4467.67   1
   5  -1  -4 2811.97 1614.10  -2
  -5   1   4 2811.97 1614.10   1
   5  -1  -3 2264.15 1108.02  -2
  -5   1   3 2264.15 1108.02   1
   5  -1  -2 37679.6 1428.31  -2
  -5   1   2 37679.6 1428.31   1
   5  -1  -1 144439. 1966.98  -2
  -5   1   1 144439. 1966.98   1
  -5   1   0 1898.79 1107.67   1
  -5   1  -1 42337.4 2495.91   1
  -5   1  -2 9877.40 1029.11   1
  -5   1  -3 4370.35 989.144   1
  -5   1  -4 1969.49 961.261   1
  -5   1  -5 79271.2 1416.86   1
  -5   1  -6 44233.6 1433.78   1
  -5   1  -7 3918.45 2360.73   1
  -5   1  -8 2850.85 1240.38   1
  -5   1  -9 30704.3 1479.21   1
  -5   1 -10 20286.3 1309.45   1
  -5   1 -11 2373.96 1329.12   1
  -5   1 -12-75.7894 1110.89   1
  -5   1 -13 2968.88 825.296   1
  -5   0   9 4009.36 1128.00   1
  -5   0   8 6773.16 1400.67   1
  -5   0   7 3976.06 1561.87   1
  -5   0   6 8418.85 1683.60   1
  -5   0   5 2998.14 2359.59   1
  -5   0   4 27004.9 1211.47   1
  -5   0   3 46729.8 1072.72   1
  -5   0   2 1946.81 1086.65   1
  -5   0   1 755.379 985.152   1
  -5   0   0 46078.2 1426.01   1
  -5   0  -1 155931. 2417.92   1
  -5   0  -2 17839.1 1036.14   1
  -5   0  -3 2917.53 1207.15   1
   5   0   4 10698.4 1126.12   1
   4  -3   4 107716. 2144.14  -2
  -5   0  -5 107716. 2144.14   1
   5   0   6 10379.9 1100.65   1
   4  -3   5 16072.9 2388.41  -2
  -5   0  -6 16072.9 2388.41   1
   5   0   7 9063.02 1146.69   1
  -5   0  -9 3814.87 2214.90   1
  -5   0 -10-852.857 1196.16   1
  -5   0 -11 11499.2 1573.68   1
  -5   0 -12 5558.88 1323.97   1
  -5  -1   9 10440.9 1935.20   1
   4  -2  -9 129671. 3579.96  -2
  -5  -1   8 129671. 3579.96   1
   4  -2  -8 83626.9 3715.92  -2
  -5  -1   7 83626.9 3715.92   1
   4  -2  -6 5962.14 2458.49  -2
  -5  -1   5 5962.14 2458.49   1
  -5  -1   4 105680. 1863.49   1
  -5  -1   3 43230.9 1204.01   1
  -5  -1   2 3179.60 917.831   1
  -5  -1   1 2751.17 875.832   1
  -5  -1   0 10517.1 905.933   1
  -5  -1  -1 8520.92 1638.52   1
  -5  -1  -2 9472.80 957.915   1
   3  -4   1 61913.9 2697.76  -2
  -5  -1  -3 61913.9 2697.76   1
   3  -4   2 13673.0 1292.13  -2
  -5  -1  -4 13673.0 1292.13   1
   3  -4   3 208881. 1636.90  -2
  -5  -1  -5 208881. 1636.90   1
   5   1   6 23747.8 971.430   1
   5   1   7 45644.4 1383.73   1
   5   1   8 9497.03 1307.44   1
   5   1   9 165.638 1156.30   1
   5   1  10 3428.07 1031.87   1
   5   1  11 19498.4 1322.97   1
   5   1  12 6780.97 1038.87   1
   5   1  13 953.032 742.831   1
  -5  -2   9 4166.48 1306.87   1
  -5  -2   8 11671.8 1618.87   1
   3  -3  -9 2905.63 2332.04  -2
  -5  -2   7 2905.63 2332.04   1
   3  -3  -8 92244.1 4403.48  -2
  -5  -2   6 92244.1 4403.48   1
   3  -3  -7 21180.2 3833.61  -2
  -5  -2   5 21180.2 3833.61   1
   3  -3  -6 83627.7 4175.99  -2
  -5  -2   4 83627.7 4175.99   1
  -5  -2   3 7125.40 1016.54   1
  -5  -2   2 90981.0 1294.10   1
  -5  -2   1 40206.4 1011.60   1
  -5  -2   0-234.362 824.030   1
  -5  -2  -1 7363.74 1585.25   1
  -5  -2  -2 67645.7 1195.92   1
  -5  -2  -3 83717.2 1261.76   1
  -5  -2  -4-912.566 701.151   1
   5   2   5-86.2087 846.141   1
   5   2   6 18235.8 857.960   1
   5   2   7 11753.2 1190.44   1
   5   2   8 993.195 868.096   1
   5   2   9 14255.5 1079.44   1
   5   2  10-88.8083 891.810   1
  -2   6  -8 58873.6 2181.62  -2
   5   2  11 58873.6 2181.62   1
  -2   6  -9 67927.1 2225.40  -2
   5   2  12 67927.1 2225.40   1
   2  -6  10 31691.2 1854.72  -2
  -5  -2 -13 31691.2 1854.72   1
  -5  -2 -14 3987.27 781.335   1
  -5  -3   9-1441.24 1624.06   1
  -5  -3   8-148.826 2028.05   1
  -5  -3   7 32151.9 2005.86   1
  -5  -3   6 65655.8 2361.23   1
  -5  -3   5 1352.97 1927.13   1
  -5  -3   4 2645.32 1961.41   1
   2  -4  -7 136.519 3577.02  -2
  -5  -3   4 136.519 3577.02   1
  -5  -3   3 9145.28 1591.21   1
  -5  -3   2 35509.6 1015.38   1
  -5  -3   1 278.744 1038.47   1
  -5  -3   0 29588.1 1310.94   1
  -5  -3  -1 12452.3 2009.39   1
   2  -5  -2 20233.9 2453.78  -2
  -5  -3  -1 20233.9 2453.78   1
   2  -5  -1 116724. 3489.61  -2
  -5  -3  -2 116724. 3489.61   1
   2  -5   0 269258. 4059.86  -2
  -5  -3  -3 269258. 4059.86   1
  -5  -3  -4 71773.7 1371.04   1
   5   3   5 55431.2 1303.64   1
  -5  -3  -6 4912.68 813.098   1
   5   3   7 1584.60 938.385   1
   5   3   8 28515.3 1152.01   1
   5   3   9 26725.2 1246.28   1
   5   3  10 904.885 946.697   1
   5   3  11 1252.63 1319.31   1
   5   3  12 3625.79 1179.22   1
  -5  -3 -13 5973.89 759.421   1
   2  -4 -12 5568.01 2250.18  -2
  -5  -4   9 5568.01 2250.18   1
   2  -4 -11 3888.55 2746.59  -2
  -5  -4   8 3888.55 2746.59   1
   2  -4 -10 17823.3 3308.41  -2
  -5  -4   7 17823.3 3308.41   1
  -5  -4   6 2124.25 2477.92   1
  -5  -4   5 22662.4 2882.41   1
  -5  -4   4 34450.7 1453.03   1
  -5  -4   3 3989.04 1187.58   1
  -5  -4   2-58.3581 922.870   1
  -5  -4   1 24106.8 1047.43   1
  -5  -4   0 85283.4 1296.91   1
  -5  -4  -1 21622.5 991.634   1
  -5  -4  -2 748.382 1247.54   1
   1  -6  -1 5033.54 1603.59  -2
  -5  -4  -3 5033.54 1603.59   1
  -5  -4  -4 57036.4 1261.95   1
   5   4   5 10495.7 1095.62   1
  -5  -4  -6 3411.92 1025.69   1
   5   4   7 6740.97 1327.42   1
   5   4   8 2576.83 1004.24   1
   5   4   9 3820.96 1376.32   1
  -1   7  -5 213117. 3678.55  -2
   5   4   9 213117. 3678.55   1
  -1   7  -7 14848.1 2135.80  -2
   5   4  11 14848.1 2135.80   1
   5   4  12 643.921 1149.74   1
   5   4  13-69.1648 685.642   1
  -5  -5   8 14583.0 1321.94   1
   1  -5 -11 1259.48 2133.42  -2
  -5  -5   7 1259.48 2133.42   1
   1  -5 -10 865.148 1495.41  -2
  -5  -5   6 865.148 1495.41   1
  -5  -5   5 36397.7 1523.18   1
  -5  -5   4 20732.4 1231.06   1
  -5  -5   3 218.409 1028.69   1
  -5  -5   2 2491.18 886.069   1
   1  -6  -5 15782.2 1611.80  -2
  -5  -5   1 15782.2 1611.80   1
   1  -6  -4 178398. 1991.02  -2
  -5  -5   0 178398. 1991.02   1
  -5  -5  -1 3876.88 1099.43   1
  -5  -5  -2 50862.9 1817.97   1
  -5  -5  -3 5776.84 1145.73   1
   5   5   4 1078.86 1210.13   1
   5   5   5 16431.5 1355.24   1
   5   5   6 46356.8 1568.56   1
  -5  -5  -7 6985.21 1186.35   1
   5   5   9 2307.44 1753.14   1
   0   8  -5 47332.6 2538.83  -2
   5   5  10 47332.6 2538.83   1
   0   8  -6 105651. 1461.80  -2
   5   5  11 105651. 1461.80   1
   5   5  12 606.795 1113.91   1
  -5  -5 -13-1934.49 606.716   1
  -5  -6   8-2181.66 1474.62   1
  -5  -6   7 13448.7 2282.92   1
  -5  -6   6 6481.38 797.783   1
  -5  -6   5 1200.90 914.272   1
  -5  -6   4 4987.22 1039.48   1
   5   6  -3 47731.7 1377.24   1
  -5  -6   2 36312.0 1132.69   1
  -5  -6   1 2849.19 1118.47   1
   0  -7  -5 214.472 1837.12  -2
  -5  -6   0 214.472 1837.12   1
   0  -7  -4 75908.9 2233.18  -2
  -5  -6  -1 75908.9 2233.18   1
  -5  -6  -2 58730.0 1947.60   1
   5   6   3-701.673 1183.62   1
   5   6   4 4579.91 1197.03   1
   5   6   5 18095.9 1278.30   1
   5   6   6 17147.0 1651.02   1
   0  -8   2 183820. 3698.07  -2
  -5  -6  -7 183820. 3698.07   1
   5   6   8 8647.07 1533.03   1
   5   6   9-27.8265 1018.96   1
   5   6  10-498.467 885.594   1
   5   6  11 2000.03 894.102   1
   1   9  -5 44795.8 1859.25  -2
   5   6  11 44795.8 1859.25   1
   5   6  12 6360.84 730.713   1
   5   6  13 2818.60 707.632   1
  -5  -7   6 3786.44 942.106   1
   5   7  -5 88.9470 1295.28   1
   0  -7 -10 132.151 3181.02  -2
  -5  -7   5 132.151 3181.02   1
   0  -7  -9-537.719 2089.11  -2
  -5  -7   4-537.719 2089.11   1
   5   7  -3 30132.9 1339.76   1
  -5  -7   2 3707.65 1028.48   1
  -5  -7   1 19577.3 1242.88   1
  -5  -7   0 5764.89 1097.09   1
   5   7   1 2453.94 1092.61   1
   5   7   2-4352.15 2478.98   1
   1   8   4 30897.1 2627.21  -2
   5   7   2 30897.1 2627.21   1
   5   7   3 33928.4 1335.51   1
   5   7   4 35461.4 1819.13   1
   5   7   5 3544.23 1505.00   1
  -5  -7  -6 154.301 1181.75   1
   5   7   7 15744.9 1239.83   1
   1   9  -2 84447.1 3121.01  -2
   5   7   8 84447.1 3121.01   1
   5   7   9 3001.18 925.219   1
   5   7  10-559.775 767.469   1
   5   7  11-38.9735 536.735   1
   5   7  12 3134.36 816.824   1
   5   8  -5 15109.6 1224.06   1
   5   8  -4 6163.33 1352.21   1
   1   8   9 12846.6 2497.68  -2
   5   8  -3 12846.6 2497.68   1
  -1  -8  -8 11979.3 1794.46  -2
  -5  -8   2 11979.3 1794.46   1
   5   8  -1 52310.2 1629.19   1
   5   8   0 11346.2 1256.27   1
   5   8   1-189.812 1176.06   1
   5   8   2 6078.91 3216.81   1
  -5  -8  -3 28335.5 2364.78   1
   5   8   5 1816.81 1202.91   1
   5   8   6 2007.70 1110.07   1
  -5  -8  -7 2843.18 1001.77   1
   5   8   8 888.612 1101.13   1
   2  10  -2 44913.2 1892.72  -2
   5   8   9 44913.2 1892.72   1
   5   8  10 4350.11 762.524   1
   5   8  11-1686.74 895.634   1
   5   9  -4-775.009 948.568   1
   5   9  -3 3646.81 1184.68   1
   5   9  -2 7051.43 901.842   1
  -2  -9  -8 10346.0 1634.74  -2
  -5  -9   1 10346.0 1634.74   1
  -5  -9   0 359.949 1638.10   1
   5   9   1 18234.6 1634.67   1
   5   9   3 63.8275 1103.48   1
   5   9   4 3662.80 1115.76   1
   2  10   2 32091.3 1897.17  -2
   5   9   5 32091.3 1897.17   1
   5   9   6 8291.35 992.841   1
   5   9   7-506.609 769.679   1
   5   9   8 1406.28 802.174   1
   5   9   9 4874.73 543.143   1
   5   9  10 3622.10 595.059   1
   5  10  -3 7405.08 813.529   1
  -5 -10   1 275.684 1002.99   1
  -5 -10   0 23276.7 1480.38   1
   5  10   2-1251.12 1098.75   1
   5  10   3 797.987 874.498   1
   5  10   4 1808.76 834.823   1
  -5 -10  -5 5067.22 777.501   1
  -5 -10  -7 3456.37 515.469   1
   5  10   8-246.048 809.710   1
   5  11   0 151.432 577.958   1
   5  11   1-182.017 623.162   1
  -3 -11  -7-171.692 1235.37  -2
  -5 -11  -1-171.692 1235.37   1
   5  11   2 7302.14 705.982   1
   5  11   3 7770.34 570.198   1
  -5 -11  -4 371.799 956.402   1
  -5 -11  -5-691.079 830.518   1
  -6   6   0 1537.19 813.262   1
  -6   6  -1 21335.1 1332.53   1
  -6   6  -2 23457.5 984.459   1
  -6   6  -3 336.389 769.455   1
  -6   6  -4 999.417 1074.49   1
  -6   5   3 12660.0 1141.82   1
  -6   5   2 1500.80 900.546   1
  -6   5   1 12141.3 1592.46   1
  -6   5   0 3863.11 1130.31   1
  -6   5  -1-394.516 1572.85   1
  -6   5  -2-25.4208 1006.84   1
   8   0   5 36020.4 2103.98  -2
  -6   5  -3 36020.4 2103.98   1
  -6   5  -4 23136.6 971.986   1
  -6   5  -5 5388.42 1040.96   1
  -6   5  -7 12903.6 1242.92   1
  -6   4   4 6422.78 1142.87   1
  -6   4   3 2174.14 948.749   1
  -6   4   2 19701.2 1772.38   1
  -6   4   1 43211.7 1857.64   1
  -6   4   0 13067.6 1256.08   1
  -6   4  -1-153.904 1133.47   1
  -6   4  -2 3982.51 983.530   1
  -6   4  -3 33271.4 1182.60   1
  -6   4  -4 5333.27 968.667   1
  -6   4  -5 9237.09 928.557   1
  -6   4  -6 5260.73 1643.95   1
  -6   4  -7 2499.59 1070.46   1
  -6   4  -8 1742.93 931.903   1
  -6   4  -9 8930.71 1110.05   1
  -6   3   4 1579.20 1328.50   1
  -6   3   3 2724.09 1577.60   1
   7   0  -1 24867.9 1616.28  -2
  -6   3   2 24867.9 1616.28   1
   7   0   0 22186.1 1736.19  -2
  -6   3   1 22186.1 1736.19   1
  -6   3   0 5528.75 1709.90   1
  -6   3  -1 27919.0 1495.03   1
  -6   3  -2 4731.74 1086.52   1
  -6   3  -3-873.999 1047.96   1
  -6   3  -4 13647.7 1137.41   1
  -6   3  -5 50898.2 1341.40   1
  -6   3  -6 8738.04 1569.14   1
  -6   3  -7-876.413 1835.60   1
  -6   3  -8 1950.09 1680.21   1
  -6   3  -9 17062.8 1645.19   1
  -6   2   4 26571.8 1750.93   1
  -6   2   3 25868.8 1276.47   1
  -6   2   2 1895.38 1182.53   1
  -6   2   1 325.577 1251.43   1
  -6   2   0 42388.1 2244.90   1
  -6   2  -1 43583.8 2683.22   1
   6  -2   2 1076.49 1383.40  -2
  -6   2  -2 1076.49 1383.40   1
   6  -2   3 13840.4 1509.02  -2
  -6   2  -3 13840.4 1509.02   1
   6  -2   4 27946.1 1636.29  -2
  -6   2  -4 27946.1 1636.29   1
   6  -2   5 25758.7 1850.02  -2
  -6   2  -5 25758.7 1850.02   1
   6  -2   6 674.200 1636.30  -2
  -6   2  -6 674.200 1636.30   1
   6  -2   7 23316.4 1715.75  -2
  -6   2  -7 23316.4 1715.75   1
  -6   2  -8 3033.18 1971.33   1
  -6   2  -9 751.731 1709.00   1
  -6   2 -10 2665.27 1390.21   1
   6  -1  -6 5432.66 2239.78  -2
  -6   1   6 5432.66 2239.78   1
   6  -1  -5 7437.04 2692.14  -2
  -6   1   5 7437.04 2692.14   1
   6  -1  -4 29736.8 2248.36  -2
  -6   1   4 29736.8 2248.36   1
  -6   1   3 2364.74 986.885   1
  -6   1   2 9730.43 1302.69   1
  -6   1   1 4997.39 1296.66   1
  -6   1   0 2329.58 1662.76   1
  -6   1  -1 1699.84 1092.23   1
  -6   1  -2 41668.7 1394.95   1
  -6   1  -3 28933.1 1114.35   1
  -6   1  -4 2801.18 938.096   1
  -6   1  -5 1547.11 1238.48   1
  -6   1  -6 26462.9 1520.89   1
  -6   1  -7 43904.2 1592.94   1
  -6   1  -8 3443.75 2170.90   1
  -6   1  -9 1223.83 946.405   1
  -6   1 -10 4490.41 886.616   1
  -6   1 -11 6348.26 898.696   1
  -6   0   7 7616.23 1664.04   1
  -6   0   6 20147.6 2178.93   1
  -6   0   5 23.6969 2226.51   1
  -6   0   4-1018.01 1329.96   1
  -6   0   3 12321.5 1084.31   1
  -6   0   2 41924.1 1395.97   1
  -6   0   1 17328.7 1042.44   1
  -6   0   0-396.746 1053.43   1
  -6   0  -1 2902.96 1188.58   1
  -6   0  -2 47033.8 1927.97   1
   5  -3   2 18482.5 1920.64  -2
  -6   0  -3 18482.5 1920.64   1
  -6   0  -4 4574.23 1376.23   1
  -6   0  -5 2795.32 1051.16   1
  -6   0  -6 2579.92 1558.87   1
  -6   0  -7 2474.58 1497.39   1
  -6   0  -8 14123.9 2401.11   1
  -6   0  -9 21663.9 1295.72   1
  -6   0 -10 2605.20 1026.44   1
  -6   0 -11 5733.15 1144.79   1
  -6   0 -12 6953.79 927.531   1
   5  -2  -9 8953.36 1862.09  -2
  -6  -1   8 8953.36 1862.09   1
  -6  -1   7 14291.4 1307.88   1
  -6  -1   6 16313.5 1606.07   1
  -6  -1   5-969.853 1639.70   1
  -6  -1   4 5591.78 1246.70   1
  -6  -1   3 4505.83 1028.08   1
  -6  -1   2 5997.99 1144.28   1
  -6  -1   1 2599.08 1101.41   1
  -6  -1   0 35000.4 3321.57   1
   4  -4  -2 33111.0 2942.67  -2
  -6  -1   0 33111.0 2942.67   1
   4  -4  -1 2613.85 1789.18  -2
  -6  -1  -1 2613.85 1789.18   1
   4  -4   0 87554.8 2635.87  -2
  -6  -1  -2 87554.8 2635.87   1
  -6  -1  -3 5519.72 988.404   1
   6   1   4 57013.7 1566.33   1
  -6  -1  -5 19253.3 1487.98   1
  -6  -1  -6-1140.15 1239.14   1
  -6  -1  -7 2337.89 836.085   1
   6   1   8 14805.8 1229.20   1
  -6  -1 -10 58.3575 1907.42   1
  -6  -1 -11 1740.86 1240.80   1
  -6  -1 -12 220.825 1023.58   1
   4  -3  -9 19045.2 2652.36  -2
  -6  -2   7 19045.2 2652.36   1
  -6  -2   6 890.280 2319.79   1
  -6  -2   5 15690.9 2682.98   1
  -6  -2   4 10584.1 1304.12   1
  -6  -2   3 4167.99 1393.80   1
  -6  -2   2-256.184 944.548   1
  -6  -2   1 38893.7 1017.63   1
  -6  -2   0 41397.4 1252.52   1
  -6  -2  -1-1564.85 982.909   1
  -6  -2  -2 10474.0 2858.19   1
  -6  -2  -3 3634.75 1097.16   1
  -6  -2  -4 22972.2 1150.25   1
   6   2   5-1035.34 756.463   1
  -6  -2  -6 24430.5 862.826   1
   6   2   7 5006.92 1164.16   1
   6   2   8 2422.64 1169.15   1
  -3   6  -6 160011. 3080.22  -2
   6   2   9 160011. 3080.22   1
  -6  -2 -12 1228.94 1145.16   1
  -6  -3   8 5156.83 1391.60   1
  -6  -3   7 1187.25 1358.00   1
  -6  -3   6-1459.16 1623.87   1
  -6  -3   5 10759.9 1905.42   1
  -6  -3   4 957.068 1975.94   1
  -6  -3   3 9177.98 1653.08   1
   3  -5  -5 5936.26 1953.31  -2
  -6  -3   2 5936.26 1953.31   1
   3  -5  -4 41481.7 2367.14  -2
  -6  -3   1 41481.7 2367.14   1
   3  -5  -3 170416. 2203.84  -2
  -6  -3   0 170416. 2203.84   1
  -6  -3  -1 49049.9 2132.29   1
   3  -5  -2 111348. 2617.78  -2
  -6  -3  -1 111348. 2617.78   1
  -6  -3  -2 43538.2 3383.50   1
  -6  -3  -3 1260.51 1112.41   1
  -6  -3  -4-814.865 780.600   1
   6   3   5 30430.4 1028.33   1
   6   3   6 56544.0 1159.58   1
  -6  -3  -7 4534.87 1032.13   1
   6   3   8-437.843 1210.28   1
   6   3   9 3474.85 872.655   1
   6   3  10 6921.43 837.011   1
   6   3  11 1416.21 960.747   1
   6   3  12-892.301 754.652   1
  -6  -3 -13 416.802 846.244   1
  -6  -4   7 25495.1 1436.70   1
  -6  -4   6 6138.65 1619.91   1
  -6  -4   5 774.883 1810.83   1
  -6  -4   4 6980.72 2014.70   1
  -6  -4   3 37654.1 1631.35   1
  -6  -4   2 17958.0 1366.67   1
  -6  -4   1 2843.28 2210.95   1
   2  -6  -5 11508.7 1665.84  -2
  -6  -4   1 11508.7 1665.84   1
   2  -6  -4 5947.53 1636.86  -2
  -6  -4   0 5947.53 1636.86   1
  -6  -4  -1 26321.2 1151.36   1
   6   4   2 8506.69 1498.59   1
   6   4   3 2560.30 1128.06   1
  -6  -4  -4 2115.42 1042.97   1
  -6  -4  -5 355.214 882.201   1
   6   4   6 4840.31 893.937   1
   2  -7   3 162818. 2401.09  -2
  -6  -4  -7 162818. 2401.09   1
  -2   7  -4 29267.4 1678.27  -2
   6   4   8 29267.4 1678.27   1
   6   4   9 2463.87 925.626   1
   6   4  10 139.516 815.591   1
   6   4  11 3352.94 726.508   1
   6   4  12 6721.76 882.302   1
  -6  -4 -13 473.915 792.527   1
  -6  -5   7 13374.1 1379.90   1
  -6  -5   6 750.704 1839.28   1
  -6  -5   5 6511.36 2255.72   1
   2  -6  -8 13015.0 2582.52  -2
  -6  -5   4 13015.0 2582.52   1
   2  -6  -7 61497.2 3153.73  -2
  -6  -5   3 61497.2 3153.73   1
  -6  -5   2 8045.01 2180.92   1
  -6  -5   1 24112.8 1120.42   1
  -6  -5   0 7341.54 1052.02   1
  -6  -5  -1 948.698 1073.13   1
   6   5   2 1733.93 1377.37   1
  -6  -5  -3 51334.8 1466.36   1
  -6  -5  -4 17566.8 1376.68   1
  -6  -5  -5-107.678 1149.08   1
  -6  -5  -6 6357.83 1203.55   1
   1  -8   2 32581.9 1928.14  -2
  -6  -5  -7 32581.9 1928.14   1
  -1   8  -3 127462. 2231.18  -2
   6   5   8 127462. 2231.18   1
   6   5   9 475.010 909.098   1
   6   5  10 597.424 820.976   1
   6   5  11 917.766 1045.26   1
   6   5  12 993.721 824.475   1
  -6  -6   6 13906.7 1332.21   1
  -6  -6   5 12208.1 1843.44   1
  -6  -6   4 879.808 2027.83   1
  -1   7   8-328.938 1752.54  -2
   6   6  -3-328.938 1752.54   1
   1  -7  -7 29059.8 1604.54  -2
  -6  -6   2 29059.8 1604.54   1
  -6  -6   1 28460.2 1144.34   1
  -6  -6   0-246.540 1061.75   1
  -6  -6  -1-27.9367 1072.81   1
  -6  -6  -2-690.231 1352.03   1
  -6  -6  -3 21666.1 1277.81   1
   6   6   4 3349.73 1704.06   1
   1  -8  -1 221369. 4278.10  -2
  -6  -6  -4 221369. 4278.10   1
   1  -8   0 88477.7 2391.82  -2
  -6  -6  -5 88477.7 2391.82   1
   6   6   6 15234.4 1285.49   1
  -6  -6  -7-941.183 1032.33   1
   6   6   8 1592.20 996.830   1
   6   6   9 13681.5 1576.42   1
   6   6  10 6706.51 1287.79   1
   6   6  11-2136.00 618.096   1
   6   6  12-1810.96 701.227   1
   6   7  -4 4860.36 798.252   1
  -6  -7   3 4842.93 987.460   1
  -6  -7   2 2189.35 823.811   1
  -6  -7   1 235.724 1989.08   1
   0  -8  -7 6189.57 1716.65  -2
  -6  -7   1 6189.57 1716.65   1
  -6  -7   0 20814.4 1155.16   1
  -6  -7  -1 33756.3 1287.28   1
   6   7   2 1806.25 1596.98   1
  -6  -7  -3 27.2122 1190.18   1
  -6  -7  -4 11195.2 1299.14   1
   0  -9  -1 74041.8 2413.69  -2
  -6  -7  -5 74041.8 2413.69   1
   0   9   0 67203.0 2974.06  -2
   6   7   6 67203.0 2974.06   1
  -6  -7  -7 488.873 1518.52   1
   6   7   8-103.791 1455.42   1
   6   7   9 4930.87 1363.31   1
   6   7  10 1146.63 670.497   1
   6   7  11 387.462 423.546   1
   6   8  -4 13941.4 860.371   1
   6   8  -3 10677.9 1106.40   1
  -6  -8   2 1350.11 745.150   1
  -6  -8   1 799.205 903.371   1
   6   8   0 14005.2 1134.36   1
   6   8   1 8961.39 1576.76   1
   6   8   2 3095.59 1518.27   1
  -6  -8  -3 2982.95 1126.79   1
  -6  -8  -4 1185.56 1088.36   1
  -6  -8  -5 1738.37 1669.07   1
  -6  -8  -7 12504.8 1471.05   1
   6   8   8-110.697 760.331   1
   6   8   9-887.551 640.861   1
   6   8  10 1014.62 446.768   1
   6   8  11 4822.72 619.927   1
   6   9  -3 1360.90 676.978   1
   6   9  -2 5520.73 955.775   1
  -6  -9   1 4774.33 740.750   1
  -6  -9   0 1623.08 821.157   1
  -6  -9  -1 1502.39 893.075   1
  -6  -9  -3 19120.5 1727.07   1
  -6  -9  -4 832.171 1462.13   1
  -6  -9  -5 1418.82 1389.09   1
  -6  -9  -6 8816.82 850.156   1
  -6  -9  -7 5788.95 724.781   1
   6   9   8 256.158 577.659   1
   6   9   9 532.052 440.822   1
   6  10  -1-377.729 649.658   1
  -6 -10   0-312.945 541.109   1
  -6 -10  -1 1215.86 968.934   1
   2  11   4 36298.2 1693.27  -2
   6  10   4 36298.2 1693.27   1
  -6 -10  -5 2088.00 634.068   1
  -6 -10  -6-376.700 520.059   1
   6  10   7 21.9323 408.026   1
  -7   4   1 744.216 976.879   1
  -7   4   0 13111.5 1273.11   1
  -7   4  -1 6722.47 1243.24   1
  -7   4  -2 2049.52 1202.10   1
  -7   4  -3 1876.08 1163.92   1
  -7   4  -4 1851.55 644.479   1
  -7   4  -5 730.914 753.194   1
  -7   4  -6 6429.27 983.957   1
  -7   3   2 14750.7 1243.91   1
  -7   3   1 3025.78 1295.25   1
  -7   3   0 105.612 1189.91   1
  -7   3  -1 1544.62 960.641   1
  -7   3  -2 22412.5 1763.51   1
  -7   3  -3 17872.8 899.667   1
  -7   3  -4-543.540 761.298   1
  -7   3  -5 1577.47 728.660   1
  -7   3  -6 9507.58 1463.37   1
  -7   3  -8 853.097 1028.45   1
  -7   2   3 9765.61 1172.01   1
   7  -2  -1 2020.28 1244.05  -2
  -7   2   1 2020.28 1244.05   1
   7  -2   0 3029.60 1850.45  -2
  -7   2   0 3029.60 1850.45   1
   7  -2   1 1163.97 1398.91  -2
  -7   2  -1 1163.97 1398.91   1
   7  -2   2 14489.7 1467.04  -2
  -7   2  -2 14489.7 1467.04   1
   7  -2   3 273.668 1135.48  -2
  -7   2  -3 273.668 1135.48   1
   7  -2   4 10674.6 1207.88  -2
  -7   2  -4 10674.6 1207.88   1
  -7   2  -5 8820.36 925.217   1
  -7   2  -6-974.271 1248.09   1
  -7   2  -7 232.128 1088.05   1
  -7   2  -8 15760.2 1587.96   1
  -7   2  -9 8721.57 1216.17   1
  -7   1   3 1361.04 1238.42   1
  -7   1   2-43.7908 904.672   1
  -7   1   1 7895.60 1087.63   1
  -7   1   0 21166.2 1692.78   1
  -7   1  -1 1954.16 1154.48   1
  -7   1  -2-40.5552 1237.42   1
  -7   1  -3 13753.7 1088.27   1
  -7   1  -4 27285.9 1182.05   1
  -7   1  -5-919.868 941.481   1
  -7   1  -6 1063.85 1014.32   1
  -7   1  -7 1986.58 1029.84   1
  -7   1  -8 12053.8 1802.84   1
  -7   1  -9 1802.81 1471.97   1
  -7   1 -10 3547.76 1104.59   1
  -7   0   4 9770.55 1410.71   1
  -7   0   3-1208.78 1019.09   1
  -7   0   2-230.610 834.921   1
  -7   0   1 17040.3 1381.67   1
   6  -3  -2 17762.5 1976.78  -2
  -7   0   1 17762.5 1976.78   1
  -7   0   0 11262.9 1861.81   1
   6  -3  -1 15936.4 2135.27  -2
  -7   0   0 15936.4 2135.27   1
  -7   0  -1-728.940 1178.71   1
  -7   0  -2 527.912 1349.43   1
  -7   0  -3 1451.08 1032.30   1
  -7   0  -4 2080.02 1033.59   1
  -7   0  -5 8049.86 1077.98   1
  -7   0  -6 15791.5 1248.91   1
  -7   0  -7 4132.49 1142.58   1
  -7   0  -9 10149.9 1792.81   1
  -7   0 -10 21690.6 1571.24   1
  -7  -1   5 6793.68 1527.58   1
  -7  -1   4 4399.46 1861.55   1
  -7  -1   3 14713.0 1305.20   1
   5  -4  -4 7799.29 1231.24  -2
  -7  -1   2 7799.29 1231.24   1
   5  -4  -3 30078.3 1500.96  -2
  -7  -1   1 30078.3 1500.96   1
  -7  -1   0 4242.83 1531.63   1
   5  -4  -2 55734.1 2505.39  -2
  -7  -1   0 55734.1 2505.39   1
  -7  -1  -1 25167.0 1513.49   1
  -7  -1  -2 29454.7 1734.73   1
  -7  -1  -3 613.742 2070.63   1
  -7  -1  -4 23.7142 2012.43   1
  -7  -1  -5 20248.2 1404.24   1
  -7  -1  -6 12346.4 1268.69   1
  -7  -1  -7 164.691 1397.55   1
  -7  -1  -8 6693.89 2036.37   1
  -7  -1  -9 1989.71 872.999   1
  -7  -1 -10 4265.16 788.850   1
  -7  -2   6-197.606 1196.81   1
  -7  -2   5-1183.03 1674.63   1
  -7  -2   4 9685.84 2129.30   1
  -7  -2   3 24707.0 1453.40   1
  -7  -2   2-121.529 922.227   1
  -7  -2   1 981.920 1035.42   1
  -7  -2   0-511.745 1575.18   1
  -7  -2  -1 9766.26 2566.39   1
  -7  -2  -2-3647.89 1559.35   1
  -7  -2  -3 9239.99 1640.23   1
  -7  -2  -4 8108.77 2188.84   1
  -7  -2  -5-2979.94 1957.84   1
   4  -6   3 77665.7 3034.66  -2
  -7  -2  -6 77665.7 3034.66   1
   4  -6   4 44778.4 2536.05  -2
  -7  -2  -7 44778.4 2536.05   1
  -4   6  -5 14394.2 1576.43  -2
   7   2   8 14394.2 1576.43   1
  -7  -2 -10 514.195 879.758   1
  -7  -2 -11 7708.92 741.884   1
   4  -5  -7 10050.2 2355.44  -2
  -7  -3   4 10050.2 2355.44   1
   4  -5  -6 49745.1 1880.89  -2
  -7  -3   3 49745.1 1880.89   1
   4  -5  -5 36603.2 1268.83  -2
  -7  -3   2 36603.2 1268.83   1
  -7  -3   1 18841.9 1743.32   1
  -7  -3   0 4645.57 1651.26   1
  -7  -3  -1-1769.58 1340.76   1
  -7  -3  -2 12724.9 1802.11   1
  -7  -3  -3 42639.7 1794.25   1
  -7  -3  -4 6553.34 1397.50   1
  -7  -3  -5 332.791 1280.29   1
  -7  -3  -6 213.706 863.364   1
   7   3   7 8294.32 1100.40   1
   7   3   8 1802.27 984.763   1
   7   3   9 3967.21 933.306   1
  -7  -3 -11-1150.35 942.607   1
  -7  -4   6 17341.0 1203.94   1
  -7  -4   5 9892.01 1692.85   1
  -7  -4   4 301.679 1358.85   1
  -7  -4   3 771.682 1525.65   1
   3  -6  -7-383.640 1614.00  -2
  -7  -4   3-383.640 1614.00   1
  -7  -4   2 14271.3 1276.00   1
  -7  -4   1 10708.5 1222.35   1
  -7  -4   0-144.751 1510.95   1
  -7  -4  -1 6405.77 1688.68   1
  -7  -4  -3 1867.87 1734.48   1
   7   4   4 7362.98 1195.95   1
   3  -7   0 127271. 3416.86  -2
  -7  -4  -4 127271. 3416.86   1
   3  -7   1 27373.5 1709.72  -2
  -7  -4  -5 27373.5 1709.72   1
   7   4   6 2097.43 1160.73   1
   3  -7   2 1087.80 2377.53  -2
  -7  -4  -6 1087.80 2377.53   1
  -7  -4  -7-1339.12 759.832   1
   7   4   8 1944.54 1033.57   1
   7   4   9 14043.9 1136.88   1
   7   4  10 3804.44 872.189   1
  -7  -4 -12 362.791 682.275   1
  -7  -5   5 6380.76 1332.31   1
  -7  -5   4 11360.2 1798.87   1
  -7  -5   3 7896.71 2046.92   1
  -7  -5   2-980.057 2165.99   1
  -7  -5   1-488.763 1124.46   1
  -7  -5   0 27691.3 1521.80   1
  -7  -5  -1 20858.4 1517.88   1
  -7  -5  -2-1048.24 1032.28   1
  -7  -5  -3 67.1705 970.802   1
   2  -8  -1 15719.0 1719.75  -2
  -7  -5  -4 15719.0 1719.75   1
   2  -8   0 85341.9 2184.23  -2
  -7  -5  -5 85341.9 2184.23   1
   7   5   6 1115.22 939.941   1
  -7  -5  -7 1343.92 868.017   1
   7   5   8 79.8266 780.515   1
   7   5   9 2391.24 975.634   1
   7   5  10 316.355 806.787   1
  -7  -6   4 17534.3 1442.94   1
  -7  -6   3 4000.87 1612.24   1
  -7  -6   2 3975.05 1132.02   1
  -7  -6   1 567.902 1026.33   1
  -7  -6   0 3960.64 821.665   1
  -7  -6  -1-363.224 855.662   1
  -7  -6  -2 10161.9 1179.25   1
  -7  -6  -3 6840.01 1055.21   1
  -7  -6  -4-240.244 966.031   1
  -7  -6  -5 530.597 973.213   1
   7   6   6 13922.4 1049.83   1
   7   6   7 14028.1 783.086   1
  -7  -6  -8-191.657 597.154   1
   7   6   9 68.1016 626.724   1
   7   6  10 2834.90 539.579   1
  -7  -7   3 2273.87 1057.53   1
  -7  -7   2 14713.5 966.036   1
  -7  -7   1 2398.51 619.765   1
  -7  -7   0-200.653 698.567   1
  -7  -7  -1 3949.44 900.608   1
  -1   9   4 36304.8 2320.99  -2
   7   7   2 36304.8 2320.99   1
  -1   9   3 74935.6 2617.15  -2
   7   7   3 74935.6 2617.15   1
  -7  -7  -4-677.187 910.390   1
   7   7   5 307.260 895.977   1
  -7  -7  -6 10048.5 950.476   1
  -7  -7  -7 2668.11 648.791   1
   7   7   8 2091.31 673.017   1
   7   7   9 2114.77 579.536   1
   7   7  10-210.466 614.263   1
   7   8  -1 1239.70 533.398   1
  -7  -8   0 1649.80 676.747   1
  -7  -8  -1 605.884 751.990   1
  -7  -8  -2 407.033 806.342   1
   0  10   4 26582.1 2002.39  -2
   7   8   3 26582.1 2002.39   1
   7   8   4 10496.6 924.229   1
  -7  -8  -5 2804.60 815.369   1
  -7  -8  -6 99.4205 718.456   1
  -7  -8  -7-159.237 528.645   1
   7   8   8 7940.93 912.431   1
   7   8   9 3484.49 663.436   1
   0  10   7 17070.7 1211.05  -2
   7   9   0 17070.7 1211.05   1
  -7  -9  -1 1140.12 576.618   1
  -7  -9  -2 266.843 625.454   1
   7   9   3 4802.61 891.371   1
  -7  -9  -4 7935.46 728.057   1
  -7  -9  -5-1741.17 632.841   1
  -7  -9  -6 646.669 594.220   1
   7   9   7-456.578 684.810   1
   7   9   8 839.394 468.786   1
   7  10   3 48.4174 477.538   1
  -7 -10  -4 684.682 639.073   1
   8  -2   1 9176.59 1282.03  -2
  -8   2  -1 9176.59 1282.03   1
  -8   2  -2 3360.80 1050.51   1
  -8   2  -3-838.027 679.562   1
  -8   2  -4 564.187 652.015   1
  -8   1   1-1067.95 923.036   1
  -8   1   0 3417.53 719.574   1
  -8   1  -1 12976.9 1170.12   1
  -8   1  -2 3352.44 1328.69   1
  -8   1  -3 468.401 841.640   1
  -8   1  -4 137.127 658.955   1
  -8   1  -5 7344.84 675.859   1
  -8   1  -6 2780.46 754.560   1
  -8   0   1 164.418 696.903   1
  -8   0   0-1067.39 796.053   1
  -8   0  -1 1483.43 1138.78   1
  -8   0  -2 250.851 1481.40   1
  -8   0  -3 12932.2 855.225   1
  -8   0  -4 4984.73 819.788   1
   6  -5   3 42209.9 1397.56  -2
  -8   0  -5 42209.9 1397.56   1
  -8   0  -6 7106.57 938.256   1
  -8   0  -7 13792.3 1038.30   1
  -8   0  -8 3854.97 1214.33   1
  -8  -1   2 9664.07 1061.59   1
  -8  -1   1 8646.64 787.582   1
  -8  -1   0 4.75563 860.077   1
  -8  -1  -1-429.564 1187.19   1
  -8  -1  -2 5882.07 1646.38   1
  -8  -1  -3 10790.9 942.702   1
  -8  -1  -4-861.409 837.853   1
  -8  -1  -5 2986.32 846.103   1
  -8  -1  -6 624.078 759.948   1
  -8  -1  -7 3003.13 1064.03   1
  -8  -1  -8-1099.06 1392.58   1
  -8  -1  -9 4004.36 1203.67   1
  -8  -2   2 3321.81 821.410   1
  -8  -2   1-805.403 668.439   1
  -8  -2   0 5012.20 812.775   1
  -8  -2  -1 5603.33 1305.08   1
  -8  -2  -2-325.678 1032.23   1
   5  -6   0 87948.3 1895.06  -2
  -8  -2  -3 87948.3 1895.06   1
   5  -6   1 48856.6 1817.17  -2
  -8  -2  -4 48856.6 1817.17   1
   5  -6   2 22039.8 1494.53  -2
  -8  -2  -5 22039.8 1494.53   1
  -8  -2  -6-301.397 1389.44   1
   5  -6   3 6706.77 1778.03  -2
  -8  -2  -6 6706.77 1778.03   1
  -8  -2  -7-480.792 1105.73   1
  -8  -2  -8 10126.3 1580.74   1
  -8  -2  -9 10749.2 1387.17   1
  -8  -3   3 3783.15 1123.94   1
  -8  -3   2-879.895 809.598   1
  -8  -3   1 616.264 790.030   1
  -8  -3   0 13284.6 1049.05   1
  -8  -3  -1 5087.48 1047.30   1
  -8  -3  -2-1736.11 1702.29   1
  -8  -3  -3-1012.34 1753.59   1
  -8  -3  -4 7791.11 1864.81   1
  -8  -3  -5-745.611 1675.75   1
  -8  -3  -6 1928.84 963.379   1
  -8  -3  -7 3532.58 1181.30   1
  -8  -3  -9-1803.33 1311.97   1
  -8  -3 -10 3752.13 1011.02   1
  -8  -4   2 4546.47 958.039   1
  -8  -4   1 333.779 649.562   1
  -8  -4   0-2458.57 1131.33   1
  -8  -4  -1 928.068 1784.69   1
   4  -7  -2 25621.9 2456.71  -2
  -8  -4  -2 25621.9 2456.71   1
   4  -7  -1 1376.60 2201.63  -2
  -8  -4  -3 1376.60 2201.63   1
  -8  -4  -4-2019.75 1733.76   1
  -8  -4  -5 156.514 1655.67   1
  -8  -4  -6 16538.0 1677.67   1
   8   4   8-415.393 582.038   1
  -8  -5   3 6655.19 981.422   1
  -8  -5   2 9087.47 1336.72   1
  -8  -5   1 59.6478 911.253   1
  -8  -5   0-2180.24 1440.34   1
  -8  -5  -1 1936.91 1698.17   1
  -8  -5  -3 3625.77 1724.83   1
  -8  -5  -4 3242.77 1050.76   1
  -8  -5  -5-848.415 973.725   1
   8   5   6-195.637 640.866   1
   8   5   7-470.162 589.222   1
   8   5   8 3049.36 658.960   1
   8   5   9-169.591 538.375   1
  -8  -6   0 5482.27 1287.99   1
  -8  -6  -1-14.4202 1392.95   1
  -8  -6  -2 2167.06 1174.00   1
   8   6   4 10882.9 706.943   1
  -8  -6  -5 654.668 570.111   1
  -8  -6  -6-397.291 532.570   1
   8   6   7 2383.70 699.042   1
   8   6   8 2807.74 643.961   1
   8   6   9 1300.34 499.295   1
   2  -9  -6 21788.0 1383.44  -2
  -8  -7   0 21788.0 1383.44   1
  -8  -7  -1-474.430 691.566   1
  -8  -7  -2 799.884 972.656   1
   8   7   3 2571.05 663.033   1
  -8  -7  -4 2032.83 591.496   1
  -8  -7  -5 420.307 560.917   1
  -8  -7  -6 4460.61 507.539   1
   8   7   7-1206.28 571.407   1
   8   7   8 5.23040 503.950   1
  -8  -8  -2 4042.04 762.292   1
   8   8   3-350.695 496.898   1
  -8  -8  -4 63.5072 453.191   1
  -8  -8  -5 5443.55 442.266   1
  -8  -8  -6 3618.60 427.415   1
  -9  -1  -4 1347.69 676.787   1
   6  -6  -1 11386.6 792.954  -2
  -9  -2  -2 11386.6 792.954   1
  -9  -2  -3 1500.44 932.022   1
  -9  -2  -4-1015.55 583.597   1
  -9  -2  -5 1669.35 739.534   1
  -9  -3  -2 1285.96 754.979   1
  -9  -3  -3 238.295 992.676   1
  -9  -3  -4-281.538 635.800   1
  -9  -3  -5-810.628 567.683   1
  -9  -4  -2 496.741 685.370   1
  -9  -4  -3 9643.05 1073.17   1
  -9  -4  -4 5844.42 660.710   1
  -9  -4  -5-562.708 564.053   1
  -9  -4  -6-1195.84 645.542   1
  -9  -5  -3 2029.72 914.807   1
  -9  -5  -4-963.154 553.361   1
  -9  -5  -5 3330.63 718.242   1
   0   0  -1 252798. 831.425   2
   0   0  -2 11040.2 785.967   2
   0   0  -3 37717.6 820.900   2
   0   0  -4 306322. 1655.52   2
   0   0  -5 99644.3 2441.32   2
   0   0  -6 5682.80 2006.86   2
   0   0  -7 6399.97 1311.09   2
   0   0  -8 18138.1 727.023   2
   0   0  -9 9406.38 803.350   2
   0   0 -10 29260.1 2815.93   2
   0   0 -12 6432.90 1304.09   2
   0   0 -13-1751.12 905.415   2
   0   0 -14 6418.40 1019.04   2
   0   1 -14 264.329 869.703   2
   0   1  -8 118996. 2808.10   2
   0   1  -7-97.9243 1790.69   2
   0   1  -6 7828.76 1191.62   2
   0   1  -5 414229. 2246.14   2
   0   1  -4 177912. 1389.61   2
   0   1  -3 627.602 738.986   2
   0   1  -2 43239.5 1185.54   2
   0  -1   1 78273.6 644.844   2
   0  -1   0 84851.8 688.164   2
   0  -1  -1 18005.9 1083.89   2
   0  -1  -2 371793. 1400.96   2
   0  -1  -3 77779.8 838.108   2
   0  -1  -4 9610.30 702.486   2
   0   1   5 25290.2 779.135   2
   0  -1 -10 82874.7 1168.70   2
   0  -1 -11 34575.0 1184.46   2
   0  -1 -12-3849.32 1890.17   2
   0  -1 -13-1588.23 1153.66   2
   0  -1 -14 2326.63 983.884   2
   0   2 -13 44123.3 1112.13   2
   0   2 -12 7541.55 898.939   2
   0   2 -11 3397.63 1021.78   2
   0  -2  10 8168.87 1325.57   2
   0  -2   9 98914.1 2616.02   2
   0  -2   8 2361.59 1115.15   2
   0   2  -7 63411.2 1463.94   2
   0   2  -6 43776.4 1800.05   2
   0   2  -5 23576.4 1742.04   2
   0   2  -4 2610.29 1466.13   2
   0  -2   2 379579. 1528.99   2
   0  -2   1 2713.87 863.398   2
   0  -2   0 6853.15 715.856   2
   0  -2  -1 372106. 1701.05   2
   0  -2  -2 203502. 2514.20   2
   0  -2  -3 15324.4 724.633   2
   0  -2  -4 33922.3 896.827   2
   0  -2  -5 40746.6 1087.77   2
   0  -2  -6 119861. 2204.85   2
   0  -2  -7 733.281 1426.19   2
   0  -2 -11 2412.94 1186.16   2
   0  -2 -12 45939.0 1213.70   2
   0  -2 -13 23491.7 1313.49   2
   0  -2 -14 789.509 862.747   2
   0   3 -12 22313.4 1650.07   2
   0   3 -11 72464.6 1307.61   2
   0  -3  10 11632.9 1875.02   2
   0  -3   9 1550.78 1241.70   2
   0  -3   8 77817.2 1394.15   2
   0   3  -7 279582. 1873.32   2
   0   3  -6 48764.1 2058.42   2
   0   3  -5 4153.89 1782.76   2
   0   3  -4 40763.7 2081.97   2
   0   3  -3 368123. 3341.97   2
   0   3  -2 32068.1 1861.87   2
   0  -3   0 36040.6 1015.48   2
   0  -3  -1 27159.1 1061.51   2
   0  -3  -2 1050.36 1790.09   2
   0  -3  -3 141745. 1770.34   2
   0  -3  -4 233896. 3690.35   2
   0  -3  -5 12008.9 1427.60   2
   0  -3  -6-19.1387 2314.76   2
   0  -3  -7 94563.0 1905.02   2
   0  -3  -8 149019. 1491.25   2
   0  -3  -9 37274.4 1363.12   2
   0   3  10 1993.05 1415.05   2
   0  -3 -11 2408.29 1083.68   2
   0  -3 -12 23983.8 1077.68   2
   0  -3 -13 1373.52 1087.51   2
   0   4 -12 35961.7 1549.20   2
   0  -4   9 15183.5 1316.40   2
   0   4  -8 18374.1 1400.11   2
   0   4  -7 1498.07 887.248   2
   0   4  -6 69227.6 1303.06   2
   0   4  -5 162885. 2907.87   2
   0   4  -4 19511.7 1958.20   2
   0   4  -3 1990.44 2065.88   2
   0  -4   2 46062.5 2029.51   2
   0  -4   1 931848. 4581.67   2
   0  -4   0 246474. 1548.41   2
   0  -4  -1 1753.60 1180.22   2
   0  -4  -2 13414.9 2274.63   2
   0  -4  -3 190756. 2229.78   2
   0  -4  -4 266140. 2518.04   2
   0  -4  -7 12027.0 1742.33   2
   0  -4  -8 5472.21 1022.24   2
   0  -4  -9 35657.7 1232.75   2
   0  -4 -10 15124.6 1197.67   2
   0  -4 -11 521.357 1042.52   2
   0  -4 -12-303.411 1248.12   2
   0  -4 -13 4820.86 929.768   2
   0   5 -12-1125.81 896.331   2
   0   5 -11 4512.96 900.227   2
   0  -5  10 63463.0 2011.88   2
   0  -5   9 51015.5 1207.61   2
   0   5  -8 2364.93 1240.68   2
   0   5  -7 1064.12 942.500   2
   0  -5   1 84950.0 2392.52   2
   0  -5   0 12224.1 2083.83   2
   0  -5  -1 165099. 2967.96   2
   0  -5  -2 51865.9 1474.74   2
   0  -5  -3 3307.86 2040.00   2
   0  -5  -4 23718.6 1610.41   2
   0  -5  -5 145426. 2341.64   2
   0  -5  -6 59137.9 1068.52   2
   0  -5  -9 44319.6 1627.82   2
   0  -5 -10 25543.8 1442.43   2
   0  -5 -11 663.033 1125.34   2
   0   6 -11 3966.77 1043.39   2
   0  -6  10 22500.6 1026.47   2
   0  -6   9-605.585 818.237   2
   0   6  -8 14794.2 1228.99   2
   0   6  -7 18626.1 1123.71   2
   0   6  -6 5346.72 1208.65   2
   0   6  -5-1249.43 1182.16   2
   0   6  -4 191452. 3354.35   2
   0  -6   0 178263. 2316.16   2
   0  -6  -3 20301.3 1290.00   2
   0  -6  -4 12112.7 840.488   2
   0  -6  -5 51778.8 1021.40   2
   0  -6  -6 595.504 944.773   2
   0  -6  -7 17759.1 1036.29   2
   0  -6  -8 5609.93 1242.57   2
   0  -6  -9 968.684 1131.85   2
   0  -6 -10-1204.74 1109.13   2
   0  -6 -11 18491.0 1040.05   2
   0  -6 -12 16969.2 1888.84   2
   0   7 -10 1897.72 966.670   2
   0   7  -7 35606.8 1110.14   2
   0   7  -6 251.396 1018.72   2
   0   7  -5 12532.4 1498.27   2
   0   7  -4 128612. 3088.82   2
   0  -7   2 41727.7 2398.02   2
   0   7  -1 32854.9 1886.99   2
   0   7   0 20368.9 1432.87   2
   0   7   1 13208.1 1447.65   2
   0  -7  -2 73248.5 1517.38   2
   0  -7  -3 128594. 2026.61   2
   0  -7  -6 33945.5 1473.82   2
   0  -7  -7 48996.1 1239.36   2
   0  -7  -8 12079.3 965.323   2
   0  -7  -9-1429.91 2097.80   2
   0   7  10 1918.73 1807.07   2
   0   7  11 10908.5 1361.86   2
   0   8  -9 8104.48 888.666   2
   0  -8   8 13349.9 856.340   2
   0   8  -7 15544.8 1510.57   2
   0   8  -4 1390.57 1922.20   2
   0   8  -1 97107.7 2255.88   2
   0   8   0-986.476 1363.41   2
   0  -8  -1 4759.35 1446.39   2
   0   8   2 72163.6 1809.70   2
   0  -8  -3 80073.9 1568.60   2
   0  -8  -4-1254.02 1677.22   2
   0  -8  -5 5629.74 1372.47   2
   0  -8  -6 4069.24 1320.47   2
   0  -8  -7 6272.80 2161.06   2
   0  -8  -8 6454.99 1002.02   2
   0   8   9 21451.0 1820.71   2
   0   8  10 2248.12 1246.35   2
   0  -9   7 44456.8 867.363   2
   0   9  -6 105656. 1318.91   2
   0   9  -5-239.130 737.925   2
   0   9  -4 9637.33 1670.93   2
   0   9  -3 4469.90 1730.82   2
   0  -9   1 1653.22 1917.71   2
   0  -9  -2 640.467 1578.67   2
   0  -9  -3 9160.07 1596.58   2
   0   9   4 91312.8 2785.95   2
   0   9   5 34609.8 2304.49   2
   0   9   6 41.8683 1274.32   2
   0  -9  -7-195.016 1080.35   2
   0   9   8 17965.7 915.544   2
   0   9   9 16329.4 1105.21   2
   0  10  -5 57072.1 845.945   2
   0  10  -4 55316.1 1407.50   2
   0  10  -3 6658.84 1241.76   2
   0  10  -2-701.527 1292.81   2
   0  10  -1 31067.6 1154.16   2
   0  10   0 97791.0 1675.75   2
   0 -10  -1 10886.5 1271.20   2
   0 -10  -2 4467.50 1224.83   2
   0  10   3 6573.34 1216.97   2
   0 -10  -5-875.707 994.195   2
   0 -10  -6 7457.18 906.125   2
   0 -10  -7 6450.45 919.777   2
   0  11  -1 3205.67 764.453   2
   0 -11   0 4236.21 515.805   2
   0 -11  -1 6760.96 570.154   2
   0  11   2 29093.9 648.442   2
   0 -11  -3 3582.71 719.566   2
   0 -11  -4-524.615 609.279   2
   1 -10  -6 4777.57 797.097   2
   1 -10  -5 1541.87 669.964   2
  -1  10   4 1944.75 1110.25   2
  -1  10   3 51569.0 1168.44   2
  -1  10   2 46087.4 1218.67   2
   1 -10  -1-195.649 969.398   2
   1 -10   0-996.409 681.939   2
  -1  10  -1 58529.3 878.783   2
  -1  10  -2 54784.7 982.647   2
  -1  10  -3-120.409 650.392   2
  -1  10  -4 4313.98 944.818   2
   1  -9  -7 25115.4 1183.34   2
   1  -9  -6 4038.78 972.325   2
   1  -9  -5 1059.40 1108.35   2
   1  -9  -2 5895.77 1353.31   2
  -1   9   1 22997.7 1513.80   2
  -1   9   0 23087.3 1507.49   2
   1  -9   1 10777.0 1303.41   2
   1  -9   2-41.0935 900.316   2
  -1   9  -3 66505.8 1415.72   2
  -1   9  -4 75422.5 1355.32   2
  -1   9  -5 4586.68 862.973   2
  -1   9  -6-319.641 915.015   2
   1  -9   7 35101.4 1105.58   2
   1  -8  -9 129.619 1191.32   2
   1  -8  -8 2336.51 891.999   2
   1  -8  -7 1703.76 955.397   2
   1  -8  -6 18368.7 1222.00   2
   1  -8  -5 51580.8 1507.25   2
   1  -8  -4 6563.67 1311.95   2
   1  -8  -3-563.147 1577.83   2
   1  -8  -2 20469.9 1448.48   2
  -1   8   1 226592. 3720.65   2
   1  -8   1 173.738 1479.60   2
  -1   8  -4 17983.1 1383.22   2
  -1   8  -5 11129.6 1239.64   2
  -1   8  -6 9218.31 1477.16   2
  -1   8  -7 6218.91 1258.36   2
   1  -8   8 2585.81 746.292   2
   1  -8   9 31365.3 967.387   2
   1  -7 -10 25672.7 1289.44   2
   1  -7  -9 20364.7 2224.39   2
   1  -7  -6 53773.0 1621.60   2
   1  -7  -5 58640.2 1523.87   2
   1  -7  -4 1337.77 1407.56   2
   1  -7  -3 14837.3 1826.24   2
   1  -7  -2 18311.0 1466.31   2
   1  -7  -1 2384.56 1344.36   2
  -1   7   0 40691.4 1796.75   2
   1  -7   1 142749. 2293.32   2
   1  -7   2 19716.5 1414.10   2
  -1   7  -3 1053.39 1668.19   2
  -1   7  -4 24827.9 1351.01   2
  -1   7  -5 250467. 3730.71   2
  -1   7  -8 5348.64 1431.79   2
   1  -7   9 62027.6 1179.25   2
   1  -7  10 60351.7 902.387   2
   1  -6 -11-1640.29 1205.94   2
   1  -6 -10 13078.4 1717.56   2
   1  -6  -9 4406.94 1933.20   2
   1  -6  -8 27755.0 1291.84   2
   1  -6  -7 6919.52 1022.13   2
   1  -6  -6 1046.66 940.073   2
   1  -6  -3 170088. 1567.80   2
   1  -6  -2 10232.3 1365.36   2
   1  -6   0 191116. 1957.76   2
  -1   6  -1 224598. 2059.79   2
   1  -6   2 11444.7 1261.39   2
  -1   6  -3 6344.74 1631.02   2
  -1   6  -4 16310.3 1305.07   2
  -1   6  -5 89667.3 1634.37   2
  -1   6  -6 490.324 1478.00   2
  -1   6  -7 74167.0 2449.68   2
  -1   6  -8 14962.0 1822.14   2
   1  -6   9 2517.56 1097.83   2
   1  -6  10 2751.28 924.983   2
   1  -5 -12 14788.9 1899.93   2
   1  -5 -11 1727.45 1034.80   2
   1  -5  -9 28347.2 1402.41   2
   1  -5  -8 95504.5 1558.71   2
   1  -5  -7 12876.0 1152.56   2
   1  -5  -6 1642.68 903.773   2
   1  -5  -5 3702.70 864.099   2
   1  -5  -4 119458. 1389.66   2
   1  -5  -3 41333.4 2207.30   2
   1  -5  -2 32931.3 1854.70   2
   1  -5  -1 56544.9 1763.21   2
  -1   5  -4 26190.4 1544.63   2
  -1   5  -5-791.789 1374.85   2
  -1   5  -6 107884. 2060.08   2
  -1   5  -7 126609. 2152.43   2
  -1   5  -8 12544.5 1961.78   2
   1  -5   9 4091.06 1253.00   2
   1  -5  10 6503.20 1153.06   2
   1  -5  11 29572.6 1094.16   2
   1  -5  12 2958.83 667.259   2
   1  -4 -13 10301.1 1444.66   2
   1  -4 -12 6138.86 794.792   2
   1  -4 -11 1650.48 1040.05   2
   1  -4 -10 13581.1 2705.45   2
   1  -4  -6 110683. 1380.38   2
   1  -4  -5 33874.5 2785.59   2
   1  -4  -4-303.983 2331.96   2
   1  -4  -3 62733.7 2594.24   2
   1  -4  -2 384364. 3569.66   2
   1  -4  -1 161253. 2387.94   2
   1  -4   0 4750.38 1435.58   2
   1  -4   1 14245.6 1336.53   2
  -1   4  -2 221107. 3291.15   2
  -1   4  -3 117901. 2704.51   2
  -1   4  -4 7755.12 1939.73   2
  -1   4  -5 34944.5 2125.20   2
  -1   4  -6 17308.9 1434.92   2
   1  -4   9 89319.8 2732.43   2
   1  -4  10 6652.20 1299.96   2
   1  -4  11 1403.70 1094.16   2
  -1   4 -12 15146.1 761.431   2
  -1   4 -13 36652.2 1072.32   2
   1  -3 -13-128.663 1734.04   2
   1  -3 -12 5923.89 1084.89   2
   1  -3 -11 59118.6 1485.26   2
   1  -3 -10 39457.7 1497.07   2
   1  -3  -9 3718.90 1267.01   2
   1  -3  -8 257.223 1090.31   2
   1  -3  -7 68376.2 2070.75   2
   1  -3  -4 52595.6 2951.44   2
   1  -3   0 307145. 2318.52   2
   1  -3   1 84713.5 1478.66   2
  -1   3  -2 6982.93 1102.58   2
  -1   3  -3 86059.5 1365.81   2
  -1   3  -4 570536. 2449.40   2
  -1   3  -5 238687. 3095.03   2
  -1   3  -6 1559.31 1747.54   2
  -1   3  -7 8644.95 1283.67   2
  -1   3  -8 70793.4 1741.56   2
   1  -3   9 135653. 1758.68   2
   1  -2 -13 866.105 1582.32   2
   1  -2  -9 56674.8 1650.54   2
   1  -2  -8 25253.8 1150.93   2
   1  -2  -7 739.442 1041.76   2
   1  -2  -6 310.603 1514.92   2
   1  -2  -5 283798. 2992.99   2
   1  -2  -4 419462. 1880.87   2
   1  -2  -3 16986.1 2283.70   2
   1  -2  -2 10615.5 1939.33   2
   1  -2  -1 255265. 2404.31   2
   1  -2   0 380528. 2217.38   2
   1  -2   2 9404.23 937.997   2
   1  -2   3 21463.9 1019.26   2
  -1   2  -4 315857. 1696.93   2
  -1   2  -5 461.877 785.286   2
  -1   2  -6 136595. 1715.37   2
  -1   2  -7 27740.6 1338.45   2
   1  -2   8 1020.43 983.938   2
   1  -2   9 3292.79 1324.48   2
   1  -2  10 91006.1 1946.19   2
  -1   2 -11 72396.5 1440.61   2
  -1   2 -12 5647.70 943.504   2
   1  -2  13 1803.44 967.756   2
  -1   2 -14 15708.0 1065.82   2
   1  -1 -13 27101.4 934.582   2
   1  -1  -8 60962.4 1740.07   2
   1  -1  -7 126.696 838.752   2
   1  -1  -6 5960.76 1613.14   2
   1  -1  -4 90622.8 1010.25   2
   1  -1  -3 77917.4 857.741   2
   1  -1  -2 95567.6 801.815   2
   1  -1  -1 6808.18 1433.62   2
   1  -1   0 8512.74 651.494   2
   1  -1   1 309261. 1177.95   2
  -1   1  -2 239813. 1189.51   2
  -1   1  -3 56406.3 814.343   2
  -1   1  -4 767.558 526.894   2
  -1   1  -5 244826. 2564.42   2
  -1   1 -11 11091.8 1139.59   2
   1  -1  12 8084.82 1368.75   2
   1  -1  13 7686.82 1608.65   2
   1   0 -12-93.6745 1164.01   2
   1   0 -11 11668.6 1177.47   2
   1   0 -10 1025.85 1387.22   2
   1   0  -9 14747.3 992.181   2
   1   0  -8 30990.3 1017.75   2
   1   0  -7 203976. 2373.73   2
   1   0  -6 76714.7 1668.90   2
  -1   0   4 230738. 1002.78   2
   1   0  -2 509077. 1677.91   2
   1   0  -1 1769.69 453.257   2
   1   0   0 21916.5 474.642   2
   1   0   1 372767. 1473.18   2
  -1   0  -2 274064. 797.890   2
   1   0   3 6490.79 476.097   2
   1   0   4 57075.6 460.676   2
  -1   0  -5 28289.5 817.955   2
  -1   0  -6 34216.1 1327.29   2
  -1   0  -7 25739.6 2179.81   2
  -1   0  -8 147933. 2046.69   2
   1   0   9 18798.8 1022.72   2
  -1   0 -10 626.143 1000.09   2
   1   0  11 25147.6 1600.81   2
   1   0  12 73345.3 2726.29   2
   1   0  13 21732.5 1904.15   2
   1   0  14-1216.70 1179.08   2
   1   1 -10 3540.45 1147.95   2
   1   1  -9 4495.75 992.660   2
   1   1  -8 141201. 2016.20   2
   1   1  -7 264846. 1979.29   2
   1   1  -6-892.614 1821.53   2
   1   1  -5 82273.3 1514.10   2
   1   1  -4 28743.5 1143.39   2
   1   1  -3 93305.7 1588.75   2
  -1  -1   2 1679.54 401.113   2
   1   1  -1 169653. 570.146   2
   1   1   0 141301. 687.306   2
   1   1   1 14543.6 399.756   2
   1   1   2 41913.4 459.736   2
  -1  -1  -3 915387. 1494.47   2
   1   1   5 5723.33 987.899   2
  -1  -1  -6 9017.67 1554.93   2
  -1  -1  -7 87450.9 1661.63   2
  -1  -1  -8 111809. 1254.94   2
  -1  -1  -9 3123.46 939.854   2
   1   1  10 2196.61 1207.42   2
   1   1  11 6243.03 2157.34   2
   1   1  12 7516.56 2165.57   2
   1   1  13-4099.43 1770.61   2
   1   1  14 6766.66 1344.28   2
   1   2 -13 815.726 737.803   2
   1   2 -12 21702.6 957.543   2
   1   2 -11 4452.12 1039.38   2
   1   2 -10 34766.6 1659.59   2
   1   2  -9 40293.5 2692.43   2
   1   2  -4 32418.4 1579.30   2
   1   2  -3 5508.12 560.256   2
  -1  -2   2 216497. 733.655   2
  -1  -2   1 678498. 1664.20   2
  -1  -2   0 104498. 1000.82   2
  -1  -2  -1 81300.1 1400.63   2
  -1  -2  -3 151369. 1030.43   2
  -1  -2  -4 5441.49 578.473   2
  -1  -2  -8 748.707 962.786   2
  -1  -2  -9 80348.2 1576.39   2
  -1  -2 -10 70734.4 1647.74   2
   1   2  11 5363.72 2262.99   2
  -1  -2 -12 2280.07 2249.87   2
   1   3 -12-933.618 747.435   2
   1   3 -11 12179.2 1009.79   2
   1   3 -10 123732. 1639.52   2
   1   3  -9 56293.1 1435.46   2
   1   3  -8 178.946 1247.19   2
   1   3  -7 3461.11 850.728   2
   1   3  -6 98746.7 1603.82   2
  -1  -3   3 48546.9 1542.71   2
  -1  -3   1 18285.3 948.471   2
  -1  -3   0 324011. 1028.28   2
  -1  -3  -1 342432. 1663.12   2
  -1  -3  -2 27534.6 1580.74   2
  -1  -3  -3 778.679 1112.20   2
  -1  -3  -4 89198.1 1685.11   2
  -1  -3  -5 309649. 2325.52   2
  -1  -3  -6 58729.8 1643.75   2
  -1  -3  -7 1644.07 2375.52   2
   1   3   8 4193.62 1811.57   2
   1   3   9 61060.5 2724.07   2
  -1  -3 -10 15922.0 1597.96   2
   1   3  11 4852.44 1731.09   2
   1   4 -12 6587.96 645.132   2
   1   4 -11 1230.23 1593.62   2
   1   4 -10 17868.6 1806.34   2
   1   4  -9 10075.3 1311.98   2
  -1  -4   8 115648. 1369.42   2
   1   4  -7 37925.0 1239.88   2
   1   4  -6-500.760 789.030   2
  -1  -4   3 177012. 1459.12   2
  -1  -4   2 10427.0 1806.65   2
   1   4  -1 5160.20 2070.52   2
   1   4   0 488413. 3897.89   2
  -1  -4  -1 150436. 1865.76   2
  -1  -4  -4 9442.18 2532.01   2
  -1  -4  -5 43638.9 1712.25   2
  -1  -4  -6 5302.86 1406.56   2
  -1  -4  -7 88392.1 1343.30   2
   1   4   8 18801.2 1703.12   2
   1   4   9 814.102 1686.66   2
   1   4  10 13220.4 1905.19   2
   1   4  11 39540.8 1992.57   2
  -1  -4 -12 18549.2 1277.86   2
  -1  -4 -13-290.728 1377.80   2
   1   5 -12 29225.9 1090.93   2
   1   5 -11 2976.77 698.949   2
   1   5 -10 2566.93 1489.55   2
  -1  -5   9 30621.6 1708.64   2
   1   5  -6 53983.5 2323.73   2
   1   5  -5 5157.75 1193.17   2
   1   5  -4 55099.5 1992.05   2
  -1  -5   2 97994.6 1689.27   2
  -1  -5   1 43000.9 1560.36   2
  -1  -5   0 3101.58 1536.79   2
  -1  -5  -1 9226.17 2168.98   2
  -1  -5  -2 196774. 2063.35   2
  -1  -5  -3 143448. 2806.61   2
  -1  -5  -4 3089.89 1450.57   2
  -1  -5  -6 61657.7 1334.91   2
  -1  -5  -7 97267.7 1569.05   2
  -1  -5  -8 5541.51 1534.51   2
  -1  -5  -9 7644.65 1885.31   2
  -1  -5 -12 1348.17 1266.45   2
   1   5  13 6458.34 1001.17   2
   1   6 -11 19743.8 752.861   2
   1   6 -10 17817.3 1357.18   2
   1   6  -9-33.2236 1019.05   2
  -1  -6   8-1376.06 1075.80   2
   1   6  -7 46534.9 1467.29   2
   1   6  -6 63397.4 1634.07   2
   1   6  -3 75875.6 1354.72   2
   1   6  -2 297479. 2658.36   2
  -1  -6  -1 8237.61 1436.10   2
  -1  -6  -2 68539.8 2507.59   2
  -1  -6  -4 43194.6 1032.05   2
  -1  -6  -5 30782.7 1161.88   2
  -1  -6  -6 2690.52 1181.60   2
  -1  -6  -7 500.762 2099.67   2
  -1  -6  -8 28618.5 2419.30   2
  -1  -6  -9 33080.6 1886.36   2
  -1  -6 -10 1643.74 1507.88   2
  -1  -6 -13 13370.1 967.201   2
   1   7 -10 29985.4 820.112   2
   1   7  -9-1045.18 1092.74   2
  -1  -7   8 2211.57 932.069   2
   1   7  -7 26618.9 1823.84   2
   1   7  -6 25391.0 1377.48   2
   1   7  -5 14432.3 1943.25   2
   1   7  -4 26486.3 1260.05   2
   1   7  -3 5086.98 1110.59   2
   1   7  -2 21428.8 1679.42   2
   1   7  -1 99891.1 1358.70   2
   1   7   0 220985. 1695.24   2
  -1  -7  -3 24141.8 1388.82   2
   1   7   4 175456. 2718.70   2
   1   7   5 45592.8 1325.13   2
  -1  -7  -8 20279.2 1230.06   2
   1   7   9 5921.23 1277.39   2
  -1  -7 -10 588.011 1108.91   2
   1   7  11 1289.03 1942.43   2
   1   7  12-437.364 1344.10   2
   1   8  -7 533.470 1262.15   2
   1   8  -6 10794.2 1110.13   2
   1   8  -4 95215.6 1908.45   2
   1   8  -3 2256.13 2052.02   2
   1   8  -2-1097.15 1556.41   2
   1   8  -1 126834. 1912.45   2
   1   8   0 103701. 1837.58   2
   1   8   1-1864.03 1735.68   2
   1   8   2 13555.5 1487.85   2
   1   8   3-1413.98 1204.26   2
  -1  -8  -4 32187.5 1724.86   2
   1   8   5 1780.00 1367.77   2
   1   8   6 41692.9 1618.37   2
   1   8   7 13691.6 1728.26   2
   1   8  10 22506.9 1961.48   2
   1   8  11 8318.02 1387.65   2
   1   9  -7 4095.51 815.661   2
   1   9  -6 197.237 1099.26   2
   1   9  -5 33574.9 1186.39   2
   1   9  -4 2933.93 1152.19   2
   1   9  -3 41340.4 1499.70   2
   1   9  -1 9050.15 1520.20   2
  -1  -9   0 5897.29 2206.33   2
  -1  -9  -1 96150.3 3232.63   2
  -1  -9  -3-3422.33 2370.61   2
   1   9   4-58.2415 2261.37   2
   1   9   5 33608.0 2561.76   2
   1   9   6 44212.6 1778.17   2
  -1  -9  -7 4101.17 1376.60   2
  -1  -9  -8 160.121 1121.67   2
   1   9   9 243.820 1553.59   2
   1   9  10 4884.64 1152.93   2
   1  10  -6 7561.71 730.004   2
   1  10  -5-508.167 619.931   2
   1  10  -4 25654.6 750.665   2
   1  10  -3 91210.7 1393.58   2
   1  10  -2 11891.0 1094.55   2
  -1 -10   1 325.291 1088.04   2
  -1 -10   0 2034.74 1743.07   2
  -1 -10  -2 13347.3 2050.93   2
  -1 -10  -3 9103.84 1986.42   2
   1  10   4 21658.5 1459.39   2
  -1 -10  -6 1011.91 1088.68   2
  -1 -10  -7 12675.0 1025.91   2
   1  10   8 23762.5 1334.37   2
   1  11  -3 2286.98 754.015   2
   1  11  -2 11123.3 685.795   2
   1  11  -1 50055.0 960.180   2
  -1 -11   0 8368.12 656.942   2
  -1 -11  -1-1124.61 1184.48   2
  -1 -11  -2 4082.82 1313.78   2
  -1 -11  -3 41819.9 1671.33   2
  -1 -11  -4 15379.4 956.912   2
   1  11   5-669.718 1030.85   2
  -1 -11  -6 574.851 613.120   2
   2 -10  -3 1190.85 825.864   2
   2 -10  -2 20824.0 1105.83   2
   2 -10  -1 35601.3 1233.61   2
  -2  10   0-331.737 559.383   2
  -2  10  -1 3391.81 805.749   2
  -2  10  -2 1716.52 747.497   2
   2  -9  -5 2507.50 823.354   2
   2  -9  -4 17227.4 1496.84   2
  -2   9   3 17096.2 1321.36   2
  -2   9   2 2551.71 1010.11   2
   2  -9  -1 1240.52 1037.28   2
  -2   9   0 49741.6 1315.61   2
  -2   9  -1 104133. 1255.03   2
  -2   9  -2 13042.0 1416.39   2
  -2   9  -3 633.470 1251.67   2
  -2   9  -4 37755.3 1458.52   2
  -2   9  -5 102306. 1634.71   2
   2  -8  -8 22707.9 1439.97   2
   2  -8  -7 5967.62 890.964   2
   2  -8  -6 1356.07 834.675   2
   2  -8  -5 17400.8 1391.88   2
   2  -8  -4 98317.7 1495.80   2
   2  -8  -3 41506.1 1621.44   2
   2  -8  -2 416.857 1318.71   2
  -2   8  -1 85284.4 1795.27   2
   2  -8   2 3499.58 1288.37   2
  -2   8  -3 33101.6 1375.19   2
  -2   8  -4 2502.45 1634.55   2
  -2   8  -5 7025.66 968.492   2
  -2   8  -6 24747.5 936.454   2
   2  -7  -9 22501.9 1764.52   2
   2  -7  -8 31809.4 2263.98   2
   2  -7  -7 659.683 1031.21   2
   2  -7  -6 5657.50 1238.11   2
   2  -7  -5 2184.44 1563.97   2
   2  -7  -4 24703.7 1372.67   2
   2  -7  -3 12671.8 1345.53   2
   2  -7  -2 88127.5 2121.44   2
   2  -7  -1 26425.1 1278.80   2
   2  -7   0 4505.58 1097.68   2
   2  -7   1 7623.80 1093.10   2
  -2   7  -2 227105. 2521.68   2
  -2   7  -5 686.816 1201.33   2
  -2   7  -6 67238.9 1487.07   2
  -2   7  -7 53946.0 1285.68   2
  -2   7  -8 2224.60 1094.02   2
   2  -7   9 5496.53 723.751   2
   2  -7  10 843.077 781.654   2
   2  -6 -10 10007.2 1832.61   2
   2  -6  -9-989.442 1609.35   2
   2  -6  -6 48542.7 2450.28   2
   2  -6  -5 5966.46 2126.48   2
   2  -6  -3 97486.5 1588.93   2
   2  -6  -2 288730. 2933.62   2
  -2   6   1 43557.6 1710.71   2
  -2   6   0 34652.9 1631.08   2
   2  -6   1 7995.47 1249.41   2
  -2   6  -2 84715.1 1361.37   2
   2  -6   3 2504.86 1015.90   2
  -2   6  -4 86121.5 1549.89   2
  -2   6  -5 39777.7 1333.26   2
  -2   6  -6 3834.42 1304.30   2
  -2   6  -7 144.471 1201.90   2
   2  -6  11 3937.08 926.241   2
   2  -5 -11 28972.4 1960.17   2
   2  -5 -10 8132.75 2390.63   2
   2  -5  -9 572.239 2642.94   2
   2  -5  -8-876.924 1992.85   2
   2  -5  -7 38816.8 2380.19   2
   2  -5  -6 17383.9 1273.03   2
   2  -5  -5 32270.8 1156.94   2
   2  -5  -4 33123.6 1347.07   2
   2  -5  -3-271.252 1101.64   2
   2  -5  -2 9953.90 1816.55   2
   2  -5   1 48973.7 1284.43   2
  -2   5  -2-1171.41 1050.08   2
  -2   5  -3 75551.2 1186.05   2
  -2   5  -4 222000. 1630.49   2
  -2   5  -5 86207.8 1507.21   2
  -2   5  -6-952.573 1121.83   2
  -2   5  -7 2357.93 1137.00   2
  -2   5  -8 63959.4 2195.49   2
  -2   5  -9 7208.71 1214.50   2
   2  -5  10 12931.6 1106.87   2
   2  -5  11 9537.00 903.845   2
   2  -5  12-542.309 919.658   2
   2  -4  -9 77289.0 3498.03   2
   2  -4  -8 32195.3 3115.98   2
   2  -4  -7-177.092 1919.50   2
   2  -4  -6 25480.1 1654.01   2
   2  -4  -5 219102. 1602.70   2
   2  -4  -4 113561. 1473.37   2
   2  -4  -3 3070.11 2046.62   2
   2  -4  -2 1172.96 1704.78   2
   2  -4  -1 105862. 2210.62   2
   2  -4   0 123069. 2156.10   2
   2  -4   1 16625.2 1513.21   2
  -2   4  -2 50949.2 2279.25   2
  -2   4  -3 2436.63 1951.67   2
  -2   4  -7 51298.2 1355.07   2
  -2   4  -8-1084.15 1754.01   2
   2  -4   9 26303.3 1466.04   2
   2  -4  10 120808. 1931.54   2
   2  -4  11 29426.9 1244.43   2
   2  -4  12-781.602 827.512   2
   2  -3 -12 1719.43 1330.23   2
   2  -3 -11 305.492 1585.05   2
   2  -3  -8 6468.13 2627.61   2
   2  -3  -7 21687.4 2631.67   2
   2  -3  -3 261156. 3846.06   2
   2  -3  -2 91505.0 2563.25   2
   2  -3  -1 1821.82 1698.34   2
   2  -3   0 8387.45 1589.76   2
   2  -3   1 362182. 3020.04   2
  -2   3  -3 4930.84 1205.26   2
   2  -3   4 2058.54 1106.45   2
  -2   3  -5 139575. 2575.42   2
  -2   3  -6 186961. 2052.55   2
  -2   3  -7 11391.4 1070.31   2
   2  -3  12 27109.9 1196.73   2
   2  -3  13 8344.14 830.584   2
   2  -2 -12 13441.9 1487.49   2
   2  -2 -11 26341.7 1833.32   2
   2  -2 -10-825.984 2398.40   2
   2  -2  -9 8394.54 1315.38   2
   2  -2  -8 177899. 1940.03   2
   2  -2  -7 103313. 2227.29   2
   2  -2  -6 24318.7 1354.96   2
   2  -2  -5-1173.19 1249.09   2
   2  -2  -4 144409. 2117.30   2
   2  -2   1 198630. 1223.15   2
   2  -2   2 95642.6 1834.41   2
  -2   2  -3 28240.4 1261.13   2
  -2   2  -4 222774. 1802.40   2
  -2   2  -5 4061.32 797.551   2
  -2   2  -6 918.205 1583.11   2
  -2   2  -7 163207. 1852.07   2
  -2   2  -8 125936. 1835.13   2
   2  -2   9 397.944 1295.09   2
   2  -2  10 4033.99 1366.82   2
   2  -2  11 31782.7 1565.07   2
   2  -2  12 52586.7 1547.05   2
   2  -1 -10-985.456 1250.91   2
   2  -1  -9 686.010 1297.10   2
   2  -1  -6 32353.2 1193.82   2
   2  -1  -5 97517.1 1343.05   2
   2  -1  -4 8041.19 1341.86   2
   2  -1  -3 42174.7 1619.60   2
   2  -1  -2 272244. 2194.88   2
   2  -1  -1 624883. 2316.61   2
   2  -1   0 63772.5 1452.05   2
   2  -1   1 264.999 768.427   2
   2  -1   2 111239. 1583.05   2
  -2   1  -3 445185. 1973.91   2
  -2   1  -8 19279.3 1393.87   2
   2  -1   9 10127.9 1194.42   2
   2  -1  10 19552.5 1546.62   2
   2  -1  11 1215.34 1365.51   2
   2  -1  12 912.726 1260.43   2
   2  -1  13 16119.5 1203.62   2
   2  -1  14 25405.7 987.019   2
   2   0 -13-1541.25 911.211   2
   2   0 -11-2984.76 1323.00   2
   2   0 -10 88508.6 2063.64   2
   2   0  -9 42149.0 1176.30   2
   2   0  -8 63.0109 2201.57   2
   2   0  -4 3292.68 1153.00   2
  -2   0   3 4391.60 748.949   2
   2   0  -2 212009. 1002.93   2
   2   0  -1 287320. 986.582   2
  -2   0   0 87044.7 884.957   2
   2   0   1 88941.4 677.088   2
   2   0   2 2294.15 1019.87   2
  -2   0  -3 38279.6 532.798   2
   2   0   4 39287.4 616.541   2
   2   0   5 313086. 1361.43   2
  -2   0  -6 82429.9 1107.11   2
  -2   0  -8 19171.7 1349.68   2
  -2   0  -9 141030. 1819.69   2
  -2   0 -10 66545.7 1628.73   2
   2   0  11 2956.39 2093.89   2
   2   1 -12 349.304 1103.63   2
   2   1 -11 40464.6 1580.91   2
   2   1 -10 81027.0 2182.06   2
   2   1  -9 7782.05 1361.67   2
   2   1  -8 15165.2 1024.15   2
   2   1  -7 878.830 976.633   2
   2   1  -6 86482.2 2251.65   2
   2   1  -3 159165. 1006.77   2
   2   1  -2-244.939 410.756   2
  -2  -1   1 5162.32 534.635   2
  -2  -1   0 451130. 1217.87   2
   2   1   1 683354. 1609.35   2
   2   1   3 1111.59 233.143   2
   2   1   4 236875. 1190.36   2
  -2  -1  -5 274639. 1340.32   2
  -2  -1  -6 3030.29 914.805   2
  -2  -1  -7 3292.17 2037.67   2
  -2  -1  -8-112.982 1227.17   2
  -2  -1  -9 31400.6 1343.61   2
   2   1  10-1182.10 1230.59   2
   2   1  11 29207.1 1710.18   2
   2   2 -12 21770.0 1152.88   2
   2   2  -7 42980.1 1919.96   2
   2   2  -5 143554. 2122.77   2
   2   2  -4 794098. 3700.62   2
  -2  -2   3 73548.4 910.798   2
  -2  -2   2 9671.35 766.002   2
  -2  -2   1 216.222 434.147   2
   2   2   0 95733.1 652.872   2
   2   2   1 51564.9 571.338   2
   2   2   2 111440. 1540.70   2
  -2  -2  -4 1351.87 906.157   2
  -2  -2  -5 516.818 1053.30   2
  -2  -2  -6 136131. 1336.58   2
  -2  -2  -7 95461.1 1881.90   2
  -2  -2  -8 3879.45 1554.72   2
   2   2   9 302.240 1162.03   2
   2   2  12 4961.73 1506.37   2
   2   2  13 963.046 1328.30   2
   2   2  14-329.634 1012.24   2
   2   3 -12 21388.3 991.220   2
   2   3 -11 478.790 815.944   2
   2   3 -10 584.265 990.572   2
   2   3  -9 44438.6 2476.46   2
   2   3  -4 22461.4 1593.35   2
   2   3  -3 44356.0 1762.07   2
  -2  -3   2 397369. 2708.35   2
  -2  -3   1 115451. 1036.08   2
  -2  -3   0 238.970 669.219   2
  -2  -3  -1 72963.9 946.010   2
  -2  -3  -2 401980. 1329.04   2
   2   3   3 150868. 2108.99   2
  -2  -3  -4 1124.37 1172.30   2
  -2  -3  -5 7336.31 1021.06   2
  -2  -3  -6 70300.4 1226.04   2
  -2  -3  -7 19560.7 2475.17   2
  -2  -3  -8 6636.48 2776.76   2
   2   3   9 20031.9 2188.56   2
   2   3  13 25427.9 1480.10   2
   2   3  14 3729.92 983.577   2
   2   4 -12 768.338 1008.16   2
   2   4 -11 23367.3 819.526   2
   2   4 -10 20447.9 1014.96   2
   2   4  -9 74.2093 1563.21   2
   2   4  -8 5880.02 1276.67   2
   2   4  -7 108778. 1550.37   2
   2   4  -6 122172. 1544.14   2
   2   4  -5-221.334 893.846   2
   2   4  -4 1929.99 1511.80   2
   2   4  -3 82538.9 1213.96   2
  -2  -4   2 159157. 1281.40   2
  -2  -4   1 2221.18 929.745   2
  -2  -4  -1 592.730 1351.77   2
  -2  -4  -2 49856.1 937.254   2
  -2  -4  -3 15396.1 1354.57   2
  -2  -4  -4 246468. 1809.07   2
  -2  -4  -5 52491.5 1247.53   2
  -2  -4  -6 2325.85 2416.31   2
  -2  -4  -7 9595.64 1443.02   2
  -2  -4  -8 95484.6 2171.58   2
  -2  -4  -9 58269.3 1694.40   2
   2   4  10 4095.92 1398.84   2
   2   4  13 13908.8 1297.72   2
  -2  -4 -14-732.152 1108.63   2
   2   5 -11 41457.8 1051.48   2
   2   5  -8-151.343 1184.50   2
   2   5  -7 31061.0 1226.68   2
   2   5  -6-368.220 1017.99   2
   2   5  -5 59294.2 1321.94   2
   2   5  -4 45818.3 1192.30   2
   2   5  -3 591.218 1596.61   2
   2   5  -2 150.937 930.243   2
   2   5  -1 119806. 1531.42   2
  -2  -5   0 331627. 1832.32   2
  -2  -5  -1 14897.4 994.871   2
  -2  -5  -3 99594.5 2477.56   2
  -2  -5  -4 184209. 3352.31   2
  -2  -5  -5 12243.5 2349.94   2
  -2  -5  -6 11839.9 1409.73   2
  -2  -5  -9 4068.01 1250.11   2
  -2  -5 -10 19315.3 1451.81   2
   2   5  11 2270.47 1483.54   2
   2   5  12 220.235 1270.26   2
  -2  -5 -13 193.241 1323.82   2
   2   5  14 9729.61 1383.73   2
   2   6 -10 14260.1 817.290   2
   2   6  -9 49203.7 1230.77   2
   2   6  -6 16945.9 1167.18   2
   2   6  -5 185485. 1548.22   2
  -2  -6   2 574.858 985.560   2
  -2  -6   1 67562.0 1600.94   2
   2   6   0 17129.1 1725.43   2
   2   6   1 8210.03 1598.31   2
   2   6   2 32406.9 1784.43   2
   2   6   3 45.1534 1590.63   2
   2   6   4 1076.22 992.082   2
  -2  -6  -5 51302.8 1155.31   2
  -2  -6  -6 45390.8 1063.71   2
  -2  -6  -7 9992.84 945.674   2
   2   6   8 878.827 2291.02   2
   2   6  10 40322.2 1523.06   2
  -2  -6 -11 11942.9 1411.92   2
   2   6  12 1380.81 1211.57   2
   2   6  13-2131.63 1670.52   2
   2   7  -9 27003.6 1210.90   2
   2   7  -8-652.132 938.139   2
   2   7  -7 24651.7 1256.84   2
   2   7  -6 1219.44 1194.79   2
   2   7  -5 4229.11 1021.40   2
   2   7  -4 8705.77 957.599   2
   2   7  -3 119802. 1610.07   2
   2   7  -2 58044.4 1347.47   2
  -2  -7   0 34037.8 1039.14   2
  -2  -7  -1 190651. 1545.66   2
  -2  -7  -2 89281.5 1572.99   2
   2   7   3-247.221 1411.77   2
  -2  -7  -5 46786.2 1333.36   2
  -2  -7  -6 22059.3 1217.53   2
  -2  -7  -7 2005.01 1221.74   2
  -2  -7  -8 12561.7 1085.67   2
  -2  -7  -9-2568.02 1288.74   2
  -2  -7 -10 91.9896 1643.87   2
   2   7  12 16979.1 1915.40   2
   2   8  -8 66010.5 1408.41   2
   2   8  -6-1014.47 1059.36   2
   2   8  -5-353.306 902.192   2
   2   8  -4 37978.5 1176.51   2
   2   8  -3 76421.8 1637.41   2
   2   8  -2 3578.57 1036.01   2
   2   8  -1 32495.7 1365.84   2
   2   8   0 472.655 1076.79   2
   2   8   1 22000.3 1556.21   2
   2   8   2-688.008 1668.99   2
   2   8   3 81456.1 1825.41   2
   2   8   4 36928.1 2011.47   2
   2   8   7 46280.7 1964.29   2
   2   8   8 32085.8 1470.73   2
  -2  -8  -9 480.095 1355.16   2
   2   8  10-1708.96 2056.14   2
   2   8  12 7813.21 1172.18   2
   2   9  -7 1787.03 606.366   2
   2   9  -6 32490.4 984.320   2
   2   9  -3-281.955 1491.45   2
   2   9  -2 59598.7 2178.05   2
   2   9  -1 110266. 2004.56   2
   2   9   0 13177.6 1658.35   2
   2   9   1-1652.83 1226.03   2
   2   9   2 23067.0 1799.12   2
   2   9   3 61642.0 1714.50   2
   2   9   4 8544.72 1408.21   2
   2   9   5 2294.06 2143.90   2
   2   9   6-538.865 1478.61   2
   2   9   7 7982.95 1445.68   2
  -2  -9  -9 10163.3 1093.57   2
   2   9  10 2091.28 1477.47   2
   2   9  11-706.467 956.156   2
   2  10  -5 28312.8 781.753   2
   2  10  -4 916.882 687.658   2
   2  10  -3 836.777 1144.90   2
   2  10  -1 27096.5 1681.22   2
  -2 -10   0 8364.53 1246.70   2
   2  10   1 27440.3 1528.18   2
   2  10   3 77.6595 1408.37   2
   2  10   4 20638.3 1518.48   2
  -2 -10  -6-783.984 1797.21   2
  -2 -10  -7-3122.55 1557.77   2
  -2 -10  -8 3883.56 1219.07   2
   2  10   9 18223.6 1260.43   2
   2  11  -3 16708.8 846.230   2
   2  11  -1 5750.55 952.662   2
   2  11   0 53347.1 1422.09   2
   2  11   1 22759.7 1003.29   2
  -2 -11  -2-2905.97 1379.57   2
  -2 -11  -3-1716.74 954.045   2
  -2 -11  -6-949.724 1110.65   2
   3  -9  -4 1768.57 763.467   2
   3  -9  -3 25178.8 1198.42   2
   3  -9  -2 61579.4 1619.58   2
   3  -9  -1 12577.3 1210.89   2
   3  -9   0-1754.39 1000.31   2
   3  -9   1 24381.2 1133.27   2
   3  -9   2 100315. 1530.75   2
   3  -8  -5-338.858 896.143   2
   3  -8  -4 680.519 1046.85   2
   3  -8  -2 36325.6 1962.63   2
   3  -8  -1 1232.96 1140.67   2
   3  -8   0 20821.8 1313.74   2
  -3   8  -1 466.884 934.762   2
  -3   8  -2 10824.4 958.959   2
  -3   8  -3 9009.55 1356.80   2
  -3   8  -4 95133.8 1838.83   2
  -3   8  -5 28845.2 1331.15   2
   3  -8   6-371.545 884.786   2
   3  -8   7 6036.43 812.877   2
   3  -7  -8-1500.32 1260.98   2
   3  -7  -7 17289.0 1832.59   2
   3  -7  -6 1861.30 1981.10   2
   3  -7  -5 41644.3 1603.90   2
   3  -7  -4 39824.7 1537.37   2
   3  -7  -3-1004.13 1890.67   2
   3  -7  -1 79941.4 2706.35   2
  -3   7  -2-1268.65 1573.46   2
  -3   7  -3 44700.6 1355.65   2
  -3   7  -4 103147. 2336.78   2
  -3   7  -5 1659.06 1527.77   2
  -3   7  -6 12017.7 1549.92   2
   3  -7   7 513.551 1059.20   2
   3  -7   8 10663.2 1170.48   2
   3  -7   9 918.347 809.550   2
   3  -6  -9 40643.3 1827.53   2
   3  -6  -8 5677.58 1346.19   2
   3  -6  -7 543.876 1518.32   2
   3  -6  -6 18185.6 1273.95   2
   3  -6  -5 117928. 1718.90   2
   3  -6  -4 23742.9 1613.20   2
   3  -6  -3 9234.95 2135.17   2
   3  -6  -1 57585.2 2035.47   2
   3  -6   0 871.378 1159.19   2
  -3   6  -1 25274.3 1106.67   2
  -3   6  -2 54951.1 1234.66   2
   3  -6   3-142.899 1016.95   2
  -3   6  -4 2028.93 1726.92   2
  -3   6  -5 82987.6 2443.72   2
   3  -6   9 19829.2 1450.26   2
   3  -5 -10 4288.36 1096.18   2
   3  -5  -9 7904.13 1534.86   2
   3  -5  -8 6926.73 1779.11   2
   3  -5  -7 14254.2 1978.57   2
   3  -5  -6-1023.78 1285.00   2
   3  -5  -2 53558.9 1969.03   2
   3  -5  -1 1062.64 1586.30   2
   3  -5   0 30853.5 1348.83   2
   3  -5   1 443262. 2711.90   2
  -3   5  -2 148196. 1488.21   2
   3  -5   3 824.545 959.552   2
  -3   5  -4 639.243 1119.92   2
  -3   5  -5 71444.1 1776.36   2
  -3   5  -6 31577.4 2107.29   2
  -3   5  -7 4368.70 1844.41   2
   3  -5   8 12035.3 1558.07   2
   3  -5   9 1354.28 1609.10   2
   3  -4 -11 10679.5 1032.65   2
   3  -4 -10-939.717 1459.33   2
   3  -4  -9 1828.64 1691.55   2
   3  -4  -8 73942.0 2379.09   2
   3  -4  -7 108167. 2668.82   2
   3  -4  -6 5059.55 1452.62   2
   3  -4  -5 161.146 1034.83   2
   3  -4  -4 93821.2 1419.69   2
   3  -4  -3 80338.9 1234.40   2
   3  -4  -2 324.729 958.439   2
   3  -4  -1 39132.6 1658.52   2
   3  -4   0-1751.33 920.874   2
   3  -4   1 39773.7 2388.14   2
  -3   4  -4 72435.6 1342.45   2
  -3   4  -5 1310.70 1282.36   2
  -3   4  -6 10583.2 1905.65   2
  -3   4  -7 112978. 2769.42   2
  -3   4  -8 73484.7 1577.21   2
   3  -4   9 864.327 1126.64   2
  -3   4 -10 202.986 1269.21   2
  -3   4 -11 27337.0 1307.44   2
   3  -3 -11-630.922 1859.28   2
   3  -3 -10 7991.85 1625.39   2
   3  -3  -5 107165. 1826.90   2
   3  -3  -4 896.736 872.941   2
   3  -3  -3 10976.2 957.858   2
   3  -3  -2 150726. 1911.74   2
   3  -3  -1 188718. 2791.47   2
   3  -3   0 11024.1 1657.83   2
   3  -3   1-1540.37 1498.71   2
   3  -3   2 117164. 2288.18   2
  -3   3  -3 197073. 2000.60   2
   3  -3   4 4793.33 1178.82   2
  -3   3  -5 46743.6 1154.34   2
  -3   3  -6 2461.89 1667.04   2
  -3   3  -8 1741.90 1590.63   2
   3  -3   9 68079.6 1664.47   2
  -3   3 -10 29947.4 1772.38   2
  -3   3 -11-725.240 1320.67   2
  -3   3 -12 2305.69 1116.21   2
   3  -3  13 21827.1 1242.27   2
   3  -2 -11 21551.7 2186.99   2
   3  -2 -10 100328. 3177.36   2
   3  -2  -9 23296.8 2744.36   2
   3  -2  -7 20642.1 2726.08   2
   3  -2  -2 125328. 1845.29   2
   3  -2  -1 22047.8 1258.12   2
   3  -2   0 55020.5 1942.40   2
   3  -2   1 85359.2 1500.29   2
   3  -2   2 1146.15 1593.66   2
   3  -2   3 2415.32 1117.57   2
  -3   2  -4 173457. 1734.29   2
  -3   2  -5 228976. 1915.30   2
  -3   2  -6 23948.6 1662.19   2
   3  -2   7 1035.99 1431.07   2
   3  -2   8 26392.0 1114.70   2
   3  -2   9 112704. 1965.17   2
   3  -1 -12 95.3818 1456.61   2
   3  -1  -8 73207.2 2630.58   2
   3  -1  -7 2660.30 1499.25   2
   3  -1  -6 433.576 1375.20   2
   3  -1  -5 83172.2 1210.34   2
   3  -1  -4 270468. 2205.38   2
   3  -1  -3 111378. 2147.87   2
   3  -1  -2-108.957 1556.73   2
   3  -1  -1 15113.8 1368.79   2
   3  -1   5 168755. 2590.98   2
   3  -1   6 688.364 1405.05   2
   3  -1   7 40056.7 1318.58   2
   3  -1   8-828.958 1128.72   2
   3  -1   9 3145.52 1119.04   2
  -3   1 -10 33040.4 2066.06   2
  -3   1 -11 43240.4 2131.80   2
  -3   1 -12 3446.34 1552.17   2
   3  -1  13 2621.73 1558.83   2
   3  -1  14 3806.61 712.220   2
   3   0 -12 18295.2 1591.76   2
   3   0  -5 105981. 1272.95   2
   3   0  -4 152637. 1649.02   2
   3   0  -3 7408.56 949.905   2
   3   0  -2 50672.3 924.260   2
  -3   0   1 5734.22 1122.01   2
  -3   0   0 84564.3 1292.03   2
  -3   0  -1 30297.2 1058.76   2
   3   0   2 327518. 2713.71   2
  -3   0  -3 151483. 1232.69   2
  -3   0  -4 2969.88 989.998   2
   3   0   5 12307.3 990.596   2
   3   0   6 182788. 2504.85   2
  -3   0  -7 154868. 2114.04   2
   3   0   8 7189.61 1138.75   2
   3   0   9-640.400 1459.56   2
  -3   0 -12 2000.89 1647.00   2
   3   0  13 940.560 1821.84   2
   3   0  14 221.905 848.160   2
   3   1 -12 5101.55 1492.28   2
   3   1 -11 3782.12 1822.13   2
   3   1  -5-3.87205 949.636   2
   3   1  -4 2448.21 1117.07   2
   3   1  -3 188392. 1407.26   2
   3   1   0 4552.30 1141.30   2
  -3  -1  -1 166535. 2113.01   2
   3   1   2 308091. 2538.88   2
   3   1   3 37188.7 1167.85   2
   3   1   4 89546.4 1425.27   2
   3   1   5 516.648 1112.67   2
   3   1   6 38969.6 901.446   2
  -3  -1  -7 4617.14 1439.57   2
   3   1   8 54850.7 1468.74   2
   3   1  13 31317.0 1453.68   2
   3   1  14 2740.01 954.620   2
   3   2  -7 138354. 1712.61   2
   3   2  -6 80099.9 1199.85   2
   3   2  -5 3295.51 784.868   2
   3   2  -4-646.844 1026.70   2
   3   2  -3 86163.3 1449.83   2
   3   2  -2 91640.8 959.672   2
   3   2  -1 78838.1 1135.45   2
   3   2   0 98435.3 1357.58   2
   3   2   1 426.129 511.473   2
   3   2   2 10311.7 882.776   2
   3   2   3 107080. 1470.44   2
   3   2   4 373627. 1795.65   2
  -3  -2  -5 39563.6 1357.06   2
  -3  -2  -6 196.419 1550.93   2
  -3  -2  -7 23265.6 1706.68   2
   3   2   9 24929.5 1356.23   2
  -3  -2 -10-2269.51 3022.97   2
  -3  -2 -12 8911.46 1934.19   2
   3   2  13 1295.85 1253.75   2
   3   2  14-341.924 990.476   2
   3   3  -7 10266.6 1144.22   2
   3   3  -6 13188.8 2159.18   2
  -3  -3   2 25857.2 1068.65   2
  -3  -3   1 384249. 1638.13   2
  -3  -3   0 145188. 1120.79   2
  -3  -3  -1 2541.99 1151.17   2
  -3  -3  -2 972.785 1703.48   2
   3   3   3 80146.9 2046.52   2
  -3  -3  -4 139468. 1691.91   2
  -3  -3  -5 2537.58 1144.64   2
  -3  -3  -6 30769.8 1896.23   2
  -3  -3 -10 57032.1 2582.89   2
  -3  -3 -11 13292.2 2141.31   2
  -3  -3 -12-3290.38 1782.18   2
   3   3  13 1930.79 1219.01   2
   3   3  14 14637.2 1054.40   2
   3   4 -11-52.2823 1056.26   2
   3   4 -10 38263.4 1765.47   2
   3   4  -9 65308.5 1649.72   2
   3   4  -8 3175.46 1100.62   2
   3   4  -7 753.118 1457.24   2
   3   4  -6 28019.3 1348.38   2
   3   4  -5 94256.5 1884.19   2
   3   4  -4 6267.15 1943.53   2
  -3  -4   1 41183.4 944.681   2
  -3  -4   0 6734.98 799.943   2
  -3  -4  -1 130022. 1107.44   2
  -3  -4  -2 92306.4 2413.17   2
   3   4   3 13800.3 1240.81   2
  -3  -4  -5 184342. 2898.69   2
  -3  -4  -6 129205. 2039.79   2
  -3  -4  -7 7597.64 790.449   2
  -3  -4 -10 31901.8 1939.89   2
  -3  -4 -11 1202.57 1921.23   2
  -3  -4 -12 3623.36 1801.77   2
   3   4  13-1005.62 1156.89   2
   3   4  14 1451.07 900.815   2
   3   5 -10 6886.41 920.475   2
   3   5  -9 1111.73 860.912   2
   3   5  -8 16398.0 967.198   2
   3   5  -7 36192.8 1390.78   2
   3   5  -6 495.892 1200.05   2
   3   5  -5-714.685 1528.28   2
   3   5  -4 76237.7 1542.26   2
   3   5  -3 146336. 1934.72   2
   3   5  -2 27002.3 1557.05   2
  -3  -5   0 45584.7 1198.25   2
  -3  -5  -1 181298. 1603.23   2
  -3  -5  -2 72209.1 2260.43   2
  -3  -5  -3 21849.0 1324.20   2
  -3  -5  -6 4480.00 769.670   2
  -3  -5  -7 26700.1 1000.78   2
  -3  -5  -8 28619.5 1454.03   2
  -3  -5  -9-273.314 1336.77   2
  -3  -5 -10-1020.75 1935.47   2
  -3  -5 -11 17906.5 2015.12   2
  -3  -5 -12 17677.6 1809.78   2
  -3  -5 -13 1161.86 1328.25   2
   3   5  14-545.337 767.873   2
   3   6  -9 9531.12 1339.05   2
   3   6  -8 36006.9 950.271   2
   3   6  -5 3129.64 2032.92   2
   3   6  -4 40566.7 1239.24   2
   3   6  -3 23812.7 1103.51   2
   3   6  -2 19599.5 1320.65   2
   3   6  -1 65052.8 1564.33   2
   3   6   0-50.8166 1081.58   2
   3   6   1 5703.18 788.841   2
   3   6   2 10400.7 1271.56   2
  -3  -6  -3 162249. 1862.54   2
   3   6   4 28927.8 999.066   2
   3   6   5-814.616 982.220   2
  -3  -6  -7 45236.5 1981.07   2
  -3  -6  -8 18999.4 1043.18   2
   3   6   9-667.884 1187.73   2
  -3  -6 -10-481.072 1797.28   2
  -3  -6 -11 5513.62 1743.65   2
  -3  -6 -12 2960.67 1469.42   2
   3   7  -9 150.794 680.173   2
   3   7  -8 2288.02 641.943   2
   3   7  -7-208.228 919.347   2
   3   7  -6 31748.6 1098.81   2
   3   7  -5 26653.6 1416.18   2
   3   7  -3 5952.68 1592.23   2
   3   7  -2 131667. 1963.39   2
   3   7  -1 107195. 1414.81   2
   3   7   0 1100.41 1090.75   2
   3   7   2 39733.2 1223.46   2
   3   7   3 72837.3 2759.25   2
   3   7   4-56.9856 1189.43   2
   3   7   5 25733.1 1443.87   2
  -3  -7  -6 1056.68 960.952   2
   3   7   7 4066.70 1188.04   2
  -3  -7  -8 3672.46 1822.75   2
   3   7   9 17020.1 1486.45   2
  -3  -7 -10 2936.89 1669.98   2
  -3  -7 -11-3475.01 1395.53   2
  -3  -7 -12 3929.98 1180.49   2
   3   8  -8 573.597 838.016   2
   3   8  -7 10968.9 781.058   2
   3   8  -6 50829.0 1211.20   2
   3   8  -5 3356.76 905.401   2
   3   8  -4 25105.4 1360.51   2
   3   8  -3 1332.50 1249.55   2
   3   8  -2 12231.5 1894.49   2
   3   8  -1 1088.23 1211.70   2
  -3  -8   0 68695.1 1185.20   2
  -3  -8  -1 39946.7 1320.63   2
  -3  -8  -2 5664.05 1121.66   2
  -3  -8  -4 74213.1 1537.27   2
   3   8   5 65560.7 1785.68   2
   3   8   6 5174.92 1332.71   2
   3   8   7 852.884 1601.79   2
   3   8   8 10859.7 1674.99   2
   3   9  -6 1035.90 653.173   2
   3   9  -5 38258.3 1056.86   2
   3   9  -4 72615.0 1947.44   2
   3   9  -3 17814.7 1179.50   2
   3   9  -2 1641.51 1071.49   2
   3   9  -1 10906.1 1089.49   2
   3   9   0 82984.9 1805.84   2
   3   9   1 27063.5 1567.59   2
   3   9   2 1766.41 1478.40   2
   3   9   3 1525.12 2065.54   2
   3   9   4 14428.6 2263.12   2
   3   9   6 10267.2 1551.25   2
   3   9   7 18464.6 1287.33   2
   3   9   8 21.8676 1081.15   2
  -3  -9  -9 482.931 1006.14   2
   3  10  -4 16135.0 782.083   2
   3  10  -3 3816.90 1173.63   2
   3  10  -2 23950.7 1589.73   2
   3  10  -1 11067.2 1224.59   2
   3  10   1 5677.73 1219.00   2
   3  10   2 56038.8 1608.76   2
   3  10   3 14289.6 1202.42   2
   3  10   4-3048.36 1338.29   2
   3  10   5 8445.02 1109.07   2
   3  10   6 14592.1 1321.81   2
  -3 -10  -8-760.310 982.987   2
   3  10   9-263.556 1190.21   2
   3  11  -3 23851.8 840.176   2
   3  11  -2 27383.4 997.391   2
   3  11  -1-554.184 982.213   2
   3  11   0-532.934 1096.62   2
  -3 -11  -1 8038.10 795.128   2
  -3 -11  -3 437.787 901.349   2
   3  11   4 9290.30 967.622   2
   3  11   5 1993.20 902.123   2
   3  11   6 5085.39 1105.42   2
   3  11   7 985.986 910.541   2
   4  -8  -3 9624.38 908.271   2
   4  -8  -2-2519.24 1005.29   2
   4  -8  -1 13446.7 847.131   2
   4  -8   0 3295.34 776.222   2
   4  -8   1 67390.2 1146.38   2
   4  -8   2 32487.0 849.922   2
   4  -8   4 4992.67 937.728   2
   4  -8   5 42479.7 1166.74   2
   4  -7  -5-2244.15 910.740   2
   4  -7  -4 47366.7 968.710   2
   4  -7  -3 128850. 2763.57   2
   4  -7   0 24640.8 1851.99   2
   4  -7   1 64893.5 2177.51   2
   4  -7   2 8337.94 1438.68   2
   4  -7   3 8076.70 914.511   2
   4  -7   4 866.123 1115.24   2
   4  -7   6 315.805 674.793   2
   4  -7   7 20746.2 671.806   2
   4  -6  -6-481.494 977.932   2
   4  -6  -5 890.533 788.936   2
   4  -6  -4 20721.5 1461.22   2
   4  -6  -3 22163.1 1580.14   2
   4  -6  -2 31997.0 2617.56   2
   4  -6  -1 67422.9 1938.56   2
   4  -6   0-1319.77 1368.46   2
   4  -6   1 476.241 1733.98   2
   4  -6   2 45658.7 2224.11   2
   4  -6   6 17989.1 1678.19   2
   4  -6   7 65646.1 1314.18   2
   4  -6   8 15181.2 832.191   2
   4  -6   9 2310.42 843.073   2
   4  -5  -4-2125.33 1540.56   2
   4  -5  -3 13313.2 1734.00   2
   4  -5  -2 149895. 3895.54   2
   4  -5  -1 130751. 2434.26   2
   4  -5   0 1820.96 1467.48   2
   4  -5   1 1164.54 1028.81   2
   4  -5   2 33656.0 1598.44   2
   4  -5   3 33294.3 2066.05   2
   4  -5   4 1462.72 1480.62   2
   4  -5   5 31989.5 1282.20   2
   4  -5   7 4930.22 1591.88   2
   4  -5   8 10242.0 1035.75   2
   4  -5   9 56757.8 1718.96   2
   4  -5  10 10374.6 1098.01   2
   4  -4  -9 592.110 1306.54   2
   4  -4  -8-1052.60 1776.74   2
   4  -4  -7 17581.9 2230.87   2
   4  -4  -6 52402.9 1459.42   2
   4  -4  -5 2573.64 939.065   2
   4  -4  -4 36686.7 1952.23   2
   4  -4  -3 2901.31 1133.64   2
   4  -4  -2 20293.6 3082.54   2
   4  -4   1 52733.8 1231.49   2
  -4   4  -2 8090.91 1155.70   2
   4  -4   3 2412.08 1339.79   2
   4  -4   4 120266. 2080.82   2
   4  -4   5 116645. 2858.83   2
   4  -4   7 906.710 1597.61   2
   4  -4   8 19699.7 1272.38   2
   4  -4   9 23778.8 1186.85   2
   4  -4  10-526.654 1324.64   2
   4  -4  11 5426.80 1153.20   2
   4  -3  -8 37964.3 2493.04   2
   4  -3  -7 1463.81 1727.73   2
   4  -3  -6 1079.81 1733.01   2
   4  -3  -5 72754.4 1681.46   2
   4  -3  -4 195396. 1659.85   2
   4  -3  -3 34579.4 1252.61   2
   4  -3  -2 813.530 1014.99   2
   4  -3  -1 34747.5 1373.57   2
   4  -3   0 127577. 1758.45   2
   4  -3   1 42524.1 1269.96   2
   4  -3   2 17643.1 1342.62   2
   4  -3   3 2464.15 1339.72   2
   4  -3   7 30902.1 2139.14   2
   4  -3   8 641.281 1170.82   2
   4  -3   9 963.380 1092.50   2
   4  -3  10 31997.9 1901.48   2
   4  -3  11 42270.2 1799.81   2
   4  -3  12 4510.87 1165.96   2
   4  -2 -10 6385.25 1708.93   2
   4  -2  -5 28984.8 1442.55   2
   4  -2  -4 44018.7 1201.30   2
   4  -2  -3 40256.6 1326.72   2
   4  -2  -2 102796. 1383.97   2
   4  -2  -1 1888.70 1000.66   2
   4  -2   0 1281.22 1133.95   2
   4  -2   1 80288.5 1639.00   2
   4  -2   2 232085. 3136.41   2
   4  -2   3 86042.5 2347.43   2
   4  -2   4 2100.24 950.184   2
   4  -2   5 40373.6 1521.03   2
   4  -2   6 141152. 3194.57   2
   4  -2  13 8863.76 1155.30   2
   4  -1 -10 4954.23 1806.77   2
   4  -1  -9 6716.31 2204.18   2
   4  -1  -8 15265.3 2507.55   2
   4  -1  -7 118604. 2169.42   2
   4  -1  -6 57406.9 1535.98   2
   4  -1  -5 797.301 1148.65   2
   4  -1  -4 12509.7 940.668   2
   4  -1   3-755.819 1582.26   2
   4  -1   4 82850.0 2219.41   2
   4  -1   5 5881.87 1094.71   2
   4  -1   6 14923.8 941.277   2
   4  -1   7 13656.1 1216.48   2
   4  -1   8 84698.1 1823.55   2
   4  -1   9 23533.5 1400.01   2
   4  -1  10-216.081 1830.69   2
   4  -1  11 8890.81 1842.25   2
   4  -1  12 26617.6 1878.31   2
   4  -1  13 17420.0 1493.85   2
   4   0  -8 23873.6 1603.49   2
   4   0  -7 172279. 2405.54   2
   4   0  -6 44801.1 1410.15   2
   4   0  -5 78525.3 1520.46   2
   4   0  -4 3394.76 1012.03   2
   4   0  -3 16193.1 1332.97   2
   4   0  -2 1802.08 1232.51   2
   4   0  -1 114164. 1831.11   2
   4   0   0 66238.7 2005.13   2
   4   0   2 6264.15 1583.55   2
   4   0   3 174625. 2544.06   2
   4   0   4 161693. 2549.20   2
   4   0   5 3591.08 1589.64   2
   4   0   6 5698.22 1127.43   2
   4   0   7 25677.2 1868.16   2
   4   0  10 9678.67 2064.76   2
   4   0  11 4361.57 1977.76   2
   4   0  12 5824.24 1850.75   2
   4   0  13-747.311 868.382   2
   4   0  14 8123.67 1226.14   2
   4   1  -8 1236.52 2125.45   2
   4   1  -7-3870.39 1418.16   2
   4   1  -6 72028.0 1934.11   2
   4   1  -1 183884. 2015.41   2
   4   1   0 81951.7 1360.44   2
  -4  -1  -1 6730.56 1264.63   2
   4   1   2 1978.13 959.980   2
   4   1   3 50244.5 1760.00   2
   4   1   4 4443.81 1491.45   2
   4   1   5 105043. 2277.16   2
   4   1   8 5518.42 1613.84   2
  -4  -1  -9 41333.8 1383.51   2
   4   1  10 88432.4 2842.06   2
   4   1  11 7764.95 2037.53   2
   4   1  12-1613.65 1145.54   2
   4   1  13 6029.43 1022.80   2
   4   1  14 7829.57 1405.08   2
   4   2 -11 2625.15 1150.55   2
   4   2 -10 42847.5 1297.21   2
   4   2  -9 32974.4 1457.20   2
   4   2  -8-471.372 1330.42   2
   4   2  -7 2351.03 1374.18   2
   4   2  -6 23986.2 1257.08   2
   4   2  -5 24459.8 1395.52   2
   4   2  -4 30153.0 1496.26   2
   4   2  -1 7941.61 702.648   2
   4   2   0 39290.9 1139.39   2
   4   2   3 272.509 1540.89   2
   4   2   4 38324.5 1276.95   2
   4   2   5 204014. 2852.34   2
  -4  -2  -6 78393.4 1674.72   2
  -4  -2  -7-1089.11 849.694   2
   4   2   8-2401.76 1101.96   2
   4   2   9 15400.8 1397.80   2
  -4  -2 -10 9597.91 1026.03   2
   4   2  11 859.653 1312.73   2
   4   2  12 7642.22 1295.05   2
   4   2  13 3.14474 1035.09   2
  -4  -2 -14 2438.69 919.338   2
   4   3 -10 4878.57 1417.23   2
   4   3  -9 2729.90 1113.19   2
   4   3  -8 69712.3 2512.86   2
   4   3  -7 37473.8 1910.53   2
   4   3  -6 804.958 1649.62   2
   4   3  -5 5333.81 899.539   2
   4   3  -4 100874. 1236.22   2
   4   3  -3 117462. 1562.21   2
  -4  -3   2 1308.38 888.306   2
  -4  -3   1 1234.14 718.369   2
   4   3   0 70722.3 1435.95   2
   4   3   1 114659. 1613.61   2
  -4  -3  -2 651.903 1567.07   2
  -4  -3  -3 35119.3 1324.35   2
  -4  -3  -7 84471.7 1370.11   2
  -4  -3  -8 43076.7 1164.90   2
  -4  -3  -9-1527.64 950.823   2
   4   3  10 7644.57 1105.93   2
   4   3  11 29630.9 1564.68   2
   4   3  12 17346.5 1385.94   2
   4   3  13-828.680 1048.69   2
  -4  -3 -14-739.532 904.021   2
   4   4 -10-273.654 1131.32   2
   4   4  -9 6724.82 1477.87   2
   4   4  -8 46149.0 1482.85   2
   4   4  -7 21231.0 1333.20   2
   4   4  -4 10358.0 1378.49   2
   4   4  -3 5605.07 1084.44   2
   4   4  -2 18970.2 1471.10   2
  -4  -4   1 96764.8 1409.28   2
  -4  -4   0-2143.55 1610.66   2
  -4  -4  -1 7519.87 1742.49   2
  -4  -4  -2 196204. 2906.43   2
  -4  -4  -3 190441. 2908.48   2
  -4  -4  -7 64171.9 1103.48   2
  -4  -4  -8 9700.31 897.906   2
  -4  -4  -9 4519.96 1011.51   2
   4   4  10 612.711 1365.25   2
   4   4  11-409.674 1341.11   2
   4   4  12 1377.82 1232.03   2
   4   5  -9 1254.07 1174.11   2
   4   5  -8 176.396 1392.71   2
   4   5  -7 21303.8 1039.99   2
   4   5  -6 71125.3 1385.68   2
   4   5  -5 22048.1 1470.04   2
  -4  -5   1 39158.5 1543.22   2
  -4  -5   0 7360.43 1290.17   2
  -4  -5  -1 1504.81 1222.01   2
   4   5   3 15465.2 1301.51   2
   4   5   4 33852.1 1146.34   2
  -4  -5  -5 59647.8 980.329   2
  -4  -5  -6 788.137 861.763   2
  -4  -5  -7 1021.99 777.488   2
  -4  -5  -8 24152.7 1003.08   2
  -4  -5  -9 61066.1 1622.80   2
   4   5  10 7068.80 1414.17   2
   4   5  11-1216.35 1259.78   2
   4   5  12 969.042 1126.59   2
   4   5  14 6422.44 1384.69   2
   4   6  -7 8075.60 1411.74   2
   4   6  -6 15384.8 1005.51   2
   4   6  -5 4377.44 1673.15   2
   4   6  -4 24521.0 1951.20   2
   4   6  -3 2474.14 1332.24   2
   4   6  -2 6333.87 2235.39   2
   4   6  -1 20793.5 1571.05   2
  -4  -6   0 130093. 1558.49   2
  -4  -6  -1 64767.9 1474.71   2
  -4  -6  -2 1295.51 1058.73   2
   4   6   4 91142.1 2696.03   2
   4   6   5 56507.6 1269.72   2
  -4  -6  -6 595.121 832.911   2
   4   6   7 1206.59 994.515   2
   4   6   8 11042.5 1055.46   2
   4   6   9 9040.72 1376.08   2
  -4  -6 -11 5615.35 1508.02   2
  -4  -6 -12-1348.34 1217.07   2
   4   6  13 797.300 808.191   2
   4   7  -5 37572.0 1419.97   2
   4   7  -4 69086.4 1246.25   2
   4   7  -3-341.660 949.794   2
   4   7  -1 24645.6 2473.46   2
   4   7   0 46928.6 1872.65   2
   4   7   1 187.273 1189.62   2
   4   7   2 13451.3 1131.51   2
  -4  -7  -3 7594.64 2319.82   2
   4   7   4 4562.17 1219.03   2
   4   7   6 39690.8 1885.51   2
   4   7   7 21091.1 1238.08   2
   4   7   8-440.034 1083.59   2
   4   7   9 799.844 930.437   2
   4   7  12 200.403 1760.34   2
   4   8  -6 1088.46 908.298   2
   4   8  -5 5193.27 731.091   2
   4   8  -4 1451.18 929.360   2
   4   8  -3 6015.01 925.292   2
   4   8  -2 40212.4 1471.99   2
   4   8  -1 5738.36 1290.33   2
   4   8   1 45321.1 2440.78   2
   4   8   2 83890.4 2292.42   2
   4   8   3 2100.13 1436.82   2
   4   8   4 1759.67 1198.36   2
   4   8   5 10531.4 1583.90   2
   4   8   7 596.628 1250.51   2
   4   8   8 8652.34 1215.50   2
   4   8   9 1162.64 1417.83   2
   4   8  10-444.279 1184.84   2
   4   8  11 2604.87 1679.11   2
   4   9  -4 7394.10 660.114   2
   4   9  -3 46893.5 967.031   2
   4   9  -2 18736.6 1105.18   2
   4   9  -1 3838.35 1080.72   2
   4   9   0 2684.38 1591.49   2
   4   9   1 9120.29 1066.76   2
   4   9   3 11410.1 1146.81   2
   4   9   4 30914.8 1570.61   2
   4   9   5 1416.86 1352.96   2
   4   9   6 445.284 1340.65   2
   4   9   9 6978.07 941.037   2
   4   9  10-1112.59 821.659   2
   4  10  -4 7367.24 852.816   2
   4  10  -2 4759.62 760.318   2
   4  10  -1 42758.4 1001.51   2
   4  10   0 19396.6 1448.65   2
  -4 -10  -1 1452.42 1749.61   2
  -4 -10  -2 349.910 1915.95   2
   4  10   3 36895.5 1109.84   2
   4  10   4 26617.7 1613.99   2
   4  10   5-1602.64 1141.36   2
   4  10   6 480.954 1062.33   2
   4  10   7 5110.14 884.662   2
   4  10   8 6049.72 773.172   2
   4  11   0 1211.34 806.173   2
   4  11   1 6511.84 969.442   2
  -4 -11  -2 589.804 1234.66   2
  -4 -11  -3 3557.28 1392.24   2
  -4 -11  -5 16873.6 1498.67   2
  -4 -11  -7 367.930 973.657   2
   5  -7  -2 40029.0 1172.34   2
   5  -7  -1 21489.4 1212.02   2
   5  -7   0 2271.52 514.072   2
   5  -7   1 1531.14 545.482   2
   5  -7   2 10434.2 600.557   2
   5  -7   3 6079.88 684.131   2
   5  -7   5 23261.8 1033.75   2
   5  -6  -4 24750.4 786.017   2
   5  -6  -3 766.400 1065.49   2
   5  -6  -2-443.417 1204.28   2
   5  -6  -1 13315.3 873.911   2
   5  -6   3 7280.42 928.451   2
   5  -6   4 50856.1 1647.52   2
   5  -6   5 23497.5 945.691   2
   5  -6   6 677.257 1104.38   2
   5  -6   7-65.6780 872.975   2
   5  -5  -6 1040.29 1369.96   2
   5  -5  -5 30922.4 1058.65   2
   5  -5  -4 41361.3 992.343   2
   5  -5  -3-1118.65 850.819   2
   5  -5  -2 1214.91 1173.52   2
   5  -5  -1 17291.2 1077.48   2
   5  -5   0 36323.9 2148.77   2
   5  -5   1 6351.98 1197.24   2
   5  -5   2 25375.9 1356.53   2
   5  -5   3 5289.73 1119.31   2
   5  -5   4 1707.28 1015.75   2
   5  -5   5 5863.55 1041.13   2
   5  -5   7 32884.1 1746.90   2
   5  -5   8 2286.95 1116.98   2
   5  -4  -7 10273.2 1680.46   2
   5  -4  -6 5163.09 2009.03   2
   5  -4  -5 4374.33 1147.23   2
   5  -4  -2 57267.4 1930.26   2
   5  -4  -1 4193.59 1412.33   2
   5  -4   0-794.964 1320.15   2
   5  -4   1 69882.9 1807.19   2
   5  -4   2 124022. 2133.75   2
   5  -4   3 2383.44 1160.45   2
   5  -4   4-63.7519 1092.48   2
   5  -4   5 12315.2 1217.25   2
   5  -4   6 33705.6 1344.93   2
   5  -4   7 2761.71 1528.22   2
   5  -4   8 3808.80 878.228   2
   5  -4   9 2968.18 761.177   2
   5  -3  -8 26423.8 1831.30   2
   5  -3  -7 55149.7 2545.55   2
   5  -3  -6 13383.5 2469.51   2
   5  -3  -5 2136.15 1251.14   2
   5  -3  -4 14953.9 1133.62   2
   5  -3  -3 98257.9 1758.60   2
   5  -3  -2 33023.7 1415.14   2
   5  -3  -1 5237.15 1187.42   2
   5  -3   0 4738.05 1218.71   2
   5  -3   1 11035.4 1995.23   2
   5  -3   3 4166.56 1160.92   2
   5  -3   4 36868.2 1298.01   2
   5  -3   5 3306.96 931.071   2
   5  -3   6-870.778 1121.08   2
   5  -3   7 23079.6 1197.90   2
   5  -3   8 59792.9 1468.39   2
   5  -3   9 5583.77 964.579   2
   5  -3  10-691.473 748.778   2
   5  -3  11 4344.61 948.671   2
   5  -2  -8 5560.09 2005.03   2
   5  -2  -7 8105.56 2242.61   2
   5  -2  -6 4635.17 2444.48   2
   5  -2  -5 37144.0 1584.06   2
   5  -2  -4 5598.49 1508.94   2
   5  -2  -3 5139.33 1004.92   2
   5  -2  -2 13551.9 1073.50   2
   5  -2  -1 145795. 1642.32   2
   5  -2   0 52275.6 1265.41   2
   5  -2   1 1623.66 1741.65   2
   5  -2   2 10377.0 1095.36   2
   5  -2   3 79059.9 1525.51   2
   5  -2  10 12454.5 1036.45   2
   5  -2  11 282.368 1188.97   2
   5  -2  12-619.357 910.424   2
   5  -1  -9 16878.4 1737.65   2
   5  -1  -8 1265.63 1237.45   2
   5  -1  -7 3081.68 1404.86   2
   5  -1   0 3878.77 1265.58   2
   5  -1   1 44875.5 1431.16   2
   5  -1   2 13410.2 864.686   2
   5  -1   3 6157.72 849.707   2
   5  -1   4 1542.91 836.236   2
   5  -1   5 118766. 1708.33   2
   5  -1   6 66970.2 1505.28   2
   5  -1   7 2435.71 1751.65   2
   5  -1   8 4870.35 1151.92   2
   5  -1   9 43055.6 1481.95   2
   5  -1  10 25100.4 1255.57   2
   5  -1  11 4088.34 1456.74   2
   5  -1  12 153.195 1191.09   2
   5   0  -9 3612.45 1036.44   2
   5   0  -8 6807.92 1303.95   2
   5   0  -7 4290.23 2141.26   2
   5   0  -6 9982.22 1314.10   2
   5   0  -5 2464.08 1254.47   2
   5   0  -4 39003.3 1425.56   2
   5   0  -3 69787.5 1586.00   2
   5   0  -2 3933.66 938.033   2
   5   0  -1-76.4078 981.556   2
   5   0   0 75658.8 1379.05   2
   5   0   1 171657. 1673.81   2
   5   0   2 21125.4 995.778   2
   5   0   3 4083.94 762.083   2
   5   0   4 16274.2 1040.67   2
   5   0   7 17170.9 1434.61   2
   5   0   8 3046.22 1158.81   2
   5   0   9 4103.80 1170.72   2
   5   0  10 0.40133 1114.80   2
   5   0  11 11721.2 1135.89   2
   5   0  12 6416.94 1484.69   2
   5   0  13 1890.90 1118.30   2
   5   1  -9 8211.73 1084.55   2
   5   1  -8 57888.0 2379.67   2
   5   1  -4 151842. 2339.90   2
   5   1  -3 73194.7 1948.14   2
   5   1  -2 4126.00 1032.95   2
   5   1  -1 5729.50 985.284   2
   5   1   0 16284.5 1003.02   2
   5   1   1 7319.24 1143.24   2
   5   1   2 12312.8 1633.17   2
   5   1   3 55694.2 2087.72   2
   5   1   6 41358.7 1158.61   2
   5   1   7 77197.0 1313.59   2
   5   1   8 18234.2 1282.72   2
   5   1   9-832.892 1155.58   2
   5   1  10 4535.56 1226.66   2
   5   1  11 26261.0 1327.53   2
   5   1  12 9216.60 1664.67   2
   5   2  -9 4587.08 1434.61   2
   5   2  -8 10471.8 1143.98   2
   5   2  -4-2519.16 1888.19   2
   5   2  -3 12137.1 1887.73   2
   5   2  -2 148494. 1736.77   2
   5   2  -1 66824.0 1124.00   2
   5   2   0-143.644 774.711   2
   5   2   1 14377.7 1220.67   2
   5   2   2 89295.1 2368.87   2
   5   2   3 112853. 1135.14   2
   5   2   4-690.012 729.885   2
  -5  -2  -5-3184.96 1002.81   2
  -5  -2  -6 28984.1 953.961   2
  -5  -2  -7 16760.9 1116.85   2
  -5  -2  -8 1262.02 1010.71   2
   5   2   9 21923.2 1419.24   2
   5   2  10 2151.58 1249.11   2
   5   2  11-792.162 1160.71   2
   5   3  -7 35104.3 1345.99   2
   5   3  -6 64696.7 1629.68   2
   5   3  -5 2228.42 960.985   2
   5   3  -4-960.482 1951.38   2
   5   3  -3 3700.29 2063.90   2
   5   3  -2 63355.4 2507.24   2
  -5  -3   1 1814.92 1209.42   2
   5   3   0 49118.9 1071.93   2
   5   3   1 8061.42 1730.26   2
   5   3   4 94732.2 1228.84   2
   5   3   5 86589.7 1874.73   2
  -5  -3  -6 7052.31 890.846   2
  -5  -3  -7 2168.58 1051.77   2
  -5  -3  -8 46484.1 1319.88   2
   5   3   9 37036.3 1588.30   2
   5   3  10-1004.49 1263.11   2
   5   3  11-1640.17 1796.70   2
   5   3  12 2144.33 1751.21   2
   5   4  -6 3595.64 894.885   2
   5   4  -5 26061.2 1334.47   2
   5   4  -4 34555.2 1473.61   2
   5   4  -3 817.980 1173.58   2
   5   4  -2 319.947 1951.95   2
  -5  -4   1 38454.2 1295.11   2
  -5  -4   0 119929. 1615.37   2
  -5  -4  -1 24483.3 885.004   2
   5   4   2 2001.23 953.002   2
   5   4   4 61181.5 1131.21   2
  -5  -4  -5 14099.8 1118.28   2
  -5  -4  -6 3631.21 944.708   2
  -5  -4  -7 8204.15 985.196   2
  -5  -4  -8 2996.64 867.716   2
   5   4   9-1439.84 1298.01   2
   5   4  12-3192.93 1637.59   2
   5   4  13-3782.92 1328.23   2
   5   5  -8 10951.9 1119.75   2
   5   5  -6 2002.19 1251.30   2
   5   5  -5 36770.6 1395.62   2
   5   5  -4 19618.9 1359.04   2
   5   5  -3 812.274 1201.74   2
   5   5  -2 4574.47 1147.05   2
  -5  -5  -1 7332.81 1122.00   2
  -5  -5  -2 68382.2 1480.31   2
  -5  -5  -3 8202.54 1188.47   2
  -5  -5  -4-455.501 785.702   2
   5   5   5 21164.1 1226.64   2
  -5  -5  -6 66907.6 1229.22   2
  -5  -5  -7 11091.9 889.611   2
  -5  -5  -8-958.212 884.493   2
   5   5   9 1967.91 1894.32   2
   5   5  12 533.536 1545.43   2
   5   6  -7 10002.4 1162.35   2
   5   6  -6 6527.24 1491.81   2
   5   6  -5 710.715 1049.62   2
   5   6  -4 4448.92 1194.16   2
   5   6  -3 43514.6 1852.88   2
   5   6  -2 35180.8 1405.33   2
   5   6  -1 824.509 963.448   2
  -5  -6  -2 81650.5 1699.80   2
  -5  -6  -3 2801.05 2258.67   2
  -5  -6  -4 4683.35 1052.82   2
   5   6   5 20388.6 1315.67   2
  -5  -6  -6 16819.1 1178.77   2
   5   6   8 15443.2 2119.36   2
   5   6   9-1225.56 1210.42   2
   5   6  12 15895.7 1848.60   2
   5   7  -7 25306.9 1022.38   2
   5   7  -5 348.661 1162.69   2
   5   7  -3 24202.8 1299.67   2
   5   7  -2 2372.78 1164.17   2
   5   7  -1 16041.7 955.367   2
   5   7   0 6111.21 1457.86   2
   5   7   1 3634.92 1076.12   2
   5   7   2 149.166 1596.41   2
  -5  -7  -3 39436.4 1841.03   2
  -5  -7  -4 38755.1 1943.76   2
   5   7   5 1562.21 1535.55   2
   5   7   6 1210.40 1457.33   2
   5   7   7 26303.0 1652.39   2
   5   7   9 2103.18 1312.05   2
   5   7  10-576.636 1326.61   2
   5   7  11 1761.48 1078.27   2
   5   7  12 6145.72 1297.39   2
   5   8  -5 19106.3 1136.28   2
   5   8  -4 3923.92 888.441   2
   5   8  -1 54125.7 1470.18   2
   5   8   0 11929.2 1365.73   2
   5   8   1 678.261 1283.87   2
   5   8   2 1850.73 1135.48   2
   5   8   4 1463.62 2288.89   2
   5   8   5 651.712 1431.06   2
   5   8   6 1746.76 1879.68   2
   5   8   7 1497.40 1069.15   2
   5   8   8 1767.77 1038.38   2
   5   8  10 10585.1 880.215   2
   5   8  11 1246.50 734.879   2
   5   9  -4-130.301 825.174   2
   5   9  -3 4571.23 793.821   2
   5   9  -2 8264.89 904.799   2
   5   9   0 2269.49 1584.36   2
   5   9   1 21019.2 1033.34   2
   5   9   2 4652.54 1004.46   2
   5   9   3-604.528 970.226   2
   5   9   4 7170.59 1947.44   2
   5   9   6 11749.6 1932.67   2
   5   9   7-739.576 1151.94   2
   5   9   8 1464.51 999.262   2
   5   9   9 11511.4 790.061   2
   5   9  10 4249.35 1094.55   2
   5  10  -2 1984.14 754.294   2
   5  10  -1 337.519 626.821   2
   5  10   0 21066.7 799.204   2
   5  10   1 24651.7 1176.25   2
  -5 -10  -2 1483.59 1650.47   2
   5  10   3 2483.06 1371.43   2
   5  10   4 2056.54 1581.50   2
   5  10   5 8398.85 1578.84   2
   5  10   7 5550.63 1437.93   2
   5  10   8 973.823 860.695   2
   5  10   9-17.8603 837.520   2
  -5 -11  -3 14708.6 1193.23   2
  -5 -11  -4-34.0620 1148.01   2
  -5 -11  -5-211.678 1115.30   2
  -5 -11  -6 8018.37 1073.87   2
   6  -6   0 1598.78 847.968   2
   6  -6   1 21620.4 763.399   2
   6  -6   2 19100.2 542.588   2
   6  -6   3 800.194 534.589   2
   6  -6   4-382.942 690.457   2
   6  -5  -3 11899.9 968.657   2
   6  -5  -2 1132.98 696.310   2
   6  -5  -1 12723.6 1235.49   2
   6  -5   0 5976.11 1285.95   2
   6  -5   1 1254.94 647.202   2
   6  -5   2 329.906 661.926   2
   6  -5   4 23124.3 751.494   2
   6  -5   5 3997.45 1031.06   2
   6  -5   6 1303.52 964.616   2
   6  -5   7 13537.2 969.648   2
   6  -4  -4 3949.06 923.637   2
   6  -4  -3 435.157 739.325   2
   6  -4  -2 18634.1 1030.50   2
   6  -4  -1 48881.0 1861.73   2
   6  -4   0 13223.9 1130.20   2
   6  -4   1 577.572 885.244   2
   6  -4   2 3965.55 810.671   2
   6  -4   3 33286.7 1046.87   2
   6  -4   4 5070.01 797.131   2
   6  -4   5 11025.1 1431.27   2
   6  -4   6 3861.94 892.190   2
   6  -4   7 3484.24 1223.67   2
   6  -4   8 1321.35 990.110   2
   6  -4   9 7836.77 758.626   2
   6  -3  -5 22364.8 1390.17   2
   6  -3  -4 1009.93 874.783   2
   6  -3  -3 2731.35 925.775   2
   6  -3  -2 4156.31 1560.18   2
   6  -3   0 5714.03 1195.44   2
   6  -3   1 21483.6 1200.90   2
   6  -3   2 2970.82 887.519   2
   6  -3   3-499.815 860.319   2
   6  -3   4 11072.6 963.557   2
   6  -3   5 52237.0 1434.04   2
   6  -3   6 9601.30 1109.77   2
   6  -3   7-963.229 1398.36   2
   6  -3   8 37.1973 1294.10   2
   6  -3   9 13730.3 1246.91   2
   6  -2  -6 1416.90 1335.06   2
   6  -2  -5 2595.21 1663.21   2
   6  -2  -4 32335.5 1301.66   2
   6  -2  -3 36621.2 1371.26   2
   6  -2  -2 3008.61 1272.41   2
   6  -2  -1 2032.65 1316.12   2
   6  -2   0 57737.9 2653.21   2
   6  -2   1 34215.2 1406.69   2
   6  -2   8 2169.17 1512.01   2
   6  -2   9-2114.11 1233.66   2
   6  -2  10 1620.54 1035.50   2
   6  -1  -3 4524.11 1222.17   2
   6  -1  -2 14648.5 1512.72   2
   6  -1  -1 8747.65 1506.89   2
   6  -1   0 5204.58 1939.50   2
   6  -1   1 2060.36 1093.14   2
   6  -1   2 46966.4 1564.91   2
   6  -1   3 39326.5 1108.82   2
   6  -1   4 3458.07 891.720   2
   6  -1   5 1013.95 962.715   2
   6  -1   6 32112.3 1386.78   2
   6  -1   7 49798.4 1605.11   2
   6  -1   8 3129.25 1653.01   2
   6  -1   9-709.147 1453.10   2
   6  -1  10 5388.52 1313.13   2
   6  -1  11 4944.71 967.914   2
   6   0  -6 22294.8 1830.57   2
   6   0  -4 846.287 1433.35   2
   6   0  -3 22271.8 2061.49   2
   6   0  -2 80507.5 2036.91   2
   6   0  -1 28555.1 1339.01   2
   6   0   0-1232.39 1119.35   2
   6   0   1 5766.44 948.623   2
   6   0   2 43272.1 1949.19   2
   6   0   3 12364.0 1716.35   2
   6   0   4 6536.48 927.832   2
   6   0   5 4622.34 945.388   2
   6   0   6 215.662 1177.05   2
   6   0   7 3862.10 1244.63   2
   6   0   8 15448.6 1937.21   2
   6   0   9 23643.6 1983.03   2
   6   0  10 1947.69 1442.46   2
   6   1  -3 11077.7 1861.83   2
   6   1  -2 14457.8 1505.65   2
   6   1  -1 9649.30 1239.63   2
   6   1   3 7682.79 814.798   2
   6   1   4 78889.4 1310.48   2
   6   1   5 29364.5 1025.40   2
  -6  -1  -6-762.460 954.261   2
   6   1   7 4138.89 1730.34   2
   6   1   8 21610.0 1305.27   2
   6   1   9 13077.0 1902.42   2
   6   1  10-822.541 1536.50   2
   6   1  11 269.225 1297.04   2
   6   2  -3 6754.72 1760.28   2
   6   2  -2 242.717 1924.81   2
   6   2  -1 71425.3 1628.48   2
   6   2   0 71549.6 1377.44   2
  -6  -2  -1-1398.35 958.760   2
  -6  -2  -2 6965.28 761.045   2
   6   2   3 4773.53 870.576   2
   6   2   4 27188.3 956.358   2
   6   2   5-1444.82 837.175   2
   6   2   6 38904.8 1393.66   2
   6   2   7 7645.09 1020.27   2
   6   2   8 4237.20 1169.83   2
   6   2  13 2645.51 1138.47   2
   6   3  -3 10833.9 1303.09   2
   6   3   1 60176.8 1832.13   2
   6   3   2 42392.9 1011.20   2
  -6  -3  -3 2167.41 894.811   2
   6   3   4-779.209 986.145   2
  -6  -3  -5 38580.9 1305.71   2
  -6  -3  -6 76433.7 1618.26   2
   6   3   7 7966.10 1072.62   2
   6   3   8-1080.24 1136.56   2
   6   3   9 1583.47 1788.11   2
   6   3  10 8966.86 1835.62   2
   6   3  13 2137.61 1096.35   2
   6   4  -5-342.230 1141.75   2
   6   4  -4 4432.53 1611.62   2
   6   4  -3 27369.6 2185.22   2
   6   4  -2 25432.9 2146.50   2
   6   4  -1-1454.40 1309.34   2
  -6  -4  -1 37096.0 1411.01   2
  -6  -4  -2 14362.5 961.600   2
  -6  -4  -3 3522.51 1068.36   2
  -6  -4  -4 3499.91 914.921   2
   6   4   5 1263.21 918.140   2
  -6  -4  -6 6287.22 1071.74   2
   6   4   9 2146.41 1737.91   2
   6   4  11 4318.63 1776.76   2
   6   4  12 12057.7 1544.03   2
   6   5  -5 1613.20 1218.81   2
   6   5  -2 4427.17 1370.08   2
   6   5  -1 28930.0 1511.80   2
   6   5   0 13960.0 1564.97   2
  -6  -5  -1 1763.98 1243.08   2
  -6  -5  -2 6197.68 1252.41   2
  -6  -5  -3 87213.6 3031.98   2
  -6  -5  -4 23446.9 998.776   2
   6   5   5 188.804 932.631   2
   6   5   6 7368.85 1240.51   2
   6   5   9 217.779 1187.74   2
   6   5  10 1179.42 1798.98   2
   6   5  11-994.694 1543.70   2
   6   6  -5 11004.7 1275.73   2
   6   6  -4 1541.35 1507.73   2
   6   6  -1 29934.9 1404.04   2
   6   6   0 1011.99 1303.19   2
   6   6   1 961.140 1449.81   2
   6   6   2 1897.22 1523.78   2
   6   6   3 26454.1 2346.08   2
   6   6   6 19915.1 1316.03   2
   6   6   7 1229.70 1136.95   2
   6   6   8 565.228 1385.00   2
   6   6   9 15704.1 1293.47   2
   6   6  10 7606.19 1647.99   2
   6   7  -5 1917.74 1036.69   2
   6   7  -4 5124.39 1317.72   2
   6   7  -3 5968.32 1571.31   2
   6   7  -1-1947.64 1655.81   2
   6   7   0 21057.6 1378.63   2
   6   7   1 36009.0 1657.88   2
   6   7   2 3731.51 1122.53   2
   6   7   3-1929.03 1784.42   2
   6   7   4 16958.3 2432.02   2
   6   7   6 10900.8 2301.54   2
   6   7   7-345.512 1308.89   2
   6   7   8 657.616 1614.16   2
   6   7   9 7307.95 1535.44   2
   6   7  10 59.8841 1568.05   2
   6   7  11 1422.75 1178.69   2
   6   8  -2 952.307 1418.69   2
   6   8  -1 2258.84 1633.44   2
   6   8   0 19300.7 1207.10   2
   6   8   1 13819.4 1450.39   2
   6   8   2 610.905 987.636   2
   6   8   3 3166.39 1069.22   2
   6   8   4 2280.61 1748.08   2
   6   8   5 1826.03 1082.83   2
   6   8   7 13923.0 1880.46   2
   6   8   8 1777.52 1121.97   2
   6   8   9 627.332 954.569   2
   6   8  10 1404.80 1232.31   2
   6   9  -2 8660.72 1084.02   2
   6   9  -1 9231.32 1248.38   2
   6   9   0 1864.26 1320.11   2
   6   9   1 1027.90 920.664   2
   6   9   3 18532.7 973.038   2
   6   9   4-511.331 840.587   2
   6   9   5 79.4708 1541.79   2
   6   9   6 11946.5 1191.15   2
   6   9   7 6526.14 1493.82   2
   6   9   8-1649.36 1363.49   2
   6   9   9 861.050 1141.73   2
   6  10   0-521.548 745.571   2
   6  10   1 723.004 813.078   2
   6  10   2 7301.68 717.838   2
   6  10   5 4034.03 1172.33   2
   6  10   6-306.406 1100.61   2
   6  10   8 7243.60 926.330   2
   7  -4   0 12011.7 733.562   2
   7  -4   1 5752.57 1024.65   2
   7  -4   2 2275.03 708.633   2
   7  -4   3 1949.84 492.952   2
   7  -4   4 1758.67 473.386   2
   7  -4   5 878.329 560.725   2
   7  -4   6 5910.08 732.751   2
   7  -3  -2 14118.8 692.535   2
   7  -3  -1 5485.43 785.135   2
   7  -3   0 63.7463 1164.98   2
   7  -3   1 1695.34 1246.91   2
   7  -3   2 20077.8 762.739   2
   7  -3   3 18767.2 787.263   2
   7  -3   4-241.018 628.984   2
   7  -3   5 1966.11 603.152   2
   7  -3   6 12561.7 824.688   2
   7  -3   8-86.3970 718.552   2
   7  -2  -3 10100.3 996.069   2
   7  -2  -2 24932.5 952.583   2
   7  -2   5 8274.22 803.651   2
   7  -2   6 405.171 912.393   2
   7  -2   8 9499.44 1180.35   2
   7  -2   9 6109.43 911.444   2
   7  -1  -3 58.8086 1032.35   2
   7  -1  -1 12510.0 1120.38   2
   7  -1   0 35075.8 1961.91   2
   7  -1   1 3000.32 1151.58   2
   7  -1   2 1874.73 913.482   2
   7  -1   3 16966.5 972.911   2
   7  -1   4 30838.3 1094.99   2
   7  -1   5 505.910 825.870   2
   7  -1   6 715.439 773.475   2
   7  -1   7 3395.33 1375.64   2
   7  -1   8 8034.45 960.178   2
   7  -1   9 1387.85 798.104   2
   7  -1  10 1412.31 843.346   2
   7   0  -3-210.605 1139.96   2
   7   0  -2 1020.55 1365.99   2
   7   0   1 622.037 1825.12   2
   7   0   2 2811.94 994.828   2
   7   0   3 2247.96 891.741   2
   7   0   4 2880.29 928.503   2
   7   0   5 9459.05 848.278   2
   7   0   6 19263.4 901.638   2
   7   0   9 8515.76 1434.46   2
   7   0  10 15500.7 1263.19   2
   7   0  11 6274.69 1077.23   2
   7   1  -3 19322.2 1414.45   2
   7   1   0 6396.09 1805.29   2
   7   1   1 43810.9 2524.99   2
   7   1   2 29704.6 1099.76   2
   7   1   3-213.810 851.141   2
   7   1   4 1969.59 819.220   2
   7   1   5 20015.0 963.413   2
   7   1   6 14255.2 1044.67   2
   7   1   7-1994.37 985.666   2
   7   1   8 2709.23 965.972   2
   7   1   9 1679.22 1428.07   2
   7   1  10 3712.52 1259.95   2
   7   1  11 1468.22 882.502   2
   7   2  -3 24859.7 1496.59   2
   7   2  -2-654.488 1500.38   2
   7   2  -1 1274.41 1118.11   2
   7   2   0-2821.20 1751.14   2
   7   2   1 11813.2 1494.52   2
   7   2   2-1641.09 1052.07   2
   7   2   3 5408.57 985.220   2
   7   2   4 6418.62 1000.11   2
   7   2   5-9.85443 966.963   2
   7   2   9 2315.59 1544.30   2
   7   2  10-406.225 1314.83   2
   7   2  11 7145.96 1457.27   2
   7   2  12 8913.83 1101.29   2
   7   3  -1 20816.3 1268.30   2
   7   3   0 3824.59 1212.75   2
   7   3   1-2660.04 1248.74   2
   7   3   2 14588.1 2101.83   2
   7   3   3 34030.5 1224.30   2
   7   3   4 4359.70 890.255   2
   7   3   5-613.549 855.344   2
   7   3   6-339.043 844.306   2
   7   3   7 11464.1 1878.73   2
   7   3   8-78.6993 1055.99   2
   7   3   9 5169.36 888.589   2
   7   3  10 4974.26 1096.44   2
   7   3  11 1244.34 1422.62   2
   7   3  12 683.929 1060.90   2
   7   4  -2 10779.8 1118.10   2
   7   4  -1 12158.7 1131.28   2
   7   4   0-505.024 1151.14   2
   7   4   1 6348.66 1315.03   2
   7   4   2 805.976 1774.88   2
   7   4   3 1499.29 958.694   2
   7   4   4 8704.92 2160.01   2
   7   4   7-404.903 1022.41   2
   7   4   8 2583.18 822.094   2
   7   4   9 21958.6 1040.24   2
   7   4  10 5802.65 1715.92   2
   7   4  11-2440.70 1394.29   2
   7   5  -3 5520.12 1204.43   2
   7   5  -2-1707.81 1502.52   2
   7   5  -1 1572.89 1168.79   2
   7   5   0 28202.9 1367.09   2
   7   5   1 22622.0 1437.97   2
   7   5   2 940.253 1233.44   2
   7   5   3-1256.69 1624.78   2
   7   5   6 1004.31 1072.83   2
   7   5   7 4037.51 1059.71   2
   7   5   8 327.779 935.206   2
   7   5   9 2374.32 1070.30   2
   7   5  10 106.675 1550.99   2
   7   5  11 6211.20 1309.71   2
   7   6  -3 3746.60 1139.38   2
   7   6  -2 2696.56 1447.94   2
   7   6  -1-22.8783 1082.80   2
   7   6   0 5998.07 1073.26   2
   7   6   1 897.739 1888.55   2
   7   6   3 9895.67 1767.80   2
   7   6   4 645.055 1935.07   2
   7   6   5 228.536 1285.47   2
   7   6   6 19589.0 1222.37   2
   7   6   7 20490.8 1159.71   2
   7   6   8 887.614 915.037   2
   7   6   9 7.29250 967.998   2
   7   7  -3 5214.81 961.100   2
   7   7  -2 16667.9 1344.09   2
   7   7  -1 1430.69 1449.63   2
   7   7   0-1119.02 1433.73   2
   7   7   1 3948.26 1071.98   2
   7   7   5 1211.73 1865.14   2
   7   7   6 10231.6 1308.12   2
   7   7   7 144.417 1111.62   2
   7   7   8 2916.03 1388.75   2
   7   7   9 3870.57 1151.97   2
   7   7  10-1890.70 1145.80   2
   7   8   0 2924.65 1336.12   2
   7   8   1 398.312 858.005   2
   7   8   2 1590.88 837.425   2
   7   8   4 15139.9 1101.32   2
   7   8   5 5355.17 1106.40   2
   7   8   6-107.848 974.923   2
   7   8   7 289.503 935.151   2
   7   8   8 11745.2 1303.30   2
   7   8   9 4029.83 691.057   2
   7   9   0 13747.7 972.010   2
   7   9   1-276.101 1006.68   2
   7   9   2-235.187 693.685   2
   7   9   3 9131.95 856.927   2
   7   9   4 12180.6 675.595   2
   7   9   5-1807.11 757.771   2
   7   9   6 297.758 575.464   2
   7   9   7 559.453 713.919   2
   8  -2   2 3304.57 901.793   2
   8  -2   3-880.838 632.356   2
   8  -2   4 69.7485 773.099   2
   8  -1  -1 373.381 775.952   2
   8  -1   0 3667.58 983.906   2
   8  -1   2 3511.41 1121.79   2
   8  -1   3-204.749 802.514   2
   8  -1   4-635.541 597.951   2
   8  -1   5 5231.90 656.350   2
   8  -1   6 1168.21 593.897   2
   8  -1   7 467.288 767.211   2
   8   0  -1 540.930 984.557   2
   8   0   0-38.2308 704.328   2
   8   0   2 1816.00 920.498   2
   8   0   3 12327.5 1455.52   2
   8   0   4 3147.82 755.564   2
   8   0   6 4593.50 623.117   2
   8   0   7 13134.9 756.906   2
   8   0   9 409.425 651.816   2
   8   1  -1 11020.5 1203.06   2
   8   1   0 625.452 769.184   2
   8   1   1-1941.80 1104.80   2
   8   1   2 7118.18 1495.68   2
   8   1   3 13426.4 1616.22   2
   8   1   4-61.4807 816.863   2
   8   1   5 1997.64 713.354   2
   8   1   6 511.157 588.540   2
   8   1   7 2511.45 655.598   2
   8   1   8-310.002 666.478   2
   8   1   9 2949.21 674.967   2
   8   2  -1-2137.01 1123.00   2
   8   2   0 3528.48 857.868   2
   8   2   1 6361.44 977.483   2
   8   2   2-2061.11 1277.14   2
   8   2   6 1188.57 778.191   2
   8   2   7-916.930 604.188   2
   8   2   8 5038.73 820.152   2
   8   2   9 6370.65 796.726   2
   8   2  10-355.200 937.473   2
   8   3  -1 1996.24 1166.50   2
   8   3   0 15274.4 958.161   2
   8   3   1 5414.09 997.005   2
   8   3   2-35.0825 1313.08   2
   8   3   3-798.340 1029.83   2
   8   3   5 441.254 781.487   2
   8   3   6 747.008 712.951   2
   8   3   7 4533.50 696.591   2
   8   3   8-441.060 854.223   2
   8   3   9 62.6812 1289.29   2
   8   4  -1 362.132 1084.40   2
   8   4   0-166.104 647.093   2
   8   4   1 1227.38 1558.41   2
   8   4   4-218.662 1608.46   2
   8   4   5 1101.26 1059.22   2
   8   4   6 14503.7 1163.01   2
   8   4   7 11731.1 904.539   2
   8   4   8-414.000 790.197   2
   8   4   9 17.8023 836.737   2
   8   4  10 2774.80 1080.94   2
   8   5  -1 769.903 841.755   2
   8   5   0 741.859 847.315   2
   8   5   1 3434.93 930.874   2
   8   5   3 191.906 1327.13   2
   8   5   4 1926.31 1654.28   2
   8   5   5-515.316 1030.10   2
   8   5   6 1312.79 1037.82   2
   8   5   7-1624.09 928.170   2
   8   5   8 5201.86 838.530   2
   8   5   9 2750.29 856.488   2
   8   6  -1 4233.40 845.140   2
   8   6   0 5258.06 786.070   2
   8   6   1-190.517 655.072   2
   8   6   2-176.405 907.859   2
   8   6   3 9319.77 1396.95   2
   8   6   4 19641.8 1195.81   2
   8   6   5 1152.84 1568.14   2
   8   6   6 529.466 946.136   2
   8   6   7 5502.17 932.265   2
   8   6   8 5723.72 1101.08   2
   8   7   1 385.807 747.211   2
   8   7   2-465.507 748.738   2
   8   7   3 3113.29 891.398   2
   8   7   4 1795.99 1174.70   2
   8   7   5 2337.45 798.921   2
   8   7   6 5194.33 708.187   2
   8   7   7-684.356 740.349   2
   8   7   8 1448.69 658.972   2
   8   8   2 4441.87 941.357   2
   8   8   3-116.693 620.545   2
   8   8   4 361.630 685.681   2
   8   8   5 6803.01 1051.59   2
   8   8   6 5521.53 975.086   2
   8   8   7 1204.88 782.927   2
   9   2   3 1624.32 576.114   2
   9   2   4-628.781 884.860   2
   9   2   5 1023.98 558.642   2
   9   3   2 1066.60 906.425   2
   9   3   3 17.5242 807.522   2
   9   3   4 763.623 1016.21   2
   9   3   5 712.061 626.699   2
   9   3   6-16.9568 767.211   2
   9   4   2 200.920 881.352   2
   9   4   3 7911.50 861.132   2
   9   4   4 6510.72 702.591   2
   9   4   5-170.081 982.105   2
   9   4   6-35.1147 781.468   2
   9   5   3 1385.13 945.986   2
   9   5   4-719.238 602.873   2
   9   5   5 4410.92 992.902   2
   9   5   6 3107.35 765.068   2
;
_shelx_hkl_checksum              9027
_olex2_submission_special_instructions 'No special instructions were received'
_oxdiff_exptl_absorpt_empirical_details
;
Empirical correction (ABSPACK) includes:
- Absorption correction using spherical harmonics
- Frame scaling
;
loop_
_space_group_symop_operation_xyz
'x, y, z'
'-x, -y, -z'
loop_
_atom_site_label
_atom_site_type_symbol
_atom_site_fract_x
_atom_site_fract_y
_atom_site_fract_z
_atom_site_U_iso_or_equiv
_atom_site_adp_type
_atom_site_occupancy
_atom_site_site_symmetry_order
_atom_site_calc_flag
_atom_site_refinement_flags_posn
_atom_site_refinement_flags_adp
_atom_site_refinement_flags_occupancy
_atom_site_disorder_assembly
_atom_site_disorder_group
Pb01 Pb 0.59710(17) 0.25606(11) 0.03299(10) 0.0396(4) Uani 1 1 d . . . . .
Pb02 Pb 0.16219(17) 1.05367(12) 0.23422(10) 0.0414(4) Uani 1 1 d . . . . .
C003 C 0.304(6) 0.066(3) 0.891(3) 0.046(7) Uani 1 1 d . . . . .
C004 C 0.549(5) 0.336(3) 0.345(3) 0.045(7) Uani 1 1 d . . . . .
C005 C 0.261(5) 0.733(3) 0.297(3) 0.037(5) Uani 1 1 d . . . . .
O006 O 0.825(4) 0.133(3) 0.358(2) 0.051(5) Uani 1 1 d . . . . .
O008 O -0.297(3) 0.508(2) 0.991(2) 0.044(5) Uani 1 1 d . . . . .
O009 O -0.255(3) 0.680(2) 0.846(2) 0.045(5) Uani 1 1 d . . . . .
O00B O 0.449(4) -0.025(2) 0.831(2) 0.046(5) Uani 1 1 d . . . . .
O00C O 0.130(3) 0.827(2) 0.3611(18) 0.042(5) Uani 1 1 d . . . . .
C00D C 0.455(5) 0.303(3) 0.461(3) 0.040(6) Uani 1 1 d . . . . .
H00D H 0.498639 0.207376 0.498232 0.048 Uiso 1 1 calc R U . . .
C00E C 0.737(5) 0.228(3) 0.288(3) 0.040(5) Uani 1 1 d . . . . .
C00F C 0.241(5) 0.543(3) 0.463(3) 0.044(6) Uani 1 1 d . . . . .
H00F H 0.137363 0.617966 0.503069 0.053 Uiso 1 1 calc R U . . .
C00J C 0.216(5) 0.203(3) 0.829(3) 0.043(6) Uani 1 1 d . . . . .
C00K C 0.064(4) 0.305(3) 0.892(3) 0.039(5) Uani 1 1 d . . . . .
H00K H 0.012484 0.282494 0.973622 0.046 Uiso 1 1 calc R U . . .
O00L O 0.340(3) 0.764(2) 0.1909(18) 0.041(5) Uani 1 1 d . . . . .
O00M O 0.801(4) 0.240(3) 0.181(2) 0.048(5) Uani 1 1 d . . . . .
C00N C -0.200(5) 0.551(4) 0.896(3) 0.048(7) Uani 1 1 d . . . . .
C00O C 0.296(5) 0.407(3) 0.526(3) 0.039(5) Uani 1 1 d . . . . .
O00P O 0.230(4) 0.033(3) 0.998(2) 0.065(8) Uani 1 1 d . . . . .
C00Q C 0.213(5) 0.369(3) 0.651(3) 0.041(6) Uani 1 1 d . . . . .
C00R C 0.287(5) 0.235(3) 0.710(3) 0.044(7) Uani 1 1 d . . . . .
H00R H 0.390120 0.161925 0.667359 0.053 Uiso 1 1 calc R U . . .
C00S C 0.065(5) 0.469(3) 0.709(3) 0.041(6) Uani 1 1 d . . . . .
H00S H 0.010303 0.559956 0.668962 0.050 Uiso 1 1 calc R U . . .
C00V C 0.330(4) 0.579(3) 0.341(3) 0.033(5) Uani 1 1 d . . . . .
C00W C -0.015(5) 0.440(3) 0.838(3) 0.040(6) Uani 1 1 d . . . . .
C14 C 0.482(5) 0.478(4) 0.289(3) 0.051(8) Uani 1 1 d . . . . .
H14 H 0.548097 0.500743 0.210622 0.061 Uiso 1 1 calc R U . . .
O4 O 0.199(4) 1.078(3) 0.445(2) 0.054(6) Uani 1 1 d . . . . .
H4A H 0.141311 1.019699 0.497580 0.080 Uiso 1 1 d R U . . .
H4B H 0.135615 1.166172 0.467917 0.080 Uiso 1 1 d R U . . .
loop_
_atom_site_aniso_label
_atom_site_aniso_U_11
_atom_site_aniso_U_22
_atom_site_aniso_U_33
_atom_site_aniso_U_23
_atom_site_aniso_U_13
_atom_site_aniso_U_12
Pb01 0.0435(7) 0.0242(6) 0.0355(7) 0.0112(4) -0.0021(5) 0.0023(5)
Pb02 0.0451(7) 0.0226(6) 0.0413(7) 0.0110(5) -0.0014(6) 0.0004(5)
C003 0.069(14) 0.020(9) 0.038(9) 0.006(6) -0.011(9) 0.003(8)
C004 0.053(12) 0.026(9) 0.040(9) 0.015(8) -0.004(8) 0.000(7)
C005 0.050(12) 0.020(7) 0.033(8) 0.004(5) -0.006(7) -0.006(6)
O006 0.054(11) 0.035(10) 0.048(10) 0.013(9) -0.008(9) 0.003(8)
O008 0.047(10) 0.029(10) 0.047(9) 0.013(7) -0.014(7) 0.000(8)
O009 0.042(10) 0.033(8) 0.044(11) 0.013(7) -0.002(9) -0.002(7)
O00B 0.058(11) 0.022(8) 0.046(10) 0.009(7) -0.006(9) 0.000(7)
O00C 0.051(11) 0.024(7) 0.037(9) 0.008(7) 0.001(8) -0.002(7)
C00D 0.041(11) 0.025(10) 0.043(9) 0.016(7) -0.005(8) -0.005(8)
C00E 0.048(10) 0.023(9) 0.041(7) 0.010(7) -0.006(6) -0.006(7)
C00F 0.047(13) 0.025(10) 0.051(10) 0.013(8) -0.009(8) -0.004(8)
C00J 0.047(12) 0.025(9) 0.049(9) 0.016(7) -0.010(8) -0.006(7)
C00K 0.038(11) 0.027(8) 0.046(10) 0.015(7) -0.012(9) -0.008(7)
O00L 0.050(11) 0.026(9) 0.035(7) 0.009(6) -0.005(7) -0.001(8)
O00M 0.052(11) 0.038(12) 0.041(7) 0.011(7) -0.004(7) -0.006(9)
C00N 0.055(12) 0.032(9) 0.046(10) 0.010(7) -0.012(8) -0.002(7)
C00O 0.038(11) 0.026(9) 0.046(8) 0.013(6) -0.007(7) -0.007(7)
O00P 0.076(16) 0.037(12) 0.047(9) 0.019(8) -0.004(9) 0.017(11)
C00Q 0.045(12) 0.025(9) 0.044(8) 0.013(6) -0.008(7) -0.005(8)
C00R 0.047(14) 0.027(10) 0.049(9) 0.017(8) -0.008(9) -0.005(8)
C00S 0.051(12) 0.027(10) 0.039(8) 0.011(7) -0.015(7) 0.000(9)
C00V 0.027(9) 0.024(7) 0.052(10) 0.014(6) -0.015(7) -0.013(6)
C00W 0.065(12) 0.019(8) 0.035(8) 0.002(7) -0.017(7) -0.005(7)
C14 0.056(13) 0.031(9) 0.047(12) 0.021(8) -0.005(10) 0.001(8)
O4 0.064(15) 0.039(13) 0.056(14) 0.007(11) -0.005(12) -0.023(12)
loop_
_atom_type_symbol
_atom_type_description
_atom_type_scat_dispersion_real
_atom_type_scat_dispersion_imag
_atom_type_scat_source
C C 0.0181 0.0091 'International Tables Vol C Tables 4.2.6.8 and 6.1.1.4'
H H 0.0000 0.0000 'International Tables Vol C Tables 4.2.6.8 and 6.1.1.4'
O O 0.0492 0.0322 'International Tables Vol C Tables 4.2.6.8 and 6.1.1.4'
Pb Pb -4.0753 8.5060 'International Tables Vol C Tables 4.2.6.8 and 6.1.1.4'
loop_
_geom_angle_atom_site_label_1
_geom_angle_atom_site_label_2
_geom_angle_atom_site_label_3
_geom_angle
_geom_angle_site_symmetry_1
_geom_angle_site_symmetry_3
_geom_angle_publ_flag
O008 Pb01 O008 67.4(8) 1_654 2_566 ?
O008 Pb01 O00P 137.4(8) 1_654 2_656 ?
O008 Pb01 O00P 148.0(9) 2_566 2_656 ?
O009 Pb01 O008 105.0(7) 2_566 1_654 ?
O009 Pb01 O008 50.3(7) 2_566 2_566 ?
O009 Pb01 O00B 73.3(7) 2_566 2_656 ?
O009 Pb01 O00L 119.8(7) 2_566 2_665 ?
O009 Pb01 O00M 103.0(8) 2_566 . ?
O009 Pb01 O00P 117.1(8) 2_566 2_656 ?
O00B Pb01 O008 150.1(8) 2_656 1_654 ?
O00B Pb01 O008 122.6(7) 2_656 2_566 ?
O00B Pb01 O00L 117.1(7) 2_656 2_665 ?
O00B Pb01 O00P 49.8(8) 2_656 2_656 ?
O00L Pb01 O008 90.1(7) 2_665 1_654 ?
O00L Pb01 O008 87.3(7) 2_665 2_566 ?
O00L Pb01 O00P 75.1(7) 2_665 2_656 ?
O00M Pb01 O008 75.5(7) . 1_654 ?
O00M Pb01 O008 121.5(8) . 2_566 ?
O00M Pb01 O00B 75.9(8) . 2_656 ?
O00M Pb01 O00L 137.1(7) . 2_665 ?
O00M Pb01 O00P 88.6(8) . 2_656 ?
O006 Pb02 O00B 156.1(8) 1_465 2_666 ?
O006 Pb02 O00L 122.2(7) 1_465 . ?
O006 Pb02 O00P 121.7(9) 1_465 1_564 ?
O006 Pb02 O4 73.4(8) 1_465 . ?
O00B Pb02 O00L 72.7(7) 2_666 . ?
O00B Pb02 O00P 79.2(8) 2_666 1_564 ?
O00C Pb02 O006 78.1(7) . 1_465 ?
O00C Pb02 O00B 104.3(7) . 2_666 ?
O00C Pb02 O00L 50.3(6) . . ?
O00C Pb02 O00P 116.0(7) . 1_564 ?
O00C Pb02 O4 70.2(7) . . ?
O00P Pb02 O00L 72.2(7) 1_564 . ?
O4 Pb02 O00B 84.9(8) . 2_666 ?
O4 Pb02 O00L 105.4(7) . . ?
O4 Pb02 O00P 164.0(9) . 1_564 ?
O00B C003 C00J 117(3) . . ?
O00P C003 O00B 122(3) . . ?
O00P C003 C00J 121(3) . . ?
C00D C004 C00E 119(3) . . ?
C00D C004 C14 119(3) . . ?
C14 C004 C00E 121(3) . . ?
O00C C005 O00L 123(3) . . ?
O00C C005 C00V 122(3) . . ?
O00L C005 C00V 115(3) . . ?
C00E O006 Pb02 102(2) . 1_645 ?
Pb01 O008 Pb01 112.6(8) 1_456 2_566 ?
C00N O008 Pb01 89.0(19) . 2_566 ?
C00N O008 Pb01 125(2) . 1_456 ?
C00N O009 Pb01 97(2) . 2_566 ?
Pb01 O00B Pb02 106.1(8) 2_656 2_666 ?
C003 O00B Pb01 95.6(19) . 2_656 ?
C003 O00B Pb02 134(2) . 2_666 ?
C005 O00C Pb02 98.9(17) . . ?
C004 C00D H00D 118.8 . . ?
C004 C00D C00O 122(3) . . ?
C00O C00D H00D 118.8 . . ?
O006 C00E C004 116(3) . . ?
O00M C00E C004 120(3) . . ?
O00M C00E O006 124(3) . . ?
C00O C00F H00F 117.5 . . ?
C00O C00F C00V 125(3) . . ?
C00V C00F H00F 117.5 . . ?
C00K C00J C003 118(3) . . ?
C00K C00J C00R 120(3) . . ?
C00R C00J C003 121(3) . . ?
C00J C00K H00K 120.0 . . ?
C00J C00K C00W 120(3) . . ?
C00W C00K H00K 120.0 . . ?
Pb01 O00L Pb02 107.8(7) 2_665 . ?
C005 O00L Pb01 153(2) . 2_665 ?
C005 O00L Pb02 86.0(17) . . ?
C00E O00M Pb01 124(2) . . ?
O008 C00N O009 122(3) . . ?
O008 C00N C00W 117(3) . . ?
O009 C00N C00W 121(3) . . ?
C00D C00O C00Q 119(3) . . ?
C00F C00O C00D 114(3) . . ?
C00F C00O C00Q 126(3) . . ?
Pb01 O00P Pb02 105.0(7) 2_656 1_546 ?
C003 O00P Pb01 89.8(19) . 2_656 ?
C003 O00P Pb02 153(3) . 1_546 ?
C00R C00Q C00O 123(3) . . ?
C00S C00Q C00O 118(3) . . ?
C00S C00Q C00R 119(3) . . ?
C00J C00R C00Q 122(3) . . ?
C00J C00R H00R 119.0 . . ?
C00Q C00R H00R 119.0 . . ?
C00Q C00S H00S 120.2 . . ?
C00Q C00S C00W 120(3) . . ?
C00W C00S H00S 120.2 . . ?
C00F C00V C005 115(3) . . ?
C14 C00V C005 127(3) . . ?
C14 C00V C00F 117(3) . . ?
C00K C00W C00N 124(3) . . ?
C00K C00W C00S 119(3) . . ?
C00S C00W C00N 117(3) . . ?
C004 C14 H14 118.8 . . ?
C00V C14 C004 122(3) . . ?
C00V C14 H14 118.8 . . ?
Pb02 O4 H4A 110.5 . . ?
Pb02 O4 H4B 110.3 . . ?
H4A O4 H4B 103.5 . . ?
loop_
_geom_bond_atom_site_label_1
_geom_bond_atom_site_label_2
_geom_bond_distance
_geom_bond_site_symmetry_2
_geom_bond_publ_flag
Pb01 O008 2.66(2) 1_654 ?
Pb01 O008 2.68(2) 2_566 ?
Pb01 O009 2.49(2) 2_566 ?
Pb01 O00B 2.57(2) 2_656 ?
Pb01 O00L 2.59(2) 2_665 ?
Pb01 O00M 2.54(2) . ?
Pb01 O00P 2.70(3) 2_656 ?
Pb02 O006 2.48(2) 1_465 ?
Pb02 O00B 2.69(3) 2_666 ?
Pb02 O00C 2.468(19) . ?
Pb02 O00L 2.74(2) . ?
Pb02 O00P 2.73(3) 1_564 ?
Pb02 O4 2.63(3) . ?
C003 O00B 1.28(4) . ?
C003 C00J 1.46(4) . ?
C003 O00P 1.26(4) . ?
C004 C00D 1.40(4) . ?
C004 C00E 1.52(4) . ?
C004 C14 1.42(4) . ?
C005 O00C 1.26(4) . ?
C005 O00L 1.27(4) . ?
C005 C00V 1.46(4) . ?
O006 C00E 1.27(4) . ?
O008 C00N 1.24(4) . ?
O009 C00N 1.28(4) . ?
C00D H00D 0.9500 . ?
C00D C00O 1.42(4) . ?
C00E O00M 1.22(4) . ?
C00F H00F 0.9500 . ?
C00F C00O 1.40(4) . ?
C00F C00V 1.45(4) . ?
C00J C00K 1.37(5) . ?
C00J C00R 1.39(5) . ?
C00K H00K 0.9500 . ?
C00K C00W 1.38(4) . ?
C00N C00W 1.53(5) . ?
C00O C00Q 1.47(4) . ?
C00Q C00R 1.39(4) . ?
C00Q C00S 1.33(4) . ?
C00R H00R 0.9500 . ?
C00S H00S 0.9500 . ?
C00S C00W 1.50(4) . ?
C00V C14 1.32(5) . ?
C14 H14 0.9500 . ?
O4 H4A 0.8741 . ?
O4 H4B 0.8735 . ?
loop_
_geom_torsion_atom_site_label_1
_geom_torsion_atom_site_label_2
_geom_torsion_atom_site_label_3
_geom_torsion_atom_site_label_4
_geom_torsion
_geom_torsion_site_symmetry_1
_geom_torsion_site_symmetry_2
_geom_torsion_site_symmetry_3
_geom_torsion_site_symmetry_4
_geom_torsion_publ_flag
Pb01 O008 C00N O009 130(3) 1_456 . . . ?
Pb01 O008 C00N O009 13(4) 2_566 . . . ?
Pb01 O008 C00N C00W -48(4) 1_456 . . . ?
Pb01 O008 C00N C00W -165(3) 2_566 . . . ?
Pb01 O009 C00N O008 -14(4) 2_566 . . . ?
Pb01 O009 C00N C00W 164(3) 2_566 . . . ?
Pb02 O006 C00E C004 -161(2) 1_645 . . . ?
Pb02 O006 C00E O00M 17(4) 1_645 . . . ?
C003 C00J C00K C00W 176(3) . . . . ?
C003 C00J C00R C00Q -176(3) . . . . ?
C004 C00D C00O C00F 1(5) . . . . ?
C004 C00D C00O C00Q -176(3) . . . . ?
C004 C00E O00M Pb01 -52(4) . . . . ?
C005 C00V C14 C004 173(3) . . . . ?
O006 C00E O00M Pb01 131(3) . . . . ?
O008 C00N C00W C00K -9(5) . . . . ?
O008 C00N C00W C00S 160(3) . . . . ?
O009 C00N C00W C00K 172(3) . . . . ?
O009 C00N C00W C00S -18(5) . . . . ?
O00B C003 C00J C00K -178(3) . . . . ?
O00B C003 C00J C00R 0(5) . . . . ?
O00B C003 O00P Pb01 -18(4) . . . 2_656 ?
O00B C003 O00P Pb02 107(5) . . . 1_546 ?
O00C C005 O00L Pb01 -111(4) . . . 2_665 ?
O00C C005 O00L Pb02 11(3) . . . . ?
O00C C005 C00V C00F -2(4) . . . . ?
O00C C005 C00V C14 -171(3) . . . . ?
C00D C004 C00E O006 -17(5) . . . . ?
C00D C004 C00E O00M 166(3) . . . . ?
C00D C004 C14 C00V -2(6) . . . . ?
C00D C00O C00Q C00R 2(5) . . . . ?
C00D C00O C00Q C00S 180(3) . . . . ?
C00E C004 C00D C00O 170(3) . . . . ?
C00E C004 C14 C00V -173(3) . . . . ?
C00F C00O C00Q C00R -175(3) . . . . ?
C00F C00O C00Q C00S 3(5) . . . . ?
C00F C00V C14 C004 4(5) . . . . ?
C00J C003 O00B Pb01 -156(3) . . . 2_656 ?
C00J C003 O00B Pb02 85(4) . . . 2_666 ?
C00J C003 O00P Pb01 157(3) . . . 2_656 ?
C00J C003 O00P Pb02 -79(6) . . . 1_546 ?
C00J C00K C00W C00N 171(3) . . . . ?
C00J C00K C00W C00S 2(5) . . . . ?
C00K C00J C00R C00Q 2(5) . . . . ?
O00L C005 O00C Pb02 -13(3) . . . . ?
O00L C005 C00V C00F 180(3) . . . . ?
O00L C005 C00V C14 11(5) . . . . ?
C00O C00F C00V C005 -174(3) . . . . ?
C00O C00F C00V C14 -4(5) . . . . ?
C00O C00Q C00R C00J 176(3) . . . . ?
C00O C00Q C00S C00W -176(3) . . . . ?
O00P C003 O00B Pb01 19(4) . . . 2_656 ?
O00P C003 O00B Pb02 -100(4) . . . 2_666 ?
O00P C003 C00J C00K 7(5) . . . . ?
O00P C003 C00J C00R -175(4) . . . . ?
C00Q C00S C00W C00K -2(5) . . . . ?
C00Q C00S C00W C00N -173(3) . . . . ?
C00R C00J C00K C00W -2(5) . . . . ?
C00R C00Q C00S C00W 2(5) . . . . ?
C00S C00Q C00R C00J -2(5) . . . . ?
C00V C005 O00C Pb02 169(2) . . . . ?
C00V C005 O00L Pb01 68(5) . . . 2_665 ?
C00V C005 O00L Pb02 -170(2) . . . . ?
C00V C00F C00O C00D 1(5) . . . . ?
C00V C00F C00O C00Q 178(3) . . . . ?
C14 C004 C00D C00O -1(5) . . . . ?
C14 C004 C00E O006 154(4) . . . . ?
C14 C004 C00E O00M -23(5) . . . . ?
loop_
_twin_individual_id
_twin_individual_mass_fraction_refined
1 0.442(3)
2 0.558(3)
