#------------------------------------------------------------------------------
#$Date: 2021-09-06 12:09:51 +0300 (Mon, 06 Sep 2021) $
#$Revision: 268533 $
#$URL: file:///home/coder/svn-repositories/cod/cif/7/12/86/7128634.cif $
#------------------------------------------------------------------------------
#
# This file is available in the Crystallography Open Database (COD),
# http://www.crystallography.net/
#
# All data on this site have been placed in the public domain by the
# contributors.
#
data_7128634
loop_
_publ_author_name
'Li, Wen-Yan'
'Zhao, Chao-Wei'
'Zhang, Yue-Feng'
'Guan, Qun'
'Wan, Jing-Jing'
'Ma, Jian-Ping'
'Li, Yan-An'
'Dong, Yu-Bin'
_publ_section_title
;
 A metal-organic cage-based nanoagent for enhanced photodynamic antitumor
 therapy.
;
_journal_issue                   64
_journal_name_full
'Chemical communications (Cambridge, England)'
_journal_page_first              7954
_journal_page_last               7957
_journal_paper_doi               10.1039/d1cc02629a
_journal_volume                  57
_journal_year                    2021
_chemical_formula_moiety         'C264 H224 N72 O24 Pd6, 4(N O3)'
_chemical_formula_sum            'C264 H224 N76 O36 Pd6'
_chemical_formula_weight         5675.58
_space_group_crystal_system      tetragonal
_space_group_IT_number           87
_space_group_name_Hall           '-I 4'
_space_group_name_H-M_alt        'I 4/m'
_atom_sites_solution_hydrogens   geom
_atom_sites_solution_primary     dual
_audit_creation_date             2021-06-16
_audit_creation_method
;
Olex2 1.2
(compiled 2018.05.29 svn.r3508 for OlexSys, GUI svn.r5506)
;
_audit_update_record
;
2021-06-21 deposited with the CCDC.	2021-07-09 downloaded from the CCDC.
;
_cell_angle_alpha                90
_cell_angle_beta                 90
_cell_angle_gamma                90
_cell_formula_units_Z            2
_cell_length_a                   28.5568(17)
_cell_length_b                   28.5568(17)
_cell_length_c                   28.6245(15)
_cell_measurement_reflns_used    6413
_cell_measurement_temperature    100.01(11)
_cell_measurement_theta_max      56.8590
_cell_measurement_theta_min      3.7820
_cell_volume                     23343(2)
_computing_cell_refinement       'CrysAlisPro 1.171.38.41 (Rigaku OD, 2015)'
_computing_data_collection       'CrysAlisPro 1.171.38.41 (Rigaku OD, 2015)'
_computing_data_reduction        'CrysAlisPro 1.171.38.41 (Rigaku OD, 2015)'
_computing_molecular_graphics    'Olex2 (Dolomanov et al., 2009)'
_computing_publication_material  'Olex2 (Dolomanov et al., 2009)'
_computing_structure_refinement  'ShelXL (Sheldrick, 2015)'
_computing_structure_solution    'ShelXT (Sheldrick, 2015)'
_diffrn_ambient_environment      N~2~
_diffrn_ambient_temperature      100.01(11)
_diffrn_detector                 'CCD plate'
_diffrn_detector_area_resol_mean 16.0793
_diffrn_detector_type            Eos
_diffrn_measured_fraction_theta_full 1.000
_diffrn_measured_fraction_theta_max 0.985
_diffrn_measurement_details
;
List of Runs (angles in degrees, time in seconds):

  # Type    Start    End  Width  t~exp~   \w     \q     \k     \f   Frames
#--------------------------------------------------------------------------
  1  \w     33.00  69.00   1.00   10.00    --    0.00  57.00   0.00   36
  2  \w    -32.00  19.00   1.00   10.00    --    0.00  99.00 129.00   51
  3  \w     -2.00  51.00   1.00   10.00    --    0.00  57.00 -90.00   53
  4  \w     -1.00  28.00   1.00   10.00    --    0.00  57.00   0.00   29
  5  \w     25.00  95.00   1.00   12.50    --   54.00  77.00  60.00   70
  6  \w      1.00  96.00   1.00   12.50    --   54.00 -99.00 150.00   95
  7  \w     46.00 108.00   1.00   12.50    --   54.00  57.00-150.00   62
  8  \w     64.00  91.00   1.00   12.50    --   54.00  37.00-180.00   27
  9  \w     37.00 124.00   1.00   12.50    --   54.00  37.00 -60.00   87
 10  \w     39.00 107.00   1.00   12.50    --   54.00  57.00   0.00   68
 11  \w     39.00 106.00   1.00   12.50    --   54.00-125.00 -30.00   67
 12  \w     38.00 130.00   1.00   12.50    --  108.00 -50.00 120.00   92
 13  \w    152.00 178.00   1.00   12.50    --  108.00  25.00 -60.00   26
 14  \w     75.00 147.00   1.00   12.50    --  108.00  25.00 -60.00   72
 15  \w     39.00 113.00   1.00   12.50    --  108.00-111.00  90.00   74
 16  \w     47.00 141.00   1.00   12.50    --  108.00 -91.00 120.00   94
 17  \w     89.00 139.00   1.00   12.50    --  108.00  77.00 -30.00   50
 18  \w    125.00 152.00   1.00   12.50    --  108.00  25.00  90.00   27
 19  \w     78.00 105.00   1.00   12.50    --  108.00  25.00  90.00   27
 20  \w     81.00 115.00   1.00   12.50    --  108.00-111.00 -30.00   34
 21  \w    104.00 177.00   1.00   12.50    --  108.00 111.00 150.00   73
 22  \w     81.00 114.00   1.00   12.50    --  108.00-111.00-120.00   33
 23  \w     36.00  63.00   1.00   12.50    --  108.00-111.00 -30.00   27
 24  \w     43.00 122.00   1.00   12.50    --  108.00 -63.00-120.00   79
 25  \w     41.00 111.00   1.00   12.50    --  108.00 -37.00  30.00   70
 26  \w     91.00 178.00   1.00   12.50    --  108.00  37.00-150.00   87
 27  \w    100.00 141.00   1.00   12.50    --  108.00 111.00  90.00   41
;
_diffrn_measurement_device       'four-circle diffractometer'
_diffrn_measurement_device_type  'SuperNova, Dual, Cu at zero, Eos'
_diffrn_measurement_method       '\w scans'
_diffrn_orient_matrix_type
'CrysAlisPro convention (1999,Acta A55,543-557)'
_diffrn_orient_matrix_UB_11      0.0153065000
_diffrn_orient_matrix_UB_12      -0.0068128000
_diffrn_orient_matrix_UB_13      0.0423317000
_diffrn_orient_matrix_UB_21      0.0101109500
_diffrn_orient_matrix_UB_22      0.0249019500
_diffrn_orient_matrix_UB_23      0.0014020000
_diffrn_orient_matrix_UB_31      -0.0197841000
_diffrn_orient_matrix_UB_32      0.0075991000
_diffrn_orient_matrix_UB_33      0.0334305000
_diffrn_radiation_monochromator  mirror
_diffrn_radiation_probe          x-ray
_diffrn_radiation_type           CuK\a
_diffrn_radiation_wavelength     1.54178
_diffrn_reflns_av_R_equivalents  0.1256
_diffrn_reflns_av_unetI/netI     0.0715
_diffrn_reflns_Laue_measured_fraction_full 1.000
_diffrn_reflns_Laue_measured_fraction_max 0.985
_diffrn_reflns_limit_h_max       34
_diffrn_reflns_limit_h_min       -31
_diffrn_reflns_limit_k_max       33
_diffrn_reflns_limit_k_min       -34
_diffrn_reflns_limit_l_max       34
_diffrn_reflns_limit_l_min       -34
_diffrn_reflns_number            76610
_diffrn_reflns_point_group_measured_fraction_full 1.000
_diffrn_reflns_point_group_measured_fraction_max 0.985
_diffrn_reflns_theta_full        67.679
_diffrn_reflns_theta_max         71.298
_diffrn_reflns_theta_min         3.785
_diffrn_source                   'micro-focus sealed X-ray tube'
_diffrn_source_type              'SuperNova (Cu) X-ray Source'
_exptl_absorpt_coefficient_mu    2.221
_exptl_absorpt_correction_T_max  1.00000
_exptl_absorpt_correction_T_min  0.56949
_exptl_absorpt_correction_type   multi-scan
_exptl_absorpt_process_details
'CrysAlisPro 1.171.38.41 (Rigaku Oxford Diffraction, 2015) Empirical absorption correction using spherical harmonics, implemented in SCALE3 ABSPACK scaling algorithm.'
_exptl_crystal_colour            'clear light yellow'
_exptl_crystal_colour_lustre     clear
_exptl_crystal_colour_modifier   light
_exptl_crystal_colour_primary    yellow
_exptl_crystal_density_diffrn    0.807
_exptl_crystal_description       block
_exptl_crystal_F_000             5808
_exptl_crystal_size_max          0.25
_exptl_crystal_size_mid          0.06
_exptl_crystal_size_min          0.05
_platon_squeeze_details
;
TITL 1_a.res in C2/m New: P4/m New: I4/m
CELL   28.5568   28.5568   28.6245     90.00     90.00     90.00
SPGR I4/m
# Solvent Accessible Volume =     12523
# Electrons Found in S.A.V. =      3781
# Note: Atoms in Void as Cxxx and Qxxx all others
C101 0.698 0.195 0.002 !       9.26 eA-3
C102 0.500 0.500 0.000 !       8.14 eA-3
C103 0.878 0.754 0.044 !       6.47 eA-3
C104 0.375 0.453-0.001 !       6.40 eA-3
C105 0.304 0.383 0.002 !       6.25 eA-3
C106 0.175 0.430 0.002 !       5.67 eA-3
C107 0.500 0.496 0.250 !       5.40 eA-3
C108 0.859 0.211 0.001 !       4.93 eA-3
C109 0.181 0.117 0.002 !       4.11 eA-3
C110 0.961 0.391-0.001 !       3.78 eA-3
Q111 0.507 0.150 0.070 !       3.65 eA-3
C112 0.571 0.350 0.123 !       3.38 eA-3
C113 0.328 0.441 0.089 !       3.32 eA-3
C114 0.454 0.484-0.001 !       3.30 eA-3
C115 0.874 0.141 0.003 !       3.26 eA-3
C116 0.884 0.477 0.001 !       3.25 eA-3
C117 0.997 0.445 0.088 !       2.66 eA-3
C118 0.878 0.491 0.040 !       2.56 eA-3
C119 0.157 0.250 0.002 !       2.55 eA-3
C120 0.922 0.195 0.001 !       2.52 eA-3
C121 0.906 0.785 0.176 !       2.46 eA-3
C122 0.730 0.548 0.092 !       2.45 eA-3
C123 0.686 0.016-0.001 !       2.36 eA-3
C124 0.640 0.336 0.227 !       2.32 eA-3
C125 0.883 0.014 0.213 !       2.15 eA-3
C126 0.945 0.767 0.148 !       2.15 eA-3
C127 0.829 0.888 0.125 !       2.11 eA-3
C128 0.143 0.824 0.125 !       2.06 eA-3
C129 0.895 0.032 0.184 !       1.95 eA-3
C130 0.327 0.663 0.211 !       1.87 eA-3
C131 0.025 0.351-0.002 !       1.85 eA-3
C132 0.655 0.593 0.246 !       1.82 eA-3
C133 0.028 0.244 0.115 !       1.75 eA-3
C134 0.991 0.367 0.000 !       1.73 eA-3
C135 0.055 0.187 0.001 !       1.53 eA-3
C136 0.062 0.398 0.002 !       1.53 eA-3
C137 0.509 0.164 0.000 !       1.50 eA-3
C138 0.841 0.500 0.026 !       1.41 eA-3
C139 0.014 0.510 0.151 !       1.36 eA-3
C140 0.564 0.328 0.001 !       1.30 eA-3
C141 0.059 0.981 0.073 !       1.28 eA-3
C142 0.500 0.998 0.023 !       1.25 eA-3
C143 0.439 0.673 0.033 !       1.23 eA-3
C144 0.107 0.970 0.145 !       1.22 eA-3
C145 0.031 0.501 0.171 !       1.21 eA-3
C146 0.200 0.106 0.150 !       1.18 eA-3
C147 0.956 0.078 0.000 !       1.16 eA-3
C148 0.077 0.242 0.001 !       1.15 eA-3
Q149 0.226 0.999 0.204 !       1.15 eA-3
C150 1.000 0.499 0.172 !       1.14 eA-3
C151 0.942 0.157 0.107 !       1.11 eA-3
Q152 0.751 0.336 0.002 !       1.11 eA-3
Q153 0.328 0.219-0.004 !       1.10 eA-3
Q154 0.515 0.529 0.137 !       1.09 eA-3
Q155 0.431 0.297-0.001 !       1.08 eA-3
C156 0.477 0.030 0.128 !       1.08 eA-3
C157 0.870 0.141 0.126 !       1.05 eA-3
C158 0.936 0.039 0.165 !       1.04 eA-3
C159 0.062 0.928 0.014 !       1.03 eA-3
Q160 0.361 0.344 0.002 !       1.03 eA-3
C161 0.056 0.979 0.174 !       1.02 eA-3
Q162 0.998 0.373 0.122 !       1.01 eA-3
C163 0.028 0.170 0.016 !       0.99 eA-3
Q164 0.312 0.148-0.001 !       0.98 eA-3
C165 0.030 0.250 0.000 !       0.98 eA-3
C166 1.000 0.500 0.203 !       0.97 eA-3
C167 0.182 0.899 0.097 !       0.95 eA-3
C168 0.986 0.250-0.003 !       0.94 eA-3
C169 0.494 0.055 0.000 !       0.94 eA-3
Q170 0.695 0.598 0.172 !       0.93 eA-3
C171 0.928 0.046 0.180 !       0.93 eA-3
C172 0.932 0.188 0.151 !       0.93 eA-3
C173 0.021 0.998 0.185 !       0.90 eA-3
C174 0.944 0.936 0.201 !       0.89 eA-3
C175 0.887 0.800 0.158 !       0.87 eA-3
C176 0.135 0.287 0.012 !       0.87 eA-3
C177 0.943 0.952 0.169 !       0.87 eA-3
Q178 0.344 0.172 0.000 !       0.86 eA-3
C179 0.804 0.910 0.178 !       0.86 eA-3
C180 0.802 0.064 0.148 !       0.82 eA-3
C181 0.568 0.990 0.028 !       0.81 eA-3
Q182 0.817 0.313 0.116 !       0.80 eA-3
C183 0.905 0.219 0.163 !       0.80 eA-3
C184 0.222 0.992 0.003 !       0.79 eA-3
Q185 0.679 0.289 0.001 !       0.79 eA-3
C186 0.761 0.006 0.053 !       0.77 eA-3
Q187 0.383 0.109 0.001 !       0.77 eA-3
C188 0.345 0.431 0.177 !       0.77 eA-3
Q189 0.503 0.195 0.000 !       0.76 eA-3
C190 0.074 0.063 0.165 !       0.76 eA-3
C191 0.517 0.063-0.002 !       0.75 eA-3
C192 0.889 0.813 0.131 !       0.74 eA-3
Q193 0.390 0.305 0.003 !       0.74 eA-3
C194 0.788 0.542 0.086 !       0.73 eA-3
Q195 0.424 0.211 0.002 !       0.73 eA-3
C196 0.548 0.978 0.018 !       0.73 eA-3
C197 0.407 0.492 0.002 !       0.72 eA-3
Q198 0.209 0.043 0.204 !       0.72 eA-3
C199 0.906 0.979 0.225 !       0.71 eA-3
;
_refine_diff_density_max         0.828
_refine_diff_density_min         -0.818
_refine_diff_density_rms         0.087
_refine_ls_extinction_method     none
_refine_ls_goodness_of_fit_ref   1.057
_refine_ls_hydrogen_treatment    constr
_refine_ls_matrix_type           full
_refine_ls_number_parameters     451
_refine_ls_number_reflns         11419
_refine_ls_number_restraints     6
_refine_ls_restrained_S_all      1.057
_refine_ls_R_factor_all          0.1546
_refine_ls_R_factor_gt           0.1005
_refine_ls_shift/su_max          0.000
_refine_ls_shift/su_mean         0.000
_refine_ls_structure_factor_coef Fsqd
_refine_ls_weighting_details
'w=1/[\s^2^(Fo^2^)+(0.1628P)^2^+83.6397P] where P=(Fo^2^+2Fc^2^)/3'
_refine_ls_weighting_scheme      calc
_refine_ls_wR_factor_gt          0.2901
_refine_ls_wR_factor_ref         0.3516
_reflns_Friedel_coverage         0.000
_reflns_number_gt                6166
_reflns_number_total             11419
_reflns_threshold_expression     'I > 2\s(I)'
_iucr_refine_instructions_details
;

    5_sq.res created by SHELXL-2014/7

TITL 1_a.res in C2/m New: P4/m New: I4/m
CELL 1.54178 28.5568 28.5568 28.6245 90 90 90
ZERR 2 0.0017 0.0017 0.0015 0 0 0
LATT 2
SYMM -Y,+X,+Z
SYMM -X,-Y,+Z
SYMM +Y,-X,+Z
SFAC C H N O Pd
UNIT 528 448 152 72 12
RIGU C15A C14 C15
 
L.S. 20 0 268
PLAN  -5
SIZE 0.05 0.06 0.25
TEMP -173.14(11)
CONF
ABIN
fmap 2
acta
REM <olex2.extras>
REM <HklSrc "%.\\5_sq.hkl">
REM </olex2.extras>
 
WGHT    0.162800   83.639702
FVAR       0.08397   0.71812
PD1   5   -0.182578    0.312692    0.000000    10.50000    0.06860    0.07698 =
         0.07344    0.00000    0.00000    0.00492
PD2   5    0.000000    0.000000    0.375801    10.25000    0.08628    0.08628 =
         0.07971    0.00000    0.00000    0.00000
O1    4   -0.009664    0.345789    0.170602    11.00000    0.08330    0.07958 =
         0.09226    0.00446   -0.00653    0.01368
O2    4    0.072394    0.224146    0.315470    11.00000    0.08881    0.07296 =
         0.07684   -0.00429   -0.00284    0.00969
O3    4    0.190313    0.305527    0.169910    11.00000    0.08933    0.06617 =
         0.07021   -0.00098    0.00123   -0.00397
N1    3   -0.136853    0.332690    0.049732    11.00000    0.05012    0.06120 =
         0.10904    0.00695   -0.00437    0.00832
N2    3   -0.061084    0.397530    0.197297    11.00000    0.10570    0.11812 =
         0.09860   -0.02347   -0.02111    0.03862
N3    3   -0.022470    0.396595    0.227449    11.00000    0.07846    0.11892 =
         0.12644   -0.04152   -0.03979    0.03498
N4    3    0.106159    0.271513    0.366640    11.00000    0.14548    0.09567 =
         0.06495   -0.00923   -0.01850   -0.03475
N5    3    0.094764    0.229813    0.388846    11.00000    0.10261    0.10876 =
         0.07224    0.00735   -0.01382   -0.02580
N6    3    0.024156    0.066198    0.373397    11.00000    0.08753    0.08379 =
         0.07221    0.00653   -0.00585   -0.00194
N7    3    0.206118    0.377565    0.189015    11.00000    0.09645    0.07216 =
         0.12230   -0.02080    0.00126   -0.02026
AFIX  43
H7    2    0.204823    0.405304    0.202345    11.00000   -1.20000
AFIX   0
N8    3    0.239265    0.363040    0.156902    11.00000    0.09062    0.07321 =
         0.12542   -0.02408    0.00793   -0.00904
N9    3    0.289001    0.227469    0.050559    11.00000    0.07908    0.05578 =
         0.06989    0.01209   -0.00419   -0.00386
C1    1   -0.102218    0.305835    0.063741    11.00000    0.09321    0.08001 =
         0.09811   -0.01765   -0.00305    0.02867
AFIX  43
H1    2   -0.097510    0.276917    0.048021    11.00000   -1.20000
AFIX   0
C2    1   -0.072529    0.316959    0.099567    11.00000    0.07995    0.09507 =
         0.08316   -0.00681   -0.01398    0.02668
AFIX  43
H2    2   -0.047419    0.296501    0.107143    11.00000   -1.20000
AFIX   0
C3    1   -0.078554    0.356269    0.123922    11.00000    0.07201    0.08295 =
         0.10506   -0.01302   -0.01417    0.00937
C4    1   -0.115103    0.386365    0.108897    11.00000    0.07710    0.07430 =
         0.09761   -0.02012   -0.01747    0.01966
AFIX  43
H4    2   -0.120170    0.415533    0.124035    11.00000   -1.20000
AFIX   0
C5    1   -0.142740    0.373086    0.072708    11.00000    0.06221    0.07768 =
         0.09131    0.00599   -0.00646    0.02007
AFIX  43
H5    2   -0.167360    0.393351    0.063251    11.00000   -1.20000
AFIX   0
C6    1   -0.051337    0.368337    0.164887    11.00000    0.08860    0.08621 =
         0.09409   -0.02165   -0.01899    0.02893
C7    1    0.006706    0.365552    0.211025    11.00000    0.09026    0.08698 =
         0.07929   -0.01932   -0.00630    0.01471
C8    1    0.050555    0.347072    0.229406    11.00000    0.09928    0.07656 =
         0.09860   -0.01450   -0.02899    0.00638
C9    1    0.049588    0.317816    0.269261    11.00000    0.07679    0.07517 =
         0.08215   -0.00857   -0.00139    0.00482
C10   1    0.092747    0.300968    0.284964    11.00000    0.08833    0.08254 =
         0.07276   -0.01106   -0.01039   -0.00139
C11   1    0.136283    0.309894    0.262481    11.00000    0.08017    0.08363 =
         0.06238   -0.00900   -0.01096    0.00148
C12   1    0.133684    0.339269    0.222966    11.00000    0.07759    0.07122 =
         0.08105   -0.01027   -0.00368   -0.00637
C13   1    0.093802    0.358646    0.206129    11.00000    0.08559    0.06924 =
         0.08076   -0.00951   -0.01893    0.00411
C14   1    0.005705    0.304655    0.293078    11.00000    0.08191    0.10328 =
         0.12565   -0.00799   -0.00989    0.01022
PART 2
AFIX  23
H14C  2   -0.014378    0.332584    0.297363    21.00000   -1.20000
H14D  2    0.012659    0.291242    0.324207    21.00000   -1.20000
AFIX  23
PART 0
PART 1
H14A  2    0.005580    0.270424    0.298547   -21.00000   -1.20000
H14B  2   -0.021140    0.312222    0.272537   -21.00000   -1.20000
AFIX   0
PART 0
PART 2
C15A  1   -0.021760    0.264979    0.259796    21.00000    0.11359    0.13551 =
         0.13220   -0.01457   -0.00537   -0.02006
AFIX  33
H15A  2   -0.051106    0.255644    0.274906    21.00000   -1.50000
H15B  2   -0.028589    0.278635    0.229134    21.00000   -1.50000
H15C  2   -0.001653    0.237448    0.255877    21.00000   -1.50000
AFIX   0
PART 0
C16   1    0.181950    0.291432    0.282067    11.00000    0.08677    0.09302 =
         0.07084    0.00769    0.00567    0.01654
AFIX  23
H16A  2    0.175724    0.263798    0.302007    11.00000   -1.20000
H16B  2    0.202656    0.281531    0.256147    11.00000   -1.20000
AFIX   0
C17   1    0.205842    0.328870    0.310440    11.00000    0.08704    0.20395 =
         0.10436   -0.01839   -0.01261    0.02818
AFIX 137
H17A  2    0.208283    0.357583    0.291848    11.00000   -1.50000
H17B  2    0.237261    0.318242    0.319226    11.00000   -1.50000
H17C  2    0.187528    0.335146    0.338708    11.00000   -1.50000
AFIX   0
C18   1    0.092223    0.388604    0.163829    11.00000    0.09470    0.10100 =
         0.11215    0.01267   -0.01860    0.01319
AFIX  23
H18A  2    0.118024    0.411655    0.166020    11.00000   -1.20000
H18B  2    0.062471    0.406391    0.164374    11.00000   -1.20000
AFIX   0
C19   1    0.095872    0.364622    0.117620    11.00000    0.13065    0.15050 =
         0.10253    0.00608   -0.00984    0.02989
AFIX 137
H19A  2    0.095409    0.388044    0.092602    11.00000   -1.50000
H19B  2    0.069370    0.343170    0.113735    11.00000   -1.50000
H19C  2    0.125231    0.346910    0.116193    11.00000   -1.50000
AFIX   0
C20   1    0.092230    0.266879    0.323948    11.00000    0.08633    0.08329 =
         0.08636   -0.00751    0.01195    0.00461
C21   1    0.075907    0.203988    0.359541    11.00000    0.08409    0.10145 =
         0.04959   -0.00605    0.00833    0.00802
C22   1    0.058042    0.157141    0.364795    11.00000    0.06864    0.08701 =
         0.06786   -0.00208   -0.00008    0.00327
C23   1    0.042520    0.129929    0.324312    11.00000    0.10026    0.09433 =
         0.09136    0.02124   -0.00907   -0.00369
AFIX  43
H23   2    0.042082    0.143408    0.293973    11.00000   -1.20000
AFIX   0
C24   1    0.029059    0.085901    0.331068    11.00000    0.11091    0.09128 =
         0.08875   -0.01478    0.00595    0.00080
AFIX  43
H24   2    0.022513    0.067252    0.304372    11.00000   -1.20000
AFIX   0
C25   1    0.037489    0.090643    0.411272    11.00000    0.07757    0.08419 =
         0.06669    0.00879   -0.00209    0.00184
AFIX  43
H25   2    0.034996    0.076532    0.441224    11.00000   -1.20000
AFIX   0
C26   1    0.054623    0.135479    0.407846    11.00000    0.07472    0.08763 =
         0.08480   -0.00848   -0.00061   -0.00124
AFIX  43
H26   2    0.064173    0.151681    0.435221    11.00000   -1.20000
AFIX   0
C27   1    0.177256    0.343180    0.196073    11.00000    0.09982    0.07195 =
         0.07925   -0.01174   -0.01431    0.00928
C28   1    0.229178    0.320996    0.148261    11.00000    0.07347    0.07114 =
         0.08726    0.00128    0.00021   -0.01852
C29   1    0.252107    0.287420    0.114841    11.00000    0.07127    0.06680 =
         0.07151    0.00706    0.00344   -0.00099
C30   1    0.292518    0.299289    0.092128    11.00000    0.07210    0.07578 =
         0.07723   -0.00083   -0.00240   -0.01832
AFIX  43
H30   2    0.307645    0.328292    0.098173    11.00000   -1.20000
AFIX   0
C31   1    0.310972    0.267632    0.059792    11.00000    0.06540    0.06438 =
         0.08185    0.00057    0.00212   -0.00353
AFIX  43
H31   2    0.339465    0.274785    0.044220    11.00000   -1.20000
AFIX   0
C32   1    0.251349    0.216289    0.072451    11.00000    0.08050    0.06886 =
         0.08364   -0.00283    0.01392   -0.02015
AFIX  43
H32   2    0.236291    0.187455    0.065502    11.00000   -1.20000
AFIX   0
C33   1    0.232847    0.244863    0.105168    11.00000    0.09222    0.06972 =
         0.08329   -0.00519    0.01819   -0.01422
AFIX  43
H33   2    0.205787    0.235078    0.121824    11.00000   -1.20000
AFIX   0
PART 1
C15   1   -0.000871    0.331894    0.343369   -21.00000    0.03778    0.15122 =
         0.13646   -0.03489   -0.01657    0.00697
AFIX  33
H15D  2   -0.030376    0.322097    0.357867   -21.00000   -1.50000
H15E  2    0.025284    0.323998    0.364086   -21.00000   -1.50000
H15F  2   -0.001435    0.365795    0.338078   -21.00000   -1.50000
AFIX   0
 
PART 0
PART 2
O4    4    0.027964    0.229776    0.500000    10.50000    0.07547    0.10265 =
         0.13818    0.00000    0.00000   -0.01179
O5    4    0.094566    0.197157    0.500000    10.50000    0.08851    0.08335 =
         0.07250    0.00000    0.00000   -0.00977
O6    4    0.091323    0.271521    0.500000    10.50000    0.08188    0.06955 =
         0.08661    0.00000    0.00000   -0.02132
N10   3    0.071906    0.233165    0.500000    10.50000    0.08019    0.06874 =
         0.08302    0.00000    0.00000   -0.01985
HKLF 4 1 0.5 0 0 0 0 -1 0 0.5 0
 
REM  1_a.res in C2/m New: P4/m New: I4/m
REM R1 =  0.1005 for    6166 Fo > 4sig(Fo)  and  0.1546 for all   11419 data
REM    451 parameters refined using      6 restraints
 
END  
     
WGHT      0.1623     86.2363 

REM Highest difference peak  0.828,  deepest hole -0.818,  1-sigma level  0.087
Q1    1  -0.2497  0.3385  0.0000  10.50000  0.05    0.83
Q2    1  -0.0026  0.3704  0.1235  11.00000  0.05    0.82
Q3    1  -0.0096 -0.0379  0.3709  11.00000  0.05    0.79
Q4    1  -0.2161  0.3270  0.0000  10.50000  0.05    0.77
Q5    1  -0.1638  0.3397  0.0000  10.50000  0.05    0.68

  REM The information below was added by Olex2.
  REM
  REM R1 = 0.1005 for 6166 Fo > 4sig(Fo) and 0.1546 for all 302367 data
  REM n/a parameters refined using n/a restraints
  REM Highest difference peak 0.83, deepest hole -0.82
  REM Mean Shift 0, Max Shift 0.000.

  REM +++ Tabular Listing of Refinement Information +++
  REM R1_all = 0.1546
  REM R1_gt = 0.1005
  REM wR_ref = 0.3516
  REM GOOF = 1.057
  REM Shift_max = 0.000
  REM Shift_mean = 0
  REM Reflections_all = 302367
  REM Reflections_gt = 6166
  REM Parameters = n/a
  REM Hole = -0.82
  REM Peak = 0.83
  REM Flack = n/a

  
;
_cod_data_source_file            d1cc02629a2.cif
_cod_data_source_block           5_sq
_cod_depositor_comments          'Adding full bibliography for 7128634.cif.'
_cod_original_cell_volume        23343(3)
_cod_database_code               7128634
_shelx_shelxl_version_number     2014/7
_shelx_space_group_comment
;
The symmetry employed for this shelxl refinement is uniquely defined
by the following loop, which should always be used as a source of
symmetry information in preference to the above space-group names.
They are only intended as comments.
;
_shelx_estimated_absorpt_t_max   0.897
_shelx_estimated_absorpt_t_min   0.607
_reflns_odcompleteness_completeness 99.87
_reflns_odcompleteness_iscentric 1
_reflns_odcompleteness_theta     66.97
_olex2_refinement_description
;
1. Fixed Uiso
 At 1.2 times of:
  All C(H) groups, All C(H,H) groups, All C(H,H,H,H) groups, All N(H) groups
 At 1.5 times of:
  All C(H,H,H) groups
2. Rigid body (RIGU) restrains
 C15A, C14, C15
 with sigma for 1-2 distances of 0.004 and sigma for 1-3 distances of 0.004
3. Others
 Sof(H14A)=Sof(H14B)=Sof(C15)=Sof(H15D)=Sof(H15E)=Sof(H15F)=1-FVAR(1)
 Sof(H14C)=Sof(H14D)=Sof(C15A)=Sof(H15A)=Sof(H15B)=Sof(H15C)=FVAR(1)
4.a Secondary CH2 refined with riding coordinates:
 C14(H14C,H14D), C14(H14A,H14B), C16(H16A,H16B), C18(H18A,H18B)
4.b Me refined with riding coordinates:
 C15A(H15A,H15B,H15C), C15(H15D,H15E,H15F)
4.c Aromatic/amide H refined with riding coordinates:
 N7(H7), C1(H1), C2(H2), C4(H4), C5(H5), C23(H23), C24(H24), C25(H25),
 C26(H26), C30(H30), C31(H31), C32(H32), C33(H33)
4.d Idealised Me refined as rotating group:
 C17(H17A,H17B,H17C), C19(H19A,H19B,H19C)
;
_shelx_fab_file
;
 0 4 0 37.67 0.00
 0 6 0 322.26 0.00
 0 8 0 94.79 0.00
 0 10 0 58.31 0.00
 0 12 0 81.76 0.00
 0 14 0 52.58 0.00
 0 16 0 143.20 0.00
 0 18 0 61.69 0.00
 0 20 0 58.05 0.00
 0 22 0 -1.89 0.00
 0 24 0 10.63 0.00
 0 26 0 16.75 0.00
 0 28 0 4.52 0.00
 0 30 0 8.25 0.00
 0 32 0 -1.33 0.00
 0 3 1 -155.15 0.00
 0 5 1 76.60 0.00
 0 7 1 112.56 0.00
 0 9 1 96.80 0.00
 0 11 1 17.16 0.00
 0 13 1 -15.66 0.00
 0 15 1 -33.11 0.00
 0 17 1 -17.45 0.00
 0 19 1 -13.69 0.00
 0 21 1 -12.75 0.00
 0 23 1 12.94 0.00
 0 25 1 6.98 0.00
 0 27 1 -2.84 0.00
 0 29 1 0.92 0.00
 0 31 1 8.31 0.00
 0 33 1 1.37 0.00
 0 2 2 69.43 0.00
 0 4 2 38.94 0.00
 0 6 2 140.00 0.00
 0 8 2 70.07 0.00
 0 10 2 6.48 0.00
 0 12 2 -3.51 0.00
 0 14 2 23.61 0.00
 0 16 2 139.85 0.00
 0 18 2 12.19 0.00
 0 20 2 4.93 0.00
 0 22 2 -31.23 0.00
 0 24 2 24.16 0.00
 0 26 2 3.70 0.00
 0 28 2 -13.89 0.00
 0 30 2 -8.03 0.00
 0 32 2 0.33 0.00
 0 34 2 6.40 0.00
 0 1 3 -315.92 0.00
 0 3 3 -142.86 0.00
 0 5 3 6.96 0.00
 0 7 3 138.14 0.00
 0 9 3 -144.30 0.00
 0 11 3 23.94 0.00
 0 13 3 39.52 0.00
 0 15 3 17.45 0.00
 0 17 3 -4.32 0.00
 0 19 3 -3.61 0.00
 0 21 3 -27.40 0.00
 0 23 3 1.82 0.00
 0 25 3 13.25 0.00
 0 27 3 -1.69 0.00
 0 29 3 -6.37 0.00
 0 31 3 2.49 0.00
 0 33 3 3.40 0.00
 0 0 4 646.86 0.00
 0 2 4 -40.39 0.00
 0 4 4 -191.47 0.00
 0 6 4 194.61 0.00
 0 8 4 61.07 0.00
 0 10 4 130.78 0.00
 0 12 4 -21.54 0.00
 0 14 4 -1.18 0.00
 0 16 4 55.55 0.00
 0 18 4 -6.72 0.00
 0 20 4 -2.74 0.00
 0 22 4 -9.29 0.00
 0 24 4 20.77 0.00
 0 26 4 7.73 0.00
 0 28 4 -5.36 0.00
 0 30 4 -6.21 0.00
 0 32 4 -5.67 0.00
 0 34 4 1.25 0.00
 0 1 5 134.83 0.00
 0 3 5 88.11 0.00
 0 5 5 23.89 0.00
 0 7 5 -153.94 0.00
 0 9 5 -28.72 0.00
 0 11 5 -56.61 0.00
 0 13 5 7.92 0.00
 0 15 5 -14.17 0.00
 0 17 5 2.58 0.00
 0 19 5 -3.88 0.00
 0 21 5 -3.99 0.00
 0 23 5 -0.16 0.00
 0 25 5 8.95 0.00
 0 27 5 0.99 0.00
 0 29 5 -10.26 0.00
 0 31 5 -0.48 0.00
 0 33 5 -2.00 0.00
 0 0 6 522.86 0.00
 0 2 6 -42.47 0.00
 0 4 6 -40.27 0.00
 0 6 6 -36.94 0.00
 0 8 6 -28.66 0.00
 0 10 6 86.05 0.00
 0 12 6 -100.40 0.00
 0 14 6 -42.89 0.00
 0 16 6 3.59 0.00
 0 18 6 -28.68 0.00
 0 20 6 -7.64 0.00
 0 22 6 -16.93 0.00
 0 24 6 -2.55 0.00
 0 26 6 5.47 0.00
 0 28 6 3.31 0.00
 0 30 6 3.64 0.00
 0 32 6 -0.50 0.00
 0 34 6 1.19 0.00
 0 1 7 12.18 0.00
 0 3 7 -124.41 0.00
 0 5 7 62.31 0.00
 0 7 7 -34.91 0.00
 0 9 7 -124.56 0.00
 0 11 7 8.58 0.00
 0 13 7 -17.60 0.00
 0 15 7 -49.62 0.00
 0 17 7 22.83 0.00
 0 19 7 -2.11 0.00
 0 21 7 9.51 0.00
 0 23 7 9.44 0.00
 0 25 7 5.68 0.00
 0 27 7 -0.92 0.00
 0 29 7 6.84 0.00
 0 31 7 4.20 0.00
 0 33 7 -3.22 0.00
 0 0 8 566.64 0.00
 0 2 8 -33.83 0.00
 0 4 8 -135.33 0.00
 0 6 8 114.89 0.00
 0 8 8 -110.06 0.00
 0 10 8 4.61 0.00
 0 12 8 -24.09 0.00
 0 14 8 -38.76 0.00
 0 16 8 -0.68 0.00
 0 18 8 -28.34 0.00
 0 20 8 -5.91 0.00
 0 22 8 -23.07 0.00
 0 24 8 -17.91 0.00
 0 26 8 -10.19 0.00
 0 28 8 5.29 0.00
 0 30 8 0.30 0.00
 0 32 8 -3.46 0.00
 0 1 9 -78.51 0.00
 0 3 9 11.95 0.00
 0 5 9 75.68 0.00
 0 7 9 27.00 0.00
 0 9 9 23.14 0.00
 0 11 9 16.56 0.00
 0 13 9 18.22 0.00
 0 15 9 -22.68 0.00
 0 17 9 -34.10 0.00
 0 19 9 11.23 0.00
 0 21 9 5.75 0.00
 0 23 9 -1.83 0.00
 0 25 9 6.21 0.00
 0 27 9 -5.18 0.00
 0 29 9 6.66 0.00
 0 31 9 2.19 0.00
 0 33 9 6.66 0.00
 0 0 10 373.92 0.00
 0 2 10 17.55 0.00
 0 4 10 -38.95 0.00
 0 6 10 70.72 0.00
 0 8 10 -116.07 0.00
 0 10 10 23.92 0.00
 0 12 10 -50.42 0.00
 0 14 10 8.91 0.00
 0 16 10 -19.71 0.00
 0 18 10 6.51 0.00
 0 20 10 9.79 0.00
 0 22 10 -5.64 0.00
 0 24 10 -9.67 0.00
 0 26 10 -20.32 0.00
 0 28 10 -0.17 0.00
 0 30 10 8.90 0.00
 0 32 10 -6.00 0.00
 0 1 11 -71.68 0.00
 0 3 11 -34.47 0.00
 0 5 11 56.39 0.00
 0 7 11 20.38 0.00
 0 9 11 -30.51 0.00
 0 11 11 16.28 0.00
 0 13 11 69.56 0.00
 0 15 11 -8.78 0.00
 0 17 11 -48.40 0.00
 0 19 11 -0.69 0.00
 0 21 11 21.29 0.00
 0 23 11 -0.71 0.00
 0 25 11 -10.43 0.00
 0 27 11 -5.92 0.00
 0 29 11 1.79 0.00
 0 31 11 -1.21 0.00
 0 33 11 10.53 0.00
 0 0 12 283.94 0.00
 0 2 12 44.95 0.00
 0 4 12 33.98 0.00
 0 6 12 45.73 0.00
 0 8 12 -66.21 0.00
 0 10 12 63.18 0.00
 0 12 12 -7.94 0.00
 0 14 12 30.00 0.00
 0 16 12 3.54 0.00
 0 18 12 0.18 0.00
 0 20 12 31.59 0.00
 0 22 12 5.87 0.00
 0 24 12 -6.50 0.00
 0 26 12 2.20 0.00
 0 28 12 1.75 0.00
 0 30 12 8.19 0.00
 0 32 12 -4.77 0.00
 0 1 13 -3.98 0.00
 0 3 13 -2.19 0.00
 0 5 13 20.57 0.00
 0 7 13 -21.56 0.00
 0 9 13 -60.00 0.00
 0 11 13 -7.69 0.00
 0 13 13 23.30 0.00
 0 15 13 2.61 0.00
 0 17 13 -2.17 0.00
 0 19 13 3.61 0.00
 0 21 13 8.88 0.00
 0 23 13 -9.53 0.00
 0 25 13 -2.04 0.00
 0 27 13 -0.10 0.00
 0 29 13 2.63 0.00
 0 31 13 0.16 0.00
 0 0 14 277.64 0.00
 0 2 14 -5.66 0.00
 0 4 14 -30.95 0.00
 0 6 14 84.15 0.00
 0 8 14 -3.33 0.00
 0 10 14 22.84 0.00
 0 12 14 -26.57 0.00
 0 14 14 10.46 0.00
 0 16 14 15.35 0.00
 0 18 14 -14.28 0.00
 0 20 14 -6.87 0.00
 0 22 14 -5.00 0.00
 0 24 14 3.81 0.00
 0 26 14 -9.71 0.00
 0 28 14 1.41 0.00
 0 30 14 -0.28 0.00
 0 32 14 -2.44 0.00
 0 1 15 37.27 0.00
 0 3 15 -49.57 0.00
 0 5 15 27.38 0.00
 0 7 15 10.52 0.00
 0 9 15 -37.72 0.00
 0 11 15 -11.97 0.00
 0 13 15 9.73 0.00
 0 15 15 7.10 0.00
 0 17 15 9.22 0.00
 0 19 15 5.38 0.00
 0 21 15 4.73 0.00
 0 23 15 2.26 0.00
 0 25 15 -4.25 0.00
 0 27 15 2.05 0.00
 0 29 15 5.75 0.00
 0 31 15 6.79 0.00
 0 0 16 228.39 0.00
 0 2 16 -19.66 0.00
 0 4 16 -22.22 0.00
 0 6 16 27.58 0.00
 0 8 16 10.99 0.00
 0 10 16 31.83 0.00
 0 12 16 -28.34 0.00
 0 14 16 -0.89 0.00
 0 16 16 17.28 0.00
 0 18 16 -13.15 0.00
 0 20 16 11.39 0.00
 0 22 16 -11.03 0.00
 0 24 16 5.47 0.00
 0 26 16 -0.37 0.00
 0 28 16 0.13 0.00
 0 30 16 -0.14 0.00
 0 1 17 -16.62 0.00
 0 3 17 -6.55 0.00
 0 5 17 -2.35 0.00
 0 7 17 -11.93 0.00
 0 9 17 -13.68 0.00
 0 11 17 -11.86 0.00
 0 13 17 0.42 0.00
 0 15 17 -14.57 0.00
 0 17 17 0.61 0.00
 0 19 17 -2.83 0.00
 0 21 17 -7.30 0.00
 0 23 17 2.43 0.00
 0 25 17 -6.30 0.00
 0 27 17 -2.57 0.00
 0 29 17 -1.27 0.00
 0 0 18 165.93 0.00
 0 2 18 -24.39 0.00
 0 4 18 2.87 0.00
 0 6 18 -17.14 0.00
 0 8 18 11.81 0.00
 0 10 18 9.77 0.00
 0 12 18 -26.14 0.00
 0 14 18 -15.41 0.00
 0 16 18 29.07 0.00
 0 18 18 -14.20 0.00
 0 20 18 3.38 0.00
 0 22 18 4.58 0.00
 0 24 18 8.20 0.00
 0 26 18 -1.01 0.00
 0 28 18 4.65 0.00
 0 1 19 14.51 0.00
 0 3 19 -5.86 0.00
 0 5 19 -3.67 0.00
 0 7 19 13.65 0.00
 0 9 19 9.86 0.00
 0 11 19 -1.66 0.00
 0 13 19 10.48 0.00
 0 15 19 11.02 0.00
 0 17 19 0.41 0.00
 0 19 19 -1.15 0.00
 0 21 19 -5.92 0.00
 0 23 19 2.25 0.00
 0 25 19 -3.56 0.00
 0 27 19 0.90 0.00
 0 0 20 152.67 0.00
 0 2 20 -26.90 0.00
 0 4 20 10.08 0.00
 0 6 20 -6.04 0.00
 0 8 20 13.21 0.00
 0 10 20 8.36 0.00
 0 12 20 -26.52 0.00
 0 14 20 -10.68 0.00
 0 16 20 26.78 0.00
 0 18 20 5.42 0.00
 0 20 20 9.77 0.00
 0 22 20 -3.33 0.00
 0 24 20 12.50 0.00
 0 26 20 2.12 0.00
 0 28 20 -1.57 0.00
 0 1 21 -29.05 0.00
 0 3 21 -14.84 0.00
 0 5 21 -6.98 0.00
 0 7 21 4.49 0.00
 0 9 21 10.83 0.00
 0 11 21 -7.50 0.00
 0 13 21 -9.04 0.00
 0 15 21 -1.28 0.00
 0 17 21 -8.92 0.00
 0 19 21 5.75 0.00
 0 21 21 -4.75 0.00
 0 23 21 -1.52 0.00
 0 25 21 8.53 0.00
 0 27 21 -9.42 0.00
 0 2 22 -27.02 0.00
 0 4 22 -1.31 0.00
 0 6 22 -7.96 0.00
 0 8 22 12.20 0.00
 0 10 22 2.37 0.00
 0 12 22 -17.49 0.00
 0 14 22 -0.07 0.00
 0 16 22 9.02 0.00
 0 18 22 -1.90 0.00
 0 20 22 0.02 0.00
 0 22 22 -8.15 0.00
 0 24 22 3.98 0.00
 0 26 22 3.46 0.00
 0 1 23 -16.31 0.00
 0 3 23 -12.50 0.00
 0 5 23 -6.59 0.00
 0 7 23 9.70 0.00
 0 9 23 -0.81 0.00
 0 11 23 -1.23 0.00
 0 13 23 -2.17 0.00
 0 15 23 -5.76 0.00
 0 17 23 -6.15 0.00
 0 19 23 -4.67 0.00
 0 21 23 3.33 0.00
 0 23 23 2.45 0.00
 0 25 23 -1.17 0.00
 0 0 24 106.90 0.00
 0 2 24 -8.67 0.00
 0 4 24 -0.32 0.00
 0 6 24 21.19 0.00
 0 8 24 4.83 0.00
 0 10 24 11.62 0.00
 0 12 24 -10.70 0.00
 0 14 24 9.60 0.00
 0 16 24 17.01 0.00
 0 18 24 -2.79 0.00
 0 20 24 -2.24 0.00
 0 22 24 0.73 0.00
 0 24 24 5.12 0.00
 0 1 25 -25.69 0.00
 0 3 25 -12.88 0.00
 0 5 25 -0.90 0.00
 0 7 25 -12.34 0.00
 0 9 25 -17.93 0.00
 0 11 25 -15.27 0.00
 0 13 25 -4.17 0.00
 0 15 25 -5.32 0.00
 0 17 25 -7.35 0.00
 0 19 25 -1.13 0.00
 0 21 25 -2.04 0.00
 0 23 25 0.33 0.00
 0 0 26 27.76 0.00
 0 2 26 -6.28 0.00
 0 4 26 -4.63 0.00
 0 6 26 11.96 0.00
 0 8 26 -17.85 0.00
 0 10 26 11.78 0.00
 0 12 26 -1.55 0.00
 0 14 26 3.75 0.00
 0 16 26 7.31 0.00
 0 18 26 -2.18 0.00
 0 20 26 4.50 0.00
 0 22 26 -0.96 0.00
 0 1 27 -2.13 0.00
 0 3 27 0.10 0.00
 0 5 27 4.70 0.00
 0 7 27 -8.35 0.00
 0 9 27 1.59 0.00
 0 11 27 3.15 0.00
 0 13 27 5.27 0.00
 0 15 27 -12.43 0.00
 0 17 27 -2.83 0.00
 0 19 27 2.35 0.00
 0 21 27 -3.52 0.00
 0 0 28 30.61 0.00
 0 2 28 7.76 0.00
 0 4 28 -0.64 0.00
 0 6 28 17.30 0.00
 0 8 28 -10.66 0.00
 0 10 28 11.89 0.00
 0 12 28 3.01 0.00
 0 14 28 -0.05 0.00
 0 16 28 -0.47 0.00
 0 18 28 -6.70 0.00
 0 20 28 5.04 0.00
 0 1 29 4.66 0.00
 0 3 29 -0.64 0.00
 0 5 29 0.89 0.00
 0 7 29 -14.56 0.00
 0 9 29 -10.90 0.00
 0 11 29 -9.30 0.00
 0 13 29 -2.82 0.00
 0 15 29 0.73 0.00
 0 17 29 -3.30 0.00
 0 19 29 -7.40 0.00
 0 0 30 26.83 0.00
 0 2 30 5.14 0.00
 0 4 30 4.34 0.00
 0 6 30 8.42 0.00
 0 8 30 -27.53 0.00
 0 10 30 -2.91 0.00
 0 12 30 -3.83 0.00
 0 14 30 2.16 0.00
 0 16 30 -6.47 0.00
 0 1 31 -13.16 0.00
 0 3 31 0.60 0.00
 0 5 31 9.05 0.00
 0 7 31 -4.44 0.00
 0 9 31 -8.39 0.00
 0 11 31 -0.81 0.00
 0 13 31 -5.57 0.00
 0 15 31 1.86 0.00
 0 0 32 29.22 0.00
 0 2 32 4.05 0.00
 0 4 32 1.72 0.00
 0 6 32 15.58 0.00
 0 8 32 -4.83 0.00
 0 10 32 2.46 0.00
 0 12 32 -5.90 0.00
 0 14 32 5.27 0.00
 0 1 33 -10.06 0.00
 0 3 33 -5.77 0.00
 0 5 33 2.80 0.00
 0 7 33 4.95 0.00
 0 9 33 -2.59 0.00
 0 11 33 1.19 0.00
 0 0 34 38.55 0.00
 0 2 34 2.96 0.00
 0 4 34 2.27 0.00
 0 6 34 9.53 0.00
 0 8 34 -11.29 0.00
 -1 31 0 2.38 0.00
 -1 29 0 14.60 0.00
 -1 27 0 -4.47 0.00
 -1 25 0 -30.24 0.00
 -1 23 0 -8.12 0.00
 -1 21 0 20.50 0.00
 -1 19 0 -26.92 0.00
 -1 17 0 -8.80 0.00
 -1 15 0 -75.21 0.00
 -1 13 0 -84.10 0.00
 -1 11 0 -171.80 0.00
 -1 9 0 -92.56 0.00
 -1 7 0 -352.33 0.00
 -1 5 0 226.47 0.00
 -1 3 0 -383.87 0.00
 1 3 0 -662.08 0.00
 1 5 0 -271.27 0.00
 1 9 0 -9.48 0.00
 1 11 0 3.27 0.00
 1 13 0 53.87 0.00
 1 15 0 -11.93 0.00
 1 17 0 -42.63 0.00
 1 19 0 -5.99 0.00
 1 21 0 27.94 0.00
 1 23 0 -18.63 0.00
 1 25 0 -4.15 0.00
 1 27 0 10.41 0.00
 1 29 0 7.07 0.00
 1 31 0 -3.47 0.00
 1 33 0 -2.46 0.00
 -1 32 1 3.26 0.00
 -1 30 1 0.63 0.00
 -1 28 1 -0.46 0.00
 -1 26 1 -33.41 0.00
 -1 24 1 -7.24 0.00
 -1 22 1 -4.30 0.00
 -1 20 1 -19.36 0.00
 -1 18 1 -56.23 0.00
 -1 16 1 -9.36 0.00
 -1 14 1 47.29 0.00
 -1 12 1 -32.64 0.00
 -1 10 1 24.75 0.00
 -1 8 1 -37.56 0.00
 -1 6 1 -376.17 0.00
 -1 4 1 -0.70 0.00
 1 2 1 307.02 0.00
 1 4 1 270.49 0.00
 1 6 1 -23.85 0.00
 1 8 1 -8.93 0.00
 1 10 1 8.17 0.00
 1 12 1 26.66 0.00
 1 14 1 -53.49 0.00
 1 16 1 8.89 0.00
 1 18 1 7.08 0.00
 1 20 1 46.80 0.00
 1 22 1 18.50 0.00
 1 24 1 -6.45 0.00
 1 26 1 2.08 0.00
 1 28 1 6.31 0.00
 1 30 1 1.77 0.00
 1 32 1 1.44 0.00
 1 34 1 -6.81 0.00
 -1 33 2 6.90 0.00
 -1 31 2 -2.71 0.00
 -1 29 2 3.71 0.00
 -1 27 2 -1.65 0.00
 -1 25 2 -11.88 0.00
 -1 23 2 1.82 0.00
 -1 21 2 12.17 0.00
 -1 19 2 -11.12 0.00
 -1 17 2 -31.44 0.00
 -1 15 2 -20.38 0.00
 -1 13 2 -17.89 0.00
 -1 11 2 -114.36 0.00
 -1 9 2 -42.94 0.00
 -1 7 2 -66.98 0.00
 -1 5 2 31.42 0.00
 -1 3 2 72.20 0.00
 1 1 2 -410.70 0.00
 1 3 2 -50.29 0.00
 1 5 2 -218.36 0.00
 1 7 2 -31.50 0.00
 1 9 2 -74.96 0.00
 1 11 2 31.09 0.00
 1 13 2 -28.72 0.00
 1 15 2 41.03 0.00
 1 17 2 -9.52 0.00
 1 19 2 -20.04 0.00
 1 21 2 -8.36 0.00
 1 23 2 16.62 0.00
 1 25 2 5.17 0.00
 1 27 2 -1.14 0.00
 1 29 2 -3.95 0.00
 1 31 2 -0.37 0.00
 1 33 2 0.62 0.00
 -1 34 3 3.24 0.00
 -1 32 3 -1.92 0.00
 -1 30 3 -3.46 0.00
 -1 28 3 -5.97 0.00
 -1 26 3 -16.87 0.00
 -1 24 3 5.51 0.00
 -1 22 3 -29.36 0.00
 -1 20 3 -12.74 0.00
 -1 18 3 -46.34 0.00
 -1 16 3 -15.70 0.00
 -1 14 3 73.26 0.00
 -1 12 3 70.74 0.00
 -1 10 3 -12.29 0.00
 -1 8 3 -32.14 0.00
 -1 6 3 -43.00 0.00
 -1 4 3 115.44 0.00
 1 2 3 12.73 0.00
 1 4 3 -232.05 0.00
 1 6 3 -25.91 0.00
 1 8 3 -87.75 0.00
 1 10 3 -22.51 0.00
 1 12 3 59.27 0.00
 1 14 3 11.65 0.00
 1 16 3 -6.98 0.00
 1 18 3 -38.35 0.00
 1 20 3 20.51 0.00
 1 22 3 1.64 0.00
 1 24 3 -17.68 0.00
 1 26 3 9.22 0.00
 1 28 3 1.54 0.00
 1 30 3 -5.28 0.00
 1 32 3 -2.62 0.00
 1 34 3 -0.70 0.00
 -1 33 4 2.78 0.00
 -1 31 4 2.59 0.00
 -1 29 4 5.16 0.00
 -1 27 4 9.31 0.00
 -1 25 4 -3.97 0.00
 -1 23 4 22.08 0.00
 -1 21 4 6.88 0.00
 -1 19 4 -2.09 0.00
 -1 17 4 -25.19 0.00
 -1 15 4 24.58 0.00
 -1 13 4 21.13 0.00
 -1 11 4 1.28 0.00
 -1 9 4 39.45 0.00
 -1 7 4 13.96 0.00
 -1 5 4 16.21 0.00
 1 1 4 41.23 0.00
 1 3 4 91.84 0.00
 1 5 4 -9.92 0.00
 1 7 4 174.43 0.00
 1 9 4 42.96 0.00
 1 11 4 -22.90 0.00
 1 13 4 -6.09 0.00
 1 15 4 47.10 0.00
 1 17 4 -7.95 0.00
 1 19 4 30.33 0.00
 1 21 4 23.26 0.00
 1 23 4 19.43 0.00
 1 25 4 0.48 0.00
 1 27 4 2.10 0.00
 1 29 4 -2.64 0.00
 1 31 4 -6.37 0.00
 1 33 4 2.85 0.00
 -1 34 5 6.70 0.00
 -1 32 5 2.59 0.00
 -1 30 5 6.40 0.00
 -1 28 5 12.43 0.00
 -1 26 5 17.07 0.00
 -1 24 5 -12.78 0.00
 -1 22 5 -8.34 0.00
 -1 20 5 5.33 0.00
 -1 18 5 -5.61 0.00
 -1 16 5 -25.93 0.00
 -1 14 5 75.94 0.00
 -1 12 5 -9.90 0.00
 -1 10 5 72.45 0.00
 -1 8 5 69.14 0.00
 -1 6 5 -103.24 0.00
 1 2 5 64.81 0.00
 1 4 5 28.79 0.00
 1 6 5 -53.05 0.00
 1 8 5 22.46 0.00
 1 10 5 15.45 0.00
 1 12 5 50.29 0.00
 1 14 5 46.02 0.00
 1 16 5 -28.75 0.00
 1 18 5 -25.77 0.00
 1 20 5 -9.96 0.00
 1 22 5 15.00 0.00
 1 24 5 -13.34 0.00
 1 26 5 6.30 0.00
 1 28 5 -1.29 0.00
 1 30 5 -2.68 0.00
 1 32 5 -6.48 0.00
 1 34 5 -4.62 0.00
 -1 33 6 2.08 0.00
 -1 31 6 -4.05 0.00
 -1 29 6 0.35 0.00
 -1 27 6 14.07 0.00
 -1 25 6 -14.31 0.00
 -1 23 6 -11.85 0.00
 -1 21 6 8.95 0.00
 -1 19 6 32.96 0.00
 -1 17 6 -25.08 0.00
 -1 15 6 5.54 0.00
 -1 13 6 -14.56 0.00
 -1 11 6 -73.16 0.00
 -1 9 6 74.26 0.00
 -1 7 6 -134.52 0.00
 -1 5 6 -85.77 0.00
 -1 3 6 -32.04 0.00
 1 1 6 30.43 0.00
 1 3 6 13.53 0.00
 1 5 6 76.17 0.00
 1 7 6 79.15 0.00
 1 9 6 25.17 0.00
 1 11 6 -63.53 0.00
 1 13 6 -9.46 0.00
 1 15 6 60.47 0.00
 1 17 6 -5.04 0.00
 1 19 6 -11.08 0.00
 1 21 6 26.04 0.00
 1 23 6 20.10 0.00
 1 25 6 3.87 0.00
 1 27 6 3.77 0.00
 1 29 6 -1.90 0.00
 1 31 6 1.05 0.00
 1 33 6 -3.76 0.00
 -1 34 7 -2.32 0.00
 -1 32 7 -2.55 0.00
 -1 30 7 8.85 0.00
 -1 28 7 16.89 0.00
 -1 26 7 2.61 0.00
 -1 24 7 2.28 0.00
 -1 22 7 -8.16 0.00
 -1 20 7 -15.13 0.00
 -1 18 7 7.10 0.00
 -1 16 7 -2.70 0.00
 -1 14 7 -11.33 0.00
 -1 12 7 31.14 0.00
 -1 10 7 89.36 0.00
 -1 8 7 1.26 0.00
 -1 6 7 -124.63 0.00
 -1 4 7 -10.91 0.00
 -1 2 7 -242.31 0.00
 1 2 7 -176.67 0.00
 1 4 7 -144.67 0.00
 1 6 7 135.56 0.00
 1 8 7 -7.76 0.00
 1 10 7 -101.68 0.00
 1 12 7 45.38 0.00
 1 14 7 10.02 0.00
 1 16 7 -7.54 0.00
 1 18 7 -38.12 0.00
 1 20 7 2.67 0.00
 1 22 7 11.33 0.00
 1 24 7 -10.37 0.00
 1 26 7 -1.45 0.00
 1 28 7 -3.90 0.00
 1 30 7 -1.71 0.00
 1 32 7 -1.50 0.00
 1 34 7 -3.14 0.00
 -1 33 8 -2.91 0.00
 -1 31 8 -11.32 0.00
 -1 29 8 -0.51 0.00
 -1 27 8 22.75 0.00
 -1 25 8 12.15 0.00
 -1 23 8 11.93 0.00
 -1 21 8 14.67 0.00
 -1 19 8 23.15 0.00
 -1 17 8 14.52 0.00
 -1 15 8 9.22 0.00
 -1 13 8 -16.19 0.00
 -1 11 8 19.32 0.00
 -1 9 8 -10.42 0.00
 -1 7 8 -39.23 0.00
 -1 5 8 18.20 0.00
 -1 3 8 13.25 0.00
 1 1 8 90.42 0.00
 1 3 8 -292.64 0.00
 1 5 8 0.54 0.00
 1 7 8 205.49 0.00
 1 9 8 -3.88 0.00
 1 11 8 -5.28 0.00
 1 13 8 72.43 0.00
 1 15 8 68.13 0.00
 1 17 8 0.68 0.00
 1 19 8 2.27 0.00
 1 21 8 27.64 0.00
 1 23 8 19.47 0.00
 1 25 8 8.22 0.00
 1 27 8 -2.50 0.00
 1 29 8 -2.93 0.00
 1 31 8 -2.66 0.00
 1 33 8 3.50 0.00
 -1 32 9 -2.18 0.00
 -1 30 9 -5.75 0.00
 -1 28 9 7.49 0.00
 -1 26 9 -2.83 0.00
 -1 24 9 -1.26 0.00
 -1 22 9 -32.92 0.00
 -1 20 9 -8.35 0.00
 -1 18 9 -10.91 0.00
 -1 16 9 -51.46 0.00
 -1 14 9 8.28 0.00
 -1 12 9 -32.18 0.00
 -1 10 9 66.32 0.00
 -1 8 9 12.11 0.00
 -1 6 9 -142.02 0.00
 -1 4 9 -86.60 0.00
 -1 2 9 -53.06 0.00
 1 2 9 -11.10 0.00
 1 4 9 -105.99 0.00
 1 6 9 101.14 0.00
 1 8 9 -4.66 0.00
 1 10 9 -34.00 0.00
 1 12 9 -42.73 0.00
 1 14 9 4.29 0.00
 1 16 9 -4.99 0.00
 1 18 9 -41.45 0.00
 1 20 9 -1.82 0.00
 1 22 9 3.89 0.00
 1 24 9 -1.28 0.00
 1 26 9 -17.56 0.00
 1 28 9 -4.34 0.00
 1 30 9 1.28 0.00
 1 32 9 -0.15 0.00
 -1 33 10 -0.36 0.00
 -1 31 10 3.22 0.00
 -1 29 10 5.11 0.00
 -1 27 10 10.32 0.00
 -1 25 10 5.56 0.00
 -1 23 10 8.20 0.00
 -1 21 10 -10.51 0.00
 -1 19 10 23.71 0.00
 -1 17 10 -1.26 0.00
 -1 15 10 -61.07 0.00
 -1 13 10 -66.78 0.00
 -1 11 10 -33.62 0.00
 -1 9 10 30.53 0.00
 -1 7 10 26.11 0.00
 -1 5 10 24.62 0.00
 -1 3 10 63.48 0.00
 1 1 10 27.51 0.00
 1 3 10 -194.72 0.00
 1 5 10 -14.14 0.00
 1 7 10 26.44 0.00
 1 9 10 16.03 0.00
 1 11 10 -48.44 0.00
 1 13 10 61.34 0.00
 1 15 10 64.33 0.00
 1 17 10 0.58 0.00
 1 19 10 -34.96 0.00
 1 21 10 1.14 0.00
 1 23 10 11.44 0.00
 1 25 10 -3.28 0.00
 1 27 10 -4.60 0.00
 1 29 10 -2.97 0.00
 1 31 10 -3.84 0.00
 1 33 10 0.11 0.00
 -1 32 11 -1.39 0.00
 -1 30 11 -1.96 0.00
 -1 28 11 9.29 0.00
 -1 26 11 0.03 0.00
 -1 24 11 -5.30 0.00
 -1 22 11 -12.31 0.00
 -1 20 11 -5.14 0.00
 -1 18 11 17.27 0.00
 -1 16 11 -19.46 0.00
 -1 14 11 28.10 0.00
 -1 12 11 -20.95 0.00
 -1 10 11 46.65 0.00
 -1 8 11 -18.43 0.00
 -1 6 11 -54.64 0.00
 -1 4 11 -49.98 0.00
 -1 2 11 -49.56 0.00
 1 2 11 5.39 0.00
 1 4 11 -66.70 0.00
 1 6 11 49.50 0.00
 1 8 11 -21.08 0.00
 1 10 11 -30.75 0.00
 1 12 11 0.13 0.00
 1 14 11 49.84 0.00
 1 16 11 5.80 0.00
 1 18 11 -30.53 0.00
 1 20 11 9.31 0.00
 1 22 11 34.17 0.00
 1 24 11 -1.52 0.00
 1 26 11 -5.06 0.00
 1 28 11 2.14 0.00
 1 30 11 2.53 0.00
 1 32 11 8.52 0.00
 -1 31 12 -1.66 0.00
 -1 29 12 0.52 0.00
 -1 27 12 14.83 0.00
 -1 25 12 2.59 0.00
 -1 23 12 -10.79 0.00
 -1 21 12 4.40 0.00
 -1 19 12 11.07 0.00
 -1 17 12 -4.96 0.00
 -1 15 12 1.86 0.00
 -1 13 12 -15.92 0.00
 -1 11 12 7.90 0.00
 -1 9 12 29.84 0.00
 -1 7 12 -20.21 0.00
 -1 5 12 22.76 0.00
 -1 3 12 94.26 0.00
 1 1 12 -8.14 0.00
 1 3 12 -42.11 0.00
 1 5 12 13.36 0.00
 1 7 12 11.16 0.00
 1 9 12 16.58 0.00
 1 11 12 -45.64 0.00
 1 13 12 0.59 0.00
 1 15 12 28.11 0.00
 1 17 12 18.48 0.00
 1 19 12 -21.65 0.00
 1 21 12 10.07 0.00
 1 23 12 4.31 0.00
 1 25 12 7.79 0.00
 1 27 12 -14.89 0.00
 1 29 12 -2.59 0.00
 1 31 12 1.40 0.00
 -1 32 13 0.39 0.00
 -1 30 13 -7.98 0.00
 -1 28 13 1.23 0.00
 -1 26 13 1.81 0.00
 -1 24 13 -15.61 0.00
 -1 22 13 -17.19 0.00
 -1 20 13 -18.64 0.00
 -1 18 13 6.10 0.00
 -1 16 13 -9.33 0.00
 -1 14 13 22.26 0.00
 -1 12 13 -4.45 0.00
 -1 10 13 25.61 0.00
 -1 8 13 -7.42 0.00
 -1 6 13 -83.33 0.00
 -1 4 13 15.30 0.00
 -1 2 13 -35.73 0.00
 1 2 13 8.03 0.00
 1 4 13 -44.83 0.00
 1 6 13 25.94 0.00
 1 8 13 -29.43 0.00
 1 10 13 4.32 0.00
 1 12 13 -9.23 0.00
 1 14 13 -12.08 0.00
 1 16 13 19.58 0.00
 1 18 13 -0.58 0.00
 1 20 13 -5.81 0.00
 1 22 13 17.32 0.00
 1 24 13 -2.36 0.00
 1 26 13 1.08 0.00
 1 28 13 2.97 0.00
 1 30 13 3.82 0.00
 1 32 13 6.82 0.00
 -1 31 14 -9.50 0.00
 -1 29 14 -0.69 0.00
 -1 27 14 1.94 0.00
 -1 25 14 -2.30 0.00
 -1 23 14 9.77 0.00
 -1 21 14 -2.22 0.00
 -1 19 14 1.47 0.00
 -1 17 14 21.24 0.00
 -1 15 14 5.02 0.00
 -1 13 14 3.25 0.00
 -1 11 14 -11.98 0.00
 -1 9 14 21.74 0.00
 -1 7 14 -13.11 0.00
 -1 5 14 -54.61 0.00
 -1 3 14 -2.83 0.00
 1 1 14 13.03 0.00
 1 3 14 -31.71 0.00
 1 5 14 8.50 0.00
 1 7 14 59.40 0.00
 1 9 14 -7.50 0.00
 1 11 14 -51.63 0.00
 1 13 14 -36.79 0.00
 1 15 14 16.17 0.00
 1 17 14 3.24 0.00
 1 19 14 -4.88 0.00
 1 21 14 4.90 0.00
 1 23 14 8.78 0.00
 1 25 14 0.28 0.00
 1 27 14 -7.53 0.00
 1 29 14 -3.78 0.00
 1 31 14 -0.57 0.00
 -1 30 15 -2.53 0.00
 -1 28 15 -3.43 0.00
 -1 26 15 -18.37 0.00
 -1 24 15 -7.27 0.00
 -1 22 15 -4.53 0.00
 -1 20 15 -10.93 0.00
 -1 18 15 -7.57 0.00
 -1 16 15 -0.65 0.00
 -1 14 15 1.19 0.00
 -1 12 15 -12.31 0.00
 -1 10 15 28.13 0.00
 -1 8 15 8.25 0.00
 -1 6 15 -28.61 0.00
 -1 4 15 40.70 0.00
 -1 2 15 -77.50 0.00
 1 2 15 -38.70 0.00
 1 4 15 -60.50 0.00
 1 6 15 53.30 0.00
 1 8 15 -13.00 0.00
 1 10 15 -6.57 0.00
 1 12 15 22.73 0.00
 1 14 15 -8.46 0.00
 1 16 15 6.83 0.00
 1 18 15 9.31 0.00
 1 20 15 -1.62 0.00
 1 22 15 -2.22 0.00
 1 24 15 1.98 0.00
 1 26 15 7.25 0.00
 1 28 15 0.54 0.00
 1 30 15 2.95 0.00
 -1 31 16 -5.16 0.00
 -1 29 16 -3.11 0.00
 -1 27 16 3.45 0.00
 -1 25 16 -1.10 0.00
 -1 23 16 -1.05 0.00
 -1 21 16 13.19 0.00
 -1 19 16 12.34 0.00
 -1 17 16 -0.84 0.00
 -1 15 16 17.99 0.00
 -1 13 16 4.47 0.00
 -1 11 16 -16.70 0.00
 -1 9 16 24.42 0.00
 -1 7 16 -18.76 0.00
 -1 5 16 35.41 0.00
 -1 3 16 14.63 0.00
 1 1 16 41.64 0.00
 1 3 16 -12.64 0.00
 1 5 16 -2.26 0.00
 1 7 16 46.58 0.00
 1 9 16 0.83 0.00
 1 11 16 -17.54 0.00
 1 13 16 0.21 0.00
 1 15 16 8.82 0.00
 1 17 16 6.63 0.00
 1 19 16 11.14 0.00
 1 21 16 -1.54 0.00
 1 23 16 6.02 0.00
 1 25 16 2.28 0.00
 1 27 16 -3.16 0.00
 1 29 16 -7.60 0.00
 1 31 16 -4.61 0.00
 -1 30 17 -2.46 0.00
 -1 28 17 -0.68 0.00
 -1 26 17 -8.60 0.00
 -1 24 17 3.38 0.00
 -1 22 17 -6.37 0.00
 -1 20 17 -1.39 0.00
 -1 18 17 -12.30 0.00
 -1 16 17 -12.43 0.00
 -1 14 17 6.29 0.00
 -1 12 17 7.33 0.00
 -1 10 17 0.85 0.00
 -1 8 17 8.22 0.00
 -1 6 17 -36.43 0.00
 -1 4 17 34.07 0.00
 -1 2 17 -81.79 0.00
 1 2 17 -19.69 0.00
 1 4 17 -24.41 0.00
 1 6 17 0.00 0.00
 1 8 17 -17.43 0.00
 1 10 17 -12.81 0.00
 1 12 17 32.18 0.00
 1 14 17 -26.95 0.00
 1 16 17 -1.74 0.00
 1 18 17 5.62 0.00
 1 20 17 3.27 0.00
 1 22 17 -7.32 0.00
 1 24 17 -1.49 0.00
 1 26 17 4.59 0.00
 1 28 17 4.15 0.00
 1 30 17 -0.18 0.00
 -1 29 18 -2.53 0.00
 -1 27 18 -2.36 0.00
 -1 25 18 -5.07 0.00
 -1 23 18 3.09 0.00
 -1 21 18 4.72 0.00
 -1 19 18 -4.54 0.00
 -1 17 18 -7.45 0.00
 -1 15 18 -10.19 0.00
 -1 13 18 12.75 0.00
 -1 11 18 -14.70 0.00
 -1 9 18 14.77 0.00
 -1 7 18 -21.17 0.00
 -1 5 18 4.79 0.00
 -1 3 18 3.09 0.00
 1 1 18 4.82 0.00
 1 3 18 -12.76 0.00
 1 5 18 -20.32 0.00
 1 7 18 23.02 0.00
 1 9 18 -10.51 0.00
 1 11 18 8.68 0.00
 1 13 18 -11.27 0.00
 1 15 18 14.04 0.00
 1 17 18 4.12 0.00
 1 19 18 -1.05 0.00
 1 21 18 -3.47 0.00
 1 23 18 -1.40 0.00
 1 25 18 -6.28 0.00
 1 27 18 7.60 0.00
 1 29 18 2.39 0.00
 -1 28 19 7.00 0.00
 -1 26 19 -4.07 0.00
 -1 24 19 -0.08 0.00
 -1 22 19 -1.78 0.00
 -1 20 19 5.96 0.00
 -1 18 19 -10.27 0.00
 -1 16 19 -4.52 0.00
 -1 14 19 6.50 0.00
 -1 12 19 10.44 0.00
 -1 10 19 -23.35 0.00
 -1 8 19 10.69 0.00
 -1 6 19 -31.87 0.00
 -1 4 19 15.18 0.00
 -1 2 19 -72.56 0.00
 1 2 19 -2.27 0.00
 1 4 19 -27.44 0.00
 1 6 19 -1.96 0.00
 1 8 19 10.68 0.00
 1 10 19 -1.16 0.00
 1 12 19 23.85 0.00
 1 14 19 -17.37 0.00
 1 16 19 -3.50 0.00
 1 18 19 -2.55 0.00
 1 20 19 4.33 0.00
 1 22 19 -6.86 0.00
 1 24 19 -1.82 0.00
 1 26 19 6.81 0.00
 1 28 19 9.73 0.00
 -1 27 20 -1.84 0.00
 -1 25 20 -0.41 0.00
 -1 23 20 2.87 0.00
 -1 21 20 5.51 0.00
 -1 19 20 3.94 0.00
 -1 17 20 6.22 0.00
 -1 15 20 -6.62 0.00
 -1 13 20 9.20 0.00
 -1 11 20 -19.91 0.00
 -1 9 20 13.42 0.00
 -1 7 20 11.12 0.00
 -1 5 20 44.55 0.00
 -1 3 20 -3.03 0.00
 1 1 20 15.46 0.00
 1 3 20 8.10 0.00
 1 5 20 -9.17 0.00
 1 7 20 15.55 0.00
 1 9 20 -0.82 0.00
 1 11 20 16.63 0.00
 1 13 20 -10.22 0.00
 1 15 20 1.88 0.00
 1 17 20 6.17 0.00
 1 19 20 8.85 0.00
 1 21 20 -2.71 0.00
 1 23 20 2.03 0.00
 1 25 20 -0.75 0.00
 1 27 20 0.05 0.00
 -1 26 21 -7.25 0.00
 -1 24 21 8.03 0.00
 -1 22 21 -7.14 0.00
 -1 20 21 -0.52 0.00
 -1 18 21 -13.16 0.00
 -1 16 21 -7.16 0.00
 -1 14 21 9.93 0.00
 -1 12 21 -16.98 0.00
 -1 10 21 -26.76 0.00
 -1 8 21 5.81 0.00
 -1 6 21 -34.14 0.00
 -1 4 21 2.08 0.00
 -1 2 21 -75.62 0.00
 1 2 21 -6.05 0.00
 1 4 21 -6.76 0.00
 1 6 21 -20.61 0.00
 1 8 21 -10.83 0.00
 1 10 21 -0.81 0.00
 1 12 21 9.63 0.00
 1 14 21 -28.47 0.00
 1 16 21 -6.43 0.00
 1 18 21 -0.71 0.00
 1 20 21 14.49 0.00
 1 22 21 -4.49 0.00
 1 24 21 -5.65 0.00
 1 26 21 10.34 0.00
 -1 27 22 -0.85 0.00
 -1 25 22 -4.27 0.00
 -1 23 22 5.05 0.00
 -1 21 22 -0.40 0.00
 -1 19 22 -8.78 0.00
 -1 17 22 4.09 0.00
 -1 15 22 -0.61 0.00
 -1 13 22 7.39 0.00
 -1 11 22 -23.11 0.00
 -1 9 22 13.06 0.00
 -1 7 22 7.96 0.00
 -1 5 22 18.76 0.00
 -1 3 22 9.90 0.00
 1 1 22 4.12 0.00
 1 3 22 12.43 0.00
 1 5 22 -17.94 0.00
 1 7 22 3.15 0.00
 1 9 22 -12.51 0.00
 1 11 22 4.17 0.00
 1 13 22 4.98 0.00
 1 15 22 -9.77 0.00
 1 17 22 -5.26 0.00
 1 19 22 8.22 0.00
 1 21 22 -1.42 0.00
 1 23 22 0.18 0.00
 1 25 22 -0.44 0.00
 1 27 22 8.47 0.00
 -1 26 23 0.02 0.00
 -1 24 23 -4.75 0.00
 -1 22 23 2.82 0.00
 -1 20 23 -6.45 0.00
 -1 18 23 -15.56 0.00
 -1 16 23 0.23 0.00
 -1 14 23 10.49 0.00
 -1 12 23 -8.25 0.00
 -1 10 23 1.46 0.00
 -1 8 23 12.01 0.00
 -1 6 23 -25.48 0.00
 -1 4 23 8.07 0.00
 -1 2 23 -32.33 0.00
 1 2 23 6.34 0.00
 1 4 23 -7.14 0.00
 1 6 23 11.44 0.00
 1 8 23 9.12 0.00
 1 10 23 -6.12 0.00
 1 12 23 16.09 0.00
 1 14 23 -7.19 0.00
 1 16 23 0.94 0.00
 1 18 23 -5.59 0.00
 1 20 23 5.22 0.00
 1 22 23 6.21 0.00
 1 24 23 -13.02 0.00
 1 26 23 -2.06 0.00
 -1 25 24 -8.63 0.00
 -1 23 24 2.23 0.00
 -1 21 24 4.72 0.00
 -1 19 24 -1.49 0.00
 -1 17 24 0.16 0.00
 -1 15 24 6.21 0.00
 -1 13 24 0.40 0.00
 -1 11 24 -9.40 0.00
 -1 9 24 0.06 0.00
 -1 7 24 -1.46 0.00
 -1 5 24 12.95 0.00
 -1 3 24 9.26 0.00
 1 1 24 16.24 0.00
 1 3 24 -18.69 0.00
 1 5 24 -5.08 0.00
 1 7 24 15.78 0.00
 1 9 24 -4.72 0.00
 1 11 24 -10.21 0.00
 1 13 24 -1.97 0.00
 1 15 24 6.31 0.00
 1 17 24 -1.91 0.00
 1 19 24 -6.72 0.00
 1 21 24 -0.53 0.00
 1 23 24 6.61 0.00
 1 25 24 -5.61 0.00
 -1 24 25 -3.37 0.00
 -1 22 25 1.98 0.00
 -1 20 25 -2.92 0.00
 -1 18 25 -3.00 0.00
 -1 16 25 -0.95 0.00
 -1 14 25 6.19 0.00
 -1 12 25 -1.27 0.00
 -1 10 25 -1.75 0.00
 -1 8 25 -4.35 0.00
 -1 6 25 -19.32 0.00
 -1 4 25 8.75 0.00
 -1 2 25 -21.56 0.00
 1 2 25 -12.43 0.00
 1 4 25 -18.53 0.00
 1 6 25 2.87 0.00
 1 8 25 -9.53 0.00
 1 10 25 -13.07 0.00
 1 12 25 -2.29 0.00
 1 14 25 -3.89 0.00
 1 16 25 7.24 0.00
 1 18 25 -1.83 0.00
 1 20 25 0.62 0.00
 1 22 25 -0.60 0.00
 1 24 25 -3.37 0.00
 -1 23 26 -3.34 0.00
 -1 21 26 2.39 0.00
 -1 19 26 0.88 0.00
 -1 17 26 -2.18 0.00
 -1 15 26 0.22 0.00
 -1 13 26 -2.10 0.00
 -1 11 26 7.66 0.00
 -1 9 26 -0.98 0.00
 -1 7 26 -8.02 0.00
 -1 5 26 6.51 0.00
 -1 3 26 10.89 0.00
 1 1 26 10.25 0.00
 1 3 26 -3.06 0.00
 1 5 26 1.58 0.00
 1 7 26 9.46 0.00
 1 9 26 -0.59 0.00
 1 11 26 -11.33 0.00
 1 13 26 -3.37 0.00
 1 15 26 -2.09 0.00
 1 17 26 -2.66 0.00
 1 19 26 -3.07 0.00
 1 21 26 1.68 0.00
 1 23 26 1.63 0.00
 -1 22 27 -9.50 0.00
 -1 20 27 -4.49 0.00
 -1 18 27 9.35 0.00
 -1 16 27 -0.24 0.00
 -1 14 27 -2.64 0.00
 -1 12 27 4.38 0.00
 -1 10 27 13.08 0.00
 -1 8 27 -1.06 0.00
 -1 6 27 -12.02 0.00
 -1 4 27 4.68 0.00
 -1 2 27 0.46 0.00
 1 2 27 -6.58 0.00
 1 4 27 -27.16 0.00
 1 6 27 2.27 0.00
 1 8 27 2.95 0.00
 1 10 27 -4.56 0.00
 1 12 27 -2.17 0.00
 1 14 27 -7.73 0.00
 1 16 27 -3.70 0.00
 1 18 27 -2.32 0.00
 1 20 27 4.56 0.00
 1 22 27 -3.12 0.00
 -1 19 28 1.33 0.00
 -1 17 28 8.38 0.00
 -1 15 28 -3.15 0.00
 -1 13 28 -3.50 0.00
 -1 11 28 8.04 0.00
 -1 9 28 3.50 0.00
 -1 7 28 -4.81 0.00
 -1 5 28 -6.73 0.00
 -1 3 28 8.09 0.00
 1 1 28 13.42 0.00
 1 3 28 -4.06 0.00
 1 5 28 12.71 0.00
 1 7 28 20.53 0.00
 1 9 28 6.42 0.00
 1 11 28 -5.16 0.00
 1 13 28 3.37 0.00
 1 15 28 0.31 0.00
 1 17 28 2.02 0.00
 1 19 28 -5.86 0.00
 -1 18 29 9.15 0.00
 -1 16 29 -2.18 0.00
 -1 14 29 -3.94 0.00
 -1 12 29 -0.99 0.00
 -1 10 29 6.53 0.00
 -1 8 29 -3.13 0.00
 -1 6 29 -12.18 0.00
 -1 4 29 3.36 0.00
 -1 2 29 -1.17 0.00
 1 2 29 -13.09 0.00
 1 4 29 -24.79 0.00
 1 6 29 5.11 0.00
 1 8 29 -4.65 0.00
 1 10 29 -0.91 0.00
 1 12 29 -3.06 0.00
 1 14 29 -0.09 0.00
 1 16 29 2.19 0.00
 1 18 29 -1.64 0.00
 -1 17 30 2.89 0.00
 -1 15 30 2.86 0.00
 -1 13 30 0.98 0.00
 -1 11 30 4.69 0.00
 -1 9 30 1.23 0.00
 -1 7 30 -1.31 0.00
 -1 5 30 2.15 0.00
 -1 3 30 12.22 0.00
 1 1 30 3.93 0.00
 1 3 30 -6.06 0.00
 1 5 30 12.10 0.00
 1 7 30 0.01 0.00
 1 9 30 -9.38 0.00
 1 11 30 1.90 0.00
 1 13 30 9.60 0.00
 1 15 30 -1.52 0.00
 1 17 30 -0.56 0.00
 -1 14 31 2.45 0.00
 -1 12 31 -1.94 0.00
 -1 10 31 10.76 0.00
 -1 8 31 -0.45 0.00
 -1 6 31 -8.10 0.00
 -1 4 31 0.71 0.00
 -1 2 31 -3.47 0.00
 1 2 31 -4.66 0.00
 1 4 31 -6.92 0.00
 1 6 31 13.29 0.00
 1 8 31 -4.89 0.00
 1 10 31 3.38 0.00
 1 12 31 1.91 0.00
 1 14 31 1.80 0.00
 -1 13 32 3.78 0.00
 -1 11 32 1.83 0.00
 -1 9 32 3.32 0.00
 -1 7 32 2.12 0.00
 -1 5 32 1.97 0.00
 -1 3 32 9.32 0.00
 1 1 32 -1.19 0.00
 1 3 32 -6.55 0.00
 1 5 32 2.79 0.00
 1 7 32 9.99 0.00
 1 9 32 6.28 0.00
 1 11 32 -0.25 0.00
 1 13 32 7.83 0.00
 -1 10 33 1.14 0.00
 -1 8 33 -5.46 0.00
 -1 6 33 -17.77 0.00
 -1 4 33 -7.73 0.00
 -1 2 33 -6.98 0.00
 1 2 33 -3.20 0.00
 1 4 33 -9.33 0.00
 1 6 33 14.65 0.00
 1 8 33 7.53 0.00
 1 10 33 5.94 0.00
 -1 7 34 -8.96 0.00
 -1 5 34 1.47 0.00
 -1 3 34 7.98 0.00
 1 1 34 4.59 0.00
 1 3 34 -5.88 0.00
 1 5 34 0.10 0.00
 1 7 34 -0.12 0.00
 -2 32 0 -0.89 0.00
 -2 30 0 -3.49 0.00
 -2 28 0 13.37 0.00
 -2 26 0 -1.74 0.00
 -2 24 0 2.68 0.00
 -2 22 0 18.75 0.00
 -2 20 0 3.10 0.00
 -2 18 0 41.69 0.00
 -2 16 0 -26.80 0.00
 -2 14 0 -4.84 0.00
 -2 12 0 23.57 0.00
 -2 10 0 -7.04 0.00
 -2 8 0 -13.89 0.00
 -2 6 0 74.51 0.00
 -2 4 0 596.46 0.00
 2 2 0 -69.86 0.00
 2 4 0 -53.24 0.00
 2 6 0 294.75 0.00
 2 10 0 -53.23 0.00
 2 12 0 106.47 0.00
 2 14 0 54.17 0.00
 2 16 0 7.28 0.00
 2 18 0 1.64 0.00
 2 20 0 21.08 0.00
 2 22 0 38.72 0.00
 2 24 0 -7.75 0.00
 2 26 0 5.53 0.00
 2 28 0 14.35 0.00
 2 30 0 9.06 0.00
 2 32 0 -0.15 0.00
 -2 33 1 -0.16 0.00
 -2 31 1 8.96 0.00
 -2 29 1 8.36 0.00
 -2 27 1 11.39 0.00
 -2 25 1 -9.04 0.00
 -2 23 1 -17.60 0.00
 -2 21 1 6.58 0.00
 -2 19 1 5.89 0.00
 -2 17 1 55.55 0.00
 -2 15 1 -18.56 0.00
 -2 13 1 56.96 0.00
 -2 11 1 -53.89 0.00
 -2 9 1 -27.07 0.00
 -2 7 1 -135.16 0.00
 -2 5 1 4.33 0.00
 -2 3 1 -151.94 0.00
 -1 2 1 -336.80 0.00
 2 3 1 239.00 0.00
 2 5 1 161.04 0.00
 2 7 1 -8.64 0.00
 2 9 1 -57.94 0.00
 2 11 1 72.59 0.00
 2 13 1 2.60 0.00
 2 15 1 23.05 0.00
 2 17 1 -27.49 0.00
 2 19 1 19.84 0.00
 2 21 1 -17.25 0.00
 2 23 1 0.95 0.00
 2 25 1 -8.73 0.00
 2 27 1 1.42 0.00
 2 29 1 9.90 0.00
 2 31 1 -3.42 0.00
 2 33 1 -4.83 0.00
 -2 32 2 -2.04 0.00
 -2 30 2 -6.54 0.00
 -2 28 2 9.79 0.00
 -2 26 2 -10.59 0.00
 -2 24 2 -7.83 0.00
 -2 22 2 -0.09 0.00
 -2 20 2 15.04 0.00
 -2 18 2 24.92 0.00
 -2 16 2 -68.01 0.00
 -2 14 2 -16.85 0.00
 -2 12 2 75.16 0.00
 -2 10 2 -69.94 0.00
 -2 8 2 50.41 0.00
 -2 6 2 -16.76 0.00
 -2 4 2 41.47 0.00
 2 2 2 -48.35 0.00
 2 4 2 -176.00 0.00
 2 6 2 24.04 0.00
 2 8 2 -164.86 0.00
 2 10 2 -49.95 0.00
 2 12 2 33.92 0.00
 2 14 2 -40.88 0.00
 2 16 2 23.16 0.00
 2 18 2 -4.33 0.00
 2 20 2 -24.91 0.00
 2 22 2 19.99 0.00
 2 24 2 9.84 0.00
 2 26 2 -15.60 0.00
 2 28 2 1.00 0.00
 2 30 2 6.19 0.00
 2 32 2 -1.87 0.00
 2 34 2 -1.94 0.00
 -2 33 3 3.78 0.00
 -2 31 3 8.17 0.00
 -2 29 3 3.08 0.00
 -2 27 3 -1.09 0.00
 -2 25 3 -2.44 0.00
 -2 23 3 -22.24 0.00
 -2 21 3 -4.24 0.00
 -2 19 3 30.68 0.00
 -2 17 3 69.10 0.00
 -2 15 3 -35.90 0.00
 -2 13 3 31.46 0.00
 -2 11 3 25.86 0.00
 -2 9 3 -120.85 0.00
 -2 7 3 -6.20 0.00
 -2 5 3 20.23 0.00
 -2 3 3 39.56 0.00
 -1 2 3 -239.15 0.00
 2 3 3 -5.85 0.00
 2 5 3 -66.22 0.00
 2 7 3 -75.05 0.00
 2 9 3 -34.37 0.00
 2 11 3 84.97 0.00
 2 13 3 -24.52 0.00
 2 15 3 27.42 0.00
 2 17 3 -46.21 0.00
 2 19 3 7.62 0.00
 2 21 3 3.46 0.00
 2 23 3 9.75 0.00
 2 25 3 -9.84 0.00
 2 27 3 7.72 0.00
 2 29 3 6.73 0.00
 2 31 3 -1.95 0.00
 2 33 3 -5.80 0.00
 -2 34 4 -2.85 0.00
 -2 32 4 1.03 0.00
 -2 30 4 -1.58 0.00
 -2 28 4 12.87 0.00
 -2 26 4 -3.17 0.00
 -2 24 4 15.46 0.00
 -2 22 4 13.59 0.00
 -2 20 4 -17.21 0.00
 -2 18 4 19.32 0.00
 -2 16 4 -17.37 0.00
 -2 14 4 20.45 0.00
 -2 12 4 57.27 0.00
 -2 10 4 38.97 0.00
 -2 8 4 30.60 0.00
 -2 6 4 -78.82 0.00
 -2 4 4 -30.79 0.00
 2 2 4 223.28 0.00
 2 4 4 -56.94 0.00
 2 6 4 49.23 0.00
 2 8 4 -7.43 0.00
 2 10 4 -35.53 0.00
 2 12 4 -61.34 0.00
 2 14 4 -40.42 0.00
 2 16 4 16.05 0.00
 2 18 4 25.36 0.00
 2 20 4 -10.74 0.00
 2 22 4 5.84 0.00
 2 24 4 1.59 0.00
 2 26 4 -19.85 0.00
 2 28 4 -5.77 0.00
 2 30 4 -8.69 0.00
 2 32 4 -1.75 0.00
 2 34 4 -2.33 0.00
 -2 33 5 -1.25 0.00
 -2 31 5 2.57 0.00
 -2 29 5 -6.26 0.00
 -2 27 5 -0.67 0.00
 -2 25 5 -16.55 0.00
 -2 23 5 -24.82 0.00
 -2 21 5 -12.76 0.00
 -2 19 5 -0.83 0.00
 -2 17 5 43.33 0.00
 -2 15 5 -64.26 0.00
 -2 13 5 -59.91 0.00
 -2 11 5 -64.75 0.00
 -2 9 5 -139.28 0.00
 -2 7 5 -86.59 0.00
 -2 5 5 -118.29 0.00
 -1 2 5 -142.91 0.00
 2 3 5 42.90 0.00
 2 5 5 54.64 0.00
 2 7 5 -77.29 0.00
 2 9 5 70.45 0.00
 2 11 5 23.88 0.00
 2 13 5 -4.67 0.00
 2 15 5 -45.28 0.00
 2 17 5 -10.79 0.00
 2 19 5 -17.42 0.00
 2 21 5 -23.70 0.00
 2 23 5 10.42 0.00
 2 25 5 -6.76 0.00
 2 27 5 -6.73 0.00
 2 29 5 4.32 0.00
 2 31 5 -1.60 0.00
 2 33 5 -4.97 0.00
 -2 34 6 0.13 0.00
 -2 32 6 4.57 0.00
 -2 30 6 -3.69 0.00
 -2 28 6 15.21 0.00
 -2 26 6 10.81 0.00
 -2 24 6 -1.92 0.00
 -2 22 6 27.06 0.00
 -2 20 6 -3.45 0.00
 -2 18 6 38.12 0.00
 -2 16 6 -30.41 0.00
 -2 14 6 11.34 0.00
 -2 12 6 13.57 0.00
 -2 10 6 30.67 0.00
 -2 8 6 71.35 0.00
 -2 6 6 -85.51 0.00
 -2 4 6 8.87 0.00
 2 2 6 14.71 0.00
 2 4 6 36.38 0.00
 2 6 6 31.50 0.00
 2 8 6 3.80 0.00
 2 10 6 -26.96 0.00
 2 12 6 -36.99 0.00
 2 14 6 -78.01 0.00
 2 16 6 44.76 0.00
 2 18 6 -14.71 0.00
 2 20 6 -49.04 0.00
 2 22 6 5.55 0.00
 2 24 6 8.90 0.00
 2 26 6 -8.30 0.00
 2 28 6 -0.87 0.00
 2 30 6 -1.52 0.00
 2 32 6 -1.71 0.00
 2 34 6 -6.87 0.00
 -2 33 7 -7.00 0.00
 -2 31 7 4.56 0.00
 -2 29 7 -6.20 0.00
 -2 27 7 -6.01 0.00
 -2 25 7 4.91 0.00
 -2 23 7 3.07 0.00
 -2 21 7 -10.31 0.00
 -2 19 7 -18.40 0.00
 -2 17 7 63.16 0.00
 -2 15 7 -30.77 0.00
 -2 13 7 -77.33 0.00
 -2 11 7 9.45 0.00
 -2 9 7 -47.65 0.00
 -2 7 7 -162.45 0.00
 -2 5 7 -46.62 0.00
 -2 3 7 -35.11 0.00
 2 3 7 -8.17 0.00
 2 5 7 26.67 0.00
 2 7 7 -76.12 0.00
 2 9 7 17.39 0.00
 2 11 7 27.79 0.00
 2 13 7 2.89 0.00
 2 15 7 6.32 0.00
 2 17 7 6.72 0.00
 2 19 7 -12.10 0.00
 2 21 7 -19.33 0.00
 2 23 7 -9.17 0.00
 2 25 7 13.80 0.00
 2 27 7 -3.25 0.00
 2 29 7 4.42 0.00
 2 31 7 5.78 0.00
 2 33 7 2.46 0.00
 -2 32 8 3.93 0.00
 -2 30 8 -5.46 0.00
 -2 28 8 12.60 0.00
 -2 26 8 2.60 0.00
 -2 24 8 11.59 0.00
 -2 22 8 14.15 0.00
 -2 20 8 -8.76 0.00
 -2 18 8 34.20 0.00
 -2 16 8 15.27 0.00
 -2 14 8 -23.48 0.00
 -2 12 8 35.94 0.00
 -2 10 8 52.43 0.00
 -2 8 8 63.36 0.00
 -2 6 8 -10.91 0.00
 -2 4 8 192.91 0.00
 2 2 8 49.65 0.00
 2 4 8 -96.98 0.00
 2 6 8 64.31 0.00
 2 8 8 73.11 0.00
 2 10 8 -14.37 0.00
 2 12 8 -9.65 0.00
 2 14 8 -55.79 0.00
 2 16 8 13.92 0.00
 2 18 8 -6.48 0.00
 2 20 8 -23.85 0.00
 2 22 8 -15.18 0.00
 2 24 8 15.65 0.00
 2 26 8 -16.70 0.00
 2 28 8 -6.84 0.00
 2 30 8 5.93 0.00
 2 32 8 8.60 0.00
 -2 33 9 -0.56 0.00
 -2 31 9 -6.57 0.00
 -2 29 9 -13.59 0.00
 -2 27 9 -0.43 0.00
 -2 25 9 2.05 0.00
 -2 23 9 6.44 0.00
 -2 21 9 -11.71 0.00
 -2 19 9 10.41 0.00
 -2 17 9 40.26 0.00
 -2 15 9 -1.21 0.00
 -2 13 9 -33.08 0.00
 -2 11 9 -7.33 0.00
 -2 9 9 -66.42 0.00
 -2 7 9 -17.72 0.00
 -2 5 9 -150.42 0.00
 -2 3 9 -28.58 0.00
 2 3 9 2.92 0.00
 2 5 9 17.92 0.00
 2 7 9 -106.22 0.00
 2 9 9 39.94 0.00
 2 11 9 -8.85 0.00
 2 13 9 -42.18 0.00
 2 15 9 9.52 0.00
 2 17 9 21.92 0.00
 2 19 9 -7.15 0.00
 2 21 9 -18.48 0.00
 2 23 9 0.36 0.00
 2 25 9 2.69 0.00
 2 27 9 -11.92 0.00
 2 29 9 7.41 0.00
 2 31 9 -1.55 0.00
 2 33 9 3.88 0.00
 -2 32 10 -0.92 0.00
 -2 30 10 1.13 0.00
 -2 28 10 -3.39 0.00
 -2 26 10 -9.24 0.00
 -2 24 10 -1.44 0.00
 -2 22 10 8.21 0.00
 -2 20 10 -16.36 0.00
 -2 18 10 35.25 0.00
 -2 16 10 -19.98 0.00
 -2 14 10 -38.66 0.00
 -2 12 10 -11.73 0.00
 -2 10 10 -6.09 0.00
 -2 8 10 49.04 0.00
 -2 6 10 -29.93 0.00
 -2 4 10 -17.84 0.00
 2 2 10 16.95 0.00
 2 4 10 -97.74 0.00
 2 6 10 -4.75 0.00
 2 8 10 12.59 0.00
 2 10 10 -16.22 0.00
 2 12 10 -5.51 0.00
 2 14 10 -18.58 0.00
 2 16 10 18.42 0.00
 2 18 10 1.65 0.00
 2 20 10 -22.72 0.00
 2 22 10 6.69 0.00
 2 24 10 3.94 0.00
 2 26 10 -10.99 0.00
 2 28 10 -4.56 0.00
 2 30 10 -8.33 0.00
 2 32 10 0.38 0.00
 -2 33 11 -4.50 0.00
 -2 31 11 3.08 0.00
 -2 29 11 -10.86 0.00
 -2 27 11 -2.17 0.00
 -2 25 11 4.96 0.00
 -2 23 11 -5.72 0.00
 -2 21 11 -15.74 0.00
 -2 19 11 12.92 0.00
 -2 17 11 30.42 0.00
 -2 15 11 20.32 0.00
 -2 13 11 -51.10 0.00
 -2 11 11 -11.51 0.00
 -2 9 11 -90.75 0.00
 -2 7 11 50.37 0.00
 -2 5 11 -16.10 0.00
 -2 3 11 -16.00 0.00
 2 3 11 20.29 0.00
 2 5 11 19.19 0.00
 2 7 11 -90.80 0.00
 2 9 11 55.64 0.00
 2 11 11 -43.32 0.00
 2 13 11 3.72 0.00
 2 15 11 -2.90 0.00
 2 17 11 -7.45 0.00
 2 19 11 -17.20 0.00
 2 21 11 -3.50 0.00
 2 23 11 -6.98 0.00
 2 25 11 -0.07 0.00
 2 27 11 4.50 0.00
 2 29 11 7.39 0.00
 2 31 11 -6.11 0.00
 2 33 11 5.65 0.00
 -2 32 12 -4.98 0.00
 -2 30 12 -5.22 0.00
 -2 28 12 -2.45 0.00
 -2 26 12 -2.58 0.00
 -2 24 12 -5.35 0.00
 -2 22 12 11.11 0.00
 -2 20 12 -14.45 0.00
 -2 18 12 13.60 0.00
 -2 16 12 -12.92 0.00
 -2 14 12 19.23 0.00
 -2 12 12 16.75 0.00
 -2 10 12 -8.94 0.00
 -2 8 12 46.35 0.00
 -2 6 12 19.87 0.00
 -2 4 12 53.72 0.00
 2 2 12 46.37 0.00
 2 4 12 3.18 0.00
 2 6 12 42.05 0.00
 2 8 12 12.66 0.00
 2 10 12 -15.59 0.00
 2 12 12 9.82 0.00
 2 14 12 -22.93 0.00
 2 16 12 31.55 0.00
 2 18 12 14.75 0.00
 2 20 12 -8.67 0.00
 2 22 12 10.76 0.00
 2 24 12 14.51 0.00
 2 26 12 -0.63 0.00
 2 28 12 1.51 0.00
 2 30 12 4.99 0.00
 2 32 12 -3.70 0.00
 -2 31 13 -0.07 0.00
 -2 29 13 -5.15 0.00
 -2 27 13 6.38 0.00
 -2 25 13 4.42 0.00
 -2 23 13 -10.16 0.00
 -2 21 13 5.21 0.00
 -2 19 13 1.28 0.00
 -2 17 13 20.70 0.00
 -2 15 13 0.80 0.00
 -2 13 13 -3.67 0.00
 -2 11 13 7.30 0.00
 -2 9 13 -36.28 0.00
 -2 7 13 42.35 0.00
 -2 5 13 -39.18 0.00
 -2 3 13 -30.81 0.00
 2 3 13 -5.44 0.00
 2 5 13 12.86 0.00
 2 7 13 -34.11 0.00
 2 9 13 29.63 0.00
 2 11 13 12.56 0.00
 2 13 13 -23.70 0.00
 2 15 13 -11.72 0.00
 2 17 13 -19.76 0.00
 2 19 13 -15.63 0.00
 2 21 13 -10.68 0.00
 2 23 13 -3.36 0.00
 2 25 13 -3.65 0.00
 2 27 13 7.56 0.00
 2 29 13 11.73 0.00
 2 31 13 -4.04 0.00
 -2 32 14 -6.13 0.00
 -2 30 14 -7.86 0.00
 -2 28 14 4.72 0.00
 -2 26 14 -12.27 0.00
 -2 24 14 -6.21 0.00
 -2 22 14 4.90 0.00
 -2 20 14 -20.35 0.00
 -2 18 14 1.24 0.00
 -2 16 14 -29.10 0.00
 -2 14 14 -19.57 0.00
 -2 12 14 24.63 0.00
 -2 10 14 -14.19 0.00
 -2 8 14 45.46 0.00
 -2 6 14 -96.16 0.00
 -2 4 14 -24.62 0.00
 2 2 14 48.02 0.00
 2 4 14 -33.66 0.00
 2 6 14 12.59 0.00
 2 8 14 -12.18 0.00
 2 10 14 -21.93 0.00
 2 12 14 -7.10 0.00
 2 14 14 -22.42 0.00
 2 16 14 -1.15 0.00
 2 18 14 -4.11 0.00
 2 20 14 -2.61 0.00
 2 22 14 3.32 0.00
 2 24 14 -0.13 0.00
 2 26 14 -3.42 0.00
 2 28 14 5.15 0.00
 2 30 14 4.12 0.00
 2 32 14 1.35 0.00
 -2 31 15 3.00 0.00
 -2 29 15 -0.02 0.00
 -2 27 15 -1.58 0.00
 -2 25 15 -1.30 0.00
 -2 23 15 -6.47 0.00
 -2 21 15 12.19 0.00
 -2 19 15 -5.28 0.00
 -2 17 15 33.26 0.00
 -2 15 15 -2.14 0.00
 -2 13 15 -0.25 0.00
 -2 11 15 26.56 0.00
 -2 9 15 1.20 0.00
 -2 7 15 -29.88 0.00
 -2 5 15 -10.57 0.00
 -2 3 15 -21.39 0.00
 2 3 15 -4.21 0.00
 2 5 15 30.62 0.00
 2 7 15 5.33 0.00
 2 9 15 14.49 0.00
 2 11 15 2.69 0.00
 2 13 15 20.75 0.00
 2 15 15 -9.32 0.00
 2 17 15 -12.16 0.00
 2 19 15 2.63 0.00
 2 21 15 -10.82 0.00
 2 23 15 -1.42 0.00
 2 25 15 2.26 0.00
 2 27 15 3.55 0.00
 2 29 15 -0.31 0.00
 2 31 15 -3.40 0.00
 -2 30 16 2.16 0.00
 -2 28 16 3.76 0.00
 -2 26 16 -5.96 0.00
 -2 24 16 -9.21 0.00
 -2 22 16 -1.87 0.00
 -2 20 16 7.11 0.00
 -2 18 16 0.18 0.00
 -2 16 16 -11.85 0.00
 -2 14 16 6.23 0.00
 -2 12 16 11.08 0.00
 -2 10 16 -8.38 0.00
 -2 8 16 -7.60 0.00
 -2 6 16 -2.93 0.00
 -2 4 16 83.98 0.00
 2 2 16 31.53 0.00
 2 4 16 -13.93 0.00
 2 6 16 16.15 0.00
 2 8 16 8.76 0.00
 2 10 16 -33.94 0.00
 2 12 16 23.08 0.00
 2 14 16 0.16 0.00
 2 16 16 6.39 0.00
 2 18 16 8.84 0.00
 2 20 16 -0.95 0.00
 2 22 16 10.44 0.00
 2 24 16 1.85 0.00
 2 26 16 -8.81 0.00
 2 28 16 -1.73 0.00
 2 30 16 6.66 0.00
 -2 29 17 2.77 0.00
 -2 27 17 2.98 0.00
 -2 25 17 -7.35 0.00
 -2 23 17 -18.93 0.00
 -2 21 17 6.01 0.00
 -2 19 17 -1.45 0.00
 -2 17 17 15.71 0.00
 -2 15 17 -9.64 0.00
 -2 13 17 -2.09 0.00
 -2 11 17 -4.83 0.00
 -2 9 17 -23.75 0.00
 -2 7 17 -50.93 0.00
 -2 5 17 0.40 0.00
 -2 3 17 -2.08 0.00
 2 3 17 40.38 0.00
 2 5 17 0.45 0.00
 2 7 17 -20.35 0.00
 2 9 17 -13.39 0.00
 2 11 17 -8.40 0.00
 2 13 17 -0.42 0.00
 2 15 17 -0.86 0.00
 2 17 17 -11.73 0.00
 2 19 17 11.05 0.00
 2 21 17 -14.94 0.00
 2 23 17 -0.32 0.00
 2 25 17 -9.26 0.00
 2 27 17 4.37 0.00
 2 29 17 1.78 0.00
 -2 28 18 -0.54 0.00
 -2 26 18 -0.42 0.00
 -2 24 18 -3.85 0.00
 -2 22 18 2.27 0.00
 -2 20 18 10.57 0.00
 -2 18 18 7.10 0.00
 -2 16 18 -18.97 0.00
 -2 14 18 -18.16 0.00
 -2 12 18 13.20 0.00
 -2 10 18 -5.94 0.00
 -2 8 18 6.05 0.00
 -2 6 18 -34.83 0.00
 -2 4 18 57.32 0.00
 2 2 18 36.31 0.00
 2 4 18 7.66 0.00
 2 6 18 8.83 0.00
 2 8 18 -15.93 0.00
 2 10 18 -22.15 0.00
 2 12 18 16.59 0.00
 2 14 18 -5.01 0.00
 2 16 18 7.26 0.00
 2 18 18 0.64 0.00
 2 20 18 -6.13 0.00
 2 22 18 3.37 0.00
 2 24 18 -10.01 0.00
 2 26 18 -3.24 0.00
 2 28 18 3.87 0.00
 -2 27 19 -5.52 0.00
 -2 25 19 -10.76 0.00
 -2 23 19 -11.13 0.00
 -2 21 19 10.39 0.00
 -2 19 19 -1.88 0.00
 -2 17 19 19.62 0.00
 -2 15 19 -18.26 0.00
 -2 13 19 2.20 0.00
 -2 11 19 0.13 0.00
 -2 9 19 -17.06 0.00
 -2 7 19 -32.80 0.00
 -2 5 19 7.59 0.00
 -2 3 19 -12.59 0.00
 2 3 19 27.43 0.00
 2 5 19 -9.81 0.00
 2 7 19 4.40 0.00
 2 9 19 6.64 0.00
 2 11 19 6.67 0.00
 2 13 19 -3.25 0.00
 2 15 19 11.22 0.00
 2 17 19 -21.53 0.00
 2 19 19 7.19 0.00
 2 21 19 -5.91 0.00
 2 23 19 1.84 0.00
 2 25 19 -1.00 0.00
 2 27 19 -1.88 0.00
 -2 28 20 1.35 0.00
 -2 26 20 2.25 0.00
 -2 24 20 -0.58 0.00
 -2 22 20 11.10 0.00
 -2 20 20 5.14 0.00
 -2 18 20 1.05 0.00
 -2 16 20 -3.12 0.00
 -2 14 20 -7.29 0.00
 -2 12 20 18.26 0.00
 -2 10 20 -0.41 0.00
 -2 8 20 17.30 0.00
 -2 6 20 -2.09 0.00
 -2 4 20 40.51 0.00
 2 2 20 9.77 0.00
 2 4 20 19.99 0.00
 2 6 20 6.52 0.00
 2 8 20 2.77 0.00
 2 10 20 4.13 0.00
 2 12 20 22.88 0.00
 2 14 20 10.08 0.00
 2 16 20 -4.21 0.00
 2 18 20 0.56 0.00
 2 20 20 -9.28 0.00
 2 22 20 9.62 0.00
 2 24 20 -7.07 0.00
 2 26 20 -5.61 0.00
 2 28 20 7.12 0.00
 -2 27 21 0.73 0.00
 -2 25 21 -1.19 0.00
 -2 23 21 -5.27 0.00
 -2 21 21 -4.25 0.00
 -2 19 21 -11.49 0.00
 -2 17 21 7.47 0.00
 -2 15 21 0.35 0.00
 -2 13 21 10.55 0.00
 -2 11 21 1.00 0.00
 -2 9 21 -9.97 0.00
 -2 7 21 -24.85 0.00
 -2 5 21 11.62 0.00
 -2 3 21 -21.96 0.00
 2 3 21 34.62 0.00
 2 5 21 2.38 0.00
 2 7 21 -13.70 0.00
 2 9 21 -10.91 0.00
 2 11 21 14.22 0.00
 2 13 21 -5.73 0.00
 2 15 21 -1.93 0.00
 2 17 21 -17.76 0.00
 2 19 21 5.64 0.00
 2 21 21 5.51 0.00
 2 23 21 1.77 0.00
 2 25 21 7.14 0.00
 2 27 21 9.02 0.00
 -2 26 22 -0.66 0.00
 -2 24 22 1.00 0.00
 -2 22 22 9.31 0.00
 -2 20 22 -3.18 0.00
 -2 18 22 3.37 0.00
 -2 16 22 -2.62 0.00
 -2 14 22 -2.79 0.00
 -2 12 22 7.83 0.00
 -2 10 22 -0.12 0.00
 -2 8 22 11.16 0.00
 -2 6 22 -13.21 0.00
 -2 4 22 12.91 0.00
 2 2 22 0.67 0.00
 2 4 22 -6.10 0.00
 2 6 22 1.08 0.00
 2 8 22 -12.74 0.00
 2 10 22 -13.84 0.00
 2 12 22 13.04 0.00
 2 14 22 -4.99 0.00
 2 16 22 -15.49 0.00
 2 18 22 1.99 0.00
 2 20 22 -3.11 0.00
 2 22 22 1.84 0.00
 2 24 22 3.43 0.00
 2 26 22 5.44 0.00
 -2 25 23 2.11 0.00
 -2 23 23 -11.23 0.00
 -2 21 23 -1.66 0.00
 -2 19 23 -7.52 0.00
 -2 17 23 2.46 0.00
 -2 15 23 7.35 0.00
 -2 13 23 1.93 0.00
 -2 11 23 6.10 0.00
 -2 9 23 -12.96 0.00
 -2 7 23 -14.53 0.00
 -2 5 23 1.93 0.00
 -2 3 23 -3.00 0.00
 2 3 23 30.32 0.00
 2 5 23 8.21 0.00
 2 7 23 2.14 0.00
 2 9 23 -15.24 0.00
 2 11 23 -3.63 0.00
 2 13 23 -3.99 0.00
 2 15 23 2.00 0.00
 2 17 23 -11.72 0.00
 2 19 23 9.75 0.00
 2 21 23 -0.04 0.00
 2 23 23 3.66 0.00
 2 25 23 -2.16 0.00
 -2 24 24 -5.77 0.00
 -2 22 24 -0.18 0.00
 -2 20 24 5.90 0.00
 -2 18 24 3.09 0.00
 -2 16 24 -3.32 0.00
 -2 14 24 1.74 0.00
 -2 12 24 8.36 0.00
 -2 10 24 -4.32 0.00
 -2 8 24 7.33 0.00
 -2 6 24 -2.06 0.00
 -2 4 24 30.45 0.00
 2 2 24 11.44 0.00
 2 4 24 -9.40 0.00
 2 6 24 16.29 0.00
 2 8 24 3.72 0.00
 2 10 24 -14.53 0.00
 2 12 24 1.87 0.00
 2 14 24 -1.41 0.00
 2 16 24 0.71 0.00
 2 18 24 2.10 0.00
 2 20 24 -3.89 0.00
 2 22 24 1.49 0.00
 2 24 24 4.34 0.00
 -2 23 25 -1.88 0.00
 -2 21 25 1.13 0.00
 -2 19 25 -1.96 0.00
 -2 17 25 1.91 0.00
 -2 15 25 -7.94 0.00
 -2 13 25 2.14 0.00
 -2 11 25 9.27 0.00
 -2 9 25 -17.15 0.00
 -2 7 25 -9.43 0.00
 -2 5 25 3.42 0.00
 -2 3 25 -5.28 0.00
 2 3 25 8.17 0.00
 2 5 25 6.62 0.00
 2 7 25 -13.26 0.00
 2 9 25 2.00 0.00
 2 11 25 -5.71 0.00
 2 13 25 -3.04 0.00
 2 15 25 -8.06 0.00
 2 17 25 2.66 0.00
 2 19 25 5.42 0.00
 2 21 25 -7.51 0.00
 2 23 25 0.88 0.00
 -2 22 26 2.88 0.00
 -2 20 26 -0.78 0.00
 -2 18 26 -6.57 0.00
 -2 16 26 0.24 0.00
 -2 14 26 -1.62 0.00
 -2 12 26 1.68 0.00
 -2 10 26 10.31 0.00
 -2 8 26 1.44 0.00
 -2 6 26 4.56 0.00
 -2 4 26 7.66 0.00
 2 2 26 12.49 0.00
 2 4 26 -17.88 0.00
 2 6 26 -2.75 0.00
 2 8 26 3.49 0.00
 2 10 26 -12.58 0.00
 2 12 26 -3.99 0.00
 2 14 26 -9.64 0.00
 2 16 26 1.51 0.00
 2 18 26 2.07 0.00
 2 20 26 -5.81 0.00
 2 22 26 1.89 0.00
 -2 21 27 -6.03 0.00
 -2 19 27 -5.04 0.00
 -2 17 27 3.18 0.00
 -2 15 27 4.11 0.00
 -2 13 27 -2.47 0.00
 -2 11 27 2.64 0.00
 -2 9 27 -2.68 0.00
 -2 7 27 5.45 0.00
 -2 5 27 -1.00 0.00
 -2 3 27 -2.91 0.00
 2 3 27 3.53 0.00
 2 5 27 8.25 0.00
 2 7 27 3.83 0.00
 2 9 27 28.08 0.00
 2 11 27 -11.83 0.00
 2 13 27 -6.72 0.00
 2 15 27 1.66 0.00
 2 17 27 -0.44 0.00
 2 19 27 1.28 0.00
 2 21 27 -2.61 0.00
 -2 20 28 -9.62 0.00
 -2 18 28 -3.87 0.00
 -2 16 28 14.92 0.00
 -2 14 28 1.48 0.00
 -2 12 28 -0.27 0.00
 -2 10 28 12.41 0.00
 -2 8 28 9.04 0.00
 -2 6 28 -4.52 0.00
 -2 4 28 1.48 0.00
 2 2 28 25.77 0.00
 2 4 28 -2.35 0.00
 2 6 28 7.80 0.00
 2 8 28 13.73 0.00
 2 10 28 -3.01 0.00
 2 12 28 -4.85 0.00
 2 14 28 -2.10 0.00
 2 16 28 15.35 0.00
 2 18 28 -5.89 0.00
 2 20 28 1.80 0.00
 -2 19 29 -9.19 0.00
 -2 17 29 4.72 0.00
 -2 15 29 0.43 0.00
 -2 13 29 -1.83 0.00
 -2 11 29 -5.20 0.00
 -2 9 29 -13.73 0.00
 -2 7 29 -6.44 0.00
 -2 5 29 -10.96 0.00
 -2 3 29 -9.19 0.00
 2 3 29 -11.50 0.00
 2 5 29 5.02 0.00
 2 7 29 -18.36 0.00
 2 9 29 5.93 0.00
 2 11 29 -14.20 0.00
 2 13 29 -10.12 0.00
 2 15 29 -3.06 0.00
 2 17 29 3.60 0.00
 2 19 29 1.48 0.00
 -2 16 30 5.39 0.00
 -2 14 30 2.20 0.00
 -2 12 30 -2.00 0.00
 -2 10 30 2.92 0.00
 -2 8 30 11.01 0.00
 -2 6 30 -2.16 0.00
 -2 4 30 3.24 0.00
 2 2 30 12.59 0.00
 2 4 30 -0.31 0.00
 2 6 30 3.75 0.00
 2 8 30 -7.32 0.00
 2 10 30 -0.97 0.00
 2 12 30 4.61 0.00
 2 14 30 2.41 0.00
 2 16 30 3.19 0.00
 -2 15 31 1.49 0.00
 -2 13 31 1.17 0.00
 -2 11 31 0.79 0.00
 -2 9 31 -5.55 0.00
 -2 7 31 7.54 0.00
 -2 5 31 -0.86 0.00
 -2 3 31 2.45 0.00
 2 3 31 7.88 0.00
 2 5 31 12.31 0.00
 2 7 31 -6.81 0.00
 2 9 31 -5.46 0.00
 2 11 31 -2.86 0.00
 2 13 31 -2.65 0.00
 2 15 31 -3.92 0.00
 -2 14 32 -6.41 0.00
 -2 12 32 4.21 0.00
 -2 10 32 1.43 0.00
 -2 8 32 5.03 0.00
 -2 6 32 -0.32 0.00
 -2 4 32 3.83 0.00
 2 2 32 7.87 0.00
 2 4 32 -2.36 0.00
 2 6 32 12.87 0.00
 2 8 32 15.73 0.00
 2 10 32 9.53 0.00
 2 12 32 5.63 0.00
 2 14 32 10.93 0.00
 -2 11 33 1.38 0.00
 -2 9 33 0.58 0.00
 -2 7 33 -1.69 0.00
 -2 5 33 -5.06 0.00
 -2 3 33 0.70 0.00
 2 3 33 1.39 0.00
 2 5 33 6.59 0.00
 2 7 33 0.95 0.00
 2 9 33 1.02 0.00
 2 11 33 -4.15 0.00
 -2 8 34 7.99 0.00
 -2 6 34 -6.52 0.00
 -2 4 34 3.21 0.00
 2 2 34 -1.85 0.00
 2 4 34 -5.79 0.00
 2 6 34 8.44 0.00
 -3 33 0 4.94 0.00
 -3 31 0 3.78 0.00
 -3 29 0 3.46 0.00
 -3 27 0 10.87 0.00
 -3 25 0 28.07 0.00
 -3 23 0 -19.69 0.00
 -3 21 0 8.41 0.00
 -3 19 0 -27.78 0.00
 -3 17 0 -4.08 0.00
 -3 15 0 -25.00 0.00
 -3 13 0 7.33 0.00
 -3 11 0 62.81 0.00
 -3 9 0 154.97 0.00
 -3 7 0 -285.25 0.00
 -3 5 0 474.44 0.00
 3 3 0 231.79 0.00
 3 5 0 -20.11 0.00
 3 7 0 235.04 0.00
 3 9 0 116.56 0.00
 3 11 0 -13.10 0.00
 3 13 0 2.03 0.00
 3 15 0 9.81 0.00
 3 17 0 -9.81 0.00
 3 19 0 -15.27 0.00
 3 21 0 19.97 0.00
 3 23 0 1.61 0.00
 3 25 0 -13.14 0.00
 3 27 0 -16.25 0.00
 3 29 0 14.55 0.00
 3 31 0 6.34 0.00
 3 33 0 -14.84 0.00
 -3 32 1 4.68 0.00
 -3 30 1 -6.38 0.00
 -3 28 1 1.48 0.00
 -3 26 1 10.48 0.00
 -3 24 1 -21.73 0.00
 -3 22 1 11.97 0.00
 -3 20 1 0.19 0.00
 -3 18 1 6.71 0.00
 -3 16 1 -34.26 0.00
 -3 14 1 -70.51 0.00
 -3 12 1 -39.09 0.00
 -3 10 1 -20.48 0.00
 -3 8 1 -109.96 0.00
 -3 6 1 -187.93 0.00
 -3 4 1 -11.12 0.00
 3 4 1 -18.47 0.00
 3 6 1 -152.86 0.00
 3 8 1 -152.04 0.00
 3 10 1 -125.22 0.00
 3 12 1 -101.35 0.00
 3 14 1 21.36 0.00
 3 16 1 -1.23 0.00
 3 18 1 -5.83 0.00
 3 20 1 -4.08 0.00
 3 22 1 -3.99 0.00
 3 24 1 13.96 0.00
 3 26 1 -12.56 0.00
 3 28 1 -3.08 0.00
 3 30 1 7.12 0.00
 3 32 1 -9.93 0.00
 3 34 1 -6.30 0.00
 -3 33 2 0.51 0.00
 -3 31 2 10.15 0.00
 -3 29 2 11.25 0.00
 -3 27 2 9.88 0.00
 -3 25 2 21.39 0.00
 -3 23 2 -19.99 0.00
 -3 21 2 13.28 0.00
 -3 19 2 -30.57 0.00
 -3 17 2 -15.95 0.00
 -3 15 2 -58.33 0.00
 -3 13 2 63.40 0.00
 -3 11 2 68.29 0.00
 -3 9 2 38.17 0.00
 -3 7 2 -7.29 0.00
 -3 5 2 265.41 0.00
 3 3 2 75.13 0.00
 3 5 2 70.40 0.00
 3 7 2 -57.31 0.00
 3 9 2 -106.31 0.00
 3 11 2 96.61 0.00
 3 13 2 14.27 0.00
 3 15 2 20.12 0.00
 3 17 2 -17.13 0.00
 3 19 2 2.43 0.00
 3 21 2 6.13 0.00
 3 23 2 15.88 0.00
 3 25 2 3.80 0.00
 3 27 2 -23.43 0.00
 3 29 2 12.64 0.00
 3 31 2 6.82 0.00
 3 33 2 -16.17 0.00
 -3 32 3 -2.69 0.00
 -3 30 3 -8.31 0.00
 -3 28 3 -7.79 0.00
 -3 26 3 12.46 0.00
 -3 24 3 -9.49 0.00
 -3 22 3 5.00 0.00
 -3 20 3 23.94 0.00
 -3 18 3 -0.65 0.00
 -3 16 3 -27.14 0.00
 -3 14 3 -90.16 0.00
 -3 12 3 22.56 0.00
 -3 10 3 48.65 0.00
 -3 8 3 -41.91 0.00
 -3 6 3 -55.22 0.00
 -3 4 3 4.34 0.00
 3 4 3 -37.02 0.00
 3 6 3 28.45 0.00
 3 8 3 -107.92 0.00
 3 10 3 -14.24 0.00
 3 12 3 -90.57 0.00
 3 14 3 10.26 0.00
 3 16 3 -40.53 0.00
 3 18 3 -29.51 0.00
 3 20 3 9.45 0.00
 3 22 3 32.30 0.00
 3 24 3 17.76 0.00
 3 26 3 -3.29 0.00
 3 28 3 5.32 0.00
 3 30 3 2.37 0.00
 3 32 3 -6.84 0.00
 3 34 3 -5.79 0.00
 -3 33 4 1.06 0.00
 -3 31 4 12.44 0.00
 -3 29 4 10.74 0.00
 -3 27 4 9.70 0.00
 -3 25 4 4.82 0.00
 -3 23 4 -9.18 0.00
 -3 21 4 -0.98 0.00
 -3 19 4 -23.27 0.00
 -3 17 4 -23.05 0.00
 -3 15 4 49.24 0.00
 -3 13 4 28.41 0.00
 -3 11 4 33.68 0.00
 -3 9 4 -6.74 0.00
 -3 7 4 -38.78 0.00
 -3 5 4 110.24 0.00
 3 3 4 312.14 0.00
 -1 3 4 125.61 0.00
 3 5 4 66.14 0.00
 3 7 4 -47.78 0.00
 3 9 4 -64.22 0.00
 3 11 4 44.69 0.00
 3 13 4 23.43 0.00
 3 15 4 33.73 0.00
 3 17 4 30.42 0.00
 3 19 4 36.08 0.00
 3 21 4 0.05 0.00
 3 23 4 -4.00 0.00
 3 25 4 -2.67 0.00
 3 27 4 -9.44 0.00
 3 29 4 8.69 0.00
 3 31 4 12.96 0.00
 3 33 4 -2.06 0.00
 -3 34 5 1.85 0.00
 -3 32 5 0.51 0.00
 -3 30 5 7.79 0.00
 -3 28 5 2.44 0.00
 -3 26 5 1.78 0.00
 -3 24 5 -18.26 0.00
 -3 22 5 26.78 0.00
 -3 20 5 30.34 0.00
 -3 18 5 1.07 0.00
 -3 16 5 -18.88 0.00
 -3 14 5 -51.88 0.00
 -3 12 5 69.19 0.00
 -3 10 5 55.85 0.00
 -3 8 5 4.65 0.00
 -3 6 5 16.19 0.00
 -3 4 5 -151.59 0.00
 -2 3 5 -147.48 0.00
 3 4 5 -28.52 0.00
 3 6 5 133.58 0.00
 3 8 5 128.94 0.00
 3 10 5 1.97 0.00
 3 12 5 -2.43 0.00
 3 14 5 -14.09 0.00
 3 16 5 -67.03 0.00
 3 18 5 21.38 0.00
 3 20 5 18.38 0.00
 3 22 5 11.70 0.00
 3 24 5 0.94 0.00
 3 26 5 0.27 0.00
 3 28 5 10.52 0.00
 3 30 5 3.26 0.00
 3 32 5 -1.68 0.00
 3 34 5 -1.80 0.00
 -3 33 6 -5.07 0.00
 -3 31 6 8.82 0.00
 -3 29 6 -7.14 0.00
 -3 27 6 -3.60 0.00
 -3 25 6 -11.64 0.00
 -3 23 6 -12.46 0.00
 -3 21 6 12.97 0.00
 -3 19 6 -27.86 0.00
 -3 17 6 -63.01 0.00
 -3 15 6 12.78 0.00
 -3 13 6 28.67 0.00
 -3 11 6 -52.69 0.00
 -3 9 6 -72.54 0.00
 -3 7 6 -60.07 0.00
 -3 5 6 112.16 0.00
 3 3 6 28.48 0.00
 3 5 6 -65.93 0.00
 3 7 6 -93.31 0.00
 3 9 6 -106.84 0.00
 3 11 6 53.08 0.00
 3 13 6 23.41 0.00
 3 15 6 9.63 0.00
 3 17 6 33.55 0.00
 3 19 6 17.41 0.00
 3 21 6 9.24 0.00
 3 23 6 -20.02 0.00
 3 25 6 -8.85 0.00
 3 27 6 -5.48 0.00
 3 29 6 4.74 0.00
 3 31 6 6.82 0.00
 3 33 6 -6.17 0.00
 -3 34 7 -1.87 0.00
 -3 32 7 3.23 0.00
 -3 30 7 2.48 0.00
 -3 28 7 -9.14 0.00
 -3 26 7 9.00 0.00
 -3 24 7 -17.61 0.00
 -3 22 7 25.71 0.00
 -3 20 7 26.72 0.00
 -3 18 7 -26.09 0.00
 -3 16 7 27.28 0.00
 -3 14 7 2.92 0.00
 -3 12 7 50.48 0.00
 -3 10 7 93.31 0.00
 -3 8 7 67.35 0.00
 -3 6 7 45.63 0.00
 -3 4 7 201.87 0.00
 3 4 7 96.34 0.00
 3 6 7 -68.75 0.00
 3 8 7 42.88 0.00
 3 10 7 -3.41 0.00
 3 12 7 13.60 0.00
 3 14 7 3.06 0.00
 3 16 7 -23.47 0.00
 3 18 7 -5.48 0.00
 3 20 7 27.72 0.00
 3 22 7 -17.13 0.00
 3 24 7 7.06 0.00
 3 26 7 14.15 0.00
 3 28 7 4.39 0.00
 3 30 7 4.56 0.00
 3 32 7 3.43 0.00
 3 34 7 2.60 0.00
 -3 33 8 -2.51 0.00
 -3 31 8 12.91 0.00
 -3 29 8 -5.01 0.00
 -3 27 8 1.99 0.00
 -3 25 8 2.90 0.00
 -3 23 8 3.37 0.00
 -3 21 8 12.88 0.00
 -3 19 8 -16.27 0.00
 -3 17 8 -37.56 0.00
 -3 15 8 35.65 0.00
 -3 13 8 25.40 0.00
 -3 11 8 8.94 0.00
 -3 9 8 1.21 0.00
 -3 7 8 5.73 0.00
 -3 5 8 232.88 0.00
 3 3 8 123.35 0.00
 3 5 8 -24.11 0.00
 3 7 8 -65.10 0.00
 3 9 8 -25.64 0.00
 3 11 8 27.23 0.00
 3 13 8 -21.44 0.00
 3 15 8 4.99 0.00
 3 17 8 -9.10 0.00
 3 19 8 23.69 0.00
 3 21 8 1.85 0.00
 3 23 8 -10.17 0.00
 3 25 8 9.71 0.00
 3 27 8 -6.72 0.00
 3 29 8 2.47 0.00
 3 31 8 8.13 0.00
 3 33 8 -4.99 0.00
 -3 32 9 2.44 0.00
 -3 30 9 -14.05 0.00
 -3 28 9 11.21 0.00
 -3 26 9 -8.14 0.00
 -3 24 9 -11.59 0.00
 -3 22 9 11.10 0.00
 -3 20 9 9.23 0.00
 -3 18 9 -15.08 0.00
 -3 16 9 12.19 0.00
 -3 14 9 -19.20 0.00
 -3 12 9 50.88 0.00
 -3 10 9 -22.30 0.00
 -3 8 9 18.47 0.00
 -3 6 9 14.19 0.00
 -3 4 9 -46.61 0.00
 3 4 9 23.90 0.00
 3 6 9 -40.62 0.00
 3 8 9 -24.36 0.00
 3 10 9 -26.06 0.00
 3 12 9 -47.70 0.00
 3 14 9 -32.67 0.00
 3 16 9 -4.87 0.00
 3 18 9 -9.27 0.00
 3 20 9 21.04 0.00
 3 22 9 -10.11 0.00
 3 24 9 9.48 0.00
 3 26 9 0.73 0.00
 3 28 9 4.32 0.00
 3 30 9 -0.03 0.00
 3 32 9 -2.19 0.00
 -3 33 10 0.57 0.00
 -3 31 10 11.18 0.00
 -3 29 10 -6.97 0.00
 -3 27 10 -3.95 0.00
 -3 25 10 -4.62 0.00
 -3 23 10 -5.52 0.00
 -3 21 10 3.79 0.00
 -3 19 10 -42.56 0.00
 -3 17 10 -50.66 0.00
 -3 15 10 42.65 0.00
 -3 13 10 11.69 0.00
 -3 11 10 37.95 0.00
 -3 9 10 -55.07 0.00
 -3 7 10 -1.82 0.00
 -3 5 10 44.35 0.00
 3 3 10 4.36 0.00
 3 5 10 28.57 0.00
 3 7 10 -48.93 0.00
 3 9 10 21.88 0.00
 3 11 10 2.68 0.00
 3 13 10 -18.41 0.00
 3 15 10 -49.00 0.00
 3 17 10 -11.30 0.00
 3 19 10 -5.22 0.00
 3 21 10 -3.10 0.00
 3 23 10 -20.62 0.00
 3 25 10 4.98 0.00
 3 27 10 0.99 0.00
 3 29 10 -4.60 0.00
 3 31 10 0.94 0.00
 3 33 10 -0.44 0.00
 -3 32 11 2.84 0.00
 -3 30 11 2.68 0.00
 -3 28 11 -2.13 0.00
 -3 26 11 4.54 0.00
 -3 24 11 -7.82 0.00
 -3 22 11 7.18 0.00
 -3 20 11 12.12 0.00
 -3 18 11 -7.78 0.00
 -3 16 11 11.09 0.00
 -3 14 11 -30.08 0.00
 -3 12 11 5.08 0.00
 -3 10 11 -10.02 0.00
 -3 8 11 -49.99 0.00
 -3 6 11 46.33 0.00
 -3 4 11 3.94 0.00
 3 4 11 43.50 0.00
 3 6 11 -79.25 0.00
 3 8 11 29.64 0.00
 3 10 11 -3.61 0.00
 3 12 11 -28.25 0.00
 3 14 11 -17.29 0.00
 3 16 11 24.68 0.00
 3 18 11 21.04 0.00
 3 20 11 26.69 0.00
 3 22 11 -2.56 0.00
 3 24 11 8.80 0.00
 3 26 11 2.36 0.00
 3 28 11 8.79 0.00
 3 30 11 -0.54 0.00
 3 32 11 -7.13 0.00
 -3 31 12 8.06 0.00
 -3 29 12 -2.27 0.00
 -3 27 12 -7.71 0.00
 -3 25 12 4.28 0.00
 -3 23 12 8.27 0.00
 -3 21 12 -1.62 0.00
 -3 19 12 -23.23 0.00
 -3 17 12 -17.13 0.00
 -3 15 12 44.76 0.00
 -3 13 12 13.99 0.00
 -3 11 12 7.90 0.00
 -3 9 12 -28.02 0.00
 -3 7 12 72.27 0.00
 -3 5 12 141.77 0.00
 3 3 12 95.92 0.00
 3 5 12 61.47 0.00
 3 7 12 -37.29 0.00
 3 9 12 7.45 0.00
 3 11 12 48.98 0.00
 3 13 12 -2.12 0.00
 3 15 12 5.33 0.00
 3 17 12 26.30 0.00
 3 19 12 -3.80 0.00
 3 21 12 -8.01 0.00
 3 23 12 -24.03 0.00
 3 25 12 0.21 0.00
 3 27 12 -7.52 0.00
 3 29 12 3.97 0.00
 3 31 12 5.36 0.00
 -3 32 13 4.29 0.00
 -3 30 13 -6.89 0.00
 -3 28 13 -0.39 0.00
 -3 26 13 -5.78 0.00
 -3 24 13 -13.77 0.00
 -3 22 13 12.70 0.00
 -3 20 13 -1.56 0.00
 -3 18 13 -8.94 0.00
 -3 16 13 -4.93 0.00
 -3 14 13 -49.88 0.00
 -3 12 13 -1.17 0.00
 -3 10 13 -11.40 0.00
 -3 8 13 3.92 0.00
 -3 6 13 -0.13 0.00
 -3 4 13 -23.90 0.00
 3 4 13 -12.39 0.00
 3 6 13 -37.24 0.00
 3 8 13 -18.79 0.00
 3 10 13 9.16 0.00
 3 12 13 -14.44 0.00
 3 14 13 -17.43 0.00
 3 16 13 -2.09 0.00
 3 18 13 -2.04 0.00
 3 20 13 -1.86 0.00
 3 22 13 -4.06 0.00
 3 24 13 10.74 0.00
 3 26 13 -1.65 0.00
 3 28 13 4.56 0.00
 3 30 13 1.19 0.00
 3 32 13 -1.78 0.00
 -3 31 14 -6.37 0.00
 -3 29 14 4.60 0.00
 -3 27 14 6.41 0.00
 -3 25 14 9.00 0.00
 -3 23 14 6.95 0.00
 -3 21 14 13.39 0.00
 -3 19 14 -13.79 0.00
 -3 17 14 -10.05 0.00
 -3 15 14 16.25 0.00
 -3 13 14 7.03 0.00
 -3 11 14 -6.94 0.00
 -3 9 14 24.29 0.00
 -3 7 14 -2.04 0.00
 -3 5 14 20.53 0.00
 3 3 14 66.54 0.00
 3 5 14 -15.07 0.00
 3 7 14 -71.47 0.00
 3 9 14 -3.45 0.00
 3 11 14 30.21 0.00
 3 13 14 -17.73 0.00
 3 15 14 16.66 0.00
 3 17 14 14.34 0.00
 3 19 14 0.76 0.00
 3 21 14 -5.60 0.00
 3 23 14 -12.51 0.00
 3 25 14 4.34 0.00
 3 27 14 -13.61 0.00
 3 29 14 -1.00 0.00
 3 31 14 2.14 0.00
 -3 30 15 -8.50 0.00
 -3 28 15 -1.58 0.00
 -3 26 15 1.60 0.00
 -3 24 15 -4.94 0.00
 -3 22 15 0.96 0.00
 -3 20 15 3.18 0.00
 -3 18 15 -1.26 0.00
 -3 16 15 12.53 0.00
 -3 14 15 -36.63 0.00
 -3 12 15 6.78 0.00
 -3 10 15 22.27 0.00
 -3 8 15 -17.49 0.00
 -3 6 15 -47.56 0.00
 -3 4 15 7.71 0.00
 3 4 15 25.44 0.00
 3 6 15 9.03 0.00
 3 8 15 14.00 0.00
 3 10 15 -6.23 0.00
 3 12 15 -10.32 0.00
 3 14 15 4.36 0.00
 3 16 15 -18.21 0.00
 3 18 15 2.89 0.00
 3 20 15 1.76 0.00
 3 22 15 4.32 0.00
 3 24 15 8.98 0.00
 3 26 15 3.87 0.00
 3 28 15 -10.09 0.00
 3 30 15 -5.90 0.00
 -3 29 16 6.09 0.00
 -3 27 16 1.51 0.00
 -3 25 16 15.86 0.00
 -3 23 16 -9.88 0.00
 -3 21 16 2.22 0.00
 -3 19 16 -2.85 0.00
 -3 17 16 -12.08 0.00
 -3 15 16 24.62 0.00
 -3 13 16 20.86 0.00
 -3 11 16 -4.13 0.00
 -3 9 16 3.14 0.00
 -3 7 16 8.48 0.00
 -3 5 16 121.48 0.00
 3 3 16 54.20 0.00
 3 5 16 9.44 0.00
 3 7 16 2.80 0.00
 3 9 16 19.81 0.00
 3 11 16 21.80 0.00
 3 13 16 4.42 0.00
 3 15 16 16.81 0.00
 3 17 16 10.42 0.00
 3 19 16 8.98 0.00
 3 21 16 7.72 0.00
 3 23 16 0.76 0.00
 3 25 16 -4.40 0.00
 3 27 16 -16.14 0.00
 3 29 16 -6.55 0.00
 -3 30 17 -2.79 0.00
 -3 28 17 -0.18 0.00
 -3 26 17 6.00 0.00
 -3 24 17 -13.50 0.00
 -3 22 17 -10.68 0.00
 -3 20 17 10.46 0.00
 -3 18 17 -0.61 0.00
 -3 16 17 10.31 0.00
 -3 14 17 -8.81 0.00
 -3 12 17 -0.42 0.00
 -3 10 17 28.07 0.00
 -3 8 17 -36.07 0.00
 -3 6 17 0.46 0.00
 -3 4 17 2.25 0.00
 3 4 17 14.49 0.00
 3 6 17 12.65 0.00
 3 8 17 -3.13 0.00
 3 10 17 -11.73 0.00
 3 12 17 -14.13 0.00
 3 14 17 5.71 0.00
 3 16 17 -10.83 0.00
 3 18 17 1.33 0.00
 3 20 17 12.14 0.00
 3 22 17 -4.10 0.00
 3 24 17 10.50 0.00
 3 26 17 3.00 0.00
 3 28 17 -3.99 0.00
 3 30 17 1.04 0.00
 -3 29 18 -0.55 0.00
 -3 27 18 4.40 0.00
 -3 25 18 8.87 0.00
 -3 23 18 -21.82 0.00
 -3 21 18 -6.04 0.00
 -3 19 18 -6.97 0.00
 -3 17 18 -7.84 0.00
 -3 15 18 -2.45 0.00
 -3 13 18 3.24 0.00
 -3 11 18 -2.88 0.00
 -3 9 18 14.51 0.00
 -3 7 18 -24.03 0.00
 -3 5 18 31.01 0.00
 3 3 18 -3.57 0.00
 3 5 18 -5.91 0.00
 3 7 18 -9.68 0.00
 3 9 18 -42.10 0.00
 3 11 18 27.10 0.00
 3 13 18 -18.47 0.00
 3 15 18 9.95 0.00
 3 17 18 -6.46 0.00
 3 19 18 3.73 0.00
 3 21 18 -5.76 0.00
 3 23 18 -4.07 0.00
 3 25 18 3.80 0.00
 3 27 18 -9.24 0.00
 3 29 18 -3.05 0.00
 -3 28 19 -1.14 0.00
 -3 26 19 3.13 0.00
 -3 24 19 -0.13 0.00
 -3 22 19 -2.45 0.00
 -3 20 19 8.07 0.00
 -3 18 19 6.99 0.00
 -3 16 19 0.30 0.00
 -3 14 19 -24.61 0.00
 -3 12 19 3.75 0.00
 -3 10 19 23.72 0.00
 -3 8 19 -7.93 0.00
 -3 6 19 14.20 0.00
 -3 4 19 -8.24 0.00
 3 4 19 4.46 0.00
 3 6 19 34.37 0.00
 3 8 19 2.28 0.00
 3 10 19 -1.09 0.00
 3 12 19 -28.45 0.00
 3 14 19 25.68 0.00
 3 16 19 -6.74 0.00
 3 18 19 -2.10 0.00
 3 20 19 10.15 0.00
 3 22 19 7.68 0.00
 3 24 19 1.64 0.00
 3 26 19 -1.68 0.00
 3 28 19 -3.85 0.00
 -3 27 20 6.79 0.00
 -3 25 20 7.96 0.00
 -3 23 20 -1.09 0.00
 -3 21 20 3.54 0.00
 -3 19 20 -21.14 0.00
 -3 17 20 1.20 0.00
 -3 15 20 -1.63 0.00
 -3 13 20 7.10 0.00
 -3 11 20 3.43 0.00
 -3 9 20 25.57 0.00
 -3 7 20 -6.79 0.00
 -3 5 20 37.85 0.00
 3 3 20 4.42 0.00
 3 5 20 17.06 0.00
 3 7 20 20.83 0.00
 3 9 20 -9.81 0.00
 3 11 20 20.60 0.00
 3 13 20 2.74 0.00
 3 15 20 15.42 0.00
 3 17 20 -7.86 0.00
 3 19 20 -8.55 0.00
 3 21 20 10.07 0.00
 3 23 20 -1.13 0.00
 3 25 20 2.99 0.00
 3 27 20 -4.12 0.00
 -3 26 21 7.78 0.00
 -3 24 21 -3.98 0.00
 -3 22 21 -5.86 0.00
 -3 20 21 1.97 0.00
 -3 18 21 6.07 0.00
 -3 16 21 -1.00 0.00
 -3 14 21 -17.34 0.00
 -3 12 21 -6.21 0.00
 -3 10 21 17.67 0.00
 -3 8 21 -11.88 0.00
 -3 6 21 0.77 0.00
 -3 4 21 -16.08 0.00
 3 4 21 -2.06 0.00
 3 6 21 5.69 0.00
 3 8 21 -9.64 0.00
 3 10 21 -5.15 0.00
 3 12 21 -11.59 0.00
 3 14 21 7.93 0.00
 3 16 21 -4.73 0.00
 3 18 21 -9.55 0.00
 3 20 21 4.44 0.00
 3 22 21 10.39 0.00
 3 24 21 -4.70 0.00
 3 26 21 1.61 0.00
 -3 25 22 3.66 0.00
 -3 23 22 2.36 0.00
 -3 21 22 3.87 0.00
 -3 19 22 -9.67 0.00
 -3 17 22 1.73 0.00
 -3 15 22 -7.40 0.00
 -3 13 22 -0.80 0.00
 -3 11 22 10.09 0.00
 -3 9 22 3.58 0.00
 -3 7 22 -14.59 0.00
 -3 5 22 24.85 0.00
 3 3 22 6.41 0.00
 3 5 22 8.87 0.00
 3 7 22 10.27 0.00
 3 9 22 -12.77 0.00
 3 11 22 19.90 0.00
 3 13 22 -12.60 0.00
 3 15 22 9.69 0.00
 3 17 22 -5.60 0.00
 3 19 22 -2.74 0.00
 3 21 22 0.42 0.00
 3 23 22 2.20 0.00
 3 25 22 3.58 0.00
 -3 26 23 0.60 0.00
 -3 24 23 -10.34 0.00
 -3 22 23 -13.19 0.00
 -3 20 23 3.78 0.00
 -3 18 23 1.95 0.00
 -3 16 23 0.27 0.00
 -3 14 23 -10.76 0.00
 -3 12 23 -5.99 0.00
 -3 10 23 -0.05 0.00
 -3 8 23 -3.38 0.00
 -3 6 23 -2.09 0.00
 -3 4 23 -11.30 0.00
 3 4 23 4.06 0.00
 3 6 23 -4.40 0.00
 3 8 23 -4.15 0.00
 3 10 23 -4.17 0.00
 3 12 23 -18.10 0.00
 3 14 23 -4.82 0.00
 3 16 23 -3.82 0.00
 3 18 23 -15.38 0.00
 3 20 23 -1.85 0.00
 3 22 23 -6.13 0.00
 3 24 23 -7.74 0.00
 3 26 23 -3.64 0.00
 -3 25 24 -0.03 0.00
 -3 23 24 -4.12 0.00
 -3 21 24 5.54 0.00
 -3 19 24 6.20 0.00
 -3 17 24 -12.24 0.00
 -3 15 24 -0.06 0.00
 -3 13 24 7.71 0.00
 -3 11 24 9.50 0.00
 -3 9 24 -4.94 0.00
 -3 7 24 -2.48 0.00
 -3 5 24 33.01 0.00
 3 3 24 23.07 0.00
 3 5 24 10.99 0.00
 3 7 24 -3.25 0.00
 3 9 24 -7.52 0.00
 3 11 24 8.46 0.00
 3 13 24 0.17 0.00
 3 15 24 8.57 0.00
 3 17 24 -15.43 0.00
 3 19 24 5.40 0.00
 3 21 24 -0.16 0.00
 3 23 24 -2.69 0.00
 3 25 24 5.21 0.00
 -3 24 25 -1.62 0.00
 -3 22 25 2.68 0.00
 -3 20 25 4.14 0.00
 -3 18 25 -3.72 0.00
 -3 16 25 0.82 0.00
 -3 14 25 -16.56 0.00
 -3 12 25 5.28 0.00
 -3 10 25 -9.47 0.00
 -3 8 25 -9.46 0.00
 -3 6 25 1.55 0.00
 -3 4 25 -8.35 0.00
 3 4 25 3.88 0.00
 3 6 25 -20.66 0.00
 3 8 25 -3.49 0.00
 3 10 25 -7.15 0.00
 3 12 25 -3.35 0.00
 3 14 25 -4.60 0.00
 3 16 25 -12.89 0.00
 3 18 25 -4.39 0.00
 3 20 25 -6.28 0.00
 3 22 25 -4.17 0.00
 -3 23 26 -1.40 0.00
 -3 21 26 5.45 0.00
 -3 19 26 0.18 0.00
 -3 17 26 -12.96 0.00
 -3 15 26 4.40 0.00
 -3 13 26 -2.13 0.00
 -3 11 26 5.44 0.00
 -3 9 26 -2.82 0.00
 -3 7 26 5.07 0.00
 -3 5 26 35.63 0.00
 3 3 26 9.47 0.00
 3 5 26 2.04 0.00
 3 7 26 -5.17 0.00
 3 9 26 -6.28 0.00
 3 11 26 0.00 0.00
 3 13 26 -7.07 0.00
 3 15 26 -0.29 0.00
 3 17 26 -2.36 0.00
 3 19 26 1.64 0.00
 3 21 26 0.75 0.00
 -3 20 27 -0.32 0.00
 -3 18 27 -4.77 0.00
 -3 16 27 7.36 0.00
 -3 14 27 -3.47 0.00
 -3 12 27 -2.09 0.00
 -3 10 27 -11.32 0.00
 -3 8 27 -3.95 0.00
 -3 6 27 16.22 0.00
 -3 4 27 -5.54 0.00
 3 4 27 7.33 0.00
 3 6 27 -6.46 0.00
 3 8 27 11.17 0.00
 3 10 27 -2.55 0.00
 3 12 27 -13.75 0.00
 3 14 27 -12.07 0.00
 3 16 27 0.27 0.00
 3 18 27 -8.82 0.00
 3 20 27 5.26 0.00
 -3 19 28 -4.29 0.00
 -3 17 28 -2.82 0.00
 -3 15 28 7.81 0.00
 -3 13 28 1.22 0.00
 -3 11 28 2.49 0.00
 -3 9 28 -2.92 0.00
 -3 7 28 2.28 0.00
 -3 5 28 17.86 0.00
 3 3 28 8.05 0.00
 3 5 28 0.44 0.00
 3 7 28 -4.45 0.00
 3 9 28 4.51 0.00
 3 11 28 -2.19 0.00
 3 13 28 -11.17 0.00
 3 15 28 3.99 0.00
 3 17 28 3.45 0.00
 3 19 28 3.81 0.00
 -3 18 29 -1.59 0.00
 -3 16 29 0.37 0.00
 -3 14 29 -1.50 0.00
 -3 12 29 2.76 0.00
 -3 10 29 -8.62 0.00
 -3 8 29 -4.95 0.00
 -3 6 29 10.47 0.00
 -3 4 29 -0.23 0.00
 3 4 29 5.82 0.00
 3 6 29 -6.56 0.00
 3 8 29 3.91 0.00
 3 10 29 14.03 0.00
 3 12 29 1.53 0.00
 3 14 29 -12.82 0.00
 3 16 29 -0.47 0.00
 3 18 29 11.90 0.00
 -3 17 30 1.39 0.00
 -3 15 30 -3.88 0.00
 -3 13 30 -1.78 0.00
 -3 11 30 -6.28 0.00
 -3 9 30 -3.35 0.00
 -3 7 30 12.41 0.00
 -3 5 30 18.56 0.00
 3 3 30 10.74 0.00
 3 5 30 7.34 0.00
 3 7 30 -7.50 0.00
 3 9 30 -1.18 0.00
 3 11 30 5.85 0.00
 3 13 30 -6.20 0.00
 3 15 30 -3.29 0.00
 3 17 30 0.23 0.00
 -3 14 31 -0.64 0.00
 -3 12 31 5.36 0.00
 -3 10 31 -5.29 0.00
 -3 8 31 1.86 0.00
 -3 6 31 15.20 0.00
 -3 4 31 7.34 0.00
 3 4 31 4.74 0.00
 3 6 31 -6.27 0.00
 3 8 31 -0.69 0.00
 3 10 31 5.99 0.00
 3 12 31 6.15 0.00
 3 14 31 -8.37 0.00
 -3 13 32 5.96 0.00
 -3 11 32 8.57 0.00
 -3 9 32 0.38 0.00
 -3 7 32 3.98 0.00
 -3 5 32 19.06 0.00
 3 3 32 18.30 0.00
 3 5 32 6.90 0.00
 3 7 32 2.65 0.00
 3 9 32 0.69 0.00
 3 11 32 -1.41 0.00
 3 13 32 7.37 0.00
 -3 10 33 -7.95 0.00
 -3 8 33 -0.29 0.00
 -3 6 33 -13.00 0.00
 -3 4 33 1.53 0.00
 3 4 33 2.80 0.00
 3 6 33 -8.92 0.00
 3 8 33 -0.78 0.00
 3 10 33 0.91 0.00
 -3 7 34 4.16 0.00
 -3 5 34 8.54 0.00
 3 3 34 14.29 0.00
 3 5 34 5.73 0.00
 -4 32 0 15.79 0.00
 -4 30 0 -4.14 0.00
 -4 28 0 -25.69 0.00
 -4 26 0 27.75 0.00
 -4 24 0 24.82 0.00
 -4 22 0 6.16 0.00
 -4 20 0 6.47 0.00
 -4 18 0 18.50 0.00
 -4 16 0 10.58 0.00
 -4 14 0 41.25 0.00
 -4 12 0 -21.13 0.00
 -4 10 0 20.98 0.00
 -4 8 0 8.96 0.00
 -4 6 0 0.31 0.00
 4 4 0 0.90 0.00
 4 6 0 -71.03 0.00
 4 8 0 261.51 0.00
 4 10 0 46.83 0.00
 4 12 0 -94.03 0.00
 4 14 0 -37.92 0.00
 4 16 0 32.73 0.00
 4 18 0 47.65 0.00
 4 20 0 -18.91 0.00
 4 22 0 13.99 0.00
 4 24 0 -17.30 0.00
 4 26 0 13.30 0.00
 4 28 0 -13.45 0.00
 4 30 0 -3.55 0.00
 4 32 0 -7.72 0.00
 -4 33 1 -3.05 0.00
 -4 31 1 -5.62 0.00
 -4 29 1 -13.48 0.00
 -4 27 1 -24.04 0.00
 -4 25 1 14.02 0.00
 -4 23 1 -1.73 0.00
 -4 21 1 -29.72 0.00
 -4 19 1 0.11 0.00
 -4 17 1 -25.51 0.00
 -4 15 1 -14.74 0.00
 -4 13 1 8.17 0.00
 -4 11 1 -77.34 0.00
 -4 9 1 94.39 0.00
 -4 7 1 46.06 0.00
 -4 5 1 -93.60 0.00
 4 5 1 -65.55 0.00
 4 7 1 107.55 0.00
 4 9 1 25.98 0.00
 4 11 1 93.03 0.00
 4 13 1 51.51 0.00
 4 15 1 66.71 0.00
 4 17 1 33.43 0.00
 4 19 1 -14.20 0.00
 4 21 1 -0.84 0.00
 4 23 1 -33.50 0.00
 4 25 1 18.25 0.00
 4 27 1 10.54 0.00
 4 29 1 -14.81 0.00
 4 31 1 9.56 0.00
 4 33 1 5.72 0.00
 -4 32 2 3.75 0.00
 -4 30 2 -2.12 0.00
 -4 28 2 -32.31 0.00
 -4 26 2 5.98 0.00
 -4 24 2 13.60 0.00
 -4 22 2 -5.81 0.00
 -4 20 2 -25.41 0.00
 -4 18 2 3.07 0.00
 -4 16 2 2.04 0.00
 -4 14 2 1.60 0.00
 -4 12 2 13.54 0.00
 -4 10 2 -118.69 0.00
 -4 8 2 3.45 0.00
 -4 6 2 174.75 0.00
 4 4 2 -217.60 0.00
 4 6 2 -31.06 0.00
 4 8 2 -24.11 0.00
 4 10 2 20.26 0.00
 4 12 2 -40.20 0.00
 4 14 2 -2.66 0.00
 4 16 2 -22.43 0.00
 4 18 2 11.27 0.00
 4 20 2 -15.13 0.00
 4 22 2 -25.68 0.00
 4 24 2 -7.41 0.00
 4 26 2 15.71 0.00
 4 28 2 -19.49 0.00
 4 30 2 -1.03 0.00
 4 32 2 -6.62 0.00
 4 34 2 1.54 0.00
 -4 33 3 0.37 0.00
 -4 31 3 -7.92 0.00
 -4 29 3 -6.23 0.00
 -4 27 3 -17.39 0.00
 -4 25 3 29.15 0.00
 -4 23 3 2.47 0.00
 -4 21 3 -19.88 0.00
 -4 19 3 5.13 0.00
 -4 17 3 -2.61 0.00
 -4 15 3 -7.21 0.00
 -4 13 3 -7.17 0.00
 -4 11 3 2.28 0.00
 -4 9 3 45.48 0.00
 -4 7 3 37.50 0.00
 -4 5 3 8.79 0.00
 4 5 3 171.13 0.00
 4 7 3 -24.40 0.00
 4 9 3 -81.23 0.00
 4 11 3 -0.29 0.00
 4 13 3 -27.64 0.00
 4 15 3 32.96 0.00
 4 17 3 36.64 0.00
 4 19 3 -17.55 0.00
 4 21 3 9.75 0.00
 4 23 3 -2.03 0.00
 4 25 3 1.15 0.00
 4 27 3 4.54 0.00
 4 29 3 -16.79 0.00
 4 31 3 10.82 0.00
 4 33 3 -2.21 0.00
 -4 34 4 4.46 0.00
 -4 32 4 7.44 0.00
 -4 30 4 0.49 0.00
 -4 28 4 -12.17 0.00
 -4 26 4 0.97 0.00
 -4 24 4 2.06 0.00
 -4 22 4 -6.68 0.00
 -4 20 4 9.61 0.00
 -4 18 4 24.64 0.00
 -4 16 4 34.29 0.00
 -4 14 4 34.14 0.00
 -4 12 4 -0.85 0.00
 -4 10 4 -26.57 0.00
 -4 8 4 30.39 0.00
 -4 6 4 137.64 0.00
 4 4 4 -149.71 0.00
 4 6 4 -76.65 0.00
 4 8 4 -5.46 0.00
 4 10 4 152.69 0.00
 4 12 4 69.02 0.00
 4 14 4 -0.22 0.00
 4 16 4 30.18 0.00
 4 18 4 17.03 0.00
 4 20 4 -41.00 0.00
 4 22 4 -19.85 0.00
 4 24 4 5.67 0.00
 4 26 4 13.60 0.00
 4 28 4 -1.69 0.00
 4 30 4 -0.15 0.00
 4 32 4 4.33 0.00
 4 34 4 -2.86 0.00
 -4 33 5 -1.12 0.00
 -4 31 5 -5.57 0.00
 -4 29 5 3.00 0.00
 -4 27 5 -30.62 0.00
 -4 25 5 -1.92 0.00
 -4 23 5 9.40 0.00
 -4 21 5 -17.93 0.00
 -4 19 5 15.00 0.00
 -4 17 5 -21.87 0.00
 -4 15 5 -34.89 0.00
 -4 13 5 -4.82 0.00
 -4 11 5 40.84 0.00
 -4 9 5 -46.58 0.00
 -4 7 5 -118.75 0.00
 -4 5 5 -220.29 0.00
 -1 4 5 105.20 0.00
 4 5 5 3.92 0.00
 4 7 5 35.23 0.00
 4 9 5 -97.71 0.00
 4 11 5 -38.43 0.00
 4 13 5 -30.05 0.00
 4 15 5 -17.87 0.00
 4 17 5 36.01 0.00
 4 19 5 2.36 0.00
 4 21 5 19.65 0.00
 4 23 5 -14.72 0.00
 4 25 5 -10.34 0.00
 4 27 5 4.42 0.00
 4 29 5 -15.56 0.00
 4 31 5 10.62 0.00
 4 33 5 2.65 0.00
 -4 34 6 1.45 0.00
 -4 32 6 4.46 0.00
 -4 30 6 3.60 0.00
 -4 28 6 -19.76 0.00
 -4 26 6 1.21 0.00
 -4 24 6 0.01 0.00
 -4 22 6 -1.42 0.00
 -4 20 6 5.81 0.00
 -4 18 6 5.98 0.00
 -4 16 6 -15.51 0.00
 -4 14 6 7.56 0.00
 -4 12 6 39.80 0.00
 -4 10 6 -36.86 0.00
 -4 8 6 22.42 0.00
 -4 6 6 94.50 0.00
 4 4 6 -91.92 0.00
 4 6 6 -135.24 0.00
 4 8 6 73.05 0.00
 4 10 6 105.12 0.00
 4 12 6 132.08 0.00
 4 14 6 -5.19 0.00
 4 16 6 28.32 0.00
 4 18 6 2.28 0.00
 4 20 6 -8.57 0.00
 4 22 6 -12.19 0.00
 4 24 6 -2.48 0.00
 4 26 6 -2.05 0.00
 4 28 6 0.08 0.00
 4 30 6 -2.88 0.00
 4 32 6 -0.38 0.00
 4 34 6 2.23 0.00
 -4 33 7 -4.23 0.00
 -4 31 7 -7.90 0.00
 -4 29 7 -1.48 0.00
 -4 27 7 -13.30 0.00
 -4 25 7 3.08 0.00
 -4 23 7 -9.74 0.00
 -4 21 7 4.48 0.00
 -4 19 7 2.41 0.00
 -4 17 7 -44.60 0.00
 -4 15 7 -9.99 0.00
 -4 13 7 11.60 0.00
 -4 11 7 -55.07 0.00
 -4 9 7 -5.56 0.00
 -4 7 7 -140.51 0.00
 -4 5 7 -8.68 0.00
 4 5 7 -1.45 0.00
 4 7 7 -87.68 0.00
 4 9 7 -92.14 0.00
 4 11 7 25.74 0.00
 4 13 7 -32.28 0.00
 4 15 7 12.27 0.00
 4 17 7 14.85 0.00
 4 19 7 -9.39 0.00
 4 21 7 6.96 0.00
 4 23 7 -18.84 0.00
 4 25 7 -7.04 0.00
 4 27 7 -4.94 0.00
 4 29 7 -7.36 0.00
 4 31 7 10.11 0.00
 4 33 7 -1.46 0.00
 -4 32 8 6.89 0.00
 -4 30 8 1.70 0.00
 -4 28 8 -6.01 0.00
 -4 26 8 1.06 0.00
 -4 24 8 -7.05 0.00
 -4 22 8 -16.85 0.00
 -4 20 8 10.86 0.00
 -4 18 8 1.36 0.00
 -4 16 8 -5.63 0.00
 -4 14 8 7.29 0.00
 -4 12 8 46.21 0.00
 -4 10 8 -6.16 0.00
 -4 8 8 98.34 0.00
 -4 6 8 130.80 0.00
 4 4 8 196.49 0.00
 4 6 8 -68.20 0.00
 4 8 8 75.98 0.00
 4 10 8 78.07 0.00
 4 12 8 32.04 0.00
 4 14 8 -27.71 0.00
 4 16 8 20.89 0.00
 4 18 8 -16.50 0.00
 4 20 8 0.69 0.00
 4 22 8 -5.03 0.00
 4 24 8 -1.37 0.00
 4 26 8 -5.07 0.00
 4 28 8 7.38 0.00
 4 30 8 5.70 0.00
 4 32 8 3.06 0.00
 -4 33 9 -2.86 0.00
 -4 31 9 -1.89 0.00
 -4 29 9 15.20 0.00
 -4 27 9 4.87 0.00
 -4 25 9 -10.87 0.00
 -4 23 9 -0.31 0.00
 -4 21 9 -16.09 0.00
 -4 19 9 18.26 0.00
 -4 17 9 -39.58 0.00
 -4 15 9 -27.33 0.00
 -4 13 9 29.95 0.00
 -4 11 9 -10.96 0.00
 -4 9 9 -15.53 0.00
 -4 7 9 -47.53 0.00
 -4 5 9 -34.93 0.00
 4 5 9 44.62 0.00
 4 7 9 -41.11 0.00
 4 9 9 -69.75 0.00
 4 11 9 36.67 0.00
 4 13 9 -5.36 0.00
 4 15 9 12.84 0.00
 4 17 9 -19.44 0.00
 4 19 9 -24.75 0.00
 4 21 9 11.69 0.00
 4 23 9 -20.28 0.00
 4 25 9 -11.83 0.00
 4 27 9 6.34 0.00
 4 29 9 -3.65 0.00
 4 31 9 5.37 0.00
 4 33 9 -5.26 0.00
 -4 32 10 2.83 0.00
 -4 30 10 0.10 0.00
 -4 28 10 -4.98 0.00
 -4 26 10 -3.29 0.00
 -4 24 10 1.49 0.00
 -4 22 10 5.03 0.00
 -4 20 10 28.68 0.00
 -4 18 10 -20.18 0.00
 -4 16 10 10.70 0.00
 -4 14 10 15.52 0.00
 -4 12 10 52.73 0.00
 -4 10 10 -22.17 0.00
 -4 8 10 -23.44 0.00
 -4 6 10 -21.06 0.00
 4 4 10 23.40 0.00
 4 6 10 -29.84 0.00
 4 8 10 42.24 0.00
 4 10 10 4.11 0.00
 4 12 10 47.37 0.00
 4 14 10 -37.37 0.00
 4 16 10 -24.41 0.00
 4 18 10 9.41 0.00
 4 20 10 26.59 0.00
 4 22 10 -0.65 0.00
 4 24 10 4.40 0.00
 4 26 10 5.70 0.00
 4 28 10 -3.60 0.00
 4 30 10 -2.66 0.00
 4 32 10 -2.64 0.00
 -4 31 11 2.56 0.00
 -4 29 11 5.80 0.00
 -4 27 11 -10.20 0.00
 -4 25 11 -2.76 0.00
 -4 23 11 -13.73 0.00
 -4 21 11 -8.49 0.00
 -4 19 11 31.59 0.00
 -4 17 11 -68.96 0.00
 -4 15 11 -22.35 0.00
 -4 13 11 15.42 0.00
 -4 11 11 45.27 0.00
 -4 9 11 -31.56 0.00
 -4 7 11 -52.32 0.00
 -4 5 11 -3.31 0.00
 4 5 11 32.83 0.00
 4 7 11 1.81 0.00
 4 9 11 -43.83 0.00
 4 11 11 67.88 0.00
 4 13 11 23.23 0.00
 4 15 11 13.89 0.00
 4 17 11 14.86 0.00
 4 19 11 -0.75 0.00
 4 21 11 17.95 0.00
 4 23 11 -5.99 0.00
 4 25 11 -5.04 0.00
 4 27 11 3.64 0.00
 4 29 11 2.18 0.00
 4 31 11 5.63 0.00
 -4 32 12 -1.73 0.00
 -4 30 12 14.98 0.00
 -4 28 12 -6.99 0.00
 -4 26 12 -0.13 0.00
 -4 24 12 10.24 0.00
 -4 22 12 9.00 0.00
 -4 20 12 13.81 0.00
 -4 18 12 17.83 0.00
 -4 16 12 2.84 0.00
 -4 14 12 2.55 0.00
 -4 12 12 34.27 0.00
 -4 10 12 -42.76 0.00
 -4 8 12 26.77 0.00
 -4 6 12 38.86 0.00
 4 4 12 21.90 0.00
 4 6 12 -24.62 0.00
 4 8 12 -22.25 0.00
 4 10 12 -10.74 0.00
 4 12 12 87.57 0.00
 4 14 12 -6.52 0.00
 4 16 12 -1.57 0.00
 4 18 12 6.76 0.00
 4 20 12 24.93 0.00
 4 22 12 -4.02 0.00
 4 24 12 -8.10 0.00
 4 26 12 9.80 0.00
 4 28 12 5.82 0.00
 4 30 12 1.15 0.00
 4 32 12 4.03 0.00
 -4 31 13 -4.88 0.00
 -4 29 13 6.54 0.00
 -4 27 13 -12.14 0.00
 -4 25 13 -1.52 0.00
 -4 23 13 -1.39 0.00
 -4 21 13 -13.49 0.00
 -4 19 13 19.43 0.00
 -4 17 13 -38.31 0.00
 -4 15 13 -20.89 0.00
 -4 13 13 19.44 0.00
 -4 11 13 -7.54 0.00
 -4 9 13 -11.33 0.00
 -4 7 13 -44.70 0.00
 -4 5 13 -25.40 0.00
 4 5 13 43.51 0.00
 4 7 13 23.39 0.00
 4 9 13 -91.02 0.00
 4 11 13 28.86 0.00
 4 13 13 7.53 0.00
 4 15 13 15.76 0.00
 4 17 13 1.03 0.00
 4 19 13 6.40 0.00
 4 21 13 12.95 0.00
 4 23 13 -3.98 0.00
 4 25 13 -1.54 0.00
 4 27 13 4.44 0.00
 4 29 13 -1.75 0.00
 4 31 13 11.90 0.00
 -4 30 14 -0.22 0.00
 -4 28 14 8.00 0.00
 -4 26 14 -1.53 0.00
 -4 24 14 -3.41 0.00
 -4 22 14 -0.11 0.00
 -4 20 14 -2.48 0.00
 -4 18 14 -0.44 0.00
 -4 16 14 -9.00 0.00
 -4 14 14 15.74 0.00
 -4 12 14 14.16 0.00
 -4 10 14 -41.00 0.00
 -4 8 14 25.47 0.00
 -4 6 14 -21.02 0.00
 4 4 14 -31.16 0.00
 4 6 14 -51.04 0.00
 4 8 14 -18.77 0.00
 4 10 14 8.91 0.00
 4 12 14 29.82 0.00
 4 14 14 3.86 0.00
 4 16 14 4.77 0.00
 4 18 14 -5.67 0.00
 4 20 14 -11.36 0.00
 4 22 14 -14.52 0.00
 4 24 14 -2.75 0.00
 4 26 14 4.79 0.00
 4 28 14 -1.78 0.00
 4 30 14 -1.89 0.00
 -4 31 15 -9.45 0.00
 -4 29 15 5.33 0.00
 -4 27 15 4.64 0.00
 -4 25 15 13.18 0.00
 -4 23 15 -4.09 0.00
 -4 21 15 -4.89 0.00
 -4 19 15 10.96 0.00
 -4 17 15 -14.60 0.00
 -4 15 15 -11.15 0.00
 -4 13 15 29.10 0.00
 -4 11 15 -20.23 0.00
 -4 9 15 19.22 0.00
 -4 7 15 -36.61 0.00
 -4 5 15 -40.47 0.00
 4 5 15 12.24 0.00
 4 7 15 18.00 0.00
 4 9 15 -26.45 0.00
 4 11 15 -0.15 0.00
 4 13 15 11.40 0.00
 4 15 15 7.69 0.00
 4 17 15 14.93 0.00
 4 19 15 -0.80 0.00
 4 21 15 27.83 0.00
 4 23 15 -4.96 0.00
 4 25 15 -0.07 0.00
 4 27 15 14.40 0.00
 4 29 15 -7.54 0.00
 4 31 15 0.71 0.00
 -4 30 16 6.45 0.00
 -4 28 16 -1.82 0.00
 -4 26 16 -2.52 0.00
 -4 24 16 4.41 0.00
 -4 22 16 -12.06 0.00
 -4 20 16 2.67 0.00
 -4 18 16 5.64 0.00
 -4 16 16 -6.53 0.00
 -4 14 16 28.28 0.00
 -4 12 16 14.15 0.00
 -4 10 16 -6.46 0.00
 -4 8 16 28.73 0.00
 -4 6 16 57.88 0.00
 4 4 16 1.11 0.00
 4 6 16 -26.33 0.00
 4 8 16 43.52 0.00
 4 10 16 40.65 0.00
 4 12 16 31.88 0.00
 4 14 16 0.72 0.00
 4 16 16 2.97 0.00
 4 18 16 -6.85 0.00
 4 20 16 -0.03 0.00
 4 22 16 -0.24 0.00
 4 24 16 -14.58 0.00
 4 26 16 3.88 0.00
 4 28 16 -0.09 0.00
 4 30 16 0.16 0.00
 -4 29 17 2.13 0.00
 -4 27 17 -5.55 0.00
 -4 25 17 2.17 0.00
 -4 23 17 -5.42 0.00
 -4 21 17 -1.65 0.00
 -4 19 17 2.21 0.00
 -4 17 17 -17.66 0.00
 -4 15 17 0.36 0.00
 -4 13 17 -5.12 0.00
 -4 11 17 -27.08 0.00
 -4 9 17 4.21 0.00
 -4 7 17 -24.05 0.00
 -4 5 17 -12.67 0.00
 4 5 17 -26.07 0.00
 4 7 17 -4.46 0.00
 4 9 17 -26.83 0.00
 4 11 17 11.19 0.00
 4 13 17 -19.15 0.00
 4 15 17 0.81 0.00
 4 17 17 4.72 0.00
 4 19 17 -2.26 0.00
 4 21 17 4.68 0.00
 4 23 17 -11.28 0.00
 4 25 17 5.33 0.00
 4 27 17 -1.15 0.00
 4 29 17 -3.84 0.00
 -4 28 18 -6.35 0.00
 -4 26 18 4.94 0.00
 -4 24 18 0.78 0.00
 -4 22 18 4.03 0.00
 -4 20 18 1.18 0.00
 -4 18 18 10.43 0.00
 -4 16 18 10.45 0.00
 -4 14 18 22.70 0.00
 -4 12 18 -15.97 0.00
 -4 10 18 8.67 0.00
 -4 8 18 9.16 0.00
 -4 6 18 25.93 0.00
 4 4 18 -17.65 0.00
 4 6 18 -5.09 0.00
 4 8 18 -7.15 0.00
 4 10 18 17.51 0.00
 4 12 18 -0.63 0.00
 4 14 18 -16.20 0.00
 4 16 18 -1.92 0.00
 4 18 18 6.79 0.00
 4 20 18 -14.26 0.00
 4 22 18 0.71 0.00
 4 24 18 -0.25 0.00
 4 26 18 -0.09 0.00
 4 28 18 -10.66 0.00
 -4 27 19 -5.80 0.00
 -4 25 19 2.69 0.00
 -4 23 19 2.54 0.00
 -4 21 19 -4.38 0.00
 -4 19 19 0.94 0.00
 -4 17 19 -0.55 0.00
 -4 15 19 0.39 0.00
 -4 13 19 -4.80 0.00
 -4 11 19 -25.21 0.00
 -4 9 19 18.94 0.00
 -4 7 19 -5.88 0.00
 -4 5 19 -7.55 0.00
 4 5 19 -3.55 0.00
 4 7 19 12.96 0.00
 4 9 19 -14.30 0.00
 4 11 19 -4.40 0.00
 4 13 19 -20.47 0.00
 4 15 19 13.87 0.00
 4 17 19 9.97 0.00
 4 19 19 -15.82 0.00
 4 21 19 9.14 0.00
 4 23 19 -5.36 0.00
 4 25 19 4.75 0.00
 4 27 19 -5.16 0.00
 -4 28 20 -7.70 0.00
 -4 26 20 2.50 0.00
 -4 24 20 8.42 0.00
 -4 22 20 7.42 0.00
 -4 20 20 -12.62 0.00
 -4 18 20 2.71 0.00
 -4 16 20 21.87 0.00
 -4 14 20 14.16 0.00
 -4 12 20 -15.68 0.00
 -4 10 20 14.66 0.00
 -4 8 20 27.12 0.00
 -4 6 20 29.53 0.00
 4 4 20 -13.48 0.00
 4 6 20 16.15 0.00
 4 8 20 13.67 0.00
 4 10 20 20.25 0.00
 4 12 20 -6.37 0.00
 4 14 20 10.34 0.00
 4 16 20 -4.67 0.00
 4 18 20 8.90 0.00
 4 20 20 -5.09 0.00
 4 22 20 12.69 0.00
 4 24 20 6.68 0.00
 4 26 20 3.06 0.00
 4 28 20 5.53 0.00
 -4 27 21 7.53 0.00
 -4 25 21 1.30 0.00
 -4 23 21 -2.91 0.00
 -4 21 21 -9.06 0.00
 -4 19 21 5.52 0.00
 -4 17 21 -0.59 0.00
 -4 15 21 -2.06 0.00
 -4 13 21 -11.75 0.00
 -4 11 21 -11.24 0.00
 -4 9 21 12.31 0.00
 -4 7 21 -6.85 0.00
 -4 5 21 -23.01 0.00
 4 5 21 -11.95 0.00
 4 7 21 16.69 0.00
 4 9 21 -10.71 0.00
 4 11 21 12.57 0.00
 4 13 21 -6.93 0.00
 4 15 21 -0.37 0.00
 4 17 21 18.51 0.00
 4 19 21 -13.42 0.00
 4 21 21 11.83 0.00
 4 23 21 -6.54 0.00
 4 25 21 2.52 0.00
 4 27 21 -4.07 0.00
 -4 26 22 2.58 0.00
 -4 24 22 3.74 0.00
 -4 22 22 -8.21 0.00
 -4 20 22 -11.97 0.00
 -4 18 22 -0.42 0.00
 -4 16 22 7.66 0.00
 -4 14 22 -6.73 0.00
 -4 12 22 -1.24 0.00
 -4 10 22 -0.91 0.00
 -4 8 22 5.88 0.00
 -4 6 22 22.51 0.00
 4 4 22 -30.74 0.00
 4 6 22 -1.55 0.00
 4 8 22 -3.31 0.00
 4 10 22 11.46 0.00
 4 12 22 -18.56 0.00
 4 14 22 -18.25 0.00
 4 16 22 1.07 0.00
 4 18 22 3.80 0.00
 4 20 22 1.00 0.00
 4 22 22 1.20 0.00
 4 24 22 1.63 0.00
 4 26 22 -6.14 0.00
 -4 25 23 5.64 0.00
 -4 23 23 -6.19 0.00
 -4 21 23 -11.33 0.00
 -4 19 23 16.05 0.00
 -4 17 23 -4.01 0.00
 -4 15 23 -3.38 0.00
 -4 13 23 3.23 0.00
 -4 11 23 -5.53 0.00
 -4 9 23 5.18 0.00
 -4 7 23 -7.11 0.00
 -4 5 23 -8.88 0.00
 4 5 23 -0.69 0.00
 4 7 23 5.79 0.00
 4 9 23 -6.79 0.00
 4 11 23 13.04 0.00
 4 13 23 -16.27 0.00
 4 15 23 6.82 0.00
 4 17 23 10.59 0.00
 4 19 23 -2.74 0.00
 4 21 23 -0.35 0.00
 4 23 23 -11.21 0.00
 4 25 23 3.45 0.00
 -4 24 24 8.53 0.00
 -4 22 24 -13.76 0.00
 -4 20 24 -1.10 0.00
 -4 18 24 -2.98 0.00
 -4 16 24 -5.24 0.00
 -4 14 24 5.49 0.00
 -4 12 24 11.55 0.00
 -4 10 24 -3.32 0.00
 -4 8 24 6.35 0.00
 -4 6 24 16.99 0.00
 4 4 24 0.47 0.00
 4 6 24 -7.57 0.00
 4 8 24 -4.17 0.00
 4 10 24 3.69 0.00
 4 12 24 -0.06 0.00
 4 14 24 2.80 0.00
 4 16 24 -15.08 0.00
 4 18 24 1.55 0.00
 4 20 24 5.84 0.00
 4 22 24 -2.85 0.00
 4 24 24 2.96 0.00
 -4 23 25 0.66 0.00
 -4 21 25 -5.84 0.00
 -4 19 25 3.54 0.00
 -4 17 25 -5.99 0.00
 -4 15 25 -5.20 0.00
 -4 13 25 1.11 0.00
 -4 11 25 -1.40 0.00
 -4 9 25 -0.47 0.00
 -4 7 25 -6.20 0.00
 -4 5 25 -4.66 0.00
 4 5 25 -10.17 0.00
 4 7 25 -0.53 0.00
 4 9 25 -13.58 0.00
 4 11 25 -4.36 0.00
 4 13 25 -1.89 0.00
 4 15 25 -3.55 0.00
 4 17 25 -8.51 0.00
 4 19 25 -6.99 0.00
 4 21 25 -1.04 0.00
 4 23 25 -3.02 0.00
 -4 22 26 -4.82 0.00
 -4 20 26 3.38 0.00
 -4 18 26 -5.41 0.00
 -4 16 26 5.29 0.00
 -4 14 26 6.15 0.00
 -4 12 26 -6.28 0.00
 -4 10 26 -1.22 0.00
 -4 8 26 -2.95 0.00
 -4 6 26 7.30 0.00
 4 4 26 -1.09 0.00
 4 6 26 -8.05 0.00
 4 8 26 0.73 0.00
 4 10 26 -9.40 0.00
 4 12 26 6.20 0.00
 4 14 26 -6.58 0.00
 4 16 26 9.09 0.00
 4 18 26 -3.41 0.00
 4 20 26 -2.73 0.00
 4 22 26 -5.62 0.00
 -4 21 27 -9.04 0.00
 -4 19 27 -5.33 0.00
 -4 17 27 -5.44 0.00
 -4 15 27 -5.32 0.00
 -4 13 27 -0.80 0.00
 -4 11 27 -0.69 0.00
 -4 9 27 1.92 0.00
 -4 7 27 -2.17 0.00
 -4 5 27 3.10 0.00
 4 5 27 0.97 0.00
 4 7 27 -2.04 0.00
 4 9 27 -10.96 0.00
 4 11 27 -2.59 0.00
 4 13 27 -5.37 0.00
 4 15 27 6.89 0.00
 4 17 27 3.46 0.00
 4 19 27 -5.27 0.00
 4 21 27 3.85 0.00
 -4 20 28 -1.02 0.00
 -4 18 28 -8.03 0.00
 -4 16 28 5.66 0.00
 -4 14 28 11.94 0.00
 -4 12 28 4.48 0.00
 -4 10 28 8.00 0.00
 -4 8 28 -0.38 0.00
 -4 6 28 -3.38 0.00
 4 4 28 7.21 0.00
 4 6 28 -7.69 0.00
 4 8 28 14.06 0.00
 4 10 28 5.35 0.00
 4 12 28 12.20 0.00
 4 14 28 -2.60 0.00
 4 16 28 5.06 0.00
 4 18 28 -3.69 0.00
 4 20 28 4.88 0.00
 -4 17 29 -6.16 0.00
 -4 15 29 1.41 0.00
 -4 13 29 0.04 0.00
 -4 11 29 -2.94 0.00
 -4 9 29 -5.02 0.00
 -4 7 29 -12.77 0.00
 -4 5 29 -4.09 0.00
 4 5 29 2.47 0.00
 4 7 29 -9.06 0.00
 4 9 29 -5.26 0.00
 4 11 29 2.61 0.00
 4 13 29 -1.78 0.00
 4 15 29 4.92 0.00
 4 17 29 0.12 0.00
 4 19 29 6.97 0.00
 -4 16 30 3.53 0.00
 -4 14 30 2.98 0.00
 -4 12 30 -1.42 0.00
 -4 10 30 -7.92 0.00
 -4 8 30 -5.33 0.00
 -4 6 30 -10.37 0.00
 4 4 30 3.27 0.00
 4 6 30 -8.18 0.00
 4 8 30 0.84 0.00
 4 10 30 0.90 0.00
 4 12 30 -2.99 0.00
 4 14 30 -10.07 0.00
 4 16 30 1.03 0.00
 -4 15 31 -6.01 0.00
 -4 13 31 0.11 0.00
 -4 11 31 -7.40 0.00
 -4 9 31 -16.28 0.00
 -4 7 31 -9.12 0.00
 -4 5 31 -6.13 0.00
 4 5 31 0.21 0.00
 4 7 31 2.34 0.00
 4 9 31 -10.48 0.00
 4 11 31 0.05 0.00
 4 13 31 0.72 0.00
 4 15 31 -2.84 0.00
 -4 12 32 7.67 0.00
 -4 10 32 -0.10 0.00
 -4 8 32 -7.10 0.00
 -4 6 32 -8.50 0.00
 4 4 32 4.14 0.00
 4 6 32 -9.67 0.00
 4 8 32 1.39 0.00
 4 10 32 -6.52 0.00
 4 12 32 2.84 0.00
 -4 9 33 -4.26 0.00
 -4 7 33 -3.62 0.00
 -4 5 33 -6.38 0.00
 4 5 33 -4.42 0.00
 4 7 33 -0.12 0.00
 4 9 33 -6.36 0.00
 -4 6 34 -6.69 0.00
 4 4 34 -1.02 0.00
 -5 33 0 10.37 0.00
 -5 31 0 11.40 0.00
 -5 29 0 1.76 0.00
 -5 27 0 -6.73 0.00
 -5 25 0 -12.85 0.00
 -5 23 0 10.14 0.00
 -5 21 0 6.46 0.00
 -5 19 0 -19.83 0.00
 -5 17 0 -12.23 0.00
 -5 15 0 -13.57 0.00
 -5 13 0 27.27 0.00
 -5 11 0 26.24 0.00
 -5 9 0 119.16 0.00
 -5 7 0 -6.94 0.00
 5 5 0 -237.39 0.00
 5 7 0 -30.00 0.00
 5 9 0 99.58 0.00
 5 11 0 -31.35 0.00
 5 13 0 11.93 0.00
 5 15 0 -57.18 0.00
 5 17 0 100.12 0.00
 5 19 0 21.71 0.00
 5 21 0 0.67 0.00
 5 23 0 21.37 0.00
 5 25 0 -14.74 0.00
 5 27 0 20.29 0.00
 5 29 0 11.59 0.00
 5 31 0 -7.98 0.00
 5 33 0 4.64 0.00
 -5 32 1 5.17 0.00
 -5 30 1 12.21 0.00
 -5 28 1 -13.61 0.00
 -5 26 1 -6.87 0.00
 -5 24 1 -7.23 0.00
 -5 22 1 39.74 0.00
 -5 20 1 17.80 0.00
 -5 18 1 5.72 0.00
 -5 16 1 -16.59 0.00
 -5 14 1 8.72 0.00
 -5 12 1 -60.01 0.00
 -5 10 1 -25.61 0.00
 -5 8 1 -125.96 0.00
 -5 6 1 10.96 0.00
 5 6 1 -116.09 0.00
 5 8 1 -2.82 0.00
 5 10 1 18.16 0.00
 5 12 1 41.68 0.00
 5 14 1 28.04 0.00
 5 16 1 -5.58 0.00
 5 18 1 -7.36 0.00
 5 20 1 2.89 0.00
 5 22 1 6.44 0.00
 5 24 1 -5.70 0.00
 5 26 1 10.63 0.00
 5 28 1 6.17 0.00
 5 30 1 -8.20 0.00
 5 32 1 -3.23 0.00
 5 34 1 -4.22 0.00
 -5 33 2 0.60 0.00
 -5 31 2 -4.67 0.00
 -5 29 2 0.30 0.00
 -5 27 2 -8.70 0.00
 -5 25 2 -2.91 0.00
 -5 23 2 15.92 0.00
 -5 21 2 -4.84 0.00
 -5 19 2 -50.01 0.00
 -5 17 2 3.84 0.00
 -5 15 2 -1.31 0.00
 -5 13 2 29.16 0.00
 -5 11 2 4.05 0.00
 -5 9 2 -2.54 0.00
 -5 7 2 102.22 0.00
 5 5 2 12.14 0.00
 5 7 2 -12.25 0.00
 5 9 2 67.84 0.00
 5 11 2 -75.43 0.00
 5 13 2 39.19 0.00
 5 15 2 -85.52 0.00
 5 17 2 14.25 0.00
 5 19 2 30.14 0.00
 5 21 2 -11.76 0.00
 5 23 2 -13.01 0.00
 5 25 2 1.56 0.00
 5 27 2 14.62 0.00
 5 29 2 1.14 0.00
 5 31 2 -3.36 0.00
 5 33 2 8.96 0.00
 -5 34 3 -7.92 0.00
 -5 32 3 -10.81 0.00
 -5 30 3 2.55 0.00
 -5 28 3 -7.43 0.00
 -5 26 3 3.23 0.00
 -5 24 3 10.22 0.00
 -5 22 3 12.60 0.00
 -5 20 3 -5.51 0.00
 -5 18 3 -27.92 0.00
 -5 16 3 -5.46 0.00
 -5 14 3 -21.07 0.00
 -5 12 3 -34.49 0.00
 -5 10 3 -22.87 0.00
 -5 8 3 -144.46 0.00
 -5 6 3 64.53 0.00
 5 6 3 -44.72 0.00
 5 8 3 -157.74 0.00
 5 10 3 -33.90 0.00
 5 12 3 6.49 0.00
 5 14 3 34.83 0.00
 5 16 3 8.26 0.00
 5 18 3 16.36 0.00
 5 20 3 -21.45 0.00
 5 22 3 2.75 0.00
 5 24 3 -3.63 0.00
 5 26 3 -15.48 0.00
 5 28 3 -0.61 0.00
 5 30 3 -0.91 0.00
 5 32 3 3.26 0.00
 5 34 3 -1.77 0.00
 -5 33 4 8.59 0.00
 -5 31 4 2.05 0.00
 -5 29 4 2.07 0.00
 -5 27 4 8.26 0.00
 -5 25 4 -11.78 0.00
 -5 23 4 16.13 0.00
 -5 21 4 15.37 0.00
 -5 19 4 3.65 0.00
 -5 17 4 13.29 0.00
 -5 15 4 18.34 0.00
 -5 13 4 33.03 0.00
 -5 11 4 16.81 0.00
 -5 9 4 18.49 0.00
 -5 7 4 185.62 0.00
 5 5 4 4.90 0.00
 5 7 4 -21.49 0.00
 5 9 4 11.38 0.00
 5 11 4 6.28 0.00
 5 13 4 -12.42 0.00
 5 15 4 -130.02 0.00
 5 17 4 11.07 0.00
 5 19 4 -19.03 0.00
 5 21 4 -34.73 0.00
 5 23 4 7.74 0.00
 5 25 4 0.39 0.00
 5 27 4 19.20 0.00
 5 29 4 3.05 0.00
 5 31 4 5.51 0.00
 5 33 4 4.89 0.00
 -5 34 5 -1.65 0.00
 -5 32 5 0.01 0.00
 -5 30 5 11.65 0.00
 -5 28 5 -0.49 0.00
 -5 26 5 -8.04 0.00
 -5 24 5 7.39 0.00
 -5 22 5 1.13 0.00
 -5 20 5 5.16 0.00
 -5 18 5 -11.18 0.00
 -5 16 5 10.08 0.00
 -5 14 5 -24.19 0.00
 -5 12 5 -14.37 0.00
 -5 10 5 42.39 0.00
 -5 8 5 -80.98 0.00
 -5 6 5 -56.96 0.00
 5 6 5 -44.17 0.00
 5 8 5 -47.81 0.00
 5 10 5 -117.95 0.00
 5 12 5 22.65 0.00
 5 14 5 70.78 0.00
 5 16 5 31.18 0.00
 5 18 5 11.48 0.00
 5 20 5 -1.00 0.00
 5 22 5 2.15 0.00
 5 24 5 -10.31 0.00
 5 26 5 0.57 0.00
 5 28 5 3.44 0.00
 5 30 5 -5.64 0.00
 5 32 5 5.19 0.00
 5 34 5 -3.30 0.00
 -5 33 6 4.06 0.00
 -5 31 6 -0.47 0.00
 -5 29 6 -8.84 0.00
 -5 27 6 -6.53 0.00
 -5 25 6 -9.25 0.00
 -5 23 6 7.21 0.00
 -5 21 6 -9.81 0.00
 -5 19 6 6.22 0.00
 -5 17 6 14.31 0.00
 -5 15 6 -22.75 0.00
 -5 13 6 35.26 0.00
 -5 11 6 10.49 0.00
 -5 9 6 0.30 0.00
 -5 7 6 73.34 0.00
 5 5 6 -184.00 0.00
 5 7 6 77.20 0.00
 5 9 6 -57.27 0.00
 5 11 6 -63.87 0.00
 5 13 6 -6.46 0.00
 5 15 6 -90.05 0.00
 5 17 6 -10.78 0.00
 5 19 6 4.78 0.00
 5 21 6 -25.34 0.00
 5 23 6 -3.44 0.00
 5 25 6 -9.72 0.00
 5 27 6 1.16 0.00
 5 29 6 -9.06 0.00
 5 31 6 -9.15 0.00
 5 33 6 5.49 0.00
 -5 32 7 -2.98 0.00
 -5 30 7 -1.56 0.00
 -5 28 7 3.49 0.00
 -5 26 7 -2.38 0.00
 -5 24 7 -4.64 0.00
 -5 22 7 -8.27 0.00
 -5 20 7 12.97 0.00
 -5 18 7 -22.10 0.00
 -5 16 7 6.38 0.00
 -5 14 7 -2.58 0.00
 -5 12 7 -19.98 0.00
 -5 10 7 -32.98 0.00
 -5 8 7 -37.43 0.00
 -5 6 7 -1.67 0.00
 5 6 7 -20.53 0.00
 5 8 7 -8.07 0.00
 5 10 7 -84.16 0.00
 5 12 7 52.46 0.00
 5 14 7 53.51 0.00
 5 16 7 23.76 0.00
 5 18 7 2.25 0.00
 5 20 7 2.75 0.00
 5 22 7 5.70 0.00
 5 24 7 2.84 0.00
 5 26 7 0.70 0.00
 5 28 7 2.40 0.00
 5 30 7 -2.58 0.00
 5 32 7 2.31 0.00
 -5 33 8 4.08 0.00
 -5 31 8 -3.18 0.00
 -5 29 8 -5.38 0.00
 -5 27 8 13.33 0.00
 -5 25 8 6.15 0.00
 -5 23 8 0.97 0.00
 -5 21 8 -7.10 0.00
 -5 19 8 9.85 0.00
 -5 17 8 25.94 0.00
 -5 15 8 -17.82 0.00
 -5 13 8 58.97 0.00
 -5 11 8 16.18 0.00
 -5 9 8 56.73 0.00
 -5 7 8 59.31 0.00
 5 5 8 -55.71 0.00
 5 7 8 70.67 0.00
 5 9 8 -2.77 0.00
 5 11 8 -79.18 0.00
 5 13 8 -19.54 0.00
 5 15 8 -17.54 0.00
 5 17 8 6.79 0.00
 5 19 8 0.53 0.00
 5 21 8 -4.87 0.00
 5 23 8 16.76 0.00
 5 25 8 -19.01 0.00
 5 27 8 2.43 0.00
 5 29 8 -14.57 0.00
 5 31 8 -6.71 0.00
 5 33 8 4.56 0.00
 -5 32 9 12.56 0.00
 -5 30 9 -0.42 0.00
 -5 28 9 13.45 0.00
 -5 26 9 -4.66 0.00
 -5 24 9 2.02 0.00
 -5 22 9 -4.57 0.00
 -5 20 9 5.71 0.00
 -5 18 9 -1.80 0.00
 -5 16 9 5.21 0.00
 -5 14 9 -38.05 0.00
 -5 12 9 -12.04 0.00
 -5 10 9 -11.27 0.00
 -5 8 9 -5.15 0.00
 -5 6 9 -42.48 0.00
 5 6 9 27.55 0.00
 5 8 9 70.31 0.00
 5 10 9 -42.94 0.00
 5 12 9 19.21 0.00
 5 14 9 54.05 0.00
 5 16 9 4.56 0.00
 5 18 9 -41.37 0.00
 5 20 9 1.31 0.00
 5 22 9 1.84 0.00
 5 24 9 -0.33 0.00
 5 26 9 10.22 0.00
 5 28 9 3.37 0.00
 5 30 9 -1.02 0.00
 5 32 9 2.11 0.00
 -5 33 10 3.94 0.00
 -5 31 10 -12.04 0.00
 -5 29 10 -4.17 0.00
 -5 27 10 5.40 0.00
 -5 25 10 -1.17 0.00
 -5 23 10 -1.02 0.00
 -5 21 10 -17.73 0.00
 -5 19 10 -8.98 0.00
 -5 17 10 10.84 0.00
 -5 15 10 -35.02 0.00
 -5 13 10 -6.83 0.00
 -5 11 10 22.12 0.00
 -5 9 10 42.79 0.00
 -5 7 10 29.18 0.00
 5 5 10 -84.24 0.00
 5 7 10 59.06 0.00
 5 9 10 -10.05 0.00
 5 11 10 -86.61 0.00
 5 13 10 10.80 0.00
 5 15 10 -8.45 0.00
 5 17 10 9.03 0.00
 5 19 10 11.83 0.00
 5 21 10 -25.17 0.00
 5 23 10 13.95 0.00
 5 25 10 3.64 0.00
 5 27 10 2.04 0.00
 5 29 10 -11.16 0.00
 5 31 10 3.68 0.00
 5 33 10 5.37 0.00
 -5 32 11 5.61 0.00
 -5 30 11 -5.41 0.00
 -5 28 11 8.17 0.00
 -5 26 11 1.67 0.00
 -5 24 11 13.40 0.00
 -5 22 11 10.44 0.00
 -5 20 11 31.67 0.00
 -5 18 11 17.94 0.00
 -5 16 11 12.98 0.00
 -5 14 11 -39.30 0.00
 -5 12 11 20.14 0.00
 -5 10 11 30.10 0.00
 -5 8 11 -34.99 0.00
 -5 6 11 -29.32 0.00
 5 6 11 14.16 0.00
 5 8 11 22.17 0.00
 5 10 11 -50.49 0.00
 5 12 11 40.40 0.00
 5 14 11 20.47 0.00
 5 16 11 37.20 0.00
 5 18 11 -13.97 0.00
 5 20 11 -3.13 0.00
 5 22 11 5.53 0.00
 5 24 11 17.20 0.00
 5 26 11 -7.49 0.00
 5 28 11 -1.48 0.00
 5 30 11 7.21 0.00
 5 32 11 0.80 0.00
 -5 31 12 -4.19 0.00
 -5 29 12 -1.24 0.00
 -5 27 12 -4.74 0.00
 -5 25 12 -2.97 0.00
 -5 23 12 -3.29 0.00
 -5 21 12 -19.35 0.00
 -5 19 12 -2.50 0.00
 -5 17 12 26.06 0.00
 -5 15 12 -31.22 0.00
 -5 13 12 -15.69 0.00
 -5 11 12 21.32 0.00
 -5 9 12 28.72 0.00
 -5 7 12 62.96 0.00
 5 5 12 -72.56 0.00
 5 7 12 60.10 0.00
 5 9 12 -14.88 0.00
 5 11 12 -8.95 0.00
 5 13 12 28.28 0.00
 5 15 12 -8.99 0.00
 5 17 12 13.84 0.00
 5 19 12 8.63 0.00
 5 21 12 -6.04 0.00
 5 23 12 11.54 0.00
 5 25 12 -1.22 0.00
 5 27 12 11.21 0.00
 5 29 12 -4.07 0.00
 5 31 12 11.53 0.00
 -5 32 13 -0.54 0.00
 -5 30 13 1.64 0.00
 -5 28 13 0.97 0.00
 -5 26 13 -1.33 0.00
 -5 24 13 13.37 0.00
 -5 22 13 4.54 0.00
 -5 20 13 1.49 0.00
 -5 18 13 17.75 0.00
 -5 16 13 22.73 0.00
 -5 14 13 -18.35 0.00
 -5 12 13 -0.48 0.00
 -5 10 13 16.63 0.00
 -5 8 13 -36.42 0.00
 -5 6 13 -40.98 0.00
 5 6 13 15.08 0.00
 5 8 13 -6.21 0.00
 5 10 13 -77.92 0.00
 5 12 13 -18.60 0.00
 5 14 13 15.83 0.00
 5 16 13 5.55 0.00
 5 18 13 -8.63 0.00
 5 20 13 -10.14 0.00
 5 22 13 2.40 0.00
 5 24 13 8.67 0.00
 5 26 13 -5.81 0.00
 5 28 13 -6.31 0.00
 5 30 13 1.39 0.00
 5 32 13 6.35 0.00
 -5 31 14 -6.93 0.00
 -5 29 14 -4.26 0.00
 -5 27 14 -0.42 0.00
 -5 25 14 -18.23 0.00
 -5 23 14 0.28 0.00
 -5 21 14 -17.18 0.00
 -5 19 14 -10.88 0.00
 -5 17 14 17.37 0.00
 -5 15 14 -25.18 0.00
 -5 13 14 14.44 0.00
 -5 11 14 -21.96 0.00
 -5 9 14 3.03 0.00
 -5 7 14 37.70 0.00
 5 5 14 -61.42 0.00
 5 7 14 32.86 0.00
 5 9 14 33.38 0.00
 5 11 14 -44.81 0.00
 5 13 14 -8.88 0.00
 5 15 14 -26.39 0.00
 5 17 14 15.65 0.00
 5 19 14 -10.32 0.00
 5 21 14 -13.05 0.00
 5 23 14 13.20 0.00
 5 25 14 8.84 0.00
 5 27 14 9.53 0.00
 5 29 14 7.11 0.00
 5 31 14 1.06 0.00
 -5 30 15 -5.70 0.00
 -5 28 15 3.38 0.00
 -5 26 15 4.07 0.00
 -5 24 15 -2.78 0.00
 -5 22 15 5.16 0.00
 -5 20 15 -0.84 0.00
 -5 18 15 -2.47 0.00
 -5 16 15 9.95 0.00
 -5 14 15 -16.41 0.00
 -5 12 15 -12.31 0.00
 -5 10 15 -11.26 0.00
 -5 8 15 6.18 0.00
 -5 6 15 -35.86 0.00
 5 6 15 -24.03 0.00
 5 8 15 -3.35 0.00
 5 10 15 -32.22 0.00
 5 12 15 1.69 0.00
 5 14 15 16.36 0.00
 5 16 15 2.16 0.00
 5 18 15 -3.84 0.00
 5 20 15 -5.12 0.00
 5 22 15 8.05 0.00
 5 24 15 -9.23 0.00
 5 26 15 6.16 0.00
 5 28 15 9.46 0.00
 5 30 15 -11.60 0.00
 -5 29 16 -4.13 0.00
 -5 27 16 -12.15 0.00
 -5 25 16 -6.76 0.00
 -5 23 16 2.71 0.00
 -5 21 16 -5.72 0.00
 -5 19 16 0.46 0.00
 -5 17 16 5.13 0.00
 -5 15 16 -13.04 0.00
 -5 13 16 9.12 0.00
 -5 11 16 -8.90 0.00
 -5 9 16 -3.66 0.00
 -5 7 16 74.43 0.00
 5 5 16 -35.76 0.00
 5 7 16 7.32 0.00
 5 9 16 39.97 0.00
 5 11 16 8.04 0.00
 5 13 16 21.45 0.00
 5 15 16 -39.45 0.00
 5 17 16 4.80 0.00
 5 19 16 0.28 0.00
 5 21 16 -1.74 0.00
 5 23 16 -3.98 0.00
 5 25 16 -0.01 0.00
 5 27 16 20.20 0.00
 5 29 16 2.65 0.00
 -5 30 17 4.69 0.00
 -5 28 17 -13.31 0.00
 -5 26 17 -8.32 0.00
 -5 24 17 0.93 0.00
 -5 22 17 2.38 0.00
 -5 20 17 -1.73 0.00
 -5 18 17 -11.86 0.00
 -5 16 17 -2.59 0.00
 -5 14 17 -3.42 0.00
 -5 12 17 -19.52 0.00
 -5 10 17 -6.95 0.00
 -5 8 17 -37.41 0.00
 -5 6 17 3.46 0.00
 5 6 17 -13.65 0.00
 5 8 17 -29.36 0.00
 5 10 17 -12.19 0.00
 5 12 17 15.57 0.00
 5 14 17 0.40 0.00
 5 16 17 -11.63 0.00
 5 18 17 -2.28 0.00
 5 20 17 2.80 0.00
 5 22 17 -8.39 0.00
 5 24 17 -3.23 0.00
 5 26 17 6.50 0.00
 5 28 17 -3.91 0.00
 -5 29 18 4.54 0.00
 -5 27 18 -9.95 0.00
 -5 25 18 -6.86 0.00
 -5 23 18 2.72 0.00
 -5 21 18 1.95 0.00
 -5 19 18 -9.73 0.00
 -5 17 18 3.48 0.00
 -5 15 18 5.71 0.00
 -5 13 18 15.35 0.00
 -5 11 18 -17.87 0.00
 -5 9 18 -17.78 0.00
 -5 7 18 36.92 0.00
 5 5 18 -33.92 0.00
 5 7 18 5.49 0.00
 5 9 18 10.07 0.00
 5 11 18 -12.58 0.00
 5 13 18 6.35 0.00
 5 15 18 -43.08 0.00
 5 17 18 11.46 0.00
 5 19 18 5.63 0.00
 5 21 18 -8.36 0.00
 5 23 18 2.03 0.00
 5 25 18 3.76 0.00
 5 27 18 1.12 0.00
 5 29 18 3.96 0.00
 -5 28 19 -3.43 0.00
 -5 26 19 0.26 0.00
 -5 24 19 -1.40 0.00
 -5 22 19 4.65 0.00
 -5 20 19 0.58 0.00
 -5 18 19 2.74 0.00
 -5 16 19 -10.28 0.00
 -5 14 19 17.27 0.00
 -5 12 19 -16.10 0.00
 -5 10 19 4.17 0.00
 -5 8 19 -25.33 0.00
 -5 6 19 9.80 0.00
 5 6 19 6.32 0.00
 5 8 19 -20.15 0.00
 5 10 19 -2.05 0.00
 5 12 19 -13.16 0.00
 5 14 19 4.83 0.00
 5 16 19 -13.91 0.00
 5 18 19 -0.73 0.00
 5 20 19 -8.82 0.00
 5 22 19 -1.57 0.00
 5 24 19 -0.75 0.00
 5 26 19 4.08 0.00
 5 28 19 -2.38 0.00
 -5 27 20 5.10 0.00
 -5 25 20 -2.28 0.00
 -5 23 20 9.57 0.00
 -5 21 20 -0.49 0.00
 -5 19 20 -9.09 0.00
 -5 17 20 13.48 0.00
 -5 15 20 11.13 0.00
 -5 13 20 12.79 0.00
 -5 11 20 -7.45 0.00
 -5 9 20 -6.55 0.00
 -5 7 20 47.72 0.00
 5 5 20 -16.08 0.00
 5 7 20 18.17 0.00
 5 9 20 10.13 0.00
 5 11 20 -9.75 0.00
 5 13 20 26.36 0.00
 5 15 20 -35.35 0.00
 5 17 20 11.16 0.00
 5 19 20 2.94 0.00
 5 21 20 -6.05 0.00
 5 23 20 -0.60 0.00
 5 25 20 7.95 0.00
 5 27 20 6.44 0.00
 -5 26 21 -10.36 0.00
 -5 24 21 0.13 0.00
 -5 22 21 9.09 0.00
 -5 20 21 7.34 0.00
 -5 18 21 4.37 0.00
 -5 16 21 -5.84 0.00
 -5 14 21 2.94 0.00
 -5 12 21 -13.27 0.00
 -5 10 21 -12.03 0.00
 -5 8 21 -16.79 0.00
 -5 6 21 12.72 0.00
 5 6 21 -7.54 0.00
 5 8 21 -11.28 0.00
 5 10 21 4.14 0.00
 5 12 21 11.37 0.00
 5 14 21 -8.38 0.00
 5 16 21 -7.31 0.00
 5 18 21 -2.65 0.00
 5 20 21 -3.59 0.00
 5 22 21 -2.98 0.00
 5 24 21 0.16 0.00
 5 26 21 -5.59 0.00
 -5 25 22 -2.17 0.00
 -5 23 22 7.92 0.00
 -5 21 22 -0.77 0.00
 -5 19 22 -3.24 0.00
 -5 17 22 6.23 0.00
 -5 15 22 7.72 0.00
 -5 13 22 13.24 0.00
 -5 11 22 0.11 0.00
 -5 9 22 -17.54 0.00
 -5 7 22 33.42 0.00
 5 5 22 -28.34 0.00
 5 7 22 6.94 0.00
 5 9 22 16.72 0.00
 5 11 22 0.32 0.00
 5 13 22 17.48 0.00
 5 15 22 -5.66 0.00
 5 17 22 15.77 0.00
 5 19 22 11.16 0.00
 5 21 22 7.16 0.00
 5 23 22 -6.38 0.00
 5 25 22 -7.06 0.00
 -5 24 23 3.08 0.00
 -5 22 23 7.84 0.00
 -5 20 23 6.34 0.00
 -5 18 23 0.98 0.00
 -5 16 23 -7.38 0.00
 -5 14 23 3.47 0.00
 -5 12 23 3.50 0.00
 -5 10 23 -1.53 0.00
 -5 8 23 -1.22 0.00
 -5 6 23 7.09 0.00
 5 6 23 -3.14 0.00
 5 8 23 2.68 0.00
 5 10 23 9.01 0.00
 5 12 23 -1.67 0.00
 5 14 23 -0.81 0.00
 5 16 23 -3.25 0.00
 5 18 23 0.27 0.00
 5 20 23 -2.32 0.00
 5 22 23 2.34 0.00
 5 24 23 2.73 0.00
 -5 23 24 10.84 0.00
 -5 21 24 1.67 0.00
 -5 19 24 0.78 0.00
 -5 17 24 -2.27 0.00
 -5 15 24 -2.16 0.00
 -5 13 24 14.58 0.00
 -5 11 24 8.34 0.00
 -5 9 24 1.72 0.00
 -5 7 24 26.91 0.00
 5 5 24 -20.24 0.00
 5 7 24 9.95 0.00
 5 9 24 16.51 0.00
 5 11 24 1.05 0.00
 5 13 24 17.04 0.00
 5 15 24 1.98 0.00
 5 17 24 -6.70 0.00
 5 19 24 9.26 0.00
 5 21 24 -2.39 0.00
 5 23 24 -1.56 0.00
 -5 22 25 4.70 0.00
 -5 20 25 0.07 0.00
 -5 18 25 -15.54 0.00
 -5 16 25 3.81 0.00
 -5 14 25 -8.60 0.00
 -5 12 25 -4.14 0.00
 -5 10 25 -6.83 0.00
 -5 8 25 1.32 0.00
 -5 6 25 1.10 0.00
 5 6 25 -1.19 0.00
 5 8 25 4.37 0.00
 5 10 25 -11.23 0.00
 5 12 25 -8.56 0.00
 5 14 25 5.86 0.00
 5 16 25 -7.08 0.00
 5 18 25 -7.76 0.00
 5 20 25 2.08 0.00
 5 22 25 6.49 0.00
 -5 21 26 0.34 0.00
 -5 19 26 4.01 0.00
 -5 17 26 7.31 0.00
 -5 15 26 3.60 0.00
 -5 13 26 2.63 0.00
 -5 11 26 -5.11 0.00
 -5 9 26 0.58 0.00
 -5 7 26 11.21 0.00
 5 5 26 -14.38 0.00
 5 7 26 11.70 0.00
 5 9 26 -0.58 0.00
 5 11 26 -7.79 0.00
 5 13 26 -3.47 0.00
 5 15 26 1.81 0.00
 5 17 26 3.50 0.00
 5 19 26 -5.44 0.00
 5 21 26 -1.28 0.00
 -5 20 27 -2.02 0.00
 -5 18 27 -0.43 0.00
 -5 16 27 -1.09 0.00
 -5 14 27 -11.29 0.00
 -5 12 27 0.49 0.00
 -5 10 27 -1.52 0.00
 -5 8 27 -8.32 0.00
 -5 6 27 -5.05 0.00
 5 6 27 -0.32 0.00
 5 8 27 -2.36 0.00
 5 10 27 -8.01 0.00
 5 12 27 7.42 0.00
 5 14 27 -3.37 0.00
 5 16 27 5.13 0.00
 5 18 27 0.55 0.00
 5 20 27 5.02 0.00
 -5 19 28 -0.49 0.00
 -5 17 28 0.79 0.00
 -5 15 28 -1.87 0.00
 -5 13 28 2.76 0.00
 -5 11 28 -0.78 0.00
 -5 9 28 -2.16 0.00
 -5 7 28 9.21 0.00
 5 5 28 -9.30 0.00
 5 7 28 13.52 0.00
 5 9 28 4.08 0.00
 5 11 28 -1.74 0.00
 5 13 28 5.35 0.00
 5 15 28 2.29 0.00
 5 17 28 7.21 0.00
 5 19 28 6.45 0.00
 -5 18 29 -6.69 0.00
 -5 16 29 -6.99 0.00
 -5 14 29 -9.63 0.00
 -5 12 29 -8.22 0.00
 -5 10 29 3.44 0.00
 -5 8 29 -2.72 0.00
 -5 6 29 -5.27 0.00
 5 6 29 0.74 0.00
 5 8 29 1.18 0.00
 5 10 29 7.77 0.00
 5 12 29 11.03 0.00
 5 14 29 12.39 0.00
 5 16 29 -2.44 0.00
 5 18 29 -1.16 0.00
 -5 17 30 -3.47 0.00
 -5 15 30 -6.97 0.00
 -5 13 30 -0.42 0.00
 -5 11 30 -1.02 0.00
 -5 9 30 -7.76 0.00
 -5 7 30 7.62 0.00
 5 5 30 -6.14 0.00
 5 7 30 13.61 0.00
 5 9 30 0.14 0.00
 5 11 30 -4.03 0.00
 5 13 30 -3.43 0.00
 5 15 30 15.05 0.00
 5 17 30 5.04 0.00
 -5 14 31 1.22 0.00
 -5 12 31 -4.52 0.00
 -5 10 31 -3.06 0.00
 -5 8 31 -1.62 0.00
 -5 6 31 -6.25 0.00
 5 6 31 -4.49 0.00
 5 8 31 -2.59 0.00
 5 10 31 -5.84 0.00
 5 12 31 4.22 0.00
 5 14 31 -2.14 0.00
 -5 13 32 5.20 0.00
 -5 11 32 8.88 0.00
 -5 9 32 6.03 0.00
 -5 7 32 6.79 0.00
 5 5 32 -7.10 0.00
 5 7 32 1.99 0.00
 5 9 32 -1.13 0.00
 5 11 32 -8.64 0.00
 5 13 32 9.73 0.00
 -5 10 33 -1.68 0.00
 -5 8 33 -1.53 0.00
 -5 6 33 -6.60 0.00
 5 6 33 0.92 0.00
 5 8 33 7.53 0.00
 5 10 33 0.58 0.00
 5 5 34 -6.91 0.00
 -6 32 0 9.12 0.00
 -6 30 0 21.35 0.00
 -6 28 0 2.18 0.00
 -6 26 0 1.70 0.00
 -6 24 0 -2.54 0.00
 -6 22 0 -12.20 0.00
 -6 20 0 25.15 0.00
 -6 18 0 16.81 0.00
 -6 16 0 13.25 0.00
 -6 14 0 44.89 0.00
 -6 12 0 34.12 0.00
 -6 10 0 52.20 0.00
 -6 8 0 74.19 0.00
 6 6 0 -65.11 0.00
 6 8 0 -30.95 0.00
 6 10 0 -4.97 0.00
 6 12 0 41.55 0.00
 6 14 0 67.46 0.00
 6 16 0 56.31 0.00
 6 18 0 39.98 0.00
 6 20 0 1.96 0.00
 6 22 0 -6.28 0.00
 6 24 0 5.51 0.00
 6 26 0 2.64 0.00
 6 28 0 4.18 0.00
 6 30 0 -4.77 0.00
 6 32 0 -4.50 0.00
 -6 33 1 -10.98 0.00
 -6 31 1 0.99 0.00
 -6 29 1 -8.13 0.00
 -6 27 1 -0.78 0.00
 -6 25 1 -5.25 0.00
 -6 23 1 -10.27 0.00
 -6 21 1 -8.10 0.00
 -6 19 1 -16.66 0.00
 -6 17 1 -71.13 0.00
 -6 15 1 -57.25 0.00
 -6 13 1 -44.80 0.00
 -6 11 1 -67.45 0.00
 -6 9 1 -2.25 0.00
 -6 7 1 182.99 0.00
 6 7 1 26.25 0.00
 6 9 1 37.77 0.00
 6 11 1 -15.97 0.00
 6 13 1 23.78 0.00
 6 15 1 -63.97 0.00
 6 17 1 -56.99 0.00
 6 19 1 7.91 0.00
 6 21 1 34.86 0.00
 6 23 1 -8.44 0.00
 6 25 1 12.09 0.00
 6 27 1 -0.83 0.00
 6 29 1 4.57 0.00
 6 31 1 -19.73 0.00
 6 33 1 4.80 0.00
 -6 34 2 5.91 0.00
 -6 32 2 -10.25 0.00
 -6 30 2 5.85 0.00
 -6 28 2 3.54 0.00
 -6 26 2 4.51 0.00
 -6 24 2 -6.92 0.00
 -6 22 2 -25.56 0.00
 -6 20 2 19.39 0.00
 -6 18 2 -1.28 0.00
 -6 16 2 26.59 0.00
 -6 14 2 27.50 0.00
 -6 12 2 -9.98 0.00
 -6 10 2 6.67 0.00
 -6 8 2 -69.86 0.00
 6 6 2 -64.03 0.00
 6 8 2 -12.24 0.00
 6 10 2 2.63 0.00
 6 12 2 -37.05 0.00
 6 14 2 52.97 0.00
 6 16 2 -2.00 0.00
 6 18 2 5.12 0.00
 6 20 2 25.79 0.00
 6 22 2 -21.45 0.00
 6 24 2 -1.59 0.00
 6 26 2 9.31 0.00
 6 28 2 -6.03 0.00
 6 30 2 -4.63 0.00
 6 32 2 -0.06 0.00
 6 34 2 4.97 0.00
 -6 33 3 -1.16 0.00
 -6 31 3 -1.50 0.00
 -6 29 3 11.41 0.00
 -6 27 3 5.31 0.00
 -6 25 3 12.75 0.00
 -6 23 3 0.58 0.00
 -6 21 3 -18.34 0.00
 -6 19 3 -16.62 0.00
 -6 17 3 -20.12 0.00
 -6 15 3 -12.12 0.00
 -6 13 3 -23.16 0.00
 -6 11 3 -6.05 0.00
 -6 9 3 -13.49 0.00
 -6 7 3 113.07 0.00
 6 7 3 -154.65 0.00
 6 9 3 55.11 0.00
 6 11 3 -20.79 0.00
 6 13 3 32.79 0.00
 6 15 3 -50.70 0.00
 6 17 3 -29.66 0.00
 6 19 3 -1.09 0.00
 6 21 3 -5.52 0.00
 6 23 3 0.87 0.00
 6 25 3 -7.54 0.00
 6 27 3 -20.45 0.00
 6 29 3 7.91 0.00
 6 31 3 -4.49 0.00
 6 33 3 6.19 0.00
 -6 34 4 7.50 0.00
 -6 32 4 0.12 0.00
 -6 30 4 5.51 0.00
 -6 28 4 9.54 0.00
 -6 26 4 3.87 0.00
 -6 24 4 3.38 0.00
 -6 22 4 -4.51 0.00
 -6 20 4 16.72 0.00
 -6 18 4 4.31 0.00
 -6 16 4 10.43 0.00
 -6 14 4 23.44 0.00
 -6 12 4 35.06 0.00
 -6 10 4 25.93 0.00
 -6 8 4 59.76 0.00
 6 6 4 64.16 0.00
 6 8 4 20.49 0.00
 6 10 4 78.77 0.00
 6 12 4 -6.81 0.00
 6 14 4 -25.40 0.00
 6 16 4 -3.58 0.00
 6 18 4 0.08 0.00
 6 20 4 14.78 0.00
 6 22 4 4.84 0.00
 6 24 4 25.94 0.00
 6 26 4 13.22 0.00
 6 28 4 -8.92 0.00
 6 30 4 -2.38 0.00
 6 32 4 -0.27 0.00
 6 34 4 2.78 0.00
 -6 33 5 3.14 0.00
 -6 31 5 0.14 0.00
 -6 29 5 -2.25 0.00
 -6 27 5 -1.17 0.00
 -6 25 5 9.28 0.00
 -6 23 5 10.94 0.00
 -6 21 5 -16.43 0.00
 -6 19 5 -27.75 0.00
 -6 17 5 12.37 0.00
 -6 15 5 19.53 0.00
 -6 13 5 -55.04 0.00
 -6 11 5 6.19 0.00
 -6 9 5 71.68 0.00
 -6 7 5 131.72 0.00
 6 7 5 -51.66 0.00
 6 9 5 45.18 0.00
 6 11 5 -28.53 0.00
 6 13 5 0.82 0.00
 6 15 5 21.25 0.00
 6 17 5 -21.34 0.00
 6 19 5 -11.66 0.00
 6 21 5 -16.69 0.00
 6 23 5 1.40 0.00
 6 25 5 0.09 0.00
 6 27 5 -6.22 0.00
 6 29 5 -4.12 0.00
 6 31 5 -1.51 0.00
 6 33 5 -1.28 0.00
 -6 32 6 -1.37 0.00
 -6 30 6 4.31 0.00
 -6 28 6 1.56 0.00
 -6 26 6 -7.43 0.00
 -6 24 6 12.09 0.00
 -6 22 6 -14.07 0.00
 -6 20 6 -17.09 0.00
 -6 18 6 3.02 0.00
 -6 16 6 13.24 0.00
 -6 14 6 3.97 0.00
 -6 12 6 12.91 0.00
 -6 10 6 51.64 0.00
 -6 8 6 31.81 0.00
 6 6 6 18.61 0.00
 6 8 6 70.05 0.00
 6 10 6 26.93 0.00
 6 12 6 -48.86 0.00
 6 14 6 -13.26 0.00
 6 16 6 4.60 0.00
 6 18 6 -4.15 0.00
 6 20 6 -3.99 0.00
 6 22 6 -20.37 0.00
 6 24 6 19.85 0.00
 6 26 6 7.49 0.00
 6 28 6 2.60 0.00
 6 30 6 -7.16 0.00
 6 32 6 -1.62 0.00
 -6 33 7 -0.83 0.00
 -6 31 7 -13.24 0.00
 -6 29 7 -4.42 0.00
 -6 27 7 -12.34 0.00
 -6 25 7 8.66 0.00
 -6 23 7 23.59 0.00
 -6 21 7 -0.69 0.00
 -6 19 7 -19.01 0.00
 -6 17 7 22.92 0.00
 -6 15 7 -5.03 0.00
 -6 13 7 -9.36 0.00
 -6 11 7 -19.45 0.00
 -6 9 7 61.46 0.00
 -6 7 7 125.05 0.00
 6 7 7 9.31 0.00
 6 9 7 34.36 0.00
 6 11 7 45.13 0.00
 6 13 7 -8.04 0.00
 6 15 7 2.96 0.00
 6 17 7 3.63 0.00
 6 19 7 19.24 0.00
 6 21 7 -9.17 0.00
 6 23 7 8.76 0.00
 6 25 7 -2.98 0.00
 6 27 7 -2.53 0.00
 6 29 7 -5.37 0.00
 6 31 7 -17.65 0.00
 6 33 7 -1.59 0.00
 -6 32 8 1.73 0.00
 -6 30 8 8.71 0.00
 -6 28 8 3.31 0.00
 -6 26 8 0.14 0.00
 -6 24 8 10.88 0.00
 -6 22 8 -16.94 0.00
 -6 20 8 -8.06 0.00
 -6 18 8 -1.82 0.00
 -6 16 8 24.60 0.00
 -6 14 8 18.56 0.00
 -6 12 8 17.71 0.00
 -6 10 8 71.19 0.00
 -6 8 8 15.48 0.00
 6 6 8 -32.89 0.00
 6 8 8 59.45 0.00
 6 10 8 70.69 0.00
 6 12 8 -24.03 0.00
 6 14 8 17.79 0.00
 6 16 8 25.07 0.00
 6 18 8 10.63 0.00
 6 20 8 -12.06 0.00
 6 22 8 -2.23 0.00
 6 24 8 -7.03 0.00
 6 26 8 -2.94 0.00
 6 28 8 0.24 0.00
 6 30 8 -5.16 0.00
 6 32 8 2.34 0.00
 -6 33 9 -1.10 0.00
 -6 31 9 5.47 0.00
 -6 29 9 -5.29 0.00
 -6 27 9 -6.29 0.00
 -6 25 9 9.17 0.00
 -6 23 9 7.04 0.00
 -6 21 9 -8.67 0.00
 -6 19 9 -31.52 0.00
 -6 17 9 17.76 0.00
 -6 15 9 -7.98 0.00
 -6 13 9 -27.73 0.00
 -6 11 9 -18.98 0.00
 -6 9 9 107.70 0.00
 -6 7 9 73.78 0.00
 6 7 9 -18.65 0.00
 6 9 9 78.94 0.00
 6 11 9 -9.45 0.00
 6 13 9 -46.83 0.00
 6 15 9 4.09 0.00
 6 17 9 -9.62 0.00
 6 19 9 20.58 0.00
 6 21 9 -1.75 0.00
 6 23 9 11.78 0.00
 6 25 9 6.28 0.00
 6 27 9 -0.04 0.00
 6 29 9 -14.09 0.00
 6 31 9 -9.41 0.00
 6 33 9 -3.38 0.00
 -6 32 10 -4.51 0.00
 -6 30 10 6.86 0.00
 -6 28 10 6.23 0.00
 -6 26 10 -2.99 0.00
 -6 24 10 7.95 0.00
 -6 22 10 -14.54 0.00
 -6 20 10 -8.76 0.00
 -6 18 10 8.66 0.00
 -6 16 10 24.98 0.00
 -6 14 10 -6.46 0.00
 -6 12 10 -22.85 0.00
 -6 10 10 19.19 0.00
 -6 8 10 38.81 0.00
 6 6 10 -56.97 0.00
 6 8 10 14.25 0.00
 6 10 10 21.69 0.00
 6 12 10 -55.24 0.00
 6 14 10 28.64 0.00
 6 16 10 14.82 0.00
 6 18 10 9.90 0.00
 6 20 10 -8.65 0.00
 6 22 10 -15.21 0.00
 6 24 10 3.38 0.00
 6 26 10 -1.80 0.00
 6 28 10 -8.18 0.00
 6 30 10 -6.17 0.00
 6 32 10 -1.97 0.00
 -6 31 11 2.16 0.00
 -6 29 11 -5.93 0.00
 -6 27 11 -6.11 0.00
 -6 25 11 3.93 0.00
 -6 23 11 6.32 0.00
 -6 21 11 -15.87 0.00
 -6 19 11 -15.74 0.00
 -6 17 11 -0.33 0.00
 -6 15 11 -9.34 0.00
 -6 13 11 -41.32 0.00
 -6 11 11 -26.03 0.00
 -6 9 11 25.00 0.00
 -6 7 11 60.66 0.00
 6 7 11 -29.08 0.00
 6 9 11 -18.73 0.00
 6 11 11 11.88 0.00
 6 13 11 -39.60 0.00
 6 15 11 -5.50 0.00
 6 17 11 0.16 0.00
 6 19 11 23.31 0.00
 6 21 11 -10.47 0.00
 6 23 11 19.79 0.00
 6 25 11 5.49 0.00
 6 27 11 -4.46 0.00
 6 29 11 3.01 0.00
 6 31 11 0.44 0.00
 -6 32 12 1.62 0.00
 -6 30 12 -0.50 0.00
 -6 28 12 -9.29 0.00
 -6 26 12 -6.00 0.00
 -6 24 12 6.12 0.00
 -6 22 12 -1.17 0.00
 -6 20 12 20.93 0.00
 -6 18 12 -4.09 0.00
 -6 16 12 35.15 0.00
 -6 14 12 15.70 0.00
 -6 12 12 6.28 0.00
 -6 10 12 24.30 0.00
 -6 8 12 20.84 0.00
 6 6 12 1.52 0.00
 6 8 12 25.06 0.00
 6 10 12 32.78 0.00
 6 12 12 -11.66 0.00
 6 14 12 1.38 0.00
 6 16 12 -15.70 0.00
 6 18 12 -4.10 0.00
 6 20 12 -3.89 0.00
 6 22 12 -1.83 0.00
 6 24 12 1.27 0.00
 6 26 12 6.54 0.00
 6 28 12 -0.73 0.00
 6 30 12 -6.43 0.00
 6 32 12 2.41 0.00
 -6 31 13 7.57 0.00
 -6 29 13 4.40 0.00
 -6 27 13 -6.70 0.00
 -6 25 13 8.70 0.00
 -6 23 13 -1.52 0.00
 -6 21 13 -16.03 0.00
 -6 19 13 -4.52 0.00
 -6 17 13 -9.90 0.00
 -6 15 13 -6.87 0.00
 -6 13 13 -35.95 0.00
 -6 11 13 -17.74 0.00
 -6 9 13 7.81 0.00
 -6 7 13 5.64 0.00
 6 7 13 -21.50 0.00
 6 9 13 -3.69 0.00
 6 11 13 -27.36 0.00
 6 13 13 -5.95 0.00
 6 15 13 6.11 0.00
 6 17 13 -10.92 0.00
 6 19 13 20.53 0.00
 6 21 13 -11.22 0.00
 6 23 13 4.13 0.00
 6 25 13 -8.54 0.00
 6 27 13 -7.48 0.00
 6 29 13 0.50 0.00
 6 31 13 7.05 0.00
 -6 30 14 0.29 0.00
 -6 28 14 -0.66 0.00
 -6 26 14 -5.96 0.00
 -6 24 14 -7.04 0.00
 -6 22 14 1.94 0.00
 -6 20 14 5.17 0.00
 -6 18 14 9.50 0.00
 -6 16 14 -0.36 0.00
 -6 14 14 16.57 0.00
 -6 12 14 26.18 0.00
 -6 10 14 17.12 0.00
 -6 8 14 11.38 0.00
 6 6 14 8.17 0.00
 6 8 14 31.65 0.00
 6 10 14 1.16 0.00
 6 12 14 -41.21 0.00
 6 14 14 -2.60 0.00
 6 16 14 -15.18 0.00
 6 18 14 -7.84 0.00
 6 20 14 -5.34 0.00
 6 22 14 -2.70 0.00
 6 24 14 -0.04 0.00
 6 26 14 -0.74 0.00
 6 28 14 -0.86 0.00
 6 30 14 -4.01 0.00
 -6 31 15 2.42 0.00
 -6 29 15 2.84 0.00
 -6 27 15 4.95 0.00
 -6 25 15 -7.69 0.00
 -6 23 15 -7.50 0.00
 -6 21 15 3.51 0.00
 -6 19 15 -15.69 0.00
 -6 17 15 -7.81 0.00
 -6 15 15 -1.58 0.00
 -6 13 15 -14.77 0.00
 -6 11 15 -12.28 0.00
 -6 9 15 14.25 0.00
 -6 7 15 33.44 0.00
 6 7 15 -43.48 0.00
 6 9 15 24.22 0.00
 6 11 15 -5.54 0.00
 6 13 15 25.61 0.00
 6 15 15 2.84 0.00
 6 17 15 1.36 0.00
 6 19 15 10.75 0.00
 6 21 15 3.04 0.00
 6 23 15 -4.62 0.00
 6 25 15 -18.10 0.00
 6 27 15 4.26 0.00
 6 29 15 7.08 0.00
 6 31 15 -4.80 0.00
 -6 30 16 -1.34 0.00
 -6 28 16 3.76 0.00
 -6 26 16 -5.67 0.00
 -6 24 16 0.68 0.00
 -6 22 16 3.24 0.00
 -6 20 16 7.18 0.00
 -6 18 16 3.09 0.00
 -6 16 16 8.63 0.00
 -6 14 16 11.86 0.00
 -6 12 16 23.13 0.00
 -6 10 16 23.49 0.00
 -6 8 16 -0.82 0.00
 6 6 16 -21.36 0.00
 6 8 16 -24.13 0.00
 6 10 16 0.03 0.00
 6 12 16 -1.36 0.00
 6 14 16 -0.45 0.00
 6 16 16 -1.70 0.00
 6 18 16 -1.06 0.00
 6 20 16 2.13 0.00
 6 22 16 -4.30 0.00
 6 24 16 -8.72 0.00
 6 26 16 7.39 0.00
 6 28 16 9.14 0.00
 6 30 16 -2.87 0.00
 -6 29 17 6.61 0.00
 -6 27 17 -4.88 0.00
 -6 25 17 0.05 0.00
 -6 23 17 1.57 0.00
 -6 21 17 0.72 0.00
 -6 19 17 -0.97 0.00
 -6 17 17 4.49 0.00
 -6 15 17 5.15 0.00
 -6 13 17 -16.98 0.00
 -6 11 17 1.42 0.00
 -6 9 17 -24.09 0.00
 -6 7 17 27.12 0.00
 6 7 17 -37.39 0.00
 6 9 17 14.01 0.00
 6 11 17 -3.82 0.00
 6 13 17 21.82 0.00
 6 15 17 6.10 0.00
 6 17 17 -0.92 0.00
 6 19 17 7.60 0.00
 6 21 17 7.24 0.00
 6 23 17 -11.26 0.00
 6 25 17 -10.44 0.00
 6 27 17 -5.82 0.00
 6 29 17 0.00 0.00
 -6 28 18 1.07 0.00
 -6 26 18 -6.32 0.00
 -6 24 18 2.46 0.00
 -6 22 18 5.35 0.00
 -6 20 18 2.20 0.00
 -6 18 18 1.62 0.00
 -6 16 18 2.09 0.00
 -6 14 18 7.87 0.00
 -6 12 18 -8.91 0.00
 -6 10 18 8.18 0.00
 -6 8 18 -18.73 0.00
 6 6 18 -22.96 0.00
 6 8 18 0.19 0.00
 6 10 18 -11.13 0.00
 6 12 18 -25.10 0.00
 6 14 18 5.29 0.00
 6 16 18 -1.77 0.00
 6 18 18 2.47 0.00
 6 20 18 -5.35 0.00
 6 22 18 -7.58 0.00
 6 24 18 -7.72 0.00
 6 26 18 -7.74 0.00
 6 28 18 0.04 0.00
 -6 27 19 10.50 0.00
 -6 25 19 0.85 0.00
 -6 23 19 -1.67 0.00
 -6 21 19 -0.91 0.00
 -6 19 19 3.14 0.00
 -6 17 19 2.83 0.00
 -6 15 19 3.11 0.00
 -6 13 19 -9.75 0.00
 -6 11 19 15.47 0.00
 -6 9 19 -0.21 0.00
 -6 7 19 12.63 0.00
 6 7 19 -33.18 0.00
 6 9 19 26.49 0.00
 6 11 19 -14.16 0.00
 6 13 19 10.10 0.00
 6 15 19 -3.87 0.00
 6 17 19 -3.42 0.00
 6 19 19 -0.25 0.00
 6 21 19 1.27 0.00
 6 23 19 5.46 0.00
 6 25 19 -5.56 0.00
 6 27 19 -3.79 0.00
 -6 26 20 -2.72 0.00
 -6 24 20 -7.98 0.00
 -6 22 20 1.39 0.00
 -6 20 20 0.90 0.00
 -6 18 20 3.33 0.00
 -6 16 20 6.07 0.00
 -6 14 20 1.66 0.00
 -6 12 20 5.80 0.00
 -6 10 20 9.40 0.00
 -6 8 20 -15.33 0.00
 6 6 20 -9.40 0.00
 6 8 20 -13.76 0.00
 6 10 20 2.28 0.00
 6 12 20 6.35 0.00
 6 14 20 6.87 0.00
 6 16 20 -8.31 0.00
 6 18 20 1.12 0.00
 6 20 20 -6.40 0.00
 6 22 20 -16.12 0.00
 6 24 20 1.19 0.00
 6 26 20 2.07 0.00
 -6 27 21 6.23 0.00
 -6 25 21 -5.16 0.00
 -6 23 21 2.73 0.00
 -6 21 21 -4.04 0.00
 -6 19 21 0.41 0.00
 -6 17 21 -4.14 0.00
 -6 15 21 -1.54 0.00
 -6 13 21 -6.26 0.00
 -6 11 21 18.11 0.00
 -6 9 21 -20.68 0.00
 -6 7 21 22.80 0.00
 6 7 21 -32.25 0.00
 6 9 21 2.20 0.00
 6 11 21 -7.84 0.00
 6 13 21 17.92 0.00
 6 15 21 -15.48 0.00
 6 17 21 5.18 0.00
 6 19 21 -1.26 0.00
 6 21 21 4.59 0.00
 6 23 21 -3.09 0.00
 6 25 21 -2.71 0.00
 6 27 21 -5.01 0.00
 -6 26 22 0.15 0.00
 -6 24 22 -2.97 0.00
 -6 22 22 -4.80 0.00
 -6 20 22 14.14 0.00
 -6 18 22 -3.01 0.00
 -6 16 22 9.28 0.00
 -6 14 22 10.04 0.00
 -6 12 22 13.10 0.00
 -6 10 22 2.78 0.00
 -6 8 22 -13.98 0.00
 6 6 22 -7.22 0.00
 6 8 22 -5.14 0.00
 6 10 22 2.00 0.00
 6 12 22 3.07 0.00
 6 14 22 13.04 0.00
 6 16 22 -3.25 0.00
 6 18 22 5.09 0.00
 6 20 22 15.82 0.00
 6 22 22 -12.54 0.00
 6 24 22 4.17 0.00
 6 26 22 -5.52 0.00
 -6 25 23 3.20 0.00
 -6 23 23 -7.51 0.00
 -6 21 23 -1.36 0.00
 -6 19 23 1.77 0.00
 -6 17 23 -5.91 0.00
 -6 15 23 -6.76 0.00
 -6 13 23 -0.18 0.00
 -6 11 23 9.43 0.00
 -6 9 23 -9.06 0.00
 -6 7 23 13.02 0.00
 6 7 23 -17.12 0.00
 6 9 23 7.40 0.00
 6 11 23 -8.48 0.00
 6 13 23 14.14 0.00
 6 15 23 0.72 0.00
 6 17 23 8.07 0.00
 6 19 23 18.74 0.00
 6 21 23 1.97 0.00
 6 23 23 5.90 0.00
 6 25 23 -5.20 0.00
 -6 24 24 6.14 0.00
 -6 22 24 0.58 0.00
 -6 20 24 7.43 0.00
 -6 18 24 -4.26 0.00
 -6 16 24 3.10 0.00
 -6 14 24 4.78 0.00
 -6 12 24 1.87 0.00
 -6 10 24 11.04 0.00
 -6 8 24 -1.85 0.00
 6 6 24 9.41 0.00
 6 8 24 10.84 0.00
 6 10 24 7.26 0.00
 6 12 24 -7.91 0.00
 6 14 24 3.17 0.00
 6 16 24 -2.62 0.00
 6 18 24 9.10 0.00
 6 20 24 4.92 0.00
 6 22 24 -3.73 0.00
 6 24 24 1.56 0.00
 -6 23 25 -7.28 0.00
 -6 21 25 1.64 0.00
 -6 19 25 -11.00 0.00
 -6 17 25 0.42 0.00
 -6 15 25 -1.51 0.00
 -6 13 25 -15.84 0.00
 -6 11 25 -2.50 0.00
 -6 9 25 -1.44 0.00
 -6 7 25 10.37 0.00
 6 7 25 -4.30 0.00
 6 9 25 7.19 0.00
 6 11 25 0.27 0.00
 6 13 25 -1.24 0.00
 6 15 25 2.13 0.00
 6 17 25 -6.75 0.00
 6 19 25 6.51 0.00
 6 21 25 0.35 0.00
 6 23 25 1.72 0.00
 -6 22 26 -5.14 0.00
 -6 20 26 6.49 0.00
 -6 18 26 3.11 0.00
 -6 16 26 0.22 0.00
 -6 14 26 4.67 0.00
 -6 12 26 -10.48 0.00
 -6 10 26 5.74 0.00
 -6 8 26 -3.03 0.00
 6 6 26 -9.46 0.00
 6 8 26 6.19 0.00
 6 10 26 -0.07 0.00
 6 12 26 -6.88 0.00
 6 14 26 -7.34 0.00
 6 16 26 -2.06 0.00
 6 18 26 -3.32 0.00
 6 20 26 -4.22 0.00
 6 22 26 -3.83 0.00
 -6 19 27 0.10 0.00
 -6 17 27 10.25 0.00
 -6 15 27 1.92 0.00
 -6 13 27 -2.42 0.00
 -6 11 27 11.56 0.00
 -6 9 27 2.61 0.00
 -6 7 27 -2.72 0.00
 6 7 27 -0.66 0.00
 6 9 27 14.30 0.00
 6 11 27 10.92 0.00
 6 13 27 0.65 0.00
 6 15 27 -0.02 0.00
 6 17 27 2.90 0.00
 6 19 27 -1.18 0.00
 6 21 27 -1.74 0.00
 -6 18 28 -1.10 0.00
 -6 16 28 4.31 0.00
 -6 14 28 2.37 0.00
 -6 12 28 -11.47 0.00
 -6 10 28 1.82 0.00
 -6 8 28 8.36 0.00
 6 6 28 -6.68 0.00
 6 8 28 6.41 0.00
 6 10 28 -4.92 0.00
 6 12 28 -7.80 0.00
 6 14 28 -7.02 0.00
 6 16 28 0.16 0.00
 6 18 28 4.91 0.00
 -6 17 29 6.74 0.00
 -6 15 29 4.12 0.00
 -6 13 29 -10.71 0.00
 -6 11 29 3.83 0.00
 -6 9 29 10.62 0.00
 -6 7 29 -2.66 0.00
 6 7 29 3.79 0.00
 6 9 29 11.16 0.00
 6 11 29 -0.32 0.00
 6 13 29 -5.11 0.00
 6 15 29 4.88 0.00
 6 17 29 -11.32 0.00
 -6 16 30 1.04 0.00
 -6 14 30 4.98 0.00
 -6 12 30 -1.27 0.00
 -6 10 30 0.05 0.00
 -6 8 30 -2.62 0.00
 6 6 30 -12.50 0.00
 6 8 30 -1.63 0.00
 6 10 30 -8.64 0.00
 6 12 30 -20.13 0.00
 6 14 30 -2.53 0.00
 6 16 30 1.22 0.00
 -6 15 31 1.92 0.00
 -6 13 31 -5.79 0.00
 -6 11 31 -4.18 0.00
 -6 9 31 -1.27 0.00
 -6 7 31 -6.23 0.00
 6 7 31 4.61 0.00
 6 9 31 1.38 0.00
 6 11 31 -0.50 0.00
 6 13 31 -1.80 0.00
 6 15 31 1.60 0.00
 -6 12 32 1.55 0.00
 -6 10 32 5.08 0.00
 -6 8 32 4.63 0.00
 6 6 32 -6.55 0.00
 6 8 32 4.22 0.00
 6 10 32 6.97 0.00
 6 12 32 -1.84 0.00
 -6 9 33 -3.08 0.00
 -6 7 33 8.35 0.00
 6 7 33 8.91 0.00
 6 9 33 1.56 0.00
 6 6 34 -2.42 0.00
 4 6 34 -6.01 0.00
 -7 33 0 3.49 0.00
 -7 31 0 4.18 0.00
 -7 29 0 7.44 0.00
 -7 27 0 -20.15 0.00
 -7 25 0 -10.97 0.00
 -7 23 0 11.04 0.00
 -7 21 0 -1.06 0.00
 -7 19 0 55.20 0.00
 -7 17 0 40.69 0.00
 -7 15 0 -8.82 0.00
 -7 13 0 -43.57 0.00
 -7 11 0 79.81 0.00
 -7 9 0 -4.28 0.00
 7 7 0 -30.55 0.00
 1 7 0 32.71 0.00
 7 9 0 -9.75 0.00
 7 11 0 46.22 0.00
 7 13 0 16.90 0.00
 7 15 0 6.38 0.00
 7 17 0 -25.32 0.00
 7 19 0 -56.61 0.00
 7 21 0 -41.44 0.00
 7 23 0 18.23 0.00
 7 25 0 25.07 0.00
 7 27 0 -0.32 0.00
 7 29 0 16.04 0.00
 7 31 0 7.98 0.00
 7 33 0 -6.65 0.00
 -7 32 1 -4.81 0.00
 -7 30 1 -1.17 0.00
 -7 28 1 13.52 0.00
 -7 26 1 6.22 0.00
 -7 24 1 13.98 0.00
 -7 22 1 -8.66 0.00
 -7 20 1 -12.42 0.00
 -7 18 1 30.56 0.00
 -7 16 1 -29.49 0.00
 -7 14 1 -20.50 0.00
 -7 12 1 10.17 0.00
 -7 10 1 63.06 0.00
 -7 8 1 14.44 0.00
 7 8 1 29.26 0.00
 7 10 1 -70.09 0.00
 7 12 1 26.63 0.00
 7 14 1 5.35 0.00
 7 16 1 104.52 0.00
 7 18 1 18.58 0.00
 7 20 1 1.70 0.00
 7 22 1 32.72 0.00
 7 24 1 -1.65 0.00
 7 26 1 -20.17 0.00
 7 28 1 -0.39 0.00
 7 30 1 -7.24 0.00
 7 32 1 2.03 0.00
 -7 33 2 -4.91 0.00
 -7 31 2 -10.38 0.00
 -7 29 2 3.80 0.00
 -7 27 2 -1.49 0.00
 -7 25 2 -0.27 0.00
 -7 23 2 -3.17 0.00
 -7 21 2 10.80 0.00
 -7 19 2 62.62 0.00
 -7 17 2 17.07 0.00
 -7 15 2 13.10 0.00
 -7 13 2 -60.93 0.00
 -7 11 2 35.56 0.00
 -7 9 2 -71.09 0.00
 7 7 2 -118.09 0.00
 7 9 2 58.51 0.00
 7 11 2 1.69 0.00
 7 13 2 7.36 0.00
 7 15 2 -7.63 0.00
 7 17 2 -50.41 0.00
 7 19 2 -52.94 0.00
 7 21 2 -3.84 0.00
 7 23 2 18.94 0.00
 7 25 2 14.14 0.00
 7 27 2 -4.89 0.00
 7 29 2 11.14 0.00
 7 31 2 -1.45 0.00
 7 33 2 -0.34 0.00
 -7 32 3 -10.86 0.00
 -7 30 3 -3.19 0.00
 -7 28 3 14.34 0.00
 -7 26 3 -7.46 0.00
 -7 24 3 10.74 0.00
 -7 22 3 -22.84 0.00
 -7 20 3 -24.69 0.00
 -7 18 3 18.19 0.00
 -7 16 3 -20.47 0.00
 -7 14 3 -27.42 0.00
 -7 12 3 -34.63 0.00
 -7 10 3 5.21 0.00
 -7 8 3 -3.24 0.00
 7 8 3 72.15 0.00
 7 10 3 26.88 0.00
 7 12 3 68.17 0.00
 7 14 3 29.54 0.00
 7 16 3 54.07 0.00
 7 18 3 -16.11 0.00
 7 20 3 -20.04 0.00
 7 22 3 21.93 0.00
 7 24 3 4.55 0.00
 7 26 3 -20.06 0.00
 7 28 3 5.33 0.00
 7 30 3 3.10 0.00
 7 32 3 5.27 0.00
 -7 33 4 -1.71 0.00
 -7 31 4 -5.99 0.00
 -7 29 4 2.23 0.00
 -7 27 4 -1.27 0.00
 -7 25 4 4.75 0.00
 -7 23 4 16.19 0.00
 -7 21 4 23.42 0.00
 -7 19 4 36.42 0.00
 -7 17 4 9.34 0.00
 -7 15 4 2.98 0.00
 -7 13 4 4.65 0.00
 -7 11 4 48.29 0.00
 -7 9 4 -47.37 0.00
 7 7 4 42.38 0.00
 7 9 4 24.49 0.00
 7 11 4 11.01 0.00
 7 13 4 -17.06 0.00
 7 15 4 -27.41 0.00
 7 17 4 -32.64 0.00
 7 19 4 9.27 0.00
 7 21 4 23.97 0.00
 7 23 4 7.17 0.00
 7 25 4 15.57 0.00
 7 27 4 -1.64 0.00
 7 29 4 -1.76 0.00
 7 31 4 6.45 0.00
 7 33 4 -2.30 0.00
 -7 32 5 -2.15 0.00
 -7 30 5 -8.28 0.00
 -7 28 5 16.55 0.00
 -7 26 5 -9.70 0.00
 -7 24 5 -3.87 0.00
 -7 22 5 -19.17 0.00
 -7 20 5 -25.80 0.00
 -7 18 5 -16.81 0.00
 -7 16 5 -10.00 0.00
 -7 14 5 -21.20 0.00
 -7 12 5 -53.79 0.00
 -7 10 5 10.15 0.00
 -7 8 5 62.68 0.00
 7 8 5 56.61 0.00
 7 10 5 15.97 0.00
 7 12 5 8.66 0.00
 7 14 5 11.98 0.00
 7 16 5 25.23 0.00
 7 18 5 -30.40 0.00
 7 20 5 -36.89 0.00
 7 22 5 -5.77 0.00
 7 24 5 -10.23 0.00
 7 26 5 -4.16 0.00
 7 28 5 1.56 0.00
 7 30 5 -0.55 0.00
 7 32 5 1.83 0.00
 -7 33 6 -8.73 0.00
 -7 31 6 -3.56 0.00
 -7 29 6 -2.72 0.00
 -7 27 6 -17.23 0.00
 -7 25 6 -16.96 0.00
 -7 23 6 10.90 0.00
 -7 21 6 22.41 0.00
 -7 19 6 14.23 0.00
 -7 17 6 7.02 0.00
 -7 15 6 16.58 0.00
 -7 13 6 5.95 0.00
 -7 11 6 7.38 0.00
 -7 9 6 -75.18 0.00
 7 7 6 12.78 0.00
 7 9 6 -53.44 0.00
 7 11 6 17.68 0.00
 7 13 6 -42.08 0.00
 7 15 6 -11.68 0.00
 7 17 6 -23.79 0.00
 7 19 6 17.30 0.00
 7 21 6 0.09 0.00
 7 23 6 -5.49 0.00
 7 25 6 13.85 0.00
 7 27 6 3.31 0.00
 7 29 6 9.91 0.00
 7 31 6 3.81 0.00
 7 33 6 0.86 0.00
 -7 32 7 -1.55 0.00
 -7 30 7 -4.76 0.00
 -7 28 7 10.90 0.00
 -7 26 7 -22.88 0.00
 -7 24 7 1.17 0.00
 -7 22 7 -5.38 0.00
 -7 20 7 -21.32 0.00
 -7 18 7 -10.87 0.00
 -7 16 7 -40.97 0.00
 -7 14 7 10.07 0.00
 -7 12 7 -32.02 0.00
 -7 10 7 -7.21 0.00
 -7 8 7 28.79 0.00
 7 8 7 -17.92 0.00
 7 10 7 -3.46 0.00
 7 12 7 53.20 0.00
 7 14 7 -10.99 0.00
 7 16 7 -18.44 0.00
 7 18 7 -7.18 0.00
 7 20 7 -23.26 0.00
 7 22 7 3.08 0.00
 7 24 7 -23.93 0.00
 7 26 7 -3.70 0.00
 7 28 7 9.94 0.00
 7 30 7 -8.99 0.00
 7 32 7 1.49 0.00
 -7 33 8 7.62 0.00
 -7 31 8 -0.43 0.00
 -7 29 8 3.69 0.00
 -7 27 8 -26.97 0.00
 -7 25 8 -2.48 0.00
 -7 23 8 5.19 0.00
 -7 21 8 33.70 0.00
 -7 19 8 17.63 0.00
 -7 17 8 22.00 0.00
 -7 15 8 29.23 0.00
 -7 13 8 31.95 0.00
 -7 11 8 17.13 0.00
 -7 9 8 -20.31 0.00
 7 7 8 -40.36 0.00
 7 9 8 -15.51 0.00
 7 11 8 77.29 0.00
 7 13 8 18.02 0.00
 7 15 8 -6.76 0.00
 7 17 8 -10.00 0.00
 7 19 8 24.23 0.00
 7 21 8 -2.79 0.00
 7 23 8 4.24 0.00
 7 25 8 15.69 0.00
 7 27 8 16.63 0.00
 7 29 8 9.17 0.00
 7 31 8 6.21 0.00
 7 33 8 2.16 0.00
 -7 32 9 -0.03 0.00
 -7 30 9 -5.16 0.00
 -7 28 9 4.75 0.00
 -7 26 9 0.29 0.00
 -7 24 9 -4.54 0.00
 -7 22 9 -1.92 0.00
 -7 20 9 -22.25 0.00
 -7 18 9 -19.26 0.00
 -7 16 9 -24.94 0.00
 -7 14 9 15.44 0.00
 -7 12 9 -24.24 0.00
 -7 10 9 0.16 0.00
 -7 8 9 10.77 0.00
 7 8 9 -1.09 0.00
 7 10 9 -1.59 0.00
 7 12 9 -5.55 0.00
 7 14 9 -15.97 0.00
 7 16 9 17.01 0.00
 7 18 9 13.04 0.00
 7 20 9 -12.88 0.00
 7 22 9 7.02 0.00
 7 24 9 -10.22 0.00
 7 26 9 -1.61 0.00
 7 28 9 -13.04 0.00
 7 30 9 -6.00 0.00
 7 32 9 0.58 0.00
 -7 31 10 -2.24 0.00
 -7 29 10 12.79 0.00
 -7 27 10 -10.85 0.00
 -7 25 10 -10.90 0.00
 -7 23 10 -9.36 0.00
 -7 21 10 5.96 0.00
 -7 19 10 1.50 0.00
 -7 17 10 14.35 0.00
 -7 15 10 4.67 0.00
 -7 13 10 34.20 0.00
 -7 11 10 -12.59 0.00
 -7 9 10 -0.94 0.00
 7 7 10 -5.22 0.00
 7 9 10 9.74 0.00
 7 11 10 24.87 0.00
 7 13 10 -33.21 0.00
 7 15 10 18.52 0.00
 7 17 10 -31.78 0.00
 7 19 10 7.72 0.00
 7 21 10 -8.63 0.00
 7 23 10 8.51 0.00
 7 25 10 13.54 0.00
 7 27 10 14.94 0.00
 7 29 10 8.80 0.00
 7 31 10 4.09 0.00
 -7 32 11 11.96 0.00
 -7 30 11 -8.72 0.00
 -7 28 11 7.31 0.00
 -7 26 11 -6.86 0.00
 -7 24 11 8.00 0.00
 -7 22 11 6.42 0.00
 -7 20 11 -23.61 0.00
 -7 18 11 -0.99 0.00
 -7 16 11 -9.08 0.00
 -7 14 11 23.82 0.00
 -7 12 11 -27.26 0.00
 -7 10 11 -16.84 0.00
 -7 8 11 13.18 0.00
 7 8 11 -10.52 0.00
 7 10 11 29.38 0.00
 7 12 11 23.79 0.00
 7 14 11 -6.58 0.00
 7 16 11 32.82 0.00
 7 18 11 26.00 0.00
 7 20 11 -11.40 0.00
 7 22 11 2.14 0.00
 7 24 11 -4.85 0.00
 7 26 11 -2.92 0.00
 7 28 11 -2.92 0.00
 7 30 11 -2.20 0.00
 7 32 11 -2.30 0.00
 -7 31 12 -0.07 0.00
 -7 29 12 -0.65 0.00
 -7 27 12 -12.02 0.00
 -7 25 12 -0.63 0.00
 -7 23 12 5.73 0.00
 -7 21 12 27.52 0.00
 -7 19 12 4.37 0.00
 -7 17 12 4.63 0.00
 -7 15 12 30.65 0.00
 -7 13 12 17.77 0.00
 -7 11 12 6.44 0.00
 -7 9 12 -30.80 0.00
 7 7 12 -5.77 0.00
 7 9 12 49.61 0.00
 7 11 12 56.24 0.00
 7 13 12 -32.91 0.00
 7 15 12 14.26 0.00
 7 17 12 -17.24 0.00
 7 19 12 2.91 0.00
 7 21 12 1.21 0.00
 7 23 12 10.74 0.00
 7 25 12 11.08 0.00
 7 27 12 8.88 0.00
 7 29 12 5.52 0.00
 7 31 12 1.36 0.00
 -7 30 13 -2.21 0.00
 -7 28 13 -0.21 0.00
 -7 26 13 -4.74 0.00
 -7 24 13 12.28 0.00
 -7 22 13 -4.57 0.00
 -7 20 13 -6.93 0.00
 -7 18 13 5.45 0.00
 -7 16 13 -6.05 0.00
 -7 14 13 -4.06 0.00
 -7 12 13 -39.18 0.00
 -7 10 13 18.41 0.00
 -7 8 13 3.53 0.00
 7 8 13 8.39 0.00
 7 10 13 41.58 0.00
 7 12 13 31.12 0.00
 7 14 13 16.63 0.00
 7 16 13 27.87 0.00
 7 18 13 2.60 0.00
 7 20 13 -20.44 0.00
 7 22 13 4.61 0.00
 7 24 13 4.96 0.00
 7 26 13 -0.52 0.00
 7 28 13 3.39 0.00
 7 30 13 -3.72 0.00
 -7 31 14 0.92 0.00
 -7 29 14 -0.86 0.00
 -7 27 14 0.60 0.00
 -7 25 14 0.54 0.00
 -7 23 14 3.77 0.00
 -7 21 14 9.68 0.00
 -7 19 14 9.98 0.00
 -7 17 14 3.95 0.00
 -7 15 14 -15.42 0.00
 -7 13 14 -22.31 0.00
 -7 11 14 0.10 0.00
 -7 9 14 -26.90 0.00
 7 7 14 -34.77 0.00
 7 9 14 0.03 0.00
 7 11 14 3.47 0.00
 7 13 14 -21.65 0.00
 7 15 14 1.87 0.00
 7 17 14 -12.35 0.00
 7 19 14 -1.46 0.00
 7 21 14 9.51 0.00
 7 23 14 9.08 0.00
 7 25 14 11.02 0.00
 7 27 14 -3.49 0.00
 7 29 14 3.05 0.00
 7 31 14 -3.84 0.00
 -7 30 15 -4.29 0.00
 -7 28 15 -5.81 0.00
 -7 26 15 -0.17 0.00
 -7 24 15 -0.41 0.00
 -7 22 15 3.66 0.00
 -7 20 15 -9.94 0.00
 -7 18 15 -5.67 0.00
 -7 16 15 6.02 0.00
 -7 14 15 -2.04 0.00
 -7 12 15 -20.24 0.00
 -7 10 15 11.73 0.00
 -7 8 15 26.58 0.00
 7 8 15 -1.49 0.00
 7 10 15 18.56 0.00
 7 12 15 19.94 0.00
 7 14 15 -7.13 0.00
 7 16 15 11.98 0.00
 7 18 15 6.52 0.00
 7 20 15 -15.19 0.00
 7 22 15 10.79 0.00
 7 24 15 -0.32 0.00
 7 26 15 -7.33 0.00
 7 28 15 0.31 0.00
 7 30 15 -4.57 0.00
 -7 29 16 -3.01 0.00
 -7 27 16 0.63 0.00
 -7 25 16 -4.95 0.00
 -7 23 16 1.54 0.00
 -7 21 16 3.36 0.00
 -7 19 16 -0.26 0.00
 -7 17 16 12.46 0.00
 -7 15 16 5.18 0.00
 -7 13 16 1.10 0.00
 -7 11 16 13.98 0.00
 -7 9 16 -28.99 0.00
 7 7 16 -55.19 0.00
 7 9 16 -2.65 0.00
 7 11 16 17.67 0.00
 7 13 16 -10.96 0.00
 7 15 16 1.31 0.00
 7 17 16 5.55 0.00
 7 19 16 -2.11 0.00
 7 21 16 4.28 0.00
 7 23 16 0.80 0.00
 7 25 16 7.63 0.00
 7 27 16 -2.11 0.00
 7 29 16 -0.22 0.00
 -7 28 17 -1.02 0.00
 -7 26 17 3.40 0.00
 -7 24 17 2.98 0.00
 -7 22 17 -17.57 0.00
 -7 20 17 -9.78 0.00
 -7 18 17 4.80 0.00
 -7 16 17 -0.53 0.00
 -7 14 17 -3.84 0.00
 -7 12 17 -4.69 0.00
 -7 10 17 -10.10 0.00
 -7 8 17 11.73 0.00
 7 8 17 -4.58 0.00
 7 10 17 -19.28 0.00
 7 12 17 6.74 0.00
 7 14 17 -6.60 0.00
 7 16 17 16.59 0.00
 7 18 17 -0.43 0.00
 7 20 17 -3.72 0.00
 7 22 17 -2.57 0.00
 7 24 17 -14.73 0.00
 7 26 17 -6.40 0.00
 7 28 17 3.23 0.00
 -7 27 18 -5.78 0.00
 -7 25 18 -1.78 0.00
 -7 23 18 -8.58 0.00
 -7 21 18 -6.99 0.00
 -7 19 18 -0.37 0.00
 -7 17 18 0.12 0.00
 -7 15 18 8.81 0.00
 -7 13 18 -7.07 0.00
 -7 11 18 10.11 0.00
 -7 9 18 -16.45 0.00
 7 7 18 -5.82 0.00
 7 9 18 14.26 0.00
 7 11 18 -11.33 0.00
 7 13 18 7.74 0.00
 7 15 18 9.05 0.00
 7 17 18 -3.79 0.00
 7 19 18 0.86 0.00
 7 21 18 -0.11 0.00
 7 23 18 10.54 0.00
 7 25 18 6.92 0.00
 7 27 18 3.99 0.00
 -7 28 19 7.89 0.00
 -7 26 19 4.68 0.00
 -7 24 19 3.93 0.00
 -7 22 19 -10.41 0.00
 -7 20 19 -7.04 0.00
 -7 18 19 10.91 0.00
 -7 16 19 -16.39 0.00
 -7 14 19 -5.91 0.00
 -7 12 19 -9.63 0.00
 -7 10 19 14.94 0.00
 -7 8 19 12.86 0.00
 7 8 19 -0.79 0.00
 7 10 19 -20.46 0.00
 7 12 19 10.09 0.00
 7 14 19 3.30 0.00
 7 16 19 16.13 0.00
 7 18 19 -2.36 0.00
 7 20 19 -6.91 0.00
 7 22 19 -1.29 0.00
 7 24 19 -1.46 0.00
 7 26 19 -7.81 0.00
 7 28 19 2.77 0.00
 -7 27 20 0.43 0.00
 -7 25 20 -5.14 0.00
 -7 23 20 -4.01 0.00
 -7 21 20 5.31 0.00
 -7 19 20 2.17 0.00
 -7 17 20 1.56 0.00
 -7 15 20 9.61 0.00
 -7 13 20 6.76 0.00
 -7 11 20 24.32 0.00
 -7 9 20 -4.57 0.00
 7 7 20 0.92 0.00
 7 9 20 14.51 0.00
 7 11 20 -0.94 0.00
 7 13 20 8.58 0.00
 7 15 20 5.64 0.00
 7 17 20 -4.52 0.00
 7 19 20 -8.61 0.00
 7 21 20 -0.21 0.00
 7 23 20 3.43 0.00
 7 25 20 13.10 0.00
 7 27 20 0.48 0.00
 -7 26 21 0.49 0.00
 -7 24 21 4.23 0.00
 -7 22 21 -5.29 0.00
 -7 20 21 -3.72 0.00
 -7 18 21 8.06 0.00
 -7 16 21 -13.88 0.00
 -7 14 21 -5.93 0.00
 -7 12 21 0.15 0.00
 -7 10 21 2.08 0.00
 -7 8 21 7.06 0.00
 7 8 21 5.17 0.00
 7 10 21 -19.10 0.00
 7 12 21 18.23 0.00
 7 14 21 7.58 0.00
 7 16 21 12.71 0.00
 7 18 21 -7.35 0.00
 7 20 21 -1.46 0.00
 7 22 21 1.55 0.00
 7 24 21 -3.87 0.00
 7 26 21 3.16 0.00
 -7 25 22 -4.35 0.00
 -7 23 22 0.23 0.00
 -7 21 22 5.02 0.00
 -7 19 22 14.58 0.00
 -7 17 22 -1.30 0.00
 -7 15 22 24.82 0.00
 -7 13 22 3.51 0.00
 -7 11 22 20.98 0.00
 -7 9 22 -9.42 0.00
 7 7 22 -6.71 0.00
 7 9 22 6.76 0.00
 7 11 22 -10.93 0.00
 7 13 22 8.54 0.00
 7 15 22 10.37 0.00
 7 17 22 -15.26 0.00
 7 19 22 2.14 0.00
 7 21 22 -0.53 0.00
 7 23 22 3.27 0.00
 7 25 22 4.86 0.00
 -7 24 23 0.55 0.00
 -7 22 23 -4.20 0.00
 -7 20 23 3.42 0.00
 -7 18 23 1.94 0.00
 -7 16 23 -3.78 0.00
 -7 14 23 1.24 0.00
 -7 12 23 4.11 0.00
 -7 10 23 -0.49 0.00
 -7 8 23 7.06 0.00
 7 8 23 12.52 0.00
 7 10 23 -6.98 0.00
 7 12 23 3.08 0.00
 7 14 23 5.51 0.00
 7 16 23 -1.61 0.00
 7 18 23 1.25 0.00
 7 20 23 -1.56 0.00
 7 22 23 5.75 0.00
 7 24 23 1.83 0.00
 -7 23 24 0.25 0.00
 -7 21 24 3.30 0.00
 -7 19 24 -1.45 0.00
 -7 17 24 6.06 0.00
 -7 15 24 12.85 0.00
 -7 13 24 -4.56 0.00
 -7 11 24 6.01 0.00
 -7 9 24 -2.28 0.00
 7 7 24 -1.87 0.00
 7 9 24 1.95 0.00
 7 11 24 -5.12 0.00
 7 13 24 -15.46 0.00
 7 15 24 8.12 0.00
 7 17 24 -8.47 0.00
 7 19 24 -7.56 0.00
 7 21 24 -3.50 0.00
 7 23 24 -0.93 0.00
 -7 22 25 -0.87 0.00
 -7 20 25 -2.17 0.00
 -7 18 25 -6.04 0.00
 -7 16 25 -1.25 0.00
 -7 14 25 -6.82 0.00
 -7 12 25 -5.29 0.00
 -7 10 25 3.48 0.00
 -7 8 25 5.38 0.00
 7 8 25 -1.41 0.00
 7 10 25 7.98 0.00
 7 12 25 1.57 0.00
 7 14 25 0.81 0.00
 7 16 25 -3.63 0.00
 7 18 25 -5.06 0.00
 7 20 25 -1.36 0.00
 7 22 25 1.81 0.00
 -7 21 26 3.23 0.00
 -7 19 26 8.37 0.00
 -7 17 26 -1.53 0.00
 -7 15 26 -4.37 0.00
 -7 13 26 10.18 0.00
 -7 11 26 5.74 0.00
 -7 9 26 -1.22 0.00
 7 7 26 -11.60 0.00
 7 9 26 8.76 0.00
 7 11 26 5.51 0.00
 7 13 26 -4.52 0.00
 7 15 26 -2.16 0.00
 7 17 26 -14.15 0.00
 7 19 26 -0.47 0.00
 7 21 26 -0.89 0.00
 -7 20 27 2.61 0.00
 -7 18 27 3.97 0.00
 -7 16 27 -2.75 0.00
 -7 14 27 1.64 0.00
 -7 12 27 10.65 0.00
 -7 10 27 -8.19 0.00
 -7 8 27 -5.99 0.00
 7 8 27 -2.76 0.00
 7 10 27 8.05 0.00
 7 12 27 -1.71 0.00
 7 14 27 -8.52 0.00
 7 16 27 -7.21 0.00
 7 18 27 -0.60 0.00
 7 20 27 -0.47 0.00
 -7 17 28 2.73 0.00
 -7 15 28 6.42 0.00
 -7 13 28 5.31 0.00
 -7 11 28 -3.54 0.00
 -7 9 28 -4.94 0.00
 7 7 28 0.53 0.00
 7 9 28 3.96 0.00
 7 11 28 8.46 0.00
 7 13 28 -6.01 0.00
 7 15 28 -1.31 0.00
 7 17 28 5.23 0.00
 7 19 28 4.34 0.00
 -7 16 29 -6.49 0.00
 -7 14 29 -0.52 0.00
 -7 12 29 -6.96 0.00
 -7 10 29 -9.18 0.00
 -7 8 29 4.45 0.00
 7 8 29 -5.08 0.00
 7 10 29 8.75 0.00
 7 12 29 -7.94 0.00
 7 14 29 -8.29 0.00
 7 16 29 -19.51 0.00
 7 18 29 4.22 0.00
 -7 15 30 1.45 0.00
 -7 13 30 0.68 0.00
 -7 11 30 0.48 0.00
 -7 9 30 -2.88 0.00
 7 7 30 -2.59 0.00
 7 9 30 7.93 0.00
 7 11 30 10.66 0.00
 7 13 30 -1.46 0.00
 7 15 30 -2.54 0.00
 -7 14 31 9.29 0.00
 -7 12 31 1.06 0.00
 -7 10 31 2.87 0.00
 -7 8 31 6.01 0.00
 7 8 31 -9.47 0.00
 7 10 31 13.73 0.00
 7 12 31 2.28 0.00
 7 14 31 -0.04 0.00
 -7 11 32 -3.98 0.00
 -7 9 32 -1.64 0.00
 7 7 32 -4.39 0.00
 7 9 32 3.15 0.00
 7 11 32 11.09 0.00
 -7 8 33 3.91 0.00
 3 7 34 3.32 0.00
 -8 32 0 13.08 0.00
 -8 30 0 -13.63 0.00
 -8 28 0 -6.85 0.00
 -8 26 0 -14.98 0.00
 -8 24 0 26.29 0.00
 -8 22 0 28.72 0.00
 -8 20 0 -10.58 0.00
 -8 18 0 -20.13 0.00
 -8 16 0 -16.11 0.00
 -8 14 0 -10.84 0.00
 -8 12 0 -22.08 0.00
 -8 10 0 -25.31 0.00
 8 8 0 85.38 0.00
 2 8 0 285.45 0.00
 8 10 0 -14.19 0.00
 8 12 0 -10.85 0.00
 8 14 0 -27.25 0.00
 8 16 0 -9.43 0.00
 8 18 0 39.37 0.00
 8 20 0 17.94 0.00
 8 22 0 -7.05 0.00
 8 24 0 44.08 0.00
 8 26 0 15.35 0.00
 8 28 0 14.31 0.00
 8 30 0 -8.50 0.00
 8 32 0 7.82 0.00
 -8 33 1 -1.41 0.00
 -8 31 1 -3.59 0.00
 -8 29 1 -1.01 0.00
 -8 27 1 -4.05 0.00
 -8 25 1 -10.05 0.00
 -8 23 1 -1.15 0.00
 -8 21 1 -46.78 0.00
 -8 19 1 -20.37 0.00
 -8 17 1 -10.74 0.00
 -8 15 1 -26.25 0.00
 -8 13 1 8.58 0.00
 -8 11 1 -46.90 0.00
 -8 9 1 40.03 0.00
 8 9 1 -53.25 0.00
 8 11 1 -51.74 0.00
 8 13 1 -44.64 0.00
 8 15 1 10.50 0.00
 8 17 1 19.26 0.00
 8 19 1 -15.76 0.00
 8 21 1 -33.05 0.00
 8 23 1 -26.90 0.00
 8 25 1 -11.72 0.00
 8 27 1 -2.00 0.00
 8 29 1 -12.16 0.00
 8 31 1 -4.02 0.00
 8 33 1 5.89 0.00
 -8 32 2 3.50 0.00
 -8 30 2 -10.42 0.00
 -8 28 2 -6.86 0.00
 -8 26 2 -6.46 0.00
 -8 24 2 9.51 0.00
 -8 22 2 16.93 0.00
 -8 20 2 4.39 0.00
 -8 18 2 -10.35 0.00
 -8 16 2 -30.48 0.00
 -8 14 2 5.64 0.00
 -8 12 2 -50.07 0.00
 -8 10 2 -92.73 0.00
 8 8 2 29.62 0.00
 8 10 2 -36.10 0.00
 8 12 2 -20.91 0.00
 8 14 2 -36.03 0.00
 8 16 2 -6.78 0.00
 8 18 2 12.60 0.00
 8 20 2 17.06 0.00
 8 22 2 15.23 0.00
 8 24 2 17.98 0.00
 8 26 2 -7.83 0.00
 8 28 2 19.90 0.00
 8 30 2 -10.01 0.00
 8 32 2 0.39 0.00
 -8 33 3 3.23 0.00
 -8 31 3 -4.48 0.00
 -8 29 3 7.23 0.00
 -8 27 3 -5.87 0.00
 -8 25 3 -7.92 0.00
 -8 23 3 10.98 0.00
 -8 21 3 -27.75 0.00
 -8 19 3 9.49 0.00
 -8 17 3 34.29 0.00
 -8 15 3 27.10 0.00
 -8 13 3 -3.92 0.00
 -8 11 3 -80.05 0.00
 -8 9 3 73.03 0.00
 8 9 3 58.54 0.00
 8 11 3 -27.02 0.00
 8 13 3 -3.06 0.00
 8 15 3 8.79 0.00
 8 17 3 -8.63 0.00
 8 19 3 -14.72 0.00
 8 21 3 -13.81 0.00
 8 23 3 -3.86 0.00
 8 25 3 -0.23 0.00
 8 27 3 1.33 0.00
 8 29 3 -0.98 0.00
 8 31 3 -2.98 0.00
 8 33 3 1.80 0.00
 -8 32 4 9.16 0.00
 -8 30 4 -4.86 0.00
 -8 28 4 7.05 0.00
 -8 26 4 8.01 0.00
 -8 24 4 13.17 0.00
 -8 22 4 18.66 0.00
 -8 20 4 1.67 0.00
 -8 18 4 10.42 0.00
 -8 16 4 -9.13 0.00
 -8 14 4 21.96 0.00
 -8 12 4 56.97 0.00
 -8 10 4 -22.14 0.00
 8 8 4 107.07 0.00
 8 10 4 -27.24 0.00
 8 12 4 -10.81 0.00
 8 14 4 6.88 0.00
 8 16 4 12.13 0.00
 8 18 4 40.27 0.00
 8 20 4 56.68 0.00
 8 22 4 9.32 0.00
 8 24 4 -4.40 0.00
 8 26 4 2.26 0.00
 8 28 4 3.63 0.00
 8 30 4 -4.08 0.00
 8 32 4 -0.28 0.00
 -8 33 5 1.94 0.00
 -8 31 5 -7.35 0.00
 -8 29 5 6.47 0.00
 -8 27 5 1.08 0.00
 -8 25 5 -4.70 0.00
 -8 23 5 9.83 0.00
 -8 21 5 -10.76 0.00
 -8 19 5 7.42 0.00
 -8 17 5 12.22 0.00
 -8 15 5 -6.78 0.00
 -8 13 5 1.98 0.00
 -8 11 5 -8.50 0.00
 -8 9 5 48.50 0.00
 8 9 5 77.25 0.00
 8 11 5 17.57 0.00
 8 13 5 -9.27 0.00
 8 15 5 22.74 0.00
 8 17 5 2.30 0.00
 8 19 5 4.86 0.00
 8 21 5 -0.06 0.00
 8 23 5 10.29 0.00
 8 25 5 8.85 0.00
 8 27 5 -1.48 0.00
 8 29 5 -6.02 0.00
 8 31 5 8.58 0.00
 8 33 5 1.45 0.00
 -8 32 6 2.10 0.00
 -8 30 6 -1.19 0.00
 -8 28 6 12.50 0.00
 -8 26 6 2.28 0.00
 -8 24 6 3.90 0.00
 -8 22 6 21.31 0.00
 -8 20 6 -3.03 0.00
 -8 18 6 -1.27 0.00
 -8 16 6 -36.43 0.00
 -8 14 6 16.61 0.00
 -8 12 6 43.46 0.00
 -8 10 6 -1.76 0.00
 8 8 6 -16.33 0.00
 8 10 6 5.66 0.00
 8 12 6 -22.87 0.00
 8 14 6 -12.69 0.00
 8 16 6 -24.85 0.00
 8 18 6 5.93 0.00
 8 20 6 12.46 0.00
 8 22 6 16.70 0.00
 8 24 6 4.46 0.00
 8 26 6 -9.63 0.00
 8 28 6 5.30 0.00
 8 30 6 11.54 0.00
 8 32 6 1.18 0.00
 -8 33 7 -3.23 0.00
 -8 31 7 -2.66 0.00
 -8 29 7 8.01 0.00
 -8 27 7 -9.66 0.00
 -8 25 7 -6.79 0.00
 -8 23 7 6.27 0.00
 -8 21 7 -5.44 0.00
 -8 19 7 12.16 0.00
 -8 17 7 4.08 0.00
 -8 15 7 -20.26 0.00
 -8 13 7 18.77 0.00
 -8 11 7 -7.90 0.00
 -8 9 7 33.79 0.00
 8 9 7 6.49 0.00
 8 11 7 26.08 0.00
 8 13 7 23.25 0.00
 8 15 7 13.30 0.00
 8 17 7 6.51 0.00
 8 19 7 4.04 0.00
 8 21 7 17.64 0.00
 8 23 7 3.23 0.00
 8 25 7 -15.35 0.00
 8 27 7 0.11 0.00
 8 29 7 4.21 0.00
 8 31 7 10.86 0.00
 8 33 7 5.14 0.00
 -8 32 8 -2.55 0.00
 -8 30 8 -0.83 0.00
 -8 28 8 -5.34 0.00
 -8 26 8 -1.16 0.00
 -8 24 8 6.80 0.00
 -8 22 8 18.49 0.00
 -8 20 8 -5.38 0.00
 -8 18 8 15.08 0.00
 -8 16 8 -36.72 0.00
 -8 14 8 11.01 0.00
 -8 12 8 -1.50 0.00
 -8 10 8 15.10 0.00
 8 8 8 -29.38 0.00
 8 10 8 10.33 0.00
 8 12 8 19.00 0.00
 8 14 8 -1.99 0.00
 8 16 8 -52.34 0.00
 8 18 8 8.57 0.00
 8 20 8 -12.82 0.00
 8 22 8 -3.45 0.00
 8 24 8 -2.00 0.00
 8 26 8 -7.63 0.00
 8 28 8 14.85 0.00
 8 30 8 9.52 0.00
 8 32 8 -2.85 0.00
 -8 31 9 -4.58 0.00
 -8 29 9 8.62 0.00
 -8 27 9 2.42 0.00
 -8 25 9 -1.87 0.00
 -8 23 9 -16.72 0.00
 -8 21 9 -12.23 0.00
 -8 19 9 -0.04 0.00
 -8 17 9 -4.43 0.00
 -8 15 9 -23.68 0.00
 -8 13 9 29.68 0.00
 -8 11 9 9.63 0.00
 -8 9 9 18.56 0.00
 8 9 9 -42.36 0.00
 8 11 9 -5.10 0.00
 8 13 9 7.88 0.00
 8 15 9 15.50 0.00
 8 17 9 26.70 0.00
 8 19 9 -6.85 0.00
 8 21 9 2.38 0.00
 8 23 9 -8.02 0.00
 8 25 9 -11.07 0.00
 8 27 9 -9.54 0.00
 8 29 9 -1.37 0.00
 8 31 9 5.84 0.00
 -8 32 10 -5.98 0.00
 -8 30 10 1.78 0.00
 -8 28 10 4.88 0.00
 -8 26 10 2.12 0.00
 -8 24 10 -8.38 0.00
 -8 22 10 19.33 0.00
 -8 20 10 10.02 0.00
 -8 18 10 7.14 0.00
 -8 16 10 -47.49 0.00
 -8 14 10 14.78 0.00
 -8 12 10 22.47 0.00
 -8 10 10 -39.71 0.00
 8 8 10 -31.33 0.00
 8 10 10 -29.77 0.00
 8 12 10 -35.19 0.00
 8 14 10 -2.32 0.00
 8 16 10 -54.36 0.00
 8 18 10 -11.02 0.00
 8 20 10 -1.30 0.00
 8 22 10 20.31 0.00
 8 24 10 -14.29 0.00
 8 26 10 -8.89 0.00
 8 28 10 5.18 0.00
 8 30 10 -2.63 0.00
 8 32 10 -7.77 0.00
 -8 31 11 1.73 0.00
 -8 29 11 2.95 0.00
 -8 27 11 -1.08 0.00
 -8 25 11 -16.67 0.00
 -8 23 11 -2.88 0.00
 -8 21 11 -14.64 0.00
 -8 19 11 4.01 0.00
 -8 17 11 -12.71 0.00
 -8 15 11 -13.52 0.00
 -8 13 11 39.14 0.00
 -8 11 11 8.16 0.00
 -8 9 11 51.71 0.00
 8 9 11 -6.94 0.00
 8 11 11 7.14 0.00
 8 13 11 18.71 0.00
 8 15 11 -5.26 0.00
 8 17 11 -0.71 0.00
 8 19 11 -2.59 0.00
 8 21 11 -4.83 0.00
 8 23 11 -13.23 0.00
 8 25 11 -1.72 0.00
 8 27 11 2.66 0.00
 8 29 11 -4.64 0.00
 8 31 11 -3.68 0.00
 -8 30 12 -2.88 0.00
 -8 28 12 -3.76 0.00
 -8 26 12 -6.07 0.00
 -8 24 12 -4.63 0.00
 -8 22 12 22.49 0.00
 -8 20 12 16.55 0.00
 -8 18 12 -9.77 0.00
 -8 16 12 -41.86 0.00
 -8 14 12 18.68 0.00
 -8 12 12 27.42 0.00
 -8 10 12 -62.60 0.00
 8 8 12 -42.55 0.00
 8 10 12 -25.17 0.00
 8 12 12 -25.74 0.00
 8 14 12 -0.39 0.00
 8 16 12 -33.09 0.00
 8 18 12 8.85 0.00
 8 20 12 10.00 0.00
 8 22 12 19.11 0.00
 8 24 12 -4.21 0.00
 8 26 12 -1.65 0.00
 8 28 12 11.09 0.00
 8 30 12 -3.31 0.00
 -8 31 13 -5.96 0.00
 -8 29 13 -0.85 0.00
 -8 27 13 -8.44 0.00
 -8 25 13 -3.95 0.00
 -8 23 13 -4.12 0.00
 -8 21 13 -7.74 0.00
 -8 19 13 10.43 0.00
 -8 17 13 -25.45 0.00
 -8 15 13 -15.76 0.00
 -8 13 13 -3.74 0.00
 -8 11 13 -12.81 0.00
 -8 9 13 27.88 0.00
 8 9 13 -18.06 0.00
 8 11 13 14.99 0.00
 8 13 13 20.56 0.00
 8 15 13 7.65 0.00
 8 17 13 -0.65 0.00
 8 19 13 -4.78 0.00
 8 21 13 -4.58 0.00
 8 23 13 -6.51 0.00
 8 25 13 -3.55 0.00
 8 27 13 4.07 0.00
 8 29 13 -2.51 0.00
 8 31 13 -5.47 0.00
 -8 30 14 -1.13 0.00
 -8 28 14 -4.03 0.00
 -8 26 14 2.55 0.00
 -8 24 14 -0.96 0.00
 -8 22 14 8.46 0.00
 -8 20 14 5.88 0.00
 -8 18 14 -7.37 0.00
 -8 16 14 -25.27 0.00
 -8 14 14 -1.49 0.00
 -8 12 14 2.64 0.00
 -8 10 14 -28.90 0.00
 8 8 14 -43.80 0.00
 8 10 14 -58.53 0.00
 8 12 14 5.27 0.00
 8 14 14 9.14 0.00
 8 16 14 -16.28 0.00
 8 18 14 9.86 0.00
 8 20 14 10.47 0.00
 8 22 14 13.22 0.00
 8 24 14 2.73 0.00
 8 26 14 -0.71 0.00
 8 28 14 -4.31 0.00
 8 30 14 -0.68 0.00
 -8 29 15 0.85 0.00
 -8 27 15 -6.18 0.00
 -8 25 15 0.49 0.00
 -8 23 15 6.01 0.00
 -8 21 15 1.70 0.00
 -8 19 15 2.27 0.00
 -8 17 15 -5.86 0.00
 -8 15 15 0.80 0.00
 -8 13 15 4.67 0.00
 -8 11 15 -15.88 0.00
 -8 9 15 28.88 0.00
 8 9 15 -4.91 0.00
 8 11 15 -2.77 0.00
 8 13 15 7.96 0.00
 8 15 15 -2.85 0.00
 8 17 15 5.51 0.00
 8 19 15 -4.06 0.00
 8 21 15 -0.44 0.00
 8 23 15 1.40 0.00
 8 25 15 -5.87 0.00
 8 27 15 -8.26 0.00
 8 29 15 0.31 0.00
 -8 28 16 -0.11 0.00
 -8 26 16 -1.62 0.00
 -8 24 16 4.14 0.00
 -8 22 16 15.56 0.00
 -8 20 16 -12.08 0.00
 -8 18 16 -3.04 0.00
 -8 16 16 -3.59 0.00
 -8 14 16 10.99 0.00
 -8 12 16 38.03 0.00
 -8 10 16 -25.47 0.00
 8 8 16 -14.08 0.00
 8 10 16 -19.22 0.00
 8 12 16 -7.41 0.00
 8 14 16 -13.54 0.00
 8 16 16 -3.54 0.00
 8 18 16 7.74 0.00
 8 20 16 -0.09 0.00
 8 22 16 6.93 0.00
 8 24 16 2.05 0.00
 8 26 16 -0.45 0.00
 8 28 16 -0.04 0.00
 -8 27 17 1.56 0.00
 -8 25 17 0.05 0.00
 -8 23 17 -3.28 0.00
 -8 21 17 -7.38 0.00
 -8 19 17 -0.58 0.00
 -8 17 17 -2.82 0.00
 -8 15 17 -6.30 0.00
 -8 13 17 -2.20 0.00
 -8 11 17 -19.06 0.00
 -8 9 17 11.67 0.00
 8 9 17 5.44 0.00
 8 11 17 -4.93 0.00
 8 13 17 -5.70 0.00
 8 15 17 4.83 0.00
 8 17 17 0.32 0.00
 8 19 17 -11.78 0.00
 8 21 17 -6.30 0.00
 8 23 17 -8.55 0.00
 8 25 17 -12.13 0.00
 8 27 17 5.32 0.00
 8 29 17 1.06 0.00
 -8 28 18 2.31 0.00
 -8 26 18 -0.82 0.00
 -8 24 18 10.97 0.00
 -8 22 18 5.42 0.00
 -8 20 18 -3.06 0.00
 -8 18 18 -5.16 0.00
 -8 16 18 0.11 0.00
 -8 14 18 -6.41 0.00
 -8 12 18 12.81 0.00
 -8 10 18 -33.94 0.00
 8 8 18 6.00 0.00
 8 10 18 -38.86 0.00
 8 12 18 -11.23 0.00
 8 14 18 1.41 0.00
 8 16 18 -8.24 0.00
 8 18 18 2.64 0.00
 8 20 18 -10.00 0.00
 8 22 18 -1.02 0.00
 8 24 18 3.91 0.00
 8 26 18 -5.43 0.00
 8 28 18 10.47 0.00
 -8 27 19 -3.90 0.00
 -8 25 19 -2.13 0.00
 -8 23 19 0.80 0.00
 -8 21 19 -14.71 0.00
 -8 19 19 -6.61 0.00
 -8 17 19 5.41 0.00
 -8 15 19 -9.85 0.00
 -8 13 19 -15.02 0.00
 -8 11 19 -15.79 0.00
 -8 9 19 13.78 0.00
 8 9 19 4.54 0.00
 8 11 19 5.58 0.00
 8 13 19 0.84 0.00
 8 15 19 17.70 0.00
 8 17 19 9.29 0.00
 8 19 19 -7.17 0.00
 8 21 19 -6.07 0.00
 8 23 19 7.87 0.00
 8 25 19 0.20 0.00
 8 27 19 -2.78 0.00
 -8 26 20 -6.46 0.00
 -8 24 20 1.68 0.00
 -8 22 20 8.83 0.00
 -8 20 20 0.14 0.00
 -8 18 20 -1.80 0.00
 -8 16 20 5.75 0.00
 -8 14 20 -2.61 0.00
 -8 12 20 10.05 0.00
 -8 10 20 -34.59 0.00
 8 8 20 20.21 0.00
 8 10 20 -7.85 0.00
 8 12 20 -18.12 0.00
 8 14 20 -8.13 0.00
 8 16 20 16.32 0.00
 8 18 20 2.12 0.00
 8 20 20 3.69 0.00
 8 22 20 4.10 0.00
 8 24 20 5.63 0.00
 8 26 20 1.48 0.00
 -8 25 21 4.04 0.00
 -8 23 21 -8.80 0.00
 -8 21 21 -28.26 0.00
 -8 19 21 -4.43 0.00
 -8 17 21 2.27 0.00
 -8 15 21 -0.70 0.00
 -8 13 21 0.72 0.00
 -8 11 21 -3.12 0.00
 -8 9 21 22.10 0.00
 8 9 21 1.79 0.00
 8 11 21 -9.53 0.00
 8 13 21 -3.68 0.00
 8 15 21 4.69 0.00
 8 17 21 5.72 0.00
 8 19 21 3.18 0.00
 8 21 21 0.30 0.00
 8 23 21 -5.25 0.00
 8 25 21 3.53 0.00
 -8 24 22 -3.43 0.00
 -8 22 22 -1.96 0.00
 -8 20 22 5.42 0.00
 -8 18 22 -3.29 0.00
 -8 16 22 -0.16 0.00
 -8 14 22 -5.01 0.00
 -8 12 22 0.35 0.00
 -8 10 22 -27.71 0.00
 8 8 22 2.68 0.00
 8 10 22 -5.44 0.00
 8 12 22 -11.28 0.00
 8 14 22 -5.97 0.00
 8 16 22 -3.55 0.00
 8 18 22 2.14 0.00
 8 20 22 -1.04 0.00
 8 22 22 -3.74 0.00
 8 24 22 9.59 0.00
 -8 25 23 15.11 0.00
 -8 23 23 -2.61 0.00
 -8 21 23 -5.62 0.00
 -8 19 23 3.84 0.00
 -8 17 23 5.21 0.00
 -8 15 23 8.64 0.00
 -8 13 23 7.43 0.00
 -8 11 23 -2.94 0.00
 -8 9 23 -0.23 0.00
 8 9 23 -4.51 0.00
 8 11 23 8.60 0.00
 8 13 23 0.84 0.00
 8 15 23 1.02 0.00
 8 17 23 2.60 0.00
 8 19 23 6.60 0.00
 8 21 23 -5.29 0.00
 8 23 23 -0.62 0.00
 8 25 23 -5.74 0.00
 -8 22 24 -0.05 0.00
 -8 20 24 -6.69 0.00
 -8 18 24 3.40 0.00
 -8 16 24 6.98 0.00
 -8 14 24 3.16 0.00
 -8 12 24 -1.28 0.00
 -8 10 24 -11.05 0.00
 8 8 24 -6.39 0.00
 8 10 24 -1.43 0.00
 8 12 24 3.97 0.00
 8 14 24 0.54 0.00
 8 16 24 6.28 0.00
 8 18 24 0.11 0.00
 8 20 24 -5.81 0.00
 8 22 24 7.11 0.00
 8 24 24 11.63 0.00
 -8 21 25 -2.06 0.00
 -8 19 25 5.37 0.00
 -8 17 25 3.24 0.00
 -8 15 25 1.64 0.00
 -8 13 25 -0.15 0.00
 -8 11 25 3.15 0.00
 -8 9 25 11.41 0.00
 8 9 25 -1.80 0.00
 8 11 25 9.07 0.00
 8 13 25 3.08 0.00
 8 15 25 3.33 0.00
 8 17 25 -0.83 0.00
 8 19 25 -1.78 0.00
 8 21 25 2.62 0.00
 -8 20 26 -1.86 0.00
 -8 18 26 0.68 0.00
 -8 16 26 -20.40 0.00
 -8 14 26 -4.46 0.00
 -8 12 26 8.26 0.00
 -8 10 26 -1.17 0.00
 8 8 26 -3.78 0.00
 8 10 26 3.36 0.00
 8 12 26 5.07 0.00
 8 14 26 12.17 0.00
 8 16 26 -4.38 0.00
 8 18 26 5.14 0.00
 8 20 26 3.92 0.00
 -8 19 27 3.55 0.00
 -8 17 27 -5.20 0.00
 -8 15 27 -9.60 0.00
 -8 13 27 -5.15 0.00
 -8 11 27 7.45 0.00
 -8 9 27 2.01 0.00
 8 9 27 -5.62 0.00
 8 11 27 -1.75 0.00
 8 13 27 2.87 0.00
 8 15 27 5.59 0.00
 8 17 27 -0.39 0.00
 8 19 27 4.22 0.00
 -8 18 28 -0.32 0.00
 -8 16 28 -4.78 0.00
 -8 14 28 1.27 0.00
 -8 12 28 9.44 0.00
 -8 10 28 -1.28 0.00
 8 8 28 -2.63 0.00
 8 10 28 -1.50 0.00
 8 12 28 3.40 0.00
 8 14 28 9.06 0.00
 8 16 28 -0.29 0.00
 8 18 28 3.24 0.00
 -8 17 29 -4.47 0.00
 -8 15 29 -4.96 0.00
 -8 13 29 -3.48 0.00
 -8 11 29 -5.00 0.00
 -8 9 29 6.68 0.00
 8 9 29 -3.40 0.00
 8 11 29 -4.61 0.00
 8 13 29 4.87 0.00
 8 15 29 -4.96 0.00
 8 17 29 -1.86 0.00
 -8 14 30 1.37 0.00
 -8 12 30 3.66 0.00
 -8 10 30 0.55 0.00
 8 8 30 -5.54 0.00
 8 10 30 3.88 0.00
 8 12 30 -0.22 0.00
 8 14 30 -0.34 0.00
 8 16 30 -7.72 0.00
 -8 13 31 -0.60 0.00
 -8 11 31 3.31 0.00
 -8 9 31 2.20 0.00
 8 9 31 -3.13 0.00
 8 11 31 0.54 0.00
 8 13 31 0.62 0.00
 -8 10 32 -6.00 0.00
 8 8 32 -10.90 0.00
 8 10 32 5.07 0.00
 7 8 33 6.06 0.00
 2 8 34 13.72 0.00
 -9 33 0 9.11 0.00
 -9 31 0 0.40 0.00
 -9 29 0 6.85 0.00
 -9 27 0 14.58 0.00
 -9 25 0 3.73 0.00
 -9 23 0 29.97 0.00
 -9 21 0 23.72 0.00
 -9 19 0 -11.22 0.00
 -9 17 0 7.97 0.00
 -9 15 0 8.61 0.00
 -9 13 0 39.65 0.00
 -9 11 0 40.20 0.00
 9 9 0 75.36 0.00
 9 11 0 102.19 0.00
 9 13 0 -17.13 0.00
 9 15 0 -0.84 0.00
 9 17 0 1.11 0.00
 9 19 0 24.28 0.00
 9 21 0 12.05 0.00
 9 23 0 21.46 0.00
 9 25 0 11.60 0.00
 9 27 0 13.41 0.00
 9 29 0 -2.34 0.00
 9 31 0 -6.69 0.00
 9 33 0 -10.50 0.00
 -9 32 1 2.66 0.00
 -9 30 1 4.90 0.00
 -9 28 1 0.48 0.00
 -9 26 1 -2.46 0.00
 -9 24 1 -20.65 0.00
 -9 22 1 24.04 0.00
 -9 20 1 4.41 0.00
 -9 18 1 -3.88 0.00
 -9 16 1 -15.88 0.00
 -9 14 1 -50.74 0.00
 -9 12 1 101.77 0.00
 -9 10 1 -15.32 0.00
 9 10 1 -3.10 0.00
 9 12 1 -7.88 0.00
 9 14 1 37.43 0.00
 9 16 1 31.09 0.00
 9 18 1 -13.94 0.00
 9 20 1 -35.97 0.00
 9 22 1 -3.89 0.00
 9 24 1 4.18 0.00
 9 26 1 -20.22 0.00
 9 28 1 14.36 0.00
 9 30 1 7.89 0.00
 9 32 1 -2.04 0.00
 -9 33 2 -2.07 0.00
 -9 31 2 -0.55 0.00
 -9 29 2 1.68 0.00
 -9 27 2 -1.92 0.00
 -9 25 2 -2.80 0.00
 -9 23 2 28.97 0.00
 -9 21 2 12.29 0.00
 -9 19 2 -5.59 0.00
 -9 17 2 0.18 0.00
 -9 15 2 5.45 0.00
 -9 13 2 58.52 0.00
 -9 11 2 -2.01 0.00
 9 9 2 -21.41 0.00
 9 11 2 87.23 0.00
 9 13 2 -28.72 0.00
 9 15 2 -17.29 0.00
 9 17 2 -3.86 0.00
 9 19 2 11.83 0.00
 9 21 2 13.63 0.00
 9 23 2 9.11 0.00
 9 25 2 -22.43 0.00
 9 27 2 14.04 0.00
 9 29 2 2.48 0.00
 9 31 2 -11.85 0.00
 9 33 2 -1.41 0.00
 -9 32 3 -4.82 0.00
 -9 30 3 -3.42 0.00
 -9 28 3 -4.26 0.00
 -9 26 3 -4.83 0.00
 -9 24 3 -24.40 0.00
 -9 22 3 22.90 0.00
 -9 20 3 4.69 0.00
 -9 18 3 -12.34 0.00
 -9 16 3 14.84 0.00
 -9 14 3 -36.39 0.00
 -9 12 3 32.34 0.00
 -9 10 3 -55.47 0.00
 9 10 3 -5.24 0.00
 9 12 3 -31.11 0.00
 9 14 3 -0.79 0.00
 9 16 3 -10.45 0.00
 9 18 3 -23.11 0.00
 9 20 3 -12.72 0.00
 9 22 3 -2.36 0.00
 9 24 3 6.66 0.00
 9 26 3 -16.91 0.00
 9 28 3 3.77 0.00
 9 30 3 0.04 0.00
 9 32 3 -7.20 0.00
 -9 33 4 -1.58 0.00
 -9 31 4 4.16 0.00
 -9 29 4 -5.04 0.00
 -9 27 4 10.12 0.00
 -9 25 4 -2.51 0.00
 -9 23 4 8.66 0.00
 -9 21 4 8.35 0.00
 -9 19 4 -5.00 0.00
 -9 17 4 12.71 0.00
 -9 15 4 0.97 0.00
 -9 13 4 45.50 0.00
 -9 11 4 -2.56 0.00
 9 9 4 -53.33 0.00
 9 11 4 -3.49 0.00
 9 13 4 8.77 0.00
 9 15 4 17.94 0.00
 9 17 4 9.49 0.00
 9 19 4 17.07 0.00
 9 21 4 9.66 0.00
 9 23 4 -27.53 0.00
 9 25 4 -17.18 0.00
 9 27 4 16.13 0.00
 9 29 4 -3.19 0.00
 9 31 4 -2.96 0.00
 9 33 4 5.02 0.00
 -9 32 5 1.41 0.00
 -9 30 5 -3.68 0.00
 -9 28 5 6.74 0.00
 -9 26 5 8.83 0.00
 -9 24 5 -16.27 0.00
 -9 22 5 11.79 0.00
 -9 20 5 0.26 0.00
 -9 18 5 -5.13 0.00
 -9 16 5 -23.91 0.00
 -9 14 5 -44.92 0.00
 -9 12 5 80.04 0.00
 -9 10 5 2.62 0.00
 9 10 5 -3.58 0.00
 9 12 5 -72.93 0.00
 9 14 5 -2.55 0.00
 9 16 5 -47.56 0.00
 9 18 5 -21.18 0.00
 9 20 5 -17.93 0.00
 9 22 5 -1.23 0.00
 9 24 5 7.54 0.00
 9 26 5 -14.74 0.00
 9 28 5 -12.38 0.00
 9 30 5 -6.48 0.00
 9 32 5 -6.27 0.00
 -9 33 6 -0.67 0.00
 -9 31 6 3.14 0.00
 -9 29 6 0.84 0.00
 -9 27 6 1.75 0.00
 -9 25 6 -5.68 0.00
 -9 23 6 1.22 0.00
 -9 21 6 2.39 0.00
 -9 19 6 -6.54 0.00
 -9 17 6 -9.98 0.00
 -9 15 6 -11.72 0.00
 -9 13 6 8.15 0.00
 -9 11 6 4.62 0.00
 9 9 6 -70.78 0.00
 9 11 6 8.11 0.00
 9 13 6 -7.62 0.00
 9 15 6 -8.40 0.00
 9 17 6 2.88 0.00
 9 19 6 -5.25 0.00
 9 21 6 16.04 0.00
 9 23 6 -8.14 0.00
 9 25 6 -9.90 0.00
 9 27 6 -6.84 0.00
 9 29 6 -10.38 0.00
 9 31 6 6.21 0.00
 9 33 6 -2.57 0.00
 -9 32 7 6.66 0.00
 -9 30 7 0.35 0.00
 -9 28 7 -0.57 0.00
 -9 26 7 15.40 0.00
 -9 24 7 -18.27 0.00
 -9 22 7 6.81 0.00
 -9 20 7 -6.09 0.00
 -9 18 7 5.94 0.00
 -9 16 7 -16.76 0.00
 -9 14 7 -9.09 0.00
 -9 12 7 40.07 0.00
 -9 10 7 16.58 0.00
 9 10 7 -19.55 0.00
 9 12 7 -61.93 0.00
 9 14 7 38.35 0.00
 9 16 7 -33.51 0.00
 9 18 7 -31.69 0.00
 9 20 7 -20.90 0.00
 9 22 7 1.46 0.00
 9 24 7 1.54 0.00
 9 26 7 -28.39 0.00
 9 28 7 -5.60 0.00
 9 30 7 6.46 0.00
 9 32 7 1.14 0.00
 -9 31 8 -0.96 0.00
 -9 29 8 1.83 0.00
 -9 27 8 -1.49 0.00
 -9 25 8 7.61 0.00
 -9 23 8 11.04 0.00
 -9 21 8 -10.68 0.00
 -9 19 8 -4.06 0.00
 -9 17 8 16.10 0.00
 -9 15 8 9.65 0.00
 -9 13 8 3.22 0.00
 -9 11 8 -25.81 0.00
 9 9 8 -24.20 0.00
 9 11 8 17.31 0.00
 9 13 8 11.20 0.00
 9 15 8 -1.43 0.00
 9 17 8 11.68 0.00
 9 19 8 5.78 0.00
 9 21 8 5.62 0.00
 9 23 8 5.97 0.00
 9 25 8 12.72 0.00
 9 27 8 -1.46 0.00
 9 29 8 2.47 0.00
 9 31 8 -1.33 0.00
 -9 32 9 -2.43 0.00
 -9 30 9 -6.00 0.00
 -9 28 9 -10.38 0.00
 -9 26 9 18.29 0.00
 -9 24 9 -23.81 0.00
 -9 22 9 4.74 0.00
 -9 20 9 -11.61 0.00
 -9 18 9 13.24 0.00
 -9 16 9 -20.99 0.00
 -9 14 9 -25.09 0.00
 -9 12 9 18.74 0.00
 -9 10 9 -21.90 0.00
 9 10 9 -30.55 0.00
 9 12 9 -14.56 0.00
 9 14 9 54.90 0.00
 9 16 9 15.88 0.00
 9 18 9 -20.91 0.00
 9 20 9 -35.15 0.00
 9 22 9 -5.11 0.00
 9 24 9 -6.56 0.00
 9 26 9 -18.14 0.00
 9 28 9 -9.04 0.00
 9 30 9 8.23 0.00
 9 32 9 -3.55 0.00
 -9 31 10 -7.72 0.00
 -9 29 10 2.35 0.00
 -9 27 10 10.46 0.00
 -9 25 10 -1.02 0.00
 -9 23 10 5.08 0.00
 -9 21 10 -0.65 0.00
 -9 19 10 -4.64 0.00
 -9 17 10 -1.46 0.00
 -9 15 10 -8.53 0.00
 -9 13 10 -1.08 0.00
 -9 11 10 5.26 0.00
 9 9 10 0.19 0.00
 9 11 10 0.30 0.00
 9 13 10 -11.33 0.00
 9 15 10 6.46 0.00
 9 17 10 2.98 0.00
 9 19 10 -12.51 0.00
 9 21 10 11.99 0.00
 9 23 10 1.69 0.00
 9 25 10 -1.21 0.00
 9 27 10 -0.38 0.00
 9 29 10 4.64 0.00
 9 31 10 -4.69 0.00
 -9 30 11 -6.70 0.00
 -9 28 11 -6.92 0.00
 -9 26 11 4.56 0.00
 -9 24 11 -23.38 0.00
 -9 22 11 9.09 0.00
 -9 20 11 -18.49 0.00
 -9 18 11 21.37 0.00
 -9 16 11 -5.96 0.00
 -9 14 11 -25.98 0.00
 -9 12 11 16.11 0.00
 -9 10 11 20.87 0.00
 9 10 11 10.25 0.00
 9 12 11 -33.89 0.00
 9 14 11 50.01 0.00
 9 16 11 -13.46 0.00
 9 18 11 -16.61 0.00
 9 20 11 -27.28 0.00
 9 22 11 -11.60 0.00
 9 24 11 3.69 0.00
 9 26 11 -3.65 0.00
 9 28 11 -8.44 0.00
 9 30 11 -4.22 0.00
 -9 31 12 -1.09 0.00
 -9 29 12 4.91 0.00
 -9 27 12 11.90 0.00
 -9 25 12 5.08 0.00
 -9 23 12 4.37 0.00
 -9 21 12 0.44 0.00
 -9 19 12 8.14 0.00
 -9 17 12 9.75 0.00
 -9 15 12 -4.12 0.00
 -9 13 12 24.89 0.00
 -9 11 12 35.21 0.00
 9 9 12 10.73 0.00
 9 11 12 2.86 0.00
 9 13 12 -8.85 0.00
 9 15 12 19.74 0.00
 9 17 12 17.23 0.00
 9 19 12 2.87 0.00
 9 21 12 13.58 0.00
 9 23 12 -0.85 0.00
 9 25 12 -10.64 0.00
 9 27 12 2.20 0.00
 9 29 12 7.34 0.00
 9 31 12 -2.01 0.00
 -9 30 13 -7.61 0.00
 -9 28 13 -4.74 0.00
 -9 26 13 3.76 0.00
 -9 24 13 -10.90 0.00
 -9 22 13 -8.92 0.00
 -9 20 13 -17.74 0.00
 -9 18 13 -4.02 0.00
 -9 16 13 -7.50 0.00
 -9 14 13 -17.82 0.00
 -9 12 13 4.95 0.00
 -9 10 13 -2.02 0.00
 9 10 13 -3.03 0.00
 9 12 13 -51.85 0.00
 9 14 13 17.19 0.00
 9 16 13 -8.33 0.00
 9 18 13 -11.14 0.00
 9 20 13 -5.08 0.00
 9 22 13 -0.91 0.00
 9 24 13 13.24 0.00
 9 26 13 -1.18 0.00
 9 28 13 -1.68 0.00
 9 30 13 -9.43 0.00
 -9 29 14 -5.87 0.00
 -9 27 14 7.07 0.00
 -9 25 14 8.80 0.00
 -9 23 14 2.76 0.00
 -9 21 14 4.31 0.00
 -9 19 14 5.33 0.00
 -9 17 14 11.84 0.00
 -9 15 14 8.16 0.00
 -9 13 14 -0.78 0.00
 -9 11 14 15.42 0.00
 9 9 14 -3.54 0.00
 9 11 14 1.32 0.00
 9 13 14 -2.19 0.00
 9 15 14 18.89 0.00
 9 17 14 13.89 0.00
 9 19 14 -0.36 0.00
 9 21 14 9.32 0.00
 9 23 14 2.35 0.00
 9 25 14 2.42 0.00
 9 27 14 0.28 0.00
 9 29 14 4.91 0.00
 -9 28 15 -3.46 0.00
 -9 26 15 4.32 0.00
 -9 24 15 -1.18 0.00
 -9 22 15 1.63 0.00
 -9 20 15 -5.38 0.00
 -9 18 15 2.57 0.00
 -9 16 15 1.79 0.00
 -9 14 15 -16.13 0.00
 -9 12 15 23.26 0.00
 -9 10 15 -1.67 0.00
 9 10 15 -7.72 0.00
 9 12 15 -42.40 0.00
 9 14 15 17.73 0.00
 9 16 15 -11.15 0.00
 9 18 15 -7.32 0.00
 9 20 15 -1.31 0.00
 9 22 15 2.75 0.00
 9 24 15 11.26 0.00
 9 26 15 -5.36 0.00
 9 28 15 -4.64 0.00
 9 30 15 -4.54 0.00
 -9 29 16 -7.17 0.00
 -9 27 16 0.17 0.00
 -9 25 16 -5.87 0.00
 -9 23 16 8.93 0.00
 -9 21 16 5.57 0.00
 -9 19 16 -2.35 0.00
 -9 17 16 21.49 0.00
 -9 15 16 5.53 0.00
 -9 13 16 27.81 0.00
 -9 11 16 -3.20 0.00
 9 9 16 11.60 0.00
 9 11 16 28.21 0.00
 9 13 16 -1.04 0.00
 9 15 16 -5.86 0.00
 9 17 16 1.78 0.00
 9 19 16 -2.19 0.00
 9 21 16 3.73 0.00
 9 23 16 -0.18 0.00
 9 25 16 -4.55 0.00
 9 27 16 -5.01 0.00
 9 29 16 2.26 0.00
 -9 28 17 1.46 0.00
 -9 26 17 -1.06 0.00
 -9 24 17 -9.35 0.00
 -9 22 17 1.89 0.00
 -9 20 17 -5.05 0.00
 -9 18 17 -18.56 0.00
 -9 16 17 -11.80 0.00
 -9 14 17 -13.69 0.00
 -9 12 17 24.63 0.00
 -9 10 17 -3.76 0.00
 9 10 17 3.08 0.00
 9 12 17 -9.19 0.00
 9 14 17 4.51 0.00
 9 16 17 -13.80 0.00
 9 18 17 -6.06 0.00
 9 20 17 3.15 0.00
 9 22 17 -7.97 0.00
 9 24 17 -0.29 0.00
 9 26 17 -8.81 0.00
 9 28 17 7.15 0.00
 -9 27 18 0.94 0.00
 -9 25 18 -4.31 0.00
 -9 23 18 -1.19 0.00
 -9 21 18 12.31 0.00
 -9 19 18 -5.27 0.00
 -9 17 18 -4.55 0.00
 -9 15 18 3.18 0.00
 -9 13 18 22.44 0.00
 -9 11 18 -7.19 0.00
 9 9 18 -27.51 0.00
 9 11 18 14.76 0.00
 9 13 18 18.91 0.00
 9 15 18 -6.21 0.00
 9 17 18 -2.52 0.00
 9 19 18 13.86 0.00
 9 21 18 -5.38 0.00
 9 23 18 4.60 0.00
 9 25 18 -9.46 0.00
 9 27 18 7.06 0.00
 -9 26 19 -13.09 0.00
 -9 24 19 -2.79 0.00
 -9 22 19 9.94 0.00
 -9 20 19 -4.05 0.00
 -9 18 19 -4.18 0.00
 -9 16 19 5.37 0.00
 -9 14 19 -6.87 0.00
 -9 12 19 26.39 0.00
 -9 10 19 -8.98 0.00
 9 10 19 -2.27 0.00
 9 12 19 12.07 0.00
 9 14 19 13.71 0.00
 9 16 19 8.43 0.00
 9 18 19 0.61 0.00
 9 20 19 -0.67 0.00
 9 22 19 -9.15 0.00
 9 24 19 1.99 0.00
 9 26 19 -4.95 0.00
 -9 27 20 -3.65 0.00
 -9 25 20 -0.54 0.00
 -9 23 20 10.41 0.00
 -9 21 20 8.56 0.00
 -9 19 20 -12.52 0.00
 -9 17 20 -3.19 0.00
 -9 15 20 10.80 0.00
 -9 13 20 25.36 0.00
 -9 11 20 -14.89 0.00
 9 9 20 -10.66 0.00
 9 11 20 5.09 0.00
 9 13 20 -13.57 0.00
 9 15 20 6.20 0.00
 9 17 20 3.03 0.00
 9 19 20 7.64 0.00
 9 21 20 7.04 0.00
 9 23 20 -7.51 0.00
 9 25 20 -2.95 0.00
 9 27 20 -6.75 0.00
 -9 26 21 -0.39 0.00
 -9 24 21 -6.03 0.00
 -9 22 21 -8.58 0.00
 -9 20 21 -12.06 0.00
 -9 18 21 -2.37 0.00
 -9 16 21 5.88 0.00
 -9 14 21 -1.60 0.00
 -9 12 21 17.21 0.00
 -9 10 21 -9.08 0.00
 9 10 21 1.98 0.00
 9 12 21 -1.23 0.00
 9 14 21 10.23 0.00
 9 16 21 -9.28 0.00
 9 18 21 7.26 0.00
 9 20 21 6.13 0.00
 9 22 21 -10.03 0.00
 9 24 21 -2.36 0.00
 9 26 21 -3.30 0.00
 -9 25 22 -4.96 0.00
 -9 23 22 9.61 0.00
 -9 21 22 1.75 0.00
 -9 19 22 -2.94 0.00
 -9 17 22 -15.96 0.00
 -9 15 22 0.59 0.00
 -9 13 22 9.97 0.00
 -9 11 22 -6.58 0.00
 9 9 22 -12.02 0.00
 9 11 22 1.22 0.00
 9 13 22 -17.29 0.00
 9 15 22 -1.77 0.00
 9 17 22 -6.75 0.00
 9 19 22 4.53 0.00
 9 21 22 4.36 0.00
 9 23 22 -3.58 0.00
 9 25 22 -4.81 0.00
 -9 24 23 3.47 0.00
 -9 22 23 4.98 0.00
 -9 20 23 -1.53 0.00
 -9 18 23 -6.28 0.00
 -9 16 23 4.67 0.00
 -9 14 23 -9.11 0.00
 -9 12 23 11.03 0.00
 -9 10 23 -8.65 0.00
 9 10 23 3.21 0.00
 9 12 23 -0.10 0.00
 9 14 23 9.86 0.00
 9 16 23 -9.41 0.00
 9 18 23 -2.75 0.00
 9 20 23 0.73 0.00
 9 22 23 -2.16 0.00
 9 24 23 2.88 0.00
 -9 23 24 11.45 0.00
 -9 21 24 0.21 0.00
 -9 19 24 -1.55 0.00
 -9 17 24 7.09 0.00
 -9 15 24 3.27 0.00
 -9 13 24 12.71 0.00
 -9 11 24 2.54 0.00
 9 9 24 -2.85 0.00
 9 11 24 4.91 0.00
 9 13 24 3.67 0.00
 9 15 24 3.80 0.00
 9 17 24 -3.79 0.00
 9 19 24 -3.52 0.00
 9 21 24 8.05 0.00
 9 23 24 10.04 0.00
 -9 22 25 -7.96 0.00
 -9 20 25 0.94 0.00
 -9 18 25 -5.14 0.00
 -9 16 25 -2.86 0.00
 -9 14 25 -4.80 0.00
 -9 12 25 6.36 0.00
 -9 10 25 5.20 0.00
 9 10 25 -3.11 0.00
 9 12 25 -8.82 0.00
 9 14 25 14.88 0.00
 9 16 25 1.44 0.00
 9 18 25 -4.70 0.00
 9 20 25 -4.22 0.00
 9 22 25 6.37 0.00
 -9 19 26 2.60 0.00
 -9 17 26 -4.39 0.00
 -9 15 26 -7.91 0.00
 -9 13 26 10.39 0.00
 -9 11 26 -4.84 0.00
 9 9 26 1.08 0.00
 9 11 26 -12.07 0.00
 9 13 26 -5.97 0.00
 9 15 26 1.60 0.00
 9 17 26 -1.79 0.00
 9 19 26 9.74 0.00
 9 21 26 13.82 0.00
 -9 18 27 2.16 0.00
 -9 16 27 -1.16 0.00
 -9 14 27 -7.76 0.00
 -9 12 27 -0.66 0.00
 -9 10 27 1.96 0.00
 9 10 27 -2.78 0.00
 9 12 27 -7.03 0.00
 9 14 27 13.78 0.00
 9 16 27 -5.95 0.00
 9 18 27 -0.31 0.00
 9 20 27 3.92 0.00
 -9 17 28 2.88 0.00
 -9 15 28 -1.67 0.00
 -9 13 28 5.07 0.00
 -9 11 28 -2.72 0.00
 9 9 28 -4.81 0.00
 9 11 28 -12.11 0.00
 9 13 28 5.10 0.00
 9 15 28 -4.43 0.00
 9 17 28 -8.04 0.00
 9 19 28 -3.87 0.00
 -9 16 29 4.97 0.00
 -9 14 29 6.20 0.00
 -9 12 29 4.16 0.00
 -9 10 29 0.94 0.00
 9 10 29 3.39 0.00
 9 12 29 1.54 0.00
 9 14 29 9.59 0.00
 9 16 29 -4.97 0.00
 -9 15 30 -6.89 0.00
 -9 13 30 -9.27 0.00
 -9 11 30 -1.74 0.00
 9 9 30 8.38 0.00
 9 11 30 -0.94 0.00
 9 13 30 2.23 0.00
 9 15 30 -8.79 0.00
 -9 12 31 6.89 0.00
 -9 10 31 2.19 0.00
 9 10 31 0.82 0.00
 9 12 31 -10.93 0.00
 -9 11 32 -1.73 0.00
 9 9 32 0.76 0.00
 -10 32 0 0.58 0.00
 -10 30 0 -3.40 0.00
 -10 28 0 7.91 0.00
 -10 26 0 29.78 0.00
 -10 24 0 -7.18 0.00
 -10 22 0 2.78 0.00
 -10 20 0 32.22 0.00
 -10 18 0 -13.90 0.00
 -10 16 0 2.71 0.00
 -10 14 0 6.03 0.00
 -10 12 0 -124.03 0.00
 10 10 0 -6.06 0.00
 10 12 0 -42.59 0.00
 10 14 0 10.95 0.00
 10 16 0 -31.00 0.00
 10 18 0 23.12 0.00
 10 20 0 30.94 0.00
 10 22 0 -16.75 0.00
 10 24 0 -0.93 0.00
 10 26 0 3.54 0.00
 10 28 0 -13.35 0.00
 10 30 0 -0.49 0.00
 10 32 0 -5.41 0.00
 -10 31 1 -5.79 0.00
 -10 29 1 -10.81 0.00
 -10 27 1 3.24 0.00
 -10 25 1 -3.61 0.00
 -10 23 1 -6.39 0.00
 -10 21 1 16.07 0.00
 -10 19 1 -20.12 0.00
 -10 17 1 -2.50 0.00
 -10 15 1 -15.71 0.00
 -10 13 1 9.57 0.00
 -10 11 1 -36.03 0.00
 10 11 1 21.12 0.00
 10 13 1 63.79 0.00
 10 15 1 12.19 0.00
 10 17 1 -23.97 0.00
 10 19 1 -12.11 0.00
 10 21 1 -15.69 0.00
 10 23 1 4.95 0.00
 10 25 1 -5.87 0.00
 10 27 1 17.80 0.00
 10 29 1 9.34 0.00
 10 31 1 1.61 0.00
 10 33 1 -5.88 0.00
 -10 32 2 -1.84 0.00
 -10 30 2 0.43 0.00
 -10 28 2 -5.37 0.00
 -10 26 2 4.39 0.00
 -10 24 2 4.15 0.00
 -10 22 2 0.34 0.00
 -10 20 2 32.59 0.00
 -10 18 2 -4.26 0.00
 -10 16 2 16.23 0.00
 -10 14 2 -2.49 0.00
 -10 12 2 -54.54 0.00
 10 10 2 -15.09 0.00
 10 12 2 -4.75 0.00
 10 14 2 -31.68 0.00
 10 16 2 -29.69 0.00
 10 18 2 15.23 0.00
 10 20 2 28.74 0.00
 10 22 2 -17.07 0.00
 10 24 2 -17.04 0.00
 10 26 2 3.00 0.00
 10 28 2 -1.94 0.00
 10 30 2 1.46 0.00
 10 32 2 -3.99 0.00
 -10 31 3 -5.17 0.00
 -10 29 3 -9.44 0.00
 -10 27 3 -0.82 0.00
 -10 25 3 -14.59 0.00
 -10 23 3 -6.68 0.00
 -10 21 3 30.18 0.00
 -10 19 3 -15.41 0.00
 -10 17 3 -5.51 0.00
 -10 15 3 29.81 0.00
 -10 13 3 10.26 0.00
 -10 11 3 -25.04 0.00
 10 11 3 6.55 0.00
 10 13 3 -2.86 0.00
 10 15 3 -5.70 0.00
 10 17 3 -0.33 0.00
 10 19 3 28.58 0.00
 10 21 3 -6.21 0.00
 10 23 3 3.02 0.00
 10 25 3 0.66 0.00
 10 27 3 -0.94 0.00
 10 29 3 3.64 0.00
 10 31 3 -1.70 0.00
 10 33 3 -0.05 0.00
 -10 32 4 -3.12 0.00
 -10 30 4 1.86 0.00
 -10 28 4 -7.71 0.00
 -10 26 4 23.78 0.00
 -10 24 4 -10.90 0.00
 -10 22 4 0.47 0.00
 -10 20 4 34.02 0.00
 -10 18 4 4.17 0.00
 -10 16 4 33.77 0.00
 -10 14 4 1.56 0.00
 -10 12 4 -21.31 0.00
 10 10 4 -4.39 0.00
 10 12 4 25.98 0.00
 10 14 4 20.01 0.00
 10 16 4 -0.92 0.00
 10 18 4 -10.55 0.00
 10 20 4 2.61 0.00
 10 22 4 -3.70 0.00
 10 24 4 -1.88 0.00
 10 26 4 18.25 0.00
 10 28 4 3.14 0.00
 10 30 4 12.08 0.00
 10 32 4 -1.99 0.00
 -10 31 5 -2.32 0.00
 -10 29 5 -10.93 0.00
 -10 27 5 -5.97 0.00
 -10 25 5 -4.61 0.00
 -10 23 5 0.84 0.00
 -10 21 5 5.33 0.00
 -10 19 5 -29.20 0.00
 -10 17 5 -18.89 0.00
 -10 15 5 -9.88 0.00
 -10 13 5 -5.24 0.00
 -10 11 5 -28.83 0.00
 10 11 5 -38.50 0.00
 10 13 5 -7.37 0.00
 10 15 5 -8.55 0.00
 10 17 5 21.61 0.00
 10 19 5 16.71 0.00
 10 21 5 -3.46 0.00
 10 23 5 3.57 0.00
 10 25 5 0.51 0.00
 10 27 5 -5.68 0.00
 10 29 5 -6.37 0.00
 10 31 5 3.08 0.00
 10 33 5 3.07 0.00
 -10 32 6 -4.20 0.00
 -10 30 6 -1.11 0.00
 -10 28 6 -14.29 0.00
 -10 26 6 12.77 0.00
 -10 24 6 8.83 0.00
 -10 22 6 2.47 0.00
 -10 20 6 17.32 0.00
 -10 18 6 4.58 0.00
 -10 16 6 25.56 0.00
 -10 14 6 -6.16 0.00
 -10 12 6 -27.07 0.00
 10 10 6 66.51 0.00
 10 12 6 10.49 0.00
 10 14 6 -6.44 0.00
 10 16 6 -5.01 0.00
 10 18 6 -9.19 0.00
 10 20 6 4.11 0.00
 10 22 6 -1.31 0.00
 10 24 6 8.45 0.00
 10 26 6 13.93 0.00
 10 28 6 -7.37 0.00
 10 30 6 11.16 0.00
 10 32 6 -1.07 0.00
 -10 31 7 -2.37 0.00
 -10 29 7 -6.04 0.00
 -10 27 7 -8.57 0.00
 -10 25 7 6.19 0.00
 -10 23 7 0.54 0.00
 -10 21 7 0.62 0.00
 -10 19 7 -13.49 0.00
 -10 17 7 -0.30 0.00
 -10 15 7 28.69 0.00
 -10 13 7 -11.00 0.00
 -10 11 7 5.82 0.00
 10 11 7 -25.02 0.00
 10 13 7 5.45 0.00
 10 15 7 12.96 0.00
 10 17 7 22.17 0.00
 10 19 7 4.63 0.00
 10 21 7 -8.41 0.00
 10 23 7 -2.09 0.00
 10 25 7 -1.71 0.00
 10 27 7 -9.62 0.00
 10 29 7 0.01 0.00
 10 31 7 5.32 0.00
 -10 32 8 -3.82 0.00
 -10 30 8 8.06 0.00
 -10 28 8 -9.66 0.00
 -10 26 8 12.87 0.00
 -10 24 8 13.31 0.00
 -10 22 8 -3.56 0.00
 -10 20 8 0.63 0.00
 -10 18 8 15.23 0.00
 -10 16 8 36.64 0.00
 -10 14 8 20.36 0.00
 -10 12 8 -42.95 0.00
 10 10 8 45.89 0.00
 10 12 8 12.50 0.00
 10 14 8 14.14 0.00
 10 16 8 30.69 0.00
 10 18 8 7.64 0.00
 10 20 8 29.86 0.00
 10 22 8 1.88 0.00
 10 24 8 22.30 0.00
 10 26 8 9.92 0.00
 10 28 8 -9.43 0.00
 10 30 8 7.39 0.00
 10 32 8 -7.35 0.00
 -10 31 9 -1.13 0.00
 -10 29 9 -10.23 0.00
 -10 27 9 0.63 0.00
 -10 25 9 -1.30 0.00
 -10 23 9 0.18 0.00
 -10 21 9 -9.67 0.00
 -10 19 9 -11.23 0.00
 -10 17 9 -0.31 0.00
 -10 15 9 16.57 0.00
 -10 13 9 -20.35 0.00
 -10 11 9 -7.48 0.00
 10 11 9 -3.51 0.00
 10 13 9 13.72 0.00
 10 15 9 -8.40 0.00
 10 17 9 15.49 0.00
 10 19 9 -28.62 0.00
 10 21 9 1.15 0.00
 10 23 9 -14.89 0.00
 10 25 9 4.45 0.00
 10 27 9 -1.85 0.00
 10 29 9 -0.56 0.00
 10 31 9 2.61 0.00
 -10 30 10 -1.52 0.00
 -10 28 10 -11.55 0.00
 -10 26 10 3.72 0.00
 -10 24 10 1.20 0.00
 -10 22 10 6.82 0.00
 -10 20 10 -4.03 0.00
 -10 18 10 -7.78 0.00
 -10 16 10 28.27 0.00
 -10 14 10 -9.49 0.00
 -10 12 10 -50.61 0.00
 10 10 10 15.70 0.00
 10 12 10 -7.01 0.00
 10 14 10 -15.80 0.00
 10 16 10 23.49 0.00
 10 18 10 8.37 0.00
 10 20 10 8.25 0.00
 10 22 10 -4.69 0.00
 10 24 10 1.03 0.00
 10 26 10 5.84 0.00
 10 28 10 -0.10 0.00
 10 30 10 8.52 0.00
 -10 31 11 -0.29 0.00
 -10 29 11 -8.25 0.00
 -10 27 11 2.22 0.00
 -10 25 11 -4.60 0.00
 -10 23 11 13.59 0.00
 -10 21 11 0.88 0.00
 -10 19 11 -1.08 0.00
 -10 17 11 17.91 0.00
 -10 15 11 36.15 0.00
 -10 13 11 -19.47 0.00
 -10 11 11 -2.36 0.00
 10 11 11 -18.31 0.00
 10 13 11 -1.09 0.00
 10 15 11 -45.84 0.00
 10 17 11 -11.60 0.00
 10 19 11 -16.22 0.00
 10 21 11 -4.36 0.00
 10 23 11 -12.27 0.00
 10 25 11 11.02 0.00
 10 27 11 -0.12 0.00
 10 29 11 -4.32 0.00
 10 31 11 5.37 0.00
 -10 30 12 5.06 0.00
 -10 28 12 -11.35 0.00
 -10 26 12 -3.76 0.00
 -10 24 12 -1.13 0.00
 -10 22 12 -7.87 0.00
 -10 20 12 3.14 0.00
 -10 18 12 -10.12 0.00
 -10 16 12 14.39 0.00
 -10 14 12 -1.06 0.00
 -10 12 12 -24.27 0.00
 10 10 12 -0.78 0.00
 10 12 12 -5.54 0.00
 10 14 12 -11.29 0.00
 10 16 12 7.20 0.00
 10 18 12 -5.58 0.00
 10 20 12 8.67 0.00
 10 22 12 0.01 0.00
 10 24 12 -4.78 0.00
 10 26 12 4.65 0.00
 10 28 12 11.73 0.00
 10 30 12 6.18 0.00
 -10 29 13 -2.44 0.00
 -10 27 13 -3.96 0.00
 -10 25 13 2.56 0.00
 -10 23 13 2.86 0.00
 -10 21 13 2.12 0.00
 -10 19 13 -4.04 0.00
 -10 17 13 -3.41 0.00
 -10 15 13 26.46 0.00
 -10 13 13 2.64 0.00
 -10 11 13 -11.64 0.00
 10 11 13 -16.12 0.00
 10 13 13 -5.99 0.00
 10 15 13 -12.57 0.00
 10 17 13 2.83 0.00
 10 19 13 9.74 0.00
 10 21 13 3.63 0.00
 10 23 13 -13.85 0.00
 10 25 13 1.86 0.00
 10 27 13 -9.20 0.00
 10 29 13 -2.69 0.00
 -10 30 14 1.26 0.00
 -10 28 14 -8.20 0.00
 -10 26 14 1.20 0.00
 -10 24 14 -1.07 0.00
 -10 22 14 -1.87 0.00
 -10 20 14 4.94 0.00
 -10 18 14 -10.03 0.00
 -10 16 14 12.08 0.00
 -10 14 14 -2.75 0.00
 -10 12 14 -21.66 0.00
 10 10 14 4.47 0.00
 10 12 14 -12.37 0.00
 10 14 14 0.77 0.00
 10 16 14 9.70 0.00
 10 18 14 -15.04 0.00
 10 20 14 5.20 0.00
 10 22 14 1.13 0.00
 10 24 14 0.67 0.00
 10 26 14 8.32 0.00
 10 28 14 -1.15 0.00
 10 30 14 2.10 0.00
 -10 29 15 -0.90 0.00
 -10 27 15 0.43 0.00
 -10 25 15 3.20 0.00
 -10 23 15 3.37 0.00
 -10 21 15 6.25 0.00
 -10 19 15 6.77 0.00
 -10 17 15 9.20 0.00
 -10 15 15 6.04 0.00
 -10 13 15 12.57 0.00
 -10 11 15 -2.86 0.00
 10 11 15 -8.85 0.00
 10 13 15 11.43 0.00
 10 15 15 14.53 0.00
 10 17 15 -8.70 0.00
 10 19 15 -3.73 0.00
 10 21 15 -6.23 0.00
 10 23 15 -5.72 0.00
 10 25 15 -0.39 0.00
 10 27 15 2.64 0.00
 10 29 15 6.39 0.00
 -10 28 16 0.92 0.00
 -10 26 16 4.96 0.00
 -10 24 16 3.36 0.00
 -10 22 16 5.95 0.00
 -10 20 16 1.96 0.00
 -10 18 16 -2.20 0.00
 -10 16 16 16.36 0.00
 -10 14 16 -9.31 0.00
 -10 12 16 -27.85 0.00
 10 10 16 14.21 0.00
 10 12 16 9.38 0.00
 10 14 16 -5.95 0.00
 10 16 16 -8.83 0.00
 10 18 16 -14.47 0.00
 10 20 16 7.53 0.00
 10 22 16 9.85 0.00
 10 24 16 8.58 0.00
 10 26 16 8.69 0.00
 10 28 16 0.42 0.00
 -10 27 17 -0.63 0.00
 -10 25 17 -0.66 0.00
 -10 23 17 -0.96 0.00
 -10 21 17 6.77 0.00
 -10 19 17 -14.22 0.00
 -10 17 17 -6.97 0.00
 -10 15 17 -4.18 0.00
 -10 13 17 -2.20 0.00
 -10 11 17 -7.31 0.00
 10 11 17 3.42 0.00
 10 13 17 4.59 0.00
 10 15 17 -7.64 0.00
 10 17 17 -13.53 0.00
 10 19 17 -6.25 0.00
 10 21 17 -1.98 0.00
 10 23 17 2.13 0.00
 10 25 17 0.86 0.00
 10 27 17 -4.48 0.00
 -10 26 18 -0.22 0.00
 -10 24 18 -5.02 0.00
 -10 22 18 3.63 0.00
 -10 20 18 18.95 0.00
 -10 18 18 -12.72 0.00
 -10 16 18 -3.26 0.00
 -10 14 18 -14.59 0.00
 -10 12 18 -14.68 0.00
 10 10 18 2.08 0.00
 10 12 18 10.59 0.00
 10 14 18 10.95 0.00
 10 16 18 -3.42 0.00
 10 18 18 0.77 0.00
 10 20 18 8.51 0.00
 10 22 18 3.46 0.00
 10 24 18 0.32 0.00
 10 26 18 0.42 0.00
 -10 27 19 0.33 0.00
 -10 25 19 -4.88 0.00
 -10 23 19 0.29 0.00
 -10 21 19 9.26 0.00
 -10 19 19 -13.14 0.00
 -10 17 19 7.96 0.00
 -10 15 19 -6.49 0.00
 -10 13 19 -3.26 0.00
 -10 11 19 -7.09 0.00
 10 11 19 3.41 0.00
 10 13 19 -0.72 0.00
 10 15 19 13.45 0.00
 10 17 19 -0.87 0.00
 10 19 19 -6.68 0.00
 10 21 19 2.35 0.00
 10 23 19 1.31 0.00
 10 25 19 -2.15 0.00
 10 27 19 5.17 0.00
 -10 26 20 -2.45 0.00
 -10 24 20 -0.56 0.00
 -10 22 20 1.20 0.00
 -10 20 20 10.24 0.00
 -10 18 20 -12.48 0.00
 -10 16 20 11.43 0.00
 -10 14 20 -4.98 0.00
 -10 12 20 -1.11 0.00
 10 10 20 11.28 0.00
 10 12 20 3.32 0.00
 10 14 20 9.14 0.00
 10 16 20 8.74 0.00
 10 18 20 4.55 0.00
 10 20 20 11.63 0.00
 10 22 20 3.77 0.00
 10 24 20 -2.07 0.00
 10 26 20 5.03 0.00
 -10 25 21 -8.41 0.00
 -10 23 21 -9.53 0.00
 -10 21 21 -1.04 0.00
 -10 19 21 -7.93 0.00
 -10 17 21 5.87 0.00
 -10 15 21 -6.63 0.00
 -10 13 21 5.74 0.00
 -10 11 21 -2.22 0.00
 10 11 21 -4.92 0.00
 10 13 21 -10.38 0.00
 10 15 21 -6.30 0.00
 10 17 21 -6.10 0.00
 10 19 21 0.82 0.00
 10 21 21 -6.00 0.00
 10 23 21 -9.80 0.00
 10 25 21 -1.60 0.00
 -10 24 22 -3.32 0.00
 -10 22 22 -0.47 0.00
 -10 20 22 15.49 0.00
 -10 18 22 -11.53 0.00
 -10 16 22 -10.54 0.00
 -10 14 22 -0.98 0.00
 -10 12 22 -1.37 0.00
 10 10 22 8.22 0.00
 10 12 22 -2.03 0.00
 10 14 22 -3.93 0.00
 10 16 22 6.70 0.00
 10 18 22 3.63 0.00
 10 20 22 11.42 0.00
 10 22 22 -2.10 0.00
 10 24 22 -0.44 0.00
 -10 23 23 1.46 0.00
 -10 21 23 5.33 0.00
 -10 19 23 2.02 0.00
 -10 17 23 1.65 0.00
 -10 15 23 -12.68 0.00
 -10 13 23 -3.24 0.00
 -10 11 23 -4.86 0.00
 10 11 23 9.42 0.00
 10 13 23 -3.09 0.00
 10 15 23 0.76 0.00
 10 17 23 -2.04 0.00
 10 19 23 2.58 0.00
 10 21 23 1.08 0.00
 10 23 23 -12.02 0.00
 -10 22 24 0.36 0.00
 -10 20 24 6.75 0.00
 -10 18 24 5.28 0.00
 -10 16 24 6.90 0.00
 -10 14 24 4.03 0.00
 -10 12 24 -2.52 0.00
 10 10 24 9.55 0.00
 10 12 24 8.01 0.00
 10 14 24 1.98 0.00
 10 16 24 -1.58 0.00
 10 18 24 5.53 0.00
 10 20 24 8.22 0.00
 10 22 24 0.70 0.00
 -10 21 25 -5.38 0.00
 -10 19 25 4.59 0.00
 -10 17 25 -3.88 0.00
 -10 15 25 -0.98 0.00
 -10 13 25 6.55 0.00
 -10 11 25 0.13 0.00
 10 11 25 -0.83 0.00
 10 13 25 -3.52 0.00
 10 15 25 3.25 0.00
 10 17 25 8.26 0.00
 10 19 25 -0.83 0.00
 10 21 25 10.27 0.00
 -10 20 26 0.70 0.00
 -10 18 26 -5.43 0.00
 -10 16 26 0.60 0.00
 -10 14 26 4.27 0.00
 -10 12 26 -10.91 0.00
 10 10 26 -2.16 0.00
 10 12 26 -3.84 0.00
 10 14 26 1.72 0.00
 10 16 26 4.28 0.00
 10 18 26 0.51 0.00
 10 20 26 4.86 0.00
 -10 19 27 1.44 0.00
 -10 17 27 -5.79 0.00
 -10 15 27 2.26 0.00
 -10 13 27 -7.18 0.00
 -10 11 27 -4.17 0.00
 10 11 27 -5.83 0.00
 10 13 27 6.15 0.00
 10 15 27 3.08 0.00
 10 17 27 -0.91 0.00
 10 19 27 2.78 0.00
 -10 18 28 -3.61 0.00
 -10 16 28 2.88 0.00
 -10 14 28 0.88 0.00
 -10 12 28 -2.56 0.00
 10 10 28 0.81 0.00
 10 12 28 0.25 0.00
 10 14 28 7.98 0.00
 10 16 28 -4.51 0.00
 10 18 28 -7.90 0.00
 -10 15 29 6.45 0.00
 -10 13 29 -4.56 0.00
 -10 11 29 2.32 0.00
 10 11 29 -4.39 0.00
 10 13 29 5.26 0.00
 10 15 29 9.02 0.00
 -10 14 30 -5.08 0.00
 -10 12 30 -4.83 0.00
 10 10 30 9.23 0.00
 10 12 30 -1.18 0.00
 10 14 30 -7.85 0.00
 -10 11 31 1.36 0.00
 10 11 31 -7.20 0.00
 10 10 32 12.36 0.00
 -11 31 0 3.40 0.00
 -11 29 0 2.04 0.00
 -11 27 0 15.08 0.00
 -11 25 0 -0.60 0.00
 -11 23 0 -20.27 0.00
 -11 21 0 -9.21 0.00
 -11 19 0 -3.37 0.00
 -11 17 0 -2.57 0.00
 -11 15 0 -57.27 0.00
 -11 13 0 15.31 0.00
 11 11 0 -26.91 0.00
 11 13 0 23.79 0.00
 11 15 0 37.57 0.00
 11 17 0 38.68 0.00
 11 19 0 9.49 0.00
 11 21 0 12.36 0.00
 11 23 0 23.12 0.00
 11 25 0 4.68 0.00
 11 27 0 -3.43 0.00
 11 29 0 9.66 0.00
 11 31 0 9.49 0.00
 -11 32 1 -8.47 0.00
 -11 30 1 2.82 0.00
 -11 28 1 -1.33 0.00
 -11 26 1 13.03 0.00
 -11 24 1 -1.01 0.00
 -11 22 1 -10.22 0.00
 -11 20 1 -6.29 0.00
 -11 18 1 28.24 0.00
 -11 16 1 19.33 0.00
 -11 14 1 3.51 0.00
 -11 12 1 -37.72 0.00
 11 12 1 -58.31 0.00
 11 14 1 -11.61 0.00
 11 16 1 -4.81 0.00
 11 18 1 -29.24 0.00
 11 20 1 -27.78 0.00
 11 22 1 26.80 0.00
 11 24 1 -1.42 0.00
 11 26 1 7.83 0.00
 11 28 1 -8.25 0.00
 11 30 1 4.51 0.00
 11 32 1 0.73 0.00
 -11 31 2 1.54 0.00
 -11 29 2 2.87 0.00
 -11 27 2 4.14 0.00
 -11 25 2 -2.51 0.00
 -11 23 2 -13.63 0.00
 -11 21 2 -15.41 0.00
 -11 19 2 4.63 0.00
 -11 17 2 7.41 0.00
 -11 15 2 -55.15 0.00
 -11 13 2 5.83 0.00
 11 11 2 48.67 0.00
 11 13 2 -0.14 0.00
 11 15 2 20.63 0.00
 11 17 2 13.83 0.00
 11 19 2 16.54 0.00
 11 21 2 16.14 0.00
 11 23 2 24.49 0.00
 11 25 2 4.29 0.00
 11 27 2 2.71 0.00
 11 29 2 7.58 0.00
 11 31 2 3.28 0.00
 -11 32 3 -0.85 0.00
 -11 30 3 -2.96 0.00
 -11 28 3 0.11 0.00
 -11 26 3 -0.75 0.00
 -11 24 3 -6.77 0.00
 -11 22 3 -18.37 0.00
 -11 20 3 20.39 0.00
 -11 18 3 -11.60 0.00
 -11 16 3 9.36 0.00
 -11 14 3 8.96 0.00
 -11 12 3 2.87 0.00
 11 12 3 -19.07 0.00
 11 14 3 -19.69 0.00
 11 16 3 5.40 0.00
 11 18 3 -2.70 0.00
 11 20 3 -10.29 0.00
 11 22 3 13.60 0.00
 11 24 3 2.94 0.00
 11 26 3 11.58 0.00
 11 28 3 -9.49 0.00
 11 30 3 -1.27 0.00
 11 32 3 6.59 0.00
 -11 31 4 8.15 0.00
 -11 29 4 4.46 0.00
 -11 27 4 13.79 0.00
 -11 25 4 -3.99 0.00
 -11 23 4 -18.66 0.00
 -11 21 4 1.61 0.00
 -11 19 4 4.73 0.00
 -11 17 4 -15.24 0.00
 -11 15 4 -64.05 0.00
 -11 13 4 -6.65 0.00
 11 11 4 6.95 0.00
 11 13 4 29.19 0.00
 11 15 4 -8.62 0.00
 11 17 4 8.57 0.00
 11 19 4 -18.83 0.00
 11 21 4 15.43 0.00
 11 23 4 28.66 0.00
 11 25 4 5.89 0.00
 11 27 4 8.57 0.00
 11 29 4 4.17 0.00
 11 31 4 -1.84 0.00
 -11 32 5 -3.49 0.00
 -11 30 5 2.64 0.00
 -11 28 5 -3.60 0.00
 -11 26 5 -0.85 0.00
 -11 24 5 -5.09 0.00
 -11 22 5 -10.43 0.00
 -11 20 5 -8.77 0.00
 -11 18 5 -21.93 0.00
 -11 16 5 -11.70 0.00
 -11 14 5 28.79 0.00
 -11 12 5 -11.83 0.00
 11 12 5 -37.77 0.00
 11 14 5 -18.64 0.00
 11 16 5 12.43 0.00
 11 18 5 -5.21 0.00
 11 20 5 -19.79 0.00
 11 22 5 -6.93 0.00
 11 24 5 -13.61 0.00
 11 26 5 9.18 0.00
 11 28 5 -6.46 0.00
 11 30 5 -4.41 0.00
 11 32 5 12.65 0.00
 -11 31 6 1.39 0.00
 -11 29 6 2.15 0.00
 -11 27 6 -5.08 0.00
 -11 25 6 -1.48 0.00
 -11 23 6 6.18 0.00
 -11 21 6 2.07 0.00
 -11 19 6 4.68 0.00
 -11 17 6 -28.30 0.00
 -11 15 6 -34.56 0.00
 -11 13 6 -14.38 0.00
 11 11 6 -17.29 0.00
 11 13 6 1.18 0.00
 11 15 6 -55.96 0.00
 11 17 6 10.90 0.00
 11 19 6 -1.67 0.00
 11 21 6 -5.35 0.00
 11 23 6 -12.44 0.00
 11 25 6 -14.38 0.00
 11 27 6 8.53 0.00
 11 29 6 -17.84 0.00
 11 31 6 -3.17 0.00
 -11 32 7 4.32 0.00
 -11 30 7 5.29 0.00
 -11 28 7 1.06 0.00
 -11 26 7 -0.51 0.00
 -11 24 7 6.58 0.00
 -11 22 7 -15.13 0.00
 -11 20 7 3.81 0.00
 -11 18 7 -12.98 0.00
 -11 16 7 7.44 0.00
 -11 14 7 32.83 0.00
 -11 12 7 9.95 0.00
 11 12 7 19.44 0.00
 11 14 7 -4.59 0.00
 11 16 7 3.00 0.00
 11 18 7 -8.81 0.00
 11 20 7 -0.95 0.00
 11 22 7 -9.30 0.00
 11 24 7 3.05 0.00
 11 26 7 16.83 0.00
 11 28 7 7.37 0.00
 11 30 7 -5.32 0.00
 11 32 7 4.88 0.00
 -11 31 8 4.60 0.00
 -11 29 8 12.08 0.00
 -11 27 8 5.59 0.00
 -11 25 8 -5.18 0.00
 -11 23 8 1.73 0.00
 -11 21 8 -3.24 0.00
 -11 19 8 19.16 0.00
 -11 17 8 -23.23 0.00
 -11 15 8 0.51 0.00
 -11 13 8 5.36 0.00
 11 11 8 -4.46 0.00
 11 13 8 12.30 0.00
 11 15 8 -16.28 0.00
 11 17 8 9.92 0.00
 11 19 8 13.62 0.00
 11 21 8 27.07 0.00
 11 23 8 -4.23 0.00
 11 25 8 9.37 0.00
 11 27 8 -1.85 0.00
 11 29 8 -9.71 0.00
 11 31 8 -9.33 0.00
 -11 30 9 1.23 0.00
 -11 28 9 -1.88 0.00
 -11 26 9 6.82 0.00
 -11 24 9 -4.62 0.00
 -11 22 9 -6.49 0.00
 -11 20 9 -1.90 0.00
 -11 18 9 -12.11 0.00
 -11 16 9 -5.76 0.00
 -11 14 9 12.52 0.00
 -11 12 9 -17.91 0.00
 11 12 9 31.82 0.00
 11 14 9 -24.57 0.00
 11 16 9 18.98 0.00
 11 18 9 -13.46 0.00
 11 20 9 8.16 0.00
 11 22 9 16.55 0.00
 11 24 9 6.64 0.00
 11 26 9 22.91 0.00
 11 28 9 9.90 0.00
 11 30 9 -1.70 0.00
 -11 31 10 -3.22 0.00
 -11 29 10 -4.46 0.00
 -11 27 10 6.73 0.00
 -11 25 10 -17.31 0.00
 -11 23 10 5.71 0.00
 -11 21 10 -13.07 0.00
 -11 19 10 -9.21 0.00
 -11 17 10 -21.08 0.00
 -11 15 10 -6.45 0.00
 -11 13 10 -6.66 0.00
 11 11 10 10.45 0.00
 11 13 10 -12.67 0.00
 11 15 10 -32.34 0.00
 11 17 10 27.21 0.00
 11 19 10 1.09 0.00
 11 21 10 -1.06 0.00
 11 23 10 4.67 0.00
 11 25 10 1.50 0.00
 11 27 10 4.31 0.00
 11 29 10 -1.78 0.00
 11 31 10 0.54 0.00
 -11 30 11 2.02 0.00
 -11 28 11 -1.56 0.00
 -11 26 11 1.71 0.00
 -11 24 11 -0.33 0.00
 -11 22 11 8.27 0.00
 -11 20 11 -1.19 0.00
 -11 18 11 -12.31 0.00
 -11 16 11 12.73 0.00
 -11 14 11 21.38 0.00
 -11 12 11 -25.53 0.00
 11 12 11 3.81 0.00
 11 14 11 -36.50 0.00
 11 16 11 8.01 0.00
 11 18 11 -3.33 0.00
 11 20 11 2.43 0.00
 11 22 11 11.38 0.00
 11 24 11 -3.06 0.00
 11 26 11 8.40 0.00
 11 28 11 2.83 0.00
 11 30 11 4.35 0.00
 -11 29 12 4.27 0.00
 -11 27 12 -0.99 0.00
 -11 25 12 -0.18 0.00
 -11 23 12 1.83 0.00
 -11 21 12 -2.29 0.00
 -11 19 12 6.31 0.00
 -11 17 12 -12.26 0.00
 -11 15 12 14.29 0.00
 -11 13 12 -3.49 0.00
 11 11 12 34.36 0.00
 11 13 12 9.34 0.00
 11 15 12 -15.14 0.00
 11 17 12 22.86 0.00
 11 19 12 -11.11 0.00
 11 21 12 11.34 0.00
 11 23 12 8.70 0.00
 11 25 12 -5.52 0.00
 11 27 12 2.35 0.00
 11 29 12 9.64 0.00
 -11 30 13 3.20 0.00
 -11 28 13 0.06 0.00
 -11 26 13 -6.71 0.00
 -11 24 13 0.72 0.00
 -11 22 13 -5.85 0.00
 -11 20 13 -0.43 0.00
 -11 18 13 -9.33 0.00
 -11 16 13 11.15 0.00
 -11 14 13 14.96 0.00
 -11 12 13 -9.15 0.00
 11 12 13 -11.45 0.00
 11 14 13 -18.98 0.00
 11 16 13 4.76 0.00
 11 18 13 -5.97 0.00
 11 20 13 -3.80 0.00
 11 22 13 0.32 0.00
 11 24 13 1.00 0.00
 11 26 13 0.35 0.00
 11 28 13 -5.17 0.00
 11 30 13 -4.42 0.00
 -11 29 14 1.10 0.00
 -11 27 14 2.16 0.00
 -11 25 14 0.02 0.00
 -11 23 14 2.01 0.00
 -11 21 14 2.00 0.00
 -11 19 14 2.45 0.00
 -11 17 14 0.41 0.00
 -11 15 14 -18.63 0.00
 -11 13 14 -4.92 0.00
 11 11 14 9.66 0.00
 11 13 14 -2.16 0.00
 11 15 14 -3.83 0.00
 11 17 14 15.38 0.00
 11 19 14 -3.87 0.00
 11 21 14 1.60 0.00
 11 23 14 1.70 0.00
 11 25 14 -1.69 0.00
 11 27 14 6.62 0.00
 11 29 14 1.70 0.00
 -11 28 15 -1.00 0.00
 -11 26 15 -1.67 0.00
 -11 24 15 1.01 0.00
 -11 22 15 -11.08 0.00
 -11 20 15 -2.95 0.00
 -11 18 15 2.57 0.00
 -11 16 15 5.57 0.00
 -11 14 15 17.81 0.00
 -11 12 15 -2.82 0.00
 11 12 15 -7.93 0.00
 11 14 15 -4.78 0.00
 11 16 15 10.03 0.00
 11 18 15 -5.44 0.00
 11 20 15 -12.77 0.00
 11 22 15 2.76 0.00
 11 24 15 0.40 0.00
 11 26 15 8.42 0.00
 11 28 15 -0.88 0.00
 -11 27 16 7.72 0.00
 -11 25 16 4.19 0.00
 -11 23 16 5.33 0.00
 -11 21 16 3.69 0.00
 -11 19 16 9.53 0.00
 -11 17 16 10.50 0.00
 -11 15 16 3.52 0.00
 -11 13 16 -6.33 0.00
 11 11 16 0.76 0.00
 11 13 16 4.21 0.00
 11 15 16 -16.42 0.00
 11 17 16 13.45 0.00
 11 19 16 7.98 0.00
 11 21 16 -4.28 0.00
 11 23 16 4.07 0.00
 11 25 16 -2.99 0.00
 11 27 16 -2.81 0.00
 -11 28 17 -3.54 0.00
 -11 26 17 -1.93 0.00
 -11 24 17 2.63 0.00
 -11 22 17 -13.40 0.00
 -11 20 17 -11.86 0.00
 -11 18 17 -4.10 0.00
 -11 16 17 -0.81 0.00
 -11 14 17 16.86 0.00
 -11 12 17 -19.83 0.00
 11 12 17 8.11 0.00
 11 14 17 -21.05 0.00
 11 16 17 5.99 0.00
 11 18 17 3.10 0.00
 11 20 17 -0.32 0.00
 11 22 17 4.17 0.00
 11 24 17 1.30 0.00
 11 26 17 -3.03 0.00
 11 28 17 -7.80 0.00
 -11 27 18 3.84 0.00
 -11 25 18 6.72 0.00
 -11 23 18 -3.15 0.00
 -11 21 18 9.75 0.00
 -11 19 18 9.63 0.00
 -11 17 18 -7.49 0.00
 -11 15 18 -7.44 0.00
 -11 13 18 2.30 0.00
 11 11 18 -1.32 0.00
 11 13 18 6.73 0.00
 11 15 18 -2.91 0.00
 11 17 18 10.58 0.00
 11 19 18 7.21 0.00
 11 21 18 3.33 0.00
 11 23 18 3.42 0.00
 11 25 18 -1.24 0.00
 11 27 18 -0.88 0.00
 -11 26 19 -1.85 0.00
 -11 24 19 2.31 0.00
 -11 22 19 -3.77 0.00
 -11 20 19 -1.77 0.00
 -11 18 19 3.57 0.00
 -11 16 19 1.32 0.00
 -11 14 19 10.12 0.00
 -11 12 19 -22.82 0.00
 11 12 19 0.69 0.00
 11 14 19 2.48 0.00
 11 16 19 10.65 0.00
 11 18 19 -1.12 0.00
 11 20 19 -6.37 0.00
 11 22 19 4.90 0.00
 11 24 19 -10.13 0.00
 11 26 19 2.78 0.00
 -11 25 20 4.24 0.00
 -11 23 20 -0.40 0.00
 -11 21 20 0.44 0.00
 -11 19 20 2.26 0.00
 -11 17 20 2.77 0.00
 -11 15 20 -5.71 0.00
 -11 13 20 -1.90 0.00
 11 11 20 15.22 0.00
 11 13 20 17.17 0.00
 11 15 20 -0.72 0.00
 11 17 20 4.63 0.00
 11 19 20 1.25 0.00
 11 21 20 0.29 0.00
 11 23 20 2.95 0.00
 11 25 20 -5.84 0.00
 -11 24 21 0.52 0.00
 -11 22 21 1.30 0.00
 -11 20 21 4.77 0.00
 -11 18 21 1.76 0.00
 -11 16 21 1.39 0.00
 -11 14 21 -4.14 0.00
 -11 12 21 -10.82 0.00
 11 12 21 1.65 0.00
 11 14 21 3.94 0.00
 11 16 21 -0.90 0.00
 11 18 21 -0.08 0.00
 11 20 21 -9.68 0.00
 11 22 21 1.74 0.00
 11 24 21 -3.88 0.00
 -11 23 22 -4.78 0.00
 -11 21 22 -2.03 0.00
 -11 19 22 7.26 0.00
 -11 17 22 -8.21 0.00
 -11 15 22 -11.84 0.00
 -11 13 22 4.47 0.00
 11 11 22 9.90 0.00
 11 13 22 7.41 0.00
 11 15 22 -1.91 0.00
 11 17 22 11.91 0.00
 11 19 22 1.33 0.00
 11 21 22 4.98 0.00
 11 23 22 -2.45 0.00
 -11 22 23 -2.98 0.00
 -11 20 23 3.05 0.00
 -11 18 23 6.51 0.00
 -11 16 23 -2.17 0.00
 -11 14 23 0.55 0.00
 -11 12 23 -1.67 0.00
 11 12 23 -6.54 0.00
 11 14 23 -0.32 0.00
 11 16 23 -1.95 0.00
 11 18 23 -3.56 0.00
 11 20 23 2.83 0.00
 11 22 23 -4.05 0.00
 -11 21 24 1.64 0.00
 -11 19 24 4.14 0.00
 -11 17 24 4.49 0.00
 -11 15 24 -10.54 0.00
 -11 13 24 -7.23 0.00
 11 11 24 1.92 0.00
 11 13 24 3.74 0.00
 11 15 24 -11.50 0.00
 11 17 24 5.63 0.00
 11 19 24 12.37 0.00
 11 21 24 5.07 0.00
 -11 20 25 1.45 0.00
 -11 18 25 0.87 0.00
 -11 16 25 -0.11 0.00
 -11 14 25 7.37 0.00
 -11 12 25 5.12 0.00
 11 12 25 -2.99 0.00
 11 14 25 -6.84 0.00
 11 16 25 1.75 0.00
 11 18 25 -4.02 0.00
 11 20 25 -1.94 0.00
 -11 19 26 6.50 0.00
 -11 17 26 -1.97 0.00
 -11 15 26 1.74 0.00
 -11 13 26 1.62 0.00
 11 11 26 0.58 0.00
 11 13 26 2.23 0.00
 11 15 26 -5.17 0.00
 11 17 26 7.17 0.00
 11 19 26 4.28 0.00
 -11 18 27 2.84 0.00
 -11 16 27 -0.78 0.00
 -11 14 27 13.58 0.00
 -11 12 27 -8.67 0.00
 11 12 27 3.09 0.00
 11 14 27 -1.47 0.00
 11 16 27 -1.81 0.00
 11 18 27 -2.59 0.00
 -11 17 28 -0.06 0.00
 -11 15 28 6.66 0.00
 -11 13 28 2.50 0.00
 11 11 28 -0.36 0.00
 11 13 28 -1.38 0.00
 11 15 28 -6.54 0.00
 11 17 28 3.25 0.00
 -11 16 29 7.10 0.00
 -11 14 29 0.31 0.00
 -11 12 29 -7.19 0.00
 11 12 29 3.32 0.00
 11 14 29 -6.01 0.00
 11 16 29 -0.43 0.00
 -11 13 30 -11.48 0.00
 11 11 30 1.00 0.00
 11 13 30 -3.25 0.00
 -11 12 31 0.39 0.00
 9 11 32 -3.25 0.00
 -4 11 33 -1.01 0.00
 -12 30 0 9.42 0.00
 -12 28 0 5.62 0.00
 -12 26 0 8.26 0.00
 -12 24 0 5.09 0.00
 -12 22 0 22.48 0.00
 -12 20 0 -3.23 0.00
 -12 18 0 21.35 0.00
 -12 16 0 -7.44 0.00
 -12 14 0 82.39 0.00
 12 12 0 -19.62 0.00
 12 14 0 13.78 0.00
 12 16 0 -18.24 0.00
 12 18 0 30.89 0.00
 12 20 0 -26.81 0.00
 12 22 0 -19.95 0.00
 12 24 0 -18.64 0.00
 12 26 0 7.47 0.00
 12 28 0 -7.30 0.00
 12 30 0 -5.38 0.00
 12 32 0 11.87 0.00
 -12 31 1 3.09 0.00
 -12 29 1 -10.31 0.00
 -12 27 1 -1.42 0.00
 -12 25 1 7.74 0.00
 -12 23 1 -16.93 0.00
 -12 21 1 -1.65 0.00
 -12 19 1 -26.68 0.00
 -12 17 1 17.18 0.00
 -12 15 1 0.41 0.00
 -12 13 1 -100.20 0.00
 12 13 1 -20.48 0.00
 12 15 1 -60.37 0.00
 12 17 1 -4.89 0.00
 12 19 1 -2.22 0.00
 12 21 1 -25.92 0.00
 12 23 1 5.64 0.00
 12 25 1 19.53 0.00
 12 27 1 -7.63 0.00
 12 29 1 -15.01 0.00
 12 31 1 -9.03 0.00
 -12 32 2 10.09 0.00
 -12 30 2 -0.33 0.00
 -12 28 2 3.51 0.00
 -12 26 2 6.45 0.00
 -12 24 2 2.68 0.00
 -12 22 2 -1.93 0.00
 -12 20 2 2.72 0.00
 -12 18 2 14.68 0.00
 -12 16 2 21.59 0.00
 -12 14 2 31.80 0.00
 12 12 2 -7.97 0.00
 12 14 2 6.69 0.00
 12 16 2 -22.41 0.00
 12 18 2 13.64 0.00
 12 20 2 -22.08 0.00
 12 22 2 -11.09 0.00
 12 24 2 -6.10 0.00
 12 26 2 -5.61 0.00
 12 28 2 3.80 0.00
 12 30 2 -1.57 0.00
 12 32 2 4.68 0.00
 -12 31 3 -0.91 0.00
 -12 29 3 -8.68 0.00
 -12 27 3 4.07 0.00
 -12 25 3 13.81 0.00
 -12 23 3 -9.57 0.00
 -12 21 3 6.66 0.00
 -12 19 3 -1.13 0.00
 -12 17 3 15.62 0.00
 -12 15 3 14.86 0.00
 -12 13 3 -61.70 0.00
 12 13 3 -6.00 0.00
 12 15 3 -19.88 0.00
 12 17 3 -2.62 0.00
 12 19 3 10.83 0.00
 12 21 3 -25.27 0.00
 12 23 3 -4.54 0.00
 12 25 3 15.54 0.00
 12 27 3 -11.74 0.00
 12 29 3 1.62 0.00
 12 31 3 -11.74 0.00
 -12 32 4 -4.89 0.00
 -12 30 4 8.30 0.00
 -12 28 4 2.81 0.00
 -12 26 4 3.70 0.00
 -12 24 4 -6.73 0.00
 -12 22 4 -6.38 0.00
 -12 20 4 2.54 0.00
 -12 18 4 14.55 0.00
 -12 16 4 8.99 0.00
 -12 14 4 4.79 0.00
 12 12 4 40.85 0.00
 12 14 4 8.78 0.00
 12 16 4 -4.33 0.00
 12 18 4 17.07 0.00
 12 20 4 -16.04 0.00
 12 22 4 30.23 0.00
 12 24 4 8.63 0.00
 12 26 4 -4.69 0.00
 12 28 4 10.83 0.00
 12 30 4 -0.26 0.00
 12 32 4 -4.27 0.00
 -12 31 5 -5.58 0.00
 -12 29 5 -9.12 0.00
 -12 27 5 -3.20 0.00
 -12 25 5 4.85 0.00
 -12 23 5 0.67 0.00
 -12 21 5 10.03 0.00
 -12 19 5 0.66 0.00
 -12 17 5 20.99 0.00
 -12 15 5 15.16 0.00
 -12 13 5 -39.47 0.00
 12 13 5 -9.60 0.00
 12 15 5 -7.90 0.00
 12 17 5 9.74 0.00
 12 19 5 0.13 0.00
 12 21 5 -27.16 0.00
 12 23 5 -1.84 0.00
 12 25 5 -6.64 0.00
 12 27 5 -12.09 0.00
 12 29 5 2.79 0.00
 12 31 5 -2.68 0.00
 -12 32 6 -4.37 0.00
 -12 30 6 0.74 0.00
 -12 28 6 -2.86 0.00
 -12 26 6 -1.20 0.00
 -12 24 6 1.25 0.00
 -12 22 6 0.88 0.00
 -12 20 6 -12.32 0.00
 -12 18 6 3.10 0.00
 -12 16 6 -17.63 0.00
 -12 14 6 5.91 0.00
 12 12 6 43.73 0.00
 12 14 6 -10.68 0.00
 12 16 6 -15.56 0.00
 12 18 6 10.35 0.00
 12 20 6 -9.91 0.00
 12 22 6 7.86 0.00
 12 24 6 -3.92 0.00
 12 26 6 -4.87 0.00
 12 28 6 10.39 0.00
 12 30 6 -3.67 0.00
 12 32 6 5.19 0.00
 -12 31 7 -0.84 0.00
 -12 29 7 -3.98 0.00
 -12 27 7 -7.85 0.00
 -12 25 7 4.62 0.00
 -12 23 7 -1.92 0.00
 -12 21 7 5.05 0.00
 -12 19 7 15.17 0.00
 -12 17 7 31.13 0.00
 -12 15 7 6.19 0.00
 -12 13 7 -36.59 0.00
 12 13 7 -3.27 0.00
 12 15 7 -33.01 0.00
 12 17 7 -15.09 0.00
 12 19 7 10.03 0.00
 12 21 7 -21.67 0.00
 12 23 7 -6.34 0.00
 12 25 7 -3.46 0.00
 12 27 7 -6.12 0.00
 12 29 7 -1.80 0.00
 12 31 7 -12.25 0.00
 -12 30 8 1.56 0.00
 -12 28 8 8.92 0.00
 -12 26 8 -5.00 0.00
 -12 24 8 -4.86 0.00
 -12 22 8 -11.14 0.00
 -12 20 8 13.39 0.00
 -12 18 8 6.72 0.00
 -12 16 8 -4.47 0.00
 -12 14 8 -6.60 0.00
 12 12 8 48.40 0.00
 12 14 8 15.17 0.00
 12 16 8 -4.95 0.00
 12 18 8 -6.09 0.00
 12 20 8 7.67 0.00
 12 22 8 -8.09 0.00
 12 24 8 -8.18 0.00
 12 26 8 -6.48 0.00
 12 28 8 3.79 0.00
 12 30 8 4.09 0.00
 -12 31 9 0.40 0.00
 -12 29 9 -6.00 0.00
 -12 27 9 5.07 0.00
 -12 25 9 -4.03 0.00
 -12 23 9 -12.36 0.00
 -12 21 9 -9.46 0.00
 -12 19 9 13.12 0.00
 -12 17 9 14.56 0.00
 -12 15 9 0.12 0.00
 -12 13 9 -43.59 0.00
 12 13 9 -23.41 0.00
 12 15 9 -43.08 0.00
 12 17 9 -13.49 0.00
 12 19 9 2.36 0.00
 12 21 9 -6.90 0.00
 12 23 9 4.78 0.00
 12 25 9 2.59 0.00
 12 27 9 -3.62 0.00
 12 29 9 -7.32 0.00
 12 31 9 -13.18 0.00
 -12 30 10 -5.13 0.00
 -12 28 10 1.75 0.00
 -12 26 10 -5.51 0.00
 -12 24 10 -5.73 0.00
 -12 22 10 -2.85 0.00
 -12 20 10 8.14 0.00
 -12 18 10 18.70 0.00
 -12 16 10 -1.32 0.00
 -12 14 10 8.96 0.00
 12 12 10 54.58 0.00
 12 14 10 -3.38 0.00
 12 16 10 -5.51 0.00
 12 18 10 -2.98 0.00
 12 20 10 -15.82 0.00
 12 22 10 -8.85 0.00
 12 24 10 1.00 0.00
 12 26 10 -7.36 0.00
 12 28 10 -0.96 0.00
 12 30 10 4.20 0.00
 -12 29 11 -4.32 0.00
 -12 27 11 1.64 0.00
 -12 25 11 -1.92 0.00
 -12 23 11 -2.57 0.00
 -12 21 11 7.06 0.00
 -12 19 11 2.96 0.00
 -12 17 11 -10.04 0.00
 -12 15 11 2.96 0.00
 -12 13 11 -18.44 0.00
 12 13 11 0.52 0.00
 12 15 11 -31.21 0.00
 12 17 11 -8.31 0.00
 12 19 11 6.92 0.00
 12 21 11 12.06 0.00
 12 23 11 0.26 0.00
 12 25 11 -1.83 0.00
 12 27 11 4.28 0.00
 12 29 11 -3.27 0.00
 -12 30 12 4.31 0.00
 -12 28 12 -3.19 0.00
 -12 26 12 -10.20 0.00
 -12 24 12 1.22 0.00
 -12 22 12 -3.17 0.00
 -12 20 12 21.02 0.00
 -12 18 12 4.04 0.00
 -12 16 12 8.73 0.00
 -12 14 12 12.54 0.00
 12 12 12 44.32 0.00
 12 14 12 4.63 0.00
 12 16 12 -4.79 0.00
 12 18 12 -13.04 0.00
 12 20 12 -15.13 0.00
 12 22 12 6.51 0.00
 12 24 12 7.18 0.00
 12 26 12 -10.14 0.00
 12 28 12 7.11 0.00
 12 30 12 -0.92 0.00
 -12 29 13 2.29 0.00
 -12 27 13 -6.95 0.00
 -12 25 13 -3.10 0.00
 -12 23 13 -4.70 0.00
 -12 21 13 5.90 0.00
 -12 19 13 3.17 0.00
 -12 17 13 -5.23 0.00
 -12 15 13 -15.82 0.00
 -12 13 13 -38.24 0.00
 12 13 13 15.02 0.00
 12 15 13 -10.67 0.00
 12 17 13 -16.47 0.00
 12 19 13 8.66 0.00
 12 21 13 -6.94 0.00
 12 23 13 -6.08 0.00
 12 25 13 -1.24 0.00
 12 27 13 -1.73 0.00
 12 29 13 5.23 0.00
 -12 28 14 -3.10 0.00
 -12 26 14 -4.08 0.00
 -12 24 14 -7.82 0.00
 -12 22 14 1.77 0.00
 -12 20 14 1.20 0.00
 -12 18 14 2.05 0.00
 -12 16 14 -3.72 0.00
 -12 14 14 1.51 0.00
 12 12 14 35.70 0.00
 12 14 14 5.57 0.00
 12 16 14 -19.19 0.00
 12 18 14 2.41 0.00
 12 20 14 -11.70 0.00
 12 22 14 -3.55 0.00
 12 24 14 -4.72 0.00
 12 26 14 -3.06 0.00
 12 28 14 -0.43 0.00
 -12 29 15 -0.15 0.00
 -12 27 15 2.50 0.00
 -12 25 15 -5.03 0.00
 -12 23 15 -0.71 0.00
 -12 21 15 -0.75 0.00
 -12 19 15 6.11 0.00
 -12 17 15 7.76 0.00
 -12 15 15 3.42 0.00
 -12 13 15 -19.18 0.00
 12 13 15 -2.37 0.00
 12 15 15 -5.38 0.00
 12 17 15 0.20 0.00
 12 19 15 7.61 0.00
 12 21 15 -20.97 0.00
 12 23 15 -3.17 0.00
 12 25 15 -1.19 0.00
 12 27 15 0.93 0.00
 12 29 15 -0.97 0.00
 -12 28 16 1.09 0.00
 -12 26 16 0.67 0.00
 -12 24 16 -1.86 0.00
 -12 22 16 6.13 0.00
 -12 20 16 -3.19 0.00
 -12 18 16 -1.82 0.00
 -12 16 16 -7.24 0.00
 -12 14 16 7.97 0.00
 12 12 16 18.86 0.00
 12 14 16 7.95 0.00
 12 16 16 -4.90 0.00
 12 18 16 19.17 0.00
 12 20 16 -6.54 0.00
 12 22 16 -3.28 0.00
 12 24 16 1.55 0.00
 12 26 16 -0.73 0.00
 12 28 16 4.72 0.00
 -12 27 17 1.80 0.00
 -12 25 17 4.11 0.00
 -12 23 17 2.08 0.00
 -12 21 17 -2.99 0.00
 -12 19 17 -0.88 0.00
 -12 17 17 12.90 0.00
 -12 15 17 8.10 0.00
 -12 13 17 -11.60 0.00
 12 13 17 -17.11 0.00
 12 15 17 -14.53 0.00
 12 17 17 5.68 0.00
 12 19 17 -1.73 0.00
 12 21 17 -10.74 0.00
 12 23 17 -4.11 0.00
 12 25 17 4.26 0.00
 12 27 17 -6.47 0.00
 -12 26 18 -0.10 0.00
 -12 24 18 0.93 0.00
 -12 22 18 1.94 0.00
 -12 20 18 -6.39 0.00
 -12 18 18 -8.33 0.00
 -12 16 18 -21.68 0.00
 -12 14 18 2.31 0.00
 12 12 18 1.61 0.00
 12 14 18 13.96 0.00
 12 16 18 -3.68 0.00
 12 18 18 -2.19 0.00
 12 20 18 -2.71 0.00
 12 22 18 3.65 0.00
 12 24 18 1.82 0.00
 12 26 18 -3.75 0.00
 -12 25 19 10.76 0.00
 -12 23 19 4.04 0.00
 -12 21 19 1.14 0.00
 -12 19 19 -5.41 0.00
 -12 17 19 8.13 0.00
 -12 15 19 9.55 0.00
 -12 13 19 -11.20 0.00
 12 13 19 -6.27 0.00
 12 15 19 2.25 0.00
 12 17 19 5.15 0.00
 12 19 19 -1.54 0.00
 12 21 19 0.25 0.00
 12 23 19 4.62 0.00
 12 25 19 7.12 0.00
 -12 24 20 -3.55 0.00
 -12 22 20 3.78 0.00
 -12 20 20 1.88 0.00
 -12 18 20 8.60 0.00
 -12 16 20 -3.44 0.00
 -12 14 20 -5.22 0.00
 12 12 20 7.76 0.00
 12 14 20 19.59 0.00
 12 16 20 -7.39 0.00
 12 18 20 11.14 0.00
 12 20 20 3.19 0.00
 12 22 20 13.49 0.00
 12 24 20 2.49 0.00
 -12 25 21 5.08 0.00
 -12 23 21 4.36 0.00
 -12 21 21 3.48 0.00
 -12 19 21 -11.29 0.00
 -12 17 21 6.26 0.00
 -12 15 21 3.56 0.00
 -12 13 21 -18.48 0.00
 12 13 21 -3.22 0.00
 12 15 21 8.72 0.00
 12 17 21 8.20 0.00
 12 19 21 -4.11 0.00
 12 21 21 2.32 0.00
 12 23 21 12.37 0.00
 12 25 21 4.29 0.00
 -12 24 22 -1.49 0.00
 -12 22 22 -3.55 0.00
 -12 20 22 3.56 0.00
 -12 18 22 5.89 0.00
 -12 16 22 -6.71 0.00
 -12 14 22 7.63 0.00
 12 12 22 10.42 0.00
 12 14 22 3.94 0.00
 12 16 22 3.57 0.00
 12 18 22 5.52 0.00
 12 20 22 -0.38 0.00
 12 22 22 -3.45 0.00
 12 24 22 1.65 0.00
 -12 23 23 -4.22 0.00
 -12 21 23 -1.54 0.00
 -12 19 23 0.14 0.00
 -12 17 23 6.98 0.00
 -12 15 23 2.39 0.00
 -12 13 23 -3.38 0.00
 12 13 23 7.23 0.00
 12 15 23 4.91 0.00
 12 17 23 5.07 0.00
 12 19 23 3.70 0.00
 12 21 23 -4.43 0.00
 12 23 23 -0.96 0.00
 -12 22 24 -1.88 0.00
 -12 20 24 -2.88 0.00
 -12 18 24 2.12 0.00
 -12 16 24 -1.28 0.00
 -12 14 24 4.70 0.00
 12 12 24 0.07 0.00
 12 14 24 -2.45 0.00
 12 16 24 -7.94 0.00
 12 18 24 0.71 0.00
 12 20 24 3.02 0.00
 12 22 24 -9.17 0.00
 -12 19 25 3.80 0.00
 -12 17 25 8.33 0.00
 -12 15 25 3.94 0.00
 -12 13 25 -4.28 0.00
 12 13 25 -3.29 0.00
 12 15 25 -9.28 0.00
 12 17 25 0.21 0.00
 12 19 25 1.53 0.00
 -12 18 26 -0.12 0.00
 -12 16 26 -0.47 0.00
 -12 14 26 -0.21 0.00
 12 12 26 7.71 0.00
 12 14 26 -6.12 0.00
 12 16 26 -7.74 0.00
 12 18 26 -7.09 0.00
 -12 17 27 -7.23 0.00
 -12 15 27 1.98 0.00
 -12 13 27 -2.28 0.00
 12 13 27 0.19 0.00
 12 15 27 -3.60 0.00
 12 17 27 4.84 0.00
 -12 16 28 -0.87 0.00
 -12 14 28 1.58 0.00
 12 12 28 2.13 0.00
 12 14 28 -3.83 0.00
 12 16 28 5.63 0.00
 -12 15 29 -4.68 0.00
 -12 13 29 -7.95 0.00
 12 13 29 0.31 0.00
 12 15 29 3.40 0.00
 12 12 30 3.10 0.00
 11 12 31 10.73 0.00
 -8 12 32 -8.14 0.00
 1 12 33 -16.47 0.00
 -1 12 33 -4.93 0.00
 -13 31 0 8.98 0.00
 -13 29 0 6.02 0.00
 -13 27 0 -11.50 0.00
 -13 25 0 2.64 0.00
 -13 23 0 -3.48 0.00
 -13 21 0 4.47 0.00
 -13 19 0 25.92 0.00
 -13 17 0 -14.31 0.00
 -13 15 0 7.29 0.00
 13 13 0 25.51 0.00
 13 15 0 10.01 0.00
 13 17 0 -29.71 0.00
 13 19 0 -29.90 0.00
 13 21 0 2.25 0.00
 13 23 0 -12.77 0.00
 13 25 0 16.06 0.00
 13 27 0 10.64 0.00
 13 29 0 8.13 0.00
 13 31 0 -6.15 0.00
 -13 30 1 6.21 0.00
 -13 28 1 -3.94 0.00
 -13 26 1 10.56 0.00
 -13 24 1 -3.27 0.00
 -13 22 1 10.41 0.00
 -13 20 1 10.16 0.00
 -13 18 1 5.68 0.00
 -13 16 1 -8.57 0.00
 -13 14 1 4.85 0.00
 13 14 1 -7.40 0.00
 13 16 1 13.69 0.00
 13 18 1 31.68 0.00
 13 20 1 6.06 0.00
 13 22 1 5.38 0.00
 13 24 1 -0.25 0.00
 13 26 1 -12.24 0.00
 13 28 1 -8.87 0.00
 13 30 1 -4.30 0.00
 13 32 1 -1.18 0.00
 -13 31 2 6.21 0.00
 -13 29 2 2.54 0.00
 -13 27 2 -4.40 0.00
 -13 25 2 11.57 0.00
 -13 23 2 -18.48 0.00
 -13 21 2 -1.24 0.00
 -13 19 2 9.41 0.00
 -13 17 2 -8.34 0.00
 -13 15 2 12.61 0.00
 13 13 2 -2.59 0.00
 13 15 2 6.24 0.00
 13 17 2 -42.26 0.00
 13 19 2 -27.54 0.00
 13 21 2 2.64 0.00
 13 23 2 -13.88 0.00
 13 25 2 7.46 0.00
 13 27 2 -7.96 0.00
 13 29 2 17.77 0.00
 13 31 2 0.29 0.00
 -13 30 3 -0.18 0.00
 -13 28 3 4.35 0.00
 -13 26 3 11.86 0.00
 -13 24 3 10.90 0.00
 -13 22 3 -17.99 0.00
 -13 20 3 5.38 0.00
 -13 18 3 -15.47 0.00
 -13 16 3 -15.73 0.00
 -13 14 3 -3.87 0.00
 13 14 3 22.63 0.00
 13 16 3 -0.21 0.00
 13 18 3 8.29 0.00
 13 20 3 12.31 0.00
 13 22 3 -11.33 0.00
 13 24 3 -2.80 0.00
 13 26 3 -4.03 0.00
 13 28 3 4.52 0.00
 13 30 3 2.43 0.00
 13 32 3 7.83 0.00
 -13 31 4 2.82 0.00
 -13 29 4 9.84 0.00
 -13 27 4 -7.16 0.00
 -13 25 4 12.39 0.00
 -13 23 4 -5.37 0.00
 -13 21 4 0.06 0.00
 -13 19 4 20.21 0.00
 -13 17 4 2.91 0.00
 -13 15 4 19.72 0.00
 13 13 4 3.47 0.00
 13 15 4 9.91 0.00
 13 17 4 -8.99 0.00
 13 19 4 -1.73 0.00
 13 21 4 18.86 0.00
 13 23 4 2.28 0.00
 13 25 4 -5.67 0.00
 13 27 4 -4.92 0.00
 13 29 4 4.80 0.00
 13 31 4 3.21 0.00
 -13 30 5 -3.83 0.00
 -13 28 5 4.71 0.00
 -13 26 5 6.74 0.00
 -13 24 5 0.30 0.00
 -13 22 5 -15.23 0.00
 -13 20 5 3.73 0.00
 -13 18 5 -15.98 0.00
 -13 16 5 -24.52 0.00
 -13 14 5 -12.08 0.00
 13 14 5 9.38 0.00
 13 16 5 2.72 0.00
 13 18 5 -9.20 0.00
 13 20 5 -3.64 0.00
 13 22 5 -0.41 0.00
 13 24 5 -1.04 0.00
 13 26 5 -1.62 0.00
 13 28 5 0.12 0.00
 13 30 5 2.76 0.00
 13 32 5 3.32 0.00
 -13 31 6 4.43 0.00
 -13 29 6 8.76 0.00
 -13 27 6 -3.74 0.00
 -13 25 6 12.33 0.00
 -13 23 6 -6.42 0.00
 -13 21 6 3.54 0.00
 -13 19 6 8.28 0.00
 -13 17 6 -5.59 0.00
 -13 15 6 13.47 0.00
 13 13 6 22.13 0.00
 13 15 6 9.76 0.00
 13 17 6 -9.70 0.00
 13 19 6 1.83 0.00
 13 21 6 19.61 0.00
 13 23 6 -3.47 0.00
 13 25 6 -6.24 0.00
 13 27 6 -3.90 0.00
 13 29 6 -6.71 0.00
 13 31 6 8.26 0.00
 -13 30 7 -7.74 0.00
 -13 28 7 -5.78 0.00
 -13 26 7 1.50 0.00
 -13 24 7 0.31 0.00
 -13 22 7 -12.66 0.00
 -13 20 7 -1.47 0.00
 -13 18 7 -17.81 0.00
 -13 16 7 -2.90 0.00
 -13 14 7 -41.89 0.00
 13 14 7 -11.52 0.00
 13 16 7 -3.86 0.00
 13 18 7 -4.32 0.00
 13 20 7 15.08 0.00
 13 22 7 -10.08 0.00
 13 24 7 5.15 0.00
 13 26 7 0.29 0.00
 13 28 7 -4.04 0.00
 13 30 7 -2.74 0.00
 -13 31 8 0.66 0.00
 -13 29 8 1.72 0.00
 -13 27 8 0.41 0.00
 -13 25 8 -2.45 0.00
 -13 23 8 0.22 0.00
 -13 21 8 6.27 0.00
 -13 19 8 3.49 0.00
 -13 17 8 -8.49 0.00
 -13 15 8 17.24 0.00
 13 13 8 0.05 0.00
 13 15 8 23.52 0.00
 13 17 8 -26.24 0.00
 13 19 8 11.16 0.00
 13 21 8 4.01 0.00
 13 23 8 -2.31 0.00
 13 25 8 6.85 0.00
 13 27 8 6.04 0.00
 13 29 8 2.31 0.00
 13 31 8 2.84 0.00
 -13 30 9 -4.67 0.00
 -13 28 9 -5.28 0.00
 -13 26 9 7.93 0.00
 -13 24 9 2.08 0.00
 -13 22 9 -11.65 0.00
 -13 20 9 5.21 0.00
 -13 18 9 -4.48 0.00
 -13 16 9 5.75 0.00
 -13 14 9 -29.02 0.00
 13 14 9 0.99 0.00
 13 16 9 17.45 0.00
 13 18 9 17.22 0.00
 13 20 9 -1.60 0.00
 13 22 9 -1.89 0.00
 13 24 9 10.23 0.00
 13 26 9 -3.61 0.00
 13 28 9 -6.31 0.00
 13 30 9 -8.06 0.00
 -13 29 10 -4.65 0.00
 -13 27 10 1.75 0.00
 -13 25 10 -3.21 0.00
 -13 23 10 -3.78 0.00
 -13 21 10 -5.31 0.00
 -13 19 10 12.12 0.00
 -13 17 10 -11.89 0.00
 -13 15 10 -14.10 0.00
 13 13 10 -7.61 0.00
 13 15 10 15.18 0.00
 13 17 10 -26.46 0.00
 13 19 10 -8.99 0.00
 13 21 10 2.27 0.00
 13 23 10 12.02 0.00
 13 25 10 13.71 0.00
 13 27 10 -2.40 0.00
 13 29 10 -8.59 0.00
 -13 30 11 -5.13 0.00
 -13 28 11 1.36 0.00
 -13 26 11 11.35 0.00
 -13 24 11 2.88 0.00
 -13 22 11 -6.49 0.00
 -13 20 11 5.38 0.00
 -13 18 11 -3.31 0.00
 -13 16 11 -6.32 0.00
 -13 14 11 -9.23 0.00
 13 14 11 23.98 0.00
 13 16 11 36.10 0.00
 13 18 11 4.68 0.00
 13 20 11 9.98 0.00
 13 22 11 -1.35 0.00
 13 24 11 -11.31 0.00
 13 26 11 -2.25 0.00
 13 28 11 -7.42 0.00
 13 30 11 -1.77 0.00
 -13 29 12 2.58 0.00
 -13 27 12 -0.69 0.00
 -13 25 12 2.52 0.00
 -13 23 12 -8.42 0.00
 -13 21 12 -4.21 0.00
 -13 19 12 11.35 0.00
 -13 17 12 -1.41 0.00
 -13 15 12 -7.49 0.00
 13 13 12 -21.67 0.00
 13 15 12 16.80 0.00
 13 17 12 -7.84 0.00
 13 19 12 -10.63 0.00
 13 21 12 4.84 0.00
 13 23 12 17.36 0.00
 13 25 12 2.66 0.00
 13 27 12 -8.44 0.00
 13 29 12 1.39 0.00
 -13 28 13 4.23 0.00
 -13 26 13 8.40 0.00
 -13 24 13 12.40 0.00
 -13 22 13 -9.16 0.00
 -13 20 13 13.06 0.00
 -13 18 13 2.19 0.00
 -13 16 13 4.70 0.00
 -13 14 13 -20.24 0.00
 13 14 13 8.97 0.00
 13 16 13 -0.18 0.00
 13 18 13 -15.67 0.00
 13 20 13 -1.28 0.00
 13 22 13 -1.03 0.00
 13 24 13 0.16 0.00
 13 26 13 -2.26 0.00
 13 28 13 2.28 0.00
 -13 29 14 -2.87 0.00
 -13 27 14 4.91 0.00
 -13 25 14 0.00 0.00
 -13 23 14 -10.23 0.00
 -13 21 14 -4.12 0.00
 -13 19 14 4.32 0.00
 -13 17 14 -1.89 0.00
 -13 15 14 1.46 0.00
 13 13 14 -15.65 0.00
 13 15 14 -8.67 0.00
 13 17 14 -6.98 0.00
 13 19 14 1.52 0.00
 13 21 14 3.36 0.00
 13 23 14 5.45 0.00
 13 25 14 5.54 0.00
 13 27 14 1.72 0.00
 13 29 14 1.44 0.00
 -13 28 15 0.75 0.00
 -13 26 15 5.60 0.00
 -13 24 15 8.04 0.00
 -13 22 15 -4.60 0.00
 -13 20 15 7.12 0.00
 -13 18 15 9.05 0.00
 -13 16 15 5.00 0.00
 -13 14 15 -6.04 0.00
 13 14 15 -1.85 0.00
 13 16 15 4.90 0.00
 13 18 15 12.74 0.00
 13 20 15 -6.78 0.00
 13 22 15 -2.01 0.00
 13 24 15 5.40 0.00
 13 26 15 -2.86 0.00
 13 28 15 -3.11 0.00
 -13 27 16 -0.83 0.00
 -13 25 16 -0.95 0.00
 -13 23 16 -5.82 0.00
 -13 21 16 -2.70 0.00
 -13 19 16 3.98 0.00
 -13 17 16 -10.71 0.00
 -13 15 16 8.93 0.00
 13 13 16 0.78 0.00
 13 15 16 9.32 0.00
 13 17 16 10.67 0.00
 13 19 16 12.82 0.00
 13 21 16 -0.67 0.00
 13 23 16 -6.21 0.00
 13 25 16 6.29 0.00
 13 27 16 4.77 0.00
 -13 26 17 -2.44 0.00
 -13 24 17 7.11 0.00
 -13 22 17 -1.84 0.00
 -13 20 17 4.70 0.00
 -13 18 17 0.64 0.00
 -13 16 17 -7.52 0.00
 -13 14 17 -2.95 0.00
 13 14 17 -8.54 0.00
 13 16 17 8.97 0.00
 13 18 17 -0.88 0.00
 13 20 17 -0.29 0.00
 13 22 17 -7.79 0.00
 13 24 17 -7.77 0.00
 13 26 17 0.54 0.00
 -13 25 18 9.35 0.00
 -13 23 18 2.14 0.00
 -13 21 18 -4.43 0.00
 -13 19 18 -2.32 0.00
 -13 17 18 -20.60 0.00
 -13 15 18 5.73 0.00
 13 13 18 5.20 0.00
 13 15 18 3.25 0.00
 13 17 18 -9.55 0.00
 13 19 18 3.50 0.00
 13 21 18 9.88 0.00
 13 23 18 -2.95 0.00
 13 25 18 15.13 0.00
 -13 26 19 4.50 0.00
 -13 24 19 2.84 0.00
 -13 22 19 0.50 0.00
 -13 20 19 3.93 0.00
 -13 18 19 -1.26 0.00
 -13 16 19 -8.69 0.00
 -13 14 19 12.04 0.00
 13 14 19 -1.83 0.00
 13 16 19 -11.61 0.00
 13 18 19 -1.99 0.00
 13 20 19 -2.96 0.00
 13 22 19 -7.29 0.00
 13 24 19 -0.31 0.00
 13 26 19 5.22 0.00
 -13 25 20 -0.23 0.00
 -13 23 20 4.73 0.00
 -13 21 20 0.83 0.00
 -13 19 20 8.04 0.00
 -13 17 20 -9.82 0.00
 -13 15 20 5.51 0.00
 13 13 20 8.19 0.00
 13 15 20 -3.12 0.00
 13 17 20 -3.54 0.00
 13 19 20 1.20 0.00
 13 21 20 6.01 0.00
 13 23 20 3.82 0.00
 13 25 20 11.40 0.00
 -13 24 21 5.11 0.00
 -13 22 21 0.89 0.00
 -13 20 21 1.59 0.00
 -13 18 21 -8.06 0.00
 -13 16 21 1.25 0.00
 -13 14 21 -1.27 0.00
 13 14 21 -1.56 0.00
 13 16 21 -0.89 0.00
 13 18 21 -5.39 0.00
 13 20 21 -3.62 0.00
 13 22 21 8.66 0.00
 13 24 21 -2.60 0.00
 -13 23 22 2.30 0.00
 -13 21 22 -1.52 0.00
 -13 19 22 3.40 0.00
 -13 17 22 -7.31 0.00
 -13 15 22 6.04 0.00
 13 13 22 10.91 0.00
 13 15 22 -0.99 0.00
 13 17 22 4.84 0.00
 13 19 22 -1.61 0.00
 13 21 22 0.49 0.00
 13 23 22 2.43 0.00
 -13 22 23 -0.85 0.00
 -13 20 23 1.88 0.00
 -13 18 23 -9.33 0.00
 -13 16 23 0.40 0.00
 -13 14 23 2.07 0.00
 13 14 23 4.14 0.00
 13 16 23 6.38 0.00
 13 18 23 -2.53 0.00
 13 20 23 0.42 0.00
 13 22 23 -0.06 0.00
 -13 21 24 6.51 0.00
 -13 19 24 -0.69 0.00
 -13 17 24 0.02 0.00
 -13 15 24 10.35 0.00
 13 13 24 10.52 0.00
 13 15 24 11.32 0.00
 13 17 24 -1.85 0.00
 13 19 24 4.75 0.00
 13 21 24 1.76 0.00
 -13 20 25 -2.17 0.00
 -13 18 25 -3.69 0.00
 -13 16 25 4.54 0.00
 -13 14 25 -6.83 0.00
 13 14 25 0.13 0.00
 13 16 25 -0.94 0.00
 13 18 25 -3.53 0.00
 13 20 25 -6.71 0.00
 -13 19 26 4.58 0.00
 -13 17 26 -1.82 0.00
 -13 15 26 5.24 0.00
 13 13 26 0.16 0.00
 13 15 26 -0.13 0.00
 13 17 26 -1.77 0.00
 13 19 26 5.23 0.00
 -13 16 27 -2.47 0.00
 -13 14 27 0.81 0.00
 13 14 27 1.62 0.00
 13 16 27 6.04 0.00
 13 18 27 2.60 0.00
 -13 15 28 1.07 0.00
 13 13 28 -4.21 0.00
 13 15 28 3.66 0.00
 -13 14 29 -2.86 0.00
 -10 13 31 -9.06 0.00
 -14 30 0 3.63 0.00
 -14 28 0 -5.23 0.00
 -14 26 0 3.12 0.00
 -14 24 0 0.45 0.00
 -14 22 0 12.90 0.00
 -14 20 0 3.93 0.00
 -14 18 0 4.69 0.00
 -14 16 0 -4.70 0.00
 14 14 0 32.76 0.00
 14 16 0 -1.49 0.00
 14 18 0 2.54 0.00
 14 20 0 23.99 0.00
 14 22 0 27.36 0.00
 14 24 0 7.94 0.00
 14 26 0 11.63 0.00
 14 28 0 -1.45 0.00
 14 30 0 -12.04 0.00
 -14 31 1 -5.44 0.00
 -14 29 1 -3.63 0.00
 -14 27 1 -10.26 0.00
 -14 25 1 -4.09 0.00
 -14 23 1 -3.89 0.00
 -14 21 1 -4.13 0.00
 -14 19 1 9.49 0.00
 -14 17 1 -17.85 0.00
 -14 15 1 33.98 0.00
 14 15 1 -10.79 0.00
 14 17 1 23.17 0.00
 14 19 1 -20.83 0.00
 14 21 1 -11.35 0.00
 14 23 1 -20.93 0.00
 14 25 1 -10.46 0.00
 14 27 1 -1.82 0.00
 14 29 1 -6.93 0.00
 14 31 1 6.54 0.00
 -14 30 2 3.70 0.00
 -14 28 2 -6.19 0.00
 -14 26 2 1.50 0.00
 -14 24 2 1.62 0.00
 -14 22 2 4.59 0.00
 -14 20 2 -1.37 0.00
 -14 18 2 -11.92 0.00
 -14 16 2 -6.59 0.00
 14 14 2 7.31 0.00
 14 16 2 -21.86 0.00
 14 18 2 1.13 0.00
 14 20 2 29.05 0.00
 14 22 2 10.85 0.00
 14 24 2 3.46 0.00
 14 26 2 2.67 0.00
 14 28 2 6.73 0.00
 14 30 2 1.57 0.00
 -14 31 3 -4.33 0.00
 -14 29 3 9.31 0.00
 -14 27 3 -0.76 0.00
 -14 25 3 0.93 0.00
 -14 23 3 5.49 0.00
 -14 21 3 -21.79 0.00
 -14 19 3 10.59 0.00
 -14 17 3 -27.96 0.00
 -14 15 3 16.35 0.00
 14 15 3 -4.04 0.00
 14 17 3 2.29 0.00
 14 19 3 -5.89 0.00
 14 21 3 6.92 0.00
 14 23 3 -26.75 0.00
 14 25 3 -7.35 0.00
 14 27 3 -2.53 0.00
 14 29 3 2.45 0.00
 14 31 3 11.37 0.00
 -14 30 4 -3.09 0.00
 -14 28 4 -10.93 0.00
 -14 26 4 -2.25 0.00
 -14 24 4 15.04 0.00
 -14 22 4 3.07 0.00
 -14 20 4 2.01 0.00
 -14 18 4 -3.03 0.00
 -14 16 4 6.91 0.00
 14 14 4 6.55 0.00
 14 16 4 -10.97 0.00
 14 18 4 9.79 0.00
 14 20 4 9.65 0.00
 14 22 4 20.68 0.00
 14 24 4 2.98 0.00
 14 26 4 -5.78 0.00
 14 28 4 14.13 0.00
 14 30 4 2.32 0.00
 -14 31 5 -6.20 0.00
 -14 29 5 7.94 0.00
 -14 27 5 -2.80 0.00
 -14 25 5 -3.11 0.00
 -14 23 5 8.03 0.00
 -14 21 5 -8.09 0.00
 -14 19 5 15.45 0.00
 -14 17 5 -17.96 0.00
 -14 15 5 0.95 0.00
 14 15 5 11.08 0.00
 14 17 5 11.48 0.00
 14 19 5 -16.12 0.00
 14 21 5 21.66 0.00
 14 23 5 11.30 0.00
 14 25 5 -1.76 0.00
 14 27 5 4.62 0.00
 14 29 5 -0.85 0.00
 14 31 5 6.46 0.00
 -14 30 6 -2.52 0.00
 -14 28 6 -10.74 0.00
 -14 26 6 0.16 0.00
 -14 24 6 -1.57 0.00
 -14 22 6 -8.34 0.00
 -14 20 6 -8.57 0.00
 -14 18 6 -7.25 0.00
 -14 16 6 2.02 0.00
 14 14 6 -2.39 0.00
 14 16 6 -2.74 0.00
 14 18 6 -12.76 0.00
 14 20 6 3.73 0.00
 14 22 6 23.92 0.00
 14 24 6 -2.12 0.00
 14 26 6 1.92 0.00
 14 28 6 1.67 0.00
 14 30 6 6.24 0.00
 -14 31 7 6.75 0.00
 -14 29 7 3.13 0.00
 -14 27 7 -6.90 0.00
 -14 25 7 0.71 0.00
 -14 23 7 14.04 0.00
 -14 21 7 0.64 0.00
 -14 19 7 -2.31 0.00
 -14 17 7 -3.41 0.00
 -14 15 7 8.84 0.00
 14 15 7 28.77 0.00
 14 17 7 29.15 0.00
 14 19 7 7.32 0.00
 14 21 7 11.59 0.00
 14 23 7 4.93 0.00
 14 25 7 4.01 0.00
 14 27 7 -4.59 0.00
 14 29 7 -2.66 0.00
 14 31 7 6.47 0.00
 -14 30 8 4.18 0.00
 -14 28 8 -4.73 0.00
 -14 26 8 -3.54 0.00
 -14 24 8 8.50 0.00
 -14 22 8 3.81 0.00
 -14 20 8 -13.45 0.00
 -14 18 8 -17.01 0.00
 -14 16 8 23.59 0.00
 14 14 8 4.10 0.00
 14 16 8 -6.51 0.00
 14 18 8 8.35 0.00
 14 20 8 4.61 0.00
 14 22 8 12.56 0.00
 14 24 8 5.86 0.00
 14 26 8 3.96 0.00
 14 28 8 6.14 0.00
 14 30 8 0.07 0.00
 -14 29 9 1.90 0.00
 -14 27 9 -10.14 0.00
 -14 25 9 -2.10 0.00
 -14 23 9 6.30 0.00
 -14 21 9 -2.88 0.00
 -14 19 9 2.66 0.00
 -14 17 9 -4.29 0.00
 -14 15 9 12.98 0.00
 14 15 9 13.97 0.00
 14 17 9 27.62 0.00
 14 19 9 -5.97 0.00
 14 21 9 -18.24 0.00
 14 23 9 1.03 0.00
 14 25 9 -4.43 0.00
 14 27 9 -5.18 0.00
 14 29 9 -11.12 0.00
 -14 30 10 1.07 0.00
 -14 28 10 -1.55 0.00
 -14 26 10 1.67 0.00
 -14 24 10 18.50 0.00
 -14 22 10 0.56 0.00
 -14 20 10 0.88 0.00
 -14 18 10 0.87 0.00
 -14 16 10 5.76 0.00
 14 14 10 2.94 0.00
 14 16 10 -1.24 0.00
 14 18 10 2.18 0.00
 14 20 10 10.18 0.00
 14 22 10 6.58 0.00
 14 24 10 3.95 0.00
 14 26 10 7.85 0.00
 14 28 10 -8.50 0.00
 14 30 10 4.52 0.00
 -14 29 11 -0.95 0.00
 -14 27 11 -10.57 0.00
 -14 25 11 3.28 0.00
 -14 23 11 -1.30 0.00
 -14 21 11 -5.04 0.00
 -14 19 11 2.02 0.00
 -14 17 11 0.33 0.00
 -14 15 11 1.07 0.00
 14 15 11 17.39 0.00
 14 17 11 18.15 0.00
 14 19 11 -0.06 0.00
 14 21 11 -7.13 0.00
 14 23 11 -24.40 0.00
 14 25 11 -2.15 0.00
 14 27 11 5.64 0.00
 14 29 11 -13.45 0.00
 -14 28 12 -3.90 0.00
 -14 26 12 -2.77 0.00
 -14 24 12 18.27 0.00
 -14 22 12 3.05 0.00
 -14 20 12 1.75 0.00
 -14 18 12 10.94 0.00
 -14 16 12 10.25 0.00
 14 14 12 -4.15 0.00
 14 16 12 2.69 0.00
 14 18 12 11.90 0.00
 14 20 12 4.73 0.00
 14 22 12 -0.29 0.00
 14 24 12 7.91 0.00
 14 26 12 1.36 0.00
 14 28 12 -4.33 0.00
 -14 29 13 -4.73 0.00
 -14 27 13 -4.72 0.00
 -14 25 13 -2.74 0.00
 -14 23 13 0.17 0.00
 -14 21 13 -6.79 0.00
 -14 19 13 2.50 0.00
 -14 17 13 -15.73 0.00
 -14 15 13 -2.64 0.00
 14 15 13 13.31 0.00
 14 17 13 -5.34 0.00
 14 19 13 -1.24 0.00
 14 21 13 7.47 0.00
 14 23 13 -8.01 0.00
 14 25 13 -3.53 0.00
 14 27 13 8.11 0.00
 14 29 13 -10.82 0.00
 -14 28 14 -3.89 0.00
 -14 26 14 1.30 0.00
 -14 24 14 7.08 0.00
 -14 22 14 5.87 0.00
 -14 20 14 6.57 0.00
 -14 18 14 4.18 0.00
 -14 16 14 15.06 0.00
 14 14 14 5.97 0.00
 14 16 14 -12.02 0.00
 14 18 14 6.00 0.00
 14 20 14 -2.22 0.00
 14 22 14 11.20 0.00
 14 24 14 2.66 0.00
 14 26 14 -3.14 0.00
 14 28 14 -4.79 0.00
 -14 27 15 2.54 0.00
 -14 25 15 -4.05 0.00
 -14 23 15 9.00 0.00
 -14 21 15 -4.88 0.00
 -14 19 15 8.13 0.00
 -14 17 15 -2.11 0.00
 -14 15 15 -1.01 0.00
 14 15 15 -2.34 0.00
 14 17 15 9.19 0.00
 14 19 15 0.84 0.00
 14 21 15 -2.87 0.00
 14 23 15 2.21 0.00
 14 25 15 -0.17 0.00
 14 27 15 -4.84 0.00
 -14 26 16 -9.27 0.00
 -14 24 16 4.64 0.00
 -14 22 16 4.28 0.00
 -14 20 16 2.06 0.00
 -14 18 16 -2.15 0.00
 -14 16 16 4.67 0.00
 14 14 16 14.87 0.00
 14 16 16 3.69 0.00
 14 18 16 -5.77 0.00
 14 20 16 -5.33 0.00
 14 22 16 1.50 0.00
 14 24 16 -2.78 0.00
 14 26 16 2.42 0.00
 -14 25 17 -4.97 0.00
 -14 23 17 15.95 0.00
 -14 21 17 6.05 0.00
 -14 19 17 -3.91 0.00
 -14 17 17 -13.14 0.00
 -14 15 17 -3.03 0.00
 14 15 17 7.32 0.00
 14 17 17 7.54 0.00
 14 19 17 -8.85 0.00
 14 21 17 9.71 0.00
 14 23 17 -1.38 0.00
 14 25 17 0.21 0.00
 14 27 17 17.23 0.00
 -14 26 18 -8.36 0.00
 -14 24 18 2.04 0.00
 -14 22 18 1.82 0.00
 -14 20 18 -5.11 0.00
 -14 18 18 -2.28 0.00
 -14 16 18 -3.68 0.00
 14 14 18 8.43 0.00
 14 16 18 -15.82 0.00
 14 18 18 -14.27 0.00
 14 20 18 4.14 0.00
 14 22 18 2.93 0.00
 14 24 18 -6.47 0.00
 14 26 18 -4.78 0.00
 -14 25 19 -1.38 0.00
 -14 23 19 6.04 0.00
 -14 21 19 1.30 0.00
 -14 19 19 1.90 0.00
 -14 17 19 -12.55 0.00
 -14 15 19 -4.28 0.00
 14 15 19 -2.67 0.00
 14 17 19 8.97 0.00
 14 19 19 7.83 0.00
 14 21 19 6.94 0.00
 14 23 19 0.00 0.00
 14 25 19 2.89 0.00
 -14 24 20 -3.27 0.00
 -14 22 20 2.48 0.00
 -14 20 20 6.08 0.00
 -14 18 20 5.09 0.00
 -14 16 20 -3.63 0.00
 14 14 20 9.26 0.00
 14 16 20 -8.70 0.00
 14 18 20 -0.47 0.00
 14 20 20 5.90 0.00
 14 22 20 6.44 0.00
 14 24 20 0.26 0.00
 -14 23 21 -0.24 0.00
 -14 21 21 0.27 0.00
 -14 19 21 4.02 0.00
 -14 17 21 -12.59 0.00
 -14 15 21 -2.85 0.00
 14 15 21 -1.01 0.00
 14 17 21 9.09 0.00
 14 19 21 -0.81 0.00
 14 21 21 5.50 0.00
 14 23 21 -1.95 0.00
 -14 22 22 2.27 0.00
 -14 20 22 9.21 0.00
 -14 18 22 -3.22 0.00
 -14 16 22 -8.98 0.00
 14 14 22 -0.44 0.00
 14 16 22 -5.54 0.00
 14 18 22 1.50 0.00
 14 20 22 4.57 0.00
 14 22 22 4.91 0.00
 -14 21 23 2.03 0.00
 -14 19 23 3.33 0.00
 -14 17 23 -7.75 0.00
 -14 15 23 1.35 0.00
 14 15 23 0.78 0.00
 14 17 23 2.21 0.00
 14 19 23 -3.78 0.00
 14 21 23 0.06 0.00
 -14 20 24 4.52 0.00
 -14 18 24 -1.39 0.00
 -14 16 24 0.88 0.00
 14 14 24 12.04 0.00
 14 16 24 1.45 0.00
 14 18 24 -1.55 0.00
 14 20 24 -0.40 0.00
 -14 19 25 1.34 0.00
 -14 17 25 2.41 0.00
 -14 15 25 3.08 0.00
 14 15 25 -4.86 0.00
 14 17 25 -1.75 0.00
 14 19 25 -2.29 0.00
 -14 18 26 -6.55 0.00
 -14 16 26 -1.95 0.00
 14 14 26 -0.44 0.00
 14 16 26 0.36 0.00
 14 18 26 -2.21 0.00
 -14 17 27 -8.08 0.00
 -14 15 27 -0.42 0.00
 14 15 27 4.94 0.00
 14 17 27 5.14 0.00
 14 14 28 0.75 0.00
 13 14 29 1.44 0.00
 -4 14 32 -6.85 0.00
 -15 29 0 -11.55 0.00
 -15 27 0 8.77 0.00
 -15 23 0 -3.37 0.00
 -15 21 0 -16.43 0.00
 -15 19 0 19.47 0.00
 -15 17 0 31.33 0.00
 15 15 0 16.19 0.00
 15 17 0 -6.20 0.00
 15 19 0 -32.60 0.00
 15 21 0 -4.77 0.00
 15 23 0 17.75 0.00
 15 25 0 -13.20 0.00
 15 27 0 1.21 0.00
 15 29 0 7.17 0.00
 15 31 0 -1.25 0.00
 -15 30 1 -0.59 0.00
 -15 28 1 -7.80 0.00
 -15 26 1 6.27 0.00
 -15 24 1 -4.11 0.00
 -15 22 1 -0.13 0.00
 -15 20 1 -3.62 0.00
 -15 18 1 -8.01 0.00
 -15 16 1 -6.50 0.00
 15 16 1 25.77 0.00
 15 18 1 -10.52 0.00
 15 20 1 -11.17 0.00
 15 22 1 -7.11 0.00
 15 24 1 1.72 0.00
 15 26 1 -7.09 0.00
 15 28 1 -0.65 0.00
 15 30 1 -5.87 0.00
 -15 29 2 1.22 0.00
 -15 27 2 9.37 0.00
 -15 25 2 -0.38 0.00
 -15 23 2 6.87 0.00
 -15 21 2 -20.36 0.00
 -15 19 2 14.68 0.00
 -15 17 2 17.27 0.00
 15 15 2 -17.75 0.00
 15 17 2 -9.95 0.00
 15 19 2 -5.84 0.00
 15 21 2 6.17 0.00
 15 23 2 0.82 0.00
 15 25 2 -4.87 0.00
 15 27 2 2.21 0.00
 15 29 2 -0.23 0.00
 15 31 2 1.18 0.00
 -15 30 3 5.60 0.00
 -15 28 3 0.15 0.00
 -15 26 3 -8.27 0.00
 -15 24 3 -4.28 0.00
 -15 22 3 -5.28 0.00
 -15 20 3 3.22 0.00
 -15 18 3 2.54 0.00
 -15 16 3 -26.88 0.00
 15 16 3 -12.03 0.00
 15 18 3 -12.79 0.00
 15 20 3 8.01 0.00
 15 22 3 -9.60 0.00
 15 24 3 0.35 0.00
 15 26 3 1.80 0.00
 15 28 3 2.84 0.00
 15 30 3 0.10 0.00
 -15 29 4 2.88 0.00
 -15 27 4 7.34 0.00
 -15 25 4 9.58 0.00
 -15 23 4 5.47 0.00
 -15 21 4 -5.81 0.00
 -15 19 4 11.37 0.00
 -15 17 4 10.30 0.00
 15 15 4 -11.07 0.00
 15 17 4 8.04 0.00
 15 19 4 -9.95 0.00
 15 21 4 -11.92 0.00
 15 23 4 9.92 0.00
 15 25 4 -2.58 0.00
 15 27 4 2.73 0.00
 15 29 4 -0.64 0.00
 15 31 4 8.02 0.00
 -15 30 5 1.87 0.00
 -15 28 5 2.58 0.00
 -15 26 5 -6.61 0.00
 -15 24 5 -2.06 0.00
 -15 22 5 1.96 0.00
 -15 20 5 3.33 0.00
 -15 18 5 -2.25 0.00
 -15 16 5 -10.13 0.00
 15 16 5 -7.80 0.00
 15 18 5 -19.03 0.00
 15 20 5 -3.17 0.00
 15 22 5 -6.94 0.00
 15 24 5 -5.81 0.00
 15 26 5 4.05 0.00
 15 28 5 -6.04 0.00
 15 30 5 -4.97 0.00
 -15 29 6 -1.79 0.00
 -15 27 6 4.38 0.00
 -15 25 6 -8.33 0.00
 -15 23 6 -8.73 0.00
 -15 21 6 -0.58 0.00
 -15 19 6 5.60 0.00
 -15 17 6 11.74 0.00
 15 15 6 2.45 0.00
 15 17 6 7.10 0.00
 15 19 6 -11.15 0.00
 15 21 6 -2.57 0.00
 15 23 6 -1.34 0.00
 15 25 6 1.07 0.00
 15 27 6 10.20 0.00
 15 29 6 1.78 0.00
 -15 30 7 5.60 0.00
 -15 28 7 -4.91 0.00
 -15 26 7 0.44 0.00
 -15 24 7 5.57 0.00
 -15 22 7 14.24 0.00
 -15 20 7 0.00 0.00
 -15 18 7 -19.81 0.00
 -15 16 7 1.43 0.00
 15 16 7 -3.82 0.00
 15 18 7 -1.19 0.00
 15 20 7 3.79 0.00
 15 22 7 -8.72 0.00
 15 24 7 -1.31 0.00
 15 26 7 5.09 0.00
 15 28 7 -0.98 0.00
 15 30 7 8.86 0.00
 -15 29 8 -1.60 0.00
 -15 27 8 1.22 0.00
 -15 25 8 -11.73 0.00
 -15 23 8 2.46 0.00
 -15 21 8 -4.65 0.00
 -15 19 8 -8.05 0.00
 -15 17 8 9.05 0.00
 15 15 8 5.78 0.00
 15 17 8 -0.78 0.00
 15 19 8 16.83 0.00
 15 21 8 4.21 0.00
 15 23 8 17.23 0.00
 15 25 8 2.12 0.00
 15 27 8 18.05 0.00
 15 29 8 8.09 0.00
 -15 30 9 8.28 0.00
 -15 28 9 -3.72 0.00
 -15 26 9 -0.34 0.00
 -15 24 9 8.27 0.00
 -15 22 9 22.34 0.00
 -15 20 9 1.62 0.00
 -15 18 9 -20.40 0.00
 -15 16 9 -16.12 0.00
 15 16 9 -18.66 0.00
 15 18 9 12.37 0.00
 15 20 9 -8.85 0.00
 15 22 9 1.75 0.00
 15 24 9 0.15 0.00
 15 26 9 5.37 0.00
 15 28 9 13.52 0.00
 15 30 9 7.48 0.00
 -15 29 10 4.89 0.00
 -15 27 10 5.69 0.00
 -15 25 10 -8.83 0.00
 -15 23 10 3.04 0.00
 -15 21 10 -7.53 0.00
 -15 19 10 -5.96 0.00
 -15 17 10 6.77 0.00
 15 15 10 -6.65 0.00
 15 17 10 8.54 0.00
 15 19 10 16.46 0.00
 15 21 10 7.78 0.00
 15 23 10 1.11 0.00
 15 25 10 -3.79 0.00
 15 27 10 2.64 0.00
 15 29 10 1.94 0.00
 -15 28 11 -5.67 0.00
 -15 26 11 -7.10 0.00
 -15 24 11 12.23 0.00
 -15 22 11 10.97 0.00
 -15 20 11 -1.32 0.00
 -15 18 11 -3.80 0.00
 -15 16 11 -1.61 0.00
 15 16 11 -0.49 0.00
 15 18 11 11.25 0.00
 15 20 11 -0.52 0.00
 15 22 11 -13.10 0.00
 15 24 11 -10.31 0.00
 15 26 11 6.19 0.00
 15 28 11 9.93 0.00
 -15 29 12 5.08 0.00
 -15 27 12 5.64 0.00
 -15 25 12 -4.14 0.00
 -15 23 12 2.99 0.00
 -15 21 12 -3.04 0.00
 -15 19 12 3.09 0.00
 -15 17 12 17.61 0.00
 15 15 12 -9.44 0.00
 15 17 12 12.97 0.00
 15 19 12 15.76 0.00
 15 21 12 -7.93 0.00
 15 23 12 1.54 0.00
 15 25 12 -2.48 0.00
 15 27 12 1.23 0.00
 15 29 12 3.78 0.00
 -15 28 13 4.79 0.00
 -15 26 13 -9.74 0.00
 -15 24 13 4.94 0.00
 -15 22 13 9.32 0.00
 -15 20 13 0.55 0.00
 -15 18 13 -4.65 0.00
 -15 16 13 3.82 0.00
 15 16 13 -4.67 0.00
 15 18 13 -7.04 0.00
 15 20 13 -0.39 0.00
 15 22 13 2.39 0.00
 15 24 13 -11.95 0.00
 15 26 13 2.22 0.00
 15 28 13 -1.45 0.00
 -15 27 14 2.66 0.00
 -15 25 14 -2.76 0.00
 -15 23 14 -5.22 0.00
 -15 21 14 -2.07 0.00
 -15 19 14 3.71 0.00
 -15 17 14 6.35 0.00
 15 15 14 -4.34 0.00
 15 17 14 5.26 0.00
 15 19 14 -7.49 0.00
 15 21 14 -1.82 0.00
 15 23 14 11.34 0.00
 15 25 14 -6.16 0.00
 15 27 14 -7.18 0.00
 -15 26 15 -1.07 0.00
 -15 24 15 8.73 0.00
 -15 22 15 -0.06 0.00
 -15 20 15 -4.71 0.00
 -15 18 15 -0.24 0.00
 -15 16 15 -2.80 0.00
 15 16 15 -2.75 0.00
 15 18 15 8.09 0.00
 15 20 15 -4.05 0.00
 15 22 15 -3.27 0.00
 15 24 15 -1.05 0.00
 15 26 15 -14.20 0.00
 -15 27 16 -1.40 0.00
 -15 25 16 6.17 0.00
 -15 23 16 -3.68 0.00
 -15 21 16 -2.23 0.00
 -15 19 16 0.55 0.00
 -15 17 16 5.44 0.00
 15 15 16 12.78 0.00
 15 17 16 7.13 0.00
 15 19 16 -9.89 0.00
 15 21 16 -1.81 0.00
 15 23 16 2.75 0.00
 15 25 16 4.50 0.00
 15 27 16 -2.13 0.00
 -15 26 17 -2.80 0.00
 -15 24 17 7.04 0.00
 -15 22 17 3.45 0.00
 -15 20 17 -6.62 0.00
 -15 18 17 -13.65 0.00
 -15 16 17 -3.66 0.00
 15 16 17 10.76 0.00
 15 18 17 -5.00 0.00
 15 20 17 -3.45 0.00
 15 22 17 -2.68 0.00
 15 24 17 -3.93 0.00
 15 26 17 -1.84 0.00
 -15 25 18 6.74 0.00
 -15 23 18 3.92 0.00
 -15 21 18 -0.93 0.00
 -15 19 18 5.42 0.00
 -15 17 18 13.67 0.00
 15 15 18 4.54 0.00
 15 17 18 2.84 0.00
 15 19 18 4.72 0.00
 15 21 18 2.58 0.00
 15 23 18 4.07 0.00
 15 25 18 3.65 0.00
 -15 24 19 1.54 0.00
 -15 22 19 -4.38 0.00
 -15 20 19 -0.54 0.00
 -15 18 19 3.34 0.00
 -15 16 19 -7.49 0.00
 15 16 19 -1.71 0.00
 15 18 19 0.80 0.00
 15 20 19 3.57 0.00
 15 22 19 -8.22 0.00
 15 24 19 4.30 0.00
 -15 23 20 -4.20 0.00
 -15 21 20 -6.20 0.00
 -15 19 20 6.86 0.00
 -15 17 20 3.84 0.00
 15 15 20 2.04 0.00
 15 17 20 3.30 0.00
 15 19 20 -0.90 0.00
 15 21 20 -6.99 0.00
 15 23 20 2.95 0.00
 -15 22 21 0.96 0.00
 -15 20 21 7.55 0.00
 -15 18 21 0.45 0.00
 -15 16 21 -9.72 0.00
 15 16 21 1.31 0.00
 15 18 21 8.26 0.00
 15 20 21 -0.22 0.00
 15 22 21 -2.27 0.00
 -15 21 22 -1.20 0.00
 -15 19 22 -0.56 0.00
 -15 17 22 2.50 0.00
 15 15 22 -5.08 0.00
 15 17 22 2.36 0.00
 15 19 22 -0.58 0.00
 15 21 22 5.39 0.00
 -15 20 23 2.24 0.00
 -15 18 23 -5.70 0.00
 -15 16 23 0.05 0.00
 15 16 23 6.72 0.00
 15 18 23 -1.38 0.00
 15 20 23 1.84 0.00
 -15 19 24 -2.84 0.00
 -15 17 24 8.77 0.00
 15 15 24 4.63 0.00
 15 17 24 -3.96 0.00
 15 19 24 -2.78 0.00
 -15 18 25 -4.34 0.00
 -15 16 25 0.58 0.00
 15 16 25 -0.04 0.00
 15 18 25 1.90 0.00
 -15 17 26 -6.03 0.00
 15 15 26 0.03 0.00
 15 17 26 -2.60 0.00
 -15 16 27 -3.32 0.00
 15 16 27 1.95 0.00
 -16 30 0 -2.09 0.00
 -16 28 0 -6.07 0.00
 -16 26 0 3.79 0.00
 -16 24 0 -9.28 0.00
 -16 22 0 -10.02 0.00
 -16 20 0 -12.00 0.00
 -16 18 0 -8.71 0.00
 16 16 0 30.27 0.00
 16 18 0 -8.48 0.00
 16 20 0 1.90 0.00
 16 22 0 -2.85 0.00
 16 24 0 7.07 0.00
 16 26 0 3.25 0.00
 16 28 0 -3.71 0.00
 16 30 0 0.63 0.00
 -16 29 1 -4.98 0.00
 -16 27 1 1.62 0.00
 -16 25 1 1.67 0.00
 -16 23 1 7.46 0.00
 -16 21 1 0.69 0.00
 -16 19 1 -23.40 0.00
 -16 17 1 2.13 0.00
 16 17 1 2.78 0.00
 16 19 1 2.91 0.00
 16 21 1 -13.42 0.00
 16 23 1 -6.82 0.00
 16 25 1 3.96 0.00
 16 27 1 1.67 0.00
 16 29 1 3.93 0.00
 -16 30 2 0.54 0.00
 -16 28 2 1.63 0.00
 -16 26 2 -9.21 0.00
 -16 24 2 -4.82 0.00
 -16 22 2 -2.86 0.00
 -16 20 2 -13.72 0.00
 -16 18 2 10.26 0.00
 16 16 2 11.03 0.00
 16 18 2 6.96 0.00
 16 20 2 21.89 0.00
 16 22 2 -4.01 0.00
 16 24 2 0.71 0.00
 16 26 2 10.84 0.00
 16 28 2 -4.14 0.00
 16 30 2 -9.62 0.00
 -16 29 3 -4.00 0.00
 -16 27 3 2.63 0.00
 -16 25 3 -10.51 0.00
 -16 23 3 14.09 0.00
 -16 21 3 2.57 0.00
 -16 19 3 -2.20 0.00
 -16 17 3 10.89 0.00
 16 17 3 11.14 0.00
 16 19 3 13.24 0.00
 16 21 3 -2.22 0.00
 16 23 3 -8.46 0.00
 16 25 3 0.05 0.00
 16 27 3 -0.85 0.00
 16 29 3 2.12 0.00
 -16 30 4 7.19 0.00
 -16 28 4 5.90 0.00
 -16 26 4 3.61 0.00
 -16 24 4 -0.52 0.00
 -16 22 4 -6.85 0.00
 -16 20 4 -4.92 0.00
 -16 18 4 7.01 0.00
 16 16 4 13.48 0.00
 16 18 4 13.32 0.00
 16 20 4 7.44 0.00
 16 22 4 0.72 0.00
 16 24 4 15.61 0.00
 16 26 4 4.46 0.00
 16 28 4 -0.98 0.00
 16 30 4 -9.47 0.00
 -16 29 5 -6.22 0.00
 -16 27 5 -0.69 0.00
 -16 25 5 -15.64 0.00
 -16 23 5 6.33 0.00
 -16 21 5 -7.32 0.00
 -16 19 5 -16.41 0.00
 -16 17 5 18.73 0.00
 16 17 5 17.82 0.00
 16 19 5 1.85 0.00
 16 21 5 0.90 0.00
 16 23 5 -13.08 0.00
 16 25 5 -1.28 0.00
 16 27 5 -6.43 0.00
 16 29 5 -9.24 0.00
 -16 30 6 -1.19 0.00
 -16 28 6 4.63 0.00
 -16 26 6 -1.72 0.00
 -16 24 6 -11.87 0.00
 -16 22 6 -8.98 0.00
 -16 20 6 -3.85 0.00
 -16 18 6 6.09 0.00
 16 16 6 2.52 0.00
 16 18 6 -14.81 0.00
 16 20 6 0.36 0.00
 16 22 6 7.33 0.00
 16 24 6 1.93 0.00
 16 26 6 2.11 0.00
 16 28 6 -0.70 0.00
 16 30 6 -3.86 0.00
 -16 29 7 -4.71 0.00
 -16 27 7 -0.15 0.00
 -16 25 7 -7.28 0.00
 -16 23 7 -5.07 0.00
 -16 21 7 -7.04 0.00
 -16 19 7 -14.81 0.00
 -16 17 7 -6.59 0.00
 16 17 7 1.41 0.00
 16 19 7 2.32 0.00
 16 21 7 3.40 0.00
 16 23 7 -3.91 0.00
 16 25 7 -3.08 0.00
 16 27 7 -6.53 0.00
 16 29 7 3.15 0.00
 -16 28 8 1.37 0.00
 -16 26 8 9.84 0.00
 -16 24 8 -6.05 0.00
 -16 22 8 -10.94 0.00
 -16 20 8 7.25 0.00
 -16 18 8 20.35 0.00
 16 16 8 -7.74 0.00
 16 18 8 -11.83 0.00
 16 20 8 11.94 0.00
 16 22 8 12.10 0.00
 16 24 8 0.21 0.00
 16 26 8 -4.29 0.00
 16 28 8 6.51 0.00
 -16 29 9 2.37 0.00
 -16 27 9 0.33 0.00
 -16 25 9 -5.91 0.00
 -16 23 9 -11.84 0.00
 -16 21 9 -1.28 0.00
 -16 19 9 -11.87 0.00
 -16 17 9 -5.83 0.00
 16 17 9 -4.65 0.00
 16 19 9 -3.59 0.00
 16 21 9 2.02 0.00
 16 23 9 -2.35 0.00
 16 25 9 -4.77 0.00
 16 27 9 -8.51 0.00
 16 29 9 9.14 0.00
 -16 28 10 2.76 0.00
 -16 26 10 -1.45 0.00
 -16 24 10 -9.94 0.00
 -16 22 10 -4.64 0.00
 -16 20 10 2.13 0.00
 -16 18 10 8.09 0.00
 16 16 10 0.58 0.00
 16 18 10 -5.40 0.00
 16 20 10 6.78 0.00
 16 22 10 -1.48 0.00
 16 24 10 -2.31 0.00
 16 26 10 -4.25 0.00
 16 28 10 4.54 0.00
 -16 29 11 0.03 0.00
 -16 27 11 2.07 0.00
 -16 25 11 9.54 0.00
 -16 23 11 1.99 0.00
 -16 21 11 11.75 0.00
 -16 19 11 2.82 0.00
 -16 17 11 7.32 0.00
 16 17 11 -4.71 0.00
 16 19 11 -5.44 0.00
 16 21 11 -1.02 0.00
 16 23 11 1.30 0.00
 16 25 11 2.22 0.00
 16 27 11 0.56 0.00
 16 29 11 8.93 0.00
 -16 28 12 -2.93 0.00
 -16 26 12 2.34 0.00
 -16 24 12 -8.45 0.00
 -16 22 12 3.37 0.00
 -16 20 12 1.76 0.00
 -16 18 12 0.80 0.00
 16 16 12 -13.37 0.00
 16 18 12 1.90 0.00
 16 20 12 9.69 0.00
 16 22 12 -5.63 0.00
 16 24 12 8.28 0.00
 16 26 12 4.71 0.00
 16 28 12 4.42 0.00
 -16 27 13 7.53 0.00
 -16 25 13 -7.20 0.00
 -16 23 13 4.76 0.00
 -16 21 13 6.54 0.00
 -16 19 13 -0.89 0.00
 -16 17 13 5.46 0.00
 16 17 13 3.53 0.00
 16 19 13 1.70 0.00
 16 21 13 1.31 0.00
 16 23 13 -4.42 0.00
 16 25 13 -3.74 0.00
 16 27 13 2.71 0.00
 -16 26 14 -0.78 0.00
 -16 24 14 -11.12 0.00
 -16 22 14 0.58 0.00
 -16 20 14 -0.74 0.00
 -16 18 14 0.07 0.00
 16 16 14 -10.30 0.00
 16 18 14 -0.28 0.00
 16 20 14 3.30 0.00
 16 22 14 5.24 0.00
 16 24 14 -2.97 0.00
 16 26 14 -9.94 0.00
 -16 27 15 -0.52 0.00
 -16 25 15 -2.22 0.00
 -16 23 15 0.47 0.00
 -16 21 15 -0.98 0.00
 -16 19 15 -3.13 0.00
 -16 17 15 5.13 0.00
 16 17 15 2.42 0.00
 16 19 15 5.78 0.00
 16 21 15 -6.03 0.00
 16 23 15 -7.33 0.00
 16 25 15 -2.34 0.00
 16 27 15 -8.82 0.00
 -16 26 16 -4.42 0.00
 -16 24 16 -4.78 0.00
 -16 22 16 -7.03 0.00
 -16 20 16 -4.66 0.00
 -16 18 16 -0.80 0.00
 16 16 16 5.60 0.00
 16 18 16 -5.04 0.00
 16 20 16 3.82 0.00
 16 22 16 6.37 0.00
 16 24 16 2.91 0.00
 16 26 16 6.74 0.00
 -16 25 17 -3.03 0.00
 -16 23 17 2.90 0.00
 -16 21 17 1.96 0.00
 -16 19 17 -15.21 0.00
 -16 17 17 4.35 0.00
 16 17 17 4.49 0.00
 16 19 17 -7.85 0.00
 16 21 17 -3.32 0.00
 16 23 17 -3.45 0.00
 16 25 17 2.35 0.00
 -16 24 18 -4.10 0.00
 -16 22 18 -2.95 0.00
 -16 20 18 -8.56 0.00
 -16 18 18 3.42 0.00
 16 16 18 10.87 0.00
 16 18 18 -4.57 0.00
 16 20 18 7.53 0.00
 16 22 18 2.90 0.00
 16 24 18 0.37 0.00
 -16 23 19 -0.78 0.00
 -16 21 19 -1.62 0.00
 -16 19 19 -4.37 0.00
 -16 17 19 3.24 0.00
 16 17 19 -0.47 0.00
 16 19 19 1.02 0.00
 16 21 19 -5.97 0.00
 16 23 19 -6.71 0.00
 -16 22 20 -1.64 0.00
 -16 20 20 1.72 0.00
 -16 18 20 6.12 0.00
 16 16 20 10.76 0.00
 16 18 20 4.79 0.00
 16 20 20 5.69 0.00
 16 22 20 -2.63 0.00
 -16 21 21 0.51 0.00
 -16 19 21 -7.89 0.00
 -16 17 21 -0.84 0.00
 16 17 21 10.20 0.00
 16 19 21 3.98 0.00
 16 21 21 -7.16 0.00
 -16 20 22 0.59 0.00
 -16 18 22 2.28 0.00
 16 16 22 6.38 0.00
 16 18 22 1.72 0.00
 16 20 22 5.85 0.00
 -16 19 23 0.01 0.00
 -16 17 23 8.02 0.00
 16 17 23 4.30 0.00
 16 19 23 -7.53 0.00
 -16 18 24 6.13 0.00
 16 16 24 5.49 0.00
 16 18 24 3.17 0.00
 -16 17 25 3.43 0.00
 16 17 25 2.43 0.00
 16 16 26 2.32 0.00
 -8 16 30 -9.19 0.00
 1 16 31 -0.05 0.00
 -1 16 31 -4.40 0.00
 -3 16 31 -1.89 0.00
 -17 29 0 2.80 0.00
 -17 27 0 3.34 0.00
 -17 25 0 1.61 0.00
 -17 23 0 -7.83 0.00
 -17 21 0 8.87 0.00
 -17 19 0 11.12 0.00
 17 17 0 -11.98 0.00
 17 19 0 3.26 0.00
 17 21 0 15.62 0.00
 17 23 0 17.50 0.00
 17 25 0 -0.64 0.00
 17 27 0 -4.23 0.00
 17 29 0 5.89 0.00
 -17 30 1 1.59 0.00
 -17 28 1 -1.65 0.00
 -17 26 1 -1.41 0.00
 -17 24 1 -2.26 0.00
 -17 22 1 -10.75 0.00
 -17 20 1 -4.73 0.00
 -17 18 1 -17.63 0.00
 17 18 1 -6.98 0.00
 17 20 1 -6.60 0.00
 17 22 1 -2.33 0.00
 17 24 1 -13.53 0.00
 17 26 1 2.96 0.00
 17 28 1 -1.48 0.00
 17 30 1 -0.41 0.00
 -17 29 2 -0.83 0.00
 -17 27 2 1.73 0.00
 -17 25 2 -5.38 0.00
 -17 23 2 0.64 0.00
 -17 21 2 6.24 0.00
 -17 19 2 11.24 0.00
 17 17 2 -3.01 0.00
 17 19 2 -2.45 0.00
 17 21 2 11.81 0.00
 17 23 2 5.78 0.00
 17 25 2 -3.98 0.00
 17 27 2 -11.41 0.00
 17 29 2 1.58 0.00
 -17 30 3 0.95 0.00
 -17 28 3 -2.33 0.00
 -17 26 3 -1.21 0.00
 -17 24 3 -1.04 0.00
 -17 22 3 3.07 0.00
 -17 20 3 -4.06 0.00
 -17 18 3 8.50 0.00
 17 18 3 3.42 0.00
 17 20 3 -6.37 0.00
 17 22 3 1.96 0.00
 17 24 3 -5.65 0.00
 17 26 3 8.16 0.00
 17 28 3 3.77 0.00
 17 30 3 -4.36 0.00
 -17 29 4 1.64 0.00
 -17 27 4 3.16 0.00
 -17 25 4 2.82 0.00
 -17 23 4 -6.87 0.00
 -17 21 4 1.56 0.00
 -17 19 4 -2.74 0.00
 17 17 4 7.42 0.00
 17 19 4 6.84 0.00
 17 21 4 6.57 0.00
 17 23 4 6.01 0.00
 17 25 4 5.80 0.00
 17 27 4 -11.32 0.00
 17 29 4 -0.90 0.00
 -17 28 5 3.75 0.00
 -17 26 5 4.03 0.00
 -17 24 5 2.03 0.00
 -17 22 5 -2.92 0.00
 -17 20 5 -20.38 0.00
 -17 18 5 3.81 0.00
 17 18 5 -1.01 0.00
 17 20 5 -5.18 0.00
 17 22 5 -14.23 0.00
 17 24 5 -9.52 0.00
 17 26 5 6.90 0.00
 17 28 5 -8.80 0.00
 17 30 5 -1.16 0.00
 -17 29 6 -5.48 0.00
 -17 27 6 1.72 0.00
 -17 25 6 1.48 0.00
 -17 23 6 1.67 0.00
 -17 21 6 -0.29 0.00
 -17 19 6 -1.16 0.00
 17 17 6 -1.78 0.00
 17 19 6 -1.52 0.00
 17 21 6 9.65 0.00
 17 23 6 6.69 0.00
 17 25 6 2.07 0.00
 17 27 6 -8.03 0.00
 17 29 6 -3.75 0.00
 -17 28 7 -8.69 0.00
 -17 26 7 7.21 0.00
 -17 24 7 4.22 0.00
 -17 22 7 -8.96 0.00
 -17 20 7 -16.00 0.00
 -17 18 7 6.50 0.00
 17 18 7 0.77 0.00
 17 20 7 -3.55 0.00
 17 22 7 -9.84 0.00
 17 24 7 -8.57 0.00
 17 26 7 6.53 0.00
 17 28 7 -4.80 0.00
 -17 29 8 -5.79 0.00
 -17 27 8 4.28 0.00
 -17 25 8 10.91 0.00
 -17 23 8 1.50 0.00
 -17 21 8 -1.84 0.00
 -17 19 8 18.43 0.00
 17 17 8 1.24 0.00
 17 19 8 -0.91 0.00
 17 21 8 8.85 0.00
 17 23 8 1.21 0.00
 17 25 8 5.13 0.00
 17 27 8 -8.94 0.00
 17 29 8 -2.82 0.00
 -17 28 9 -3.66 0.00
 -17 26 9 5.16 0.00
 -17 24 9 9.56 0.00
 -17 22 9 -8.78 0.00
 -17 20 9 -7.22 0.00
 -17 18 9 10.91 0.00
 17 18 9 6.26 0.00
 17 20 9 -5.98 0.00
 17 22 9 -4.45 0.00
 17 24 9 -1.89 0.00
 17 26 9 7.11 0.00
 17 28 9 -2.40 0.00
 -17 27 10 6.01 0.00
 -17 25 10 -7.24 0.00
 -17 23 10 5.61 0.00
 -17 21 10 3.18 0.00
 -17 19 10 0.37 0.00
 17 17 10 8.61 0.00
 17 19 10 -17.80 0.00
 17 21 10 -1.50 0.00
 17 23 10 -1.02 0.00
 17 25 10 5.24 0.00
 17 27 10 -10.15 0.00
 -17 28 11 -4.94 0.00
 -17 26 11 -3.92 0.00
 -17 24 11 7.84 0.00
 -17 22 11 -5.46 0.00
 -17 20 11 -1.36 0.00
 -17 18 11 -3.64 0.00
 17 18 11 -18.95 0.00
 17 20 11 -15.50 0.00
 17 22 11 7.78 0.00
 17 24 11 1.16 0.00
 17 26 11 1.90 0.00
 17 28 11 -2.03 0.00
 -17 27 12 8.18 0.00
 -17 25 12 0.71 0.00
 -17 23 12 1.54 0.00
 -17 21 12 -0.63 0.00
 -17 19 12 -0.41 0.00
 17 17 12 10.28 0.00
 17 19 12 6.01 0.00
 17 21 12 -0.12 0.00
 17 23 12 4.90 0.00
 17 25 12 7.53 0.00
 17 27 12 -5.33 0.00
 -17 26 13 -0.89 0.00
 -17 24 13 3.88 0.00
 -17 22 13 2.12 0.00
 -17 20 13 -5.64 0.00
 -17 18 13 14.05 0.00
 17 18 13 -4.09 0.00
 17 20 13 -15.23 0.00
 17 22 13 0.50 0.00
 17 24 13 -8.03 0.00
 17 26 13 0.18 0.00
 -17 27 14 -3.59 0.00
 -17 25 14 3.14 0.00
 -17 23 14 -10.51 0.00
 -17 21 14 2.64 0.00
 -17 19 14 4.74 0.00
 17 17 14 10.81 0.00
 17 19 14 0.36 0.00
 17 21 14 0.85 0.00
 17 23 14 -3.47 0.00
 17 25 14 4.62 0.00
 17 27 14 -5.30 0.00
 -17 26 15 -2.81 0.00
 -17 24 15 -5.79 0.00
 -17 22 15 -8.63 0.00
 -17 20 15 -2.52 0.00
 -17 18 15 2.23 0.00
 17 18 15 3.40 0.00
 17 20 15 -2.51 0.00
 17 22 15 -2.04 0.00
 17 24 15 -6.52 0.00
 17 26 15 1.53 0.00
 -17 25 16 4.89 0.00
 -17 23 16 -10.72 0.00
 -17 21 16 1.07 0.00
 -17 19 16 9.74 0.00
 17 17 16 7.85 0.00
 17 19 16 1.35 0.00
 17 21 16 2.72 0.00
 17 23 16 -3.79 0.00
 17 25 16 2.10 0.00
 -17 24 17 -3.91 0.00
 -17 22 17 -9.67 0.00
 -17 20 17 -1.25 0.00
 -17 18 17 -4.42 0.00
 17 18 17 3.07 0.00
 17 20 17 2.44 0.00
 17 22 17 0.07 0.00
 17 24 17 -9.34 0.00
 -17 23 18 -5.08 0.00
 -17 21 18 6.60 0.00
 -17 19 18 5.17 0.00
 17 17 18 -2.01 0.00
 17 19 18 -2.30 0.00
 17 21 18 2.35 0.00
 17 23 18 -6.01 0.00
 -17 22 19 1.68 0.00
 -17 20 19 9.57 0.00
 -17 18 19 -2.03 0.00
 17 18 19 -4.98 0.00
 17 20 19 4.25 0.00
 17 22 19 1.43 0.00
 -17 21 20 7.47 0.00
 -17 19 20 -0.53 0.00
 17 17 20 -4.81 0.00
 17 19 20 -3.88 0.00
 17 21 20 -3.07 0.00
 17 23 20 -0.02 0.00
 -17 22 21 4.85 0.00
 -17 20 21 -0.15 0.00
 -17 18 21 -7.19 0.00
 17 18 21 2.35 0.00
 17 20 21 -0.80 0.00
 17 22 21 -1.06 0.00
 -17 21 22 -5.06 0.00
 -17 19 22 -10.20 0.00
 17 17 22 2.53 0.00
 17 19 22 -1.89 0.00
 17 21 22 8.88 0.00
 -17 20 23 1.20 0.00
 -17 18 23 4.21 0.00
 17 18 23 3.25 0.00
 17 20 23 -4.77 0.00
 17 17 24 3.96 0.00
 -10 17 29 4.27 0.00
 -18 28 0 10.73 0.00
 -18 26 0 2.00 0.00
 -18 24 0 -1.92 0.00
 -18 22 0 0.64 0.00
 -18 20 0 5.98 0.00
 18 18 0 3.95 0.00
 18 20 0 7.99 0.00
 18 22 0 9.35 0.00
 18 24 0 -1.78 0.00
 18 26 0 5.67 0.00
 18 28 0 0.38 0.00
 -18 29 1 -4.13 0.00
 -18 27 1 -5.17 0.00
 -18 25 1 -1.76 0.00
 -18 23 1 -10.76 0.00
 -18 21 1 2.31 0.00
 -18 19 1 19.97 0.00
 18 19 1 -1.78 0.00
 18 21 1 2.56 0.00
 18 23 1 2.96 0.00
 18 25 1 5.27 0.00
 18 27 1 2.07 0.00
 18 29 1 -8.61 0.00
 -18 28 2 3.45 0.00
 -18 26 2 -2.75 0.00
 -18 24 2 -3.44 0.00
 -18 22 2 9.68 0.00
 -18 20 2 -0.48 0.00
 18 18 2 -4.10 0.00
 18 20 2 -15.31 0.00
 18 22 2 6.11 0.00
 18 24 2 -7.31 0.00
 18 26 2 -3.10 0.00
 18 28 2 4.30 0.00
 -18 29 3 -4.45 0.00
 -18 27 3 1.17 0.00
 -18 25 3 1.61 0.00
 -18 23 3 7.07 0.00
 -18 21 3 5.00 0.00
 -18 19 3 8.26 0.00
 18 19 3 -9.25 0.00
 18 21 3 6.42 0.00
 18 23 3 1.35 0.00
 18 25 3 -2.77 0.00
 18 27 3 -5.34 0.00
 18 29 3 -4.89 0.00
 -18 28 4 6.54 0.00
 -18 26 4 -0.82 0.00
 -18 24 4 1.21 0.00
 -18 22 4 4.02 0.00
 -18 20 4 -6.36 0.00
 18 18 4 5.84 0.00
 18 20 4 6.85 0.00
 18 22 4 11.47 0.00
 18 24 4 -0.10 0.00
 18 26 4 -0.10 0.00
 18 28 4 10.07 0.00
 -18 29 5 -2.90 0.00
 -18 27 5 2.02 0.00
 -18 25 5 -1.62 0.00
 -18 23 5 6.02 0.00
 -18 21 5 4.99 0.00
 -18 19 5 4.85 0.00
 18 19 5 -10.22 0.00
 18 21 5 2.20 0.00
 18 23 5 4.82 0.00
 18 25 5 2.12 0.00
 18 27 5 3.68 0.00
 18 29 5 -4.18 0.00
 -18 28 6 -5.54 0.00
 -18 26 6 -2.25 0.00
 -18 24 6 2.85 0.00
 -18 22 6 -2.77 0.00
 -18 20 6 -19.14 0.00
 18 18 6 -1.93 0.00
 18 20 6 3.41 0.00
 18 22 6 10.48 0.00
 18 24 6 -0.76 0.00
 18 26 6 -6.66 0.00
 18 28 6 -0.30 0.00
 -18 27 7 -0.63 0.00
 -18 25 7 1.38 0.00
 -18 23 7 11.29 0.00
 -18 21 7 0.88 0.00
 -18 19 7 13.90 0.00
 18 19 7 1.11 0.00
 18 21 7 6.19 0.00
 18 23 7 4.54 0.00
 18 25 7 9.19 0.00
 18 27 7 5.55 0.00
 -18 28 8 1.84 0.00
 -18 26 8 2.05 0.00
 -18 24 8 6.82 0.00
 -18 22 8 -2.74 0.00
 -18 20 8 -14.32 0.00
 18 18 8 8.03 0.00
 18 20 8 6.65 0.00
 18 22 8 7.70 0.00
 18 24 8 1.06 0.00
 18 26 8 -6.15 0.00
 18 28 8 -0.51 0.00
 -18 27 9 -3.51 0.00
 -18 25 9 -1.49 0.00
 -18 23 9 -0.67 0.00
 -18 21 9 5.06 0.00
 -18 19 9 20.93 0.00
 18 19 9 2.44 0.00
 18 21 9 6.85 0.00
 18 23 9 2.93 0.00
 18 25 9 9.30 0.00
 18 27 9 -2.09 0.00
 -18 28 10 8.43 0.00
 -18 26 10 -12.25 0.00
 -18 24 10 -7.37 0.00
 -18 22 10 3.76 0.00
 -18 20 10 -7.19 0.00
 18 18 10 -14.53 0.00
 18 20 10 -9.39 0.00
 18 22 10 1.53 0.00
 18 24 10 -4.59 0.00
 18 26 10 3.76 0.00
 18 28 10 -1.74 0.00
 -18 27 11 13.46 0.00
 -18 25 11 -7.03 0.00
 -18 23 11 7.50 0.00
 -18 21 11 10.96 0.00
 -18 19 11 4.62 0.00
 18 19 11 -14.18 0.00
 18 21 11 7.16 0.00
 18 23 11 6.76 0.00
 18 25 11 3.50 0.00
 18 27 11 -1.22 0.00
 -18 26 12 2.56 0.00
 -18 24 12 4.37 0.00
 -18 22 12 4.88 0.00
 -18 20 12 -17.72 0.00
 18 18 12 -3.53 0.00
 18 20 12 -3.62 0.00
 18 22 12 -6.01 0.00
 18 24 12 -2.76 0.00
 18 26 12 0.71 0.00
 -18 27 13 12.91 0.00
 -18 25 13 4.45 0.00
 -18 23 13 8.69 0.00
 -18 21 13 -2.08 0.00
 -18 19 13 1.59 0.00
 18 19 13 9.51 0.00
 18 21 13 6.40 0.00
 18 23 13 3.69 0.00
 18 25 13 2.35 0.00
 -18 26 14 7.25 0.00
 -18 24 14 1.78 0.00
 -18 22 14 3.61 0.00
 -18 20 14 -0.01 0.00
 18 18 14 4.85 0.00
 18 20 14 2.88 0.00
 18 22 14 1.58 0.00
 18 24 14 -6.69 0.00
 18 26 14 7.25 0.00
 -18 25 15 -6.42 0.00
 -18 23 15 -2.41 0.00
 -18 21 15 5.61 0.00
 -18 19 15 4.32 0.00
 18 19 15 2.65 0.00
 18 21 15 2.94 0.00
 18 23 15 -3.41 0.00
 18 25 15 9.58 0.00
 -18 24 16 0.15 0.00
 -18 22 16 -4.13 0.00
 -18 20 16 -2.37 0.00
 18 18 16 4.72 0.00
 18 20 16 -0.09 0.00
 18 22 16 8.22 0.00
 18 24 16 -9.20 0.00
 -18 23 17 -1.33 0.00
 -18 21 17 -0.54 0.00
 -18 19 17 9.14 0.00
 18 19 17 1.71 0.00
 18 21 17 -0.72 0.00
 18 23 17 -4.96 0.00
 -18 22 18 -6.94 0.00
 -18 20 18 -0.09 0.00
 18 18 18 -7.71 0.00
 18 20 18 0.58 0.00
 18 22 18 8.52 0.00
 -18 23 19 -6.94 0.00
 -18 21 19 0.45 0.00
 -18 19 19 2.45 0.00
 18 19 19 -5.39 0.00
 18 21 19 1.82 0.00
 18 23 19 -3.56 0.00
 -18 22 20 -0.50 0.00
 -18 20 20 2.88 0.00
 18 18 20 -4.09 0.00
 18 20 20 -0.05 0.00
 18 22 20 8.82 0.00
 -18 21 21 -0.88 0.00
 -18 19 21 -8.67 0.00
 18 19 21 -5.63 0.00
 18 21 21 2.51 0.00
 -18 20 22 -0.21 0.00
 18 18 22 -2.09 0.00
 18 20 22 1.66 0.00
 -18 19 23 6.28 0.00
 18 19 23 -5.34 0.00
 18 18 24 6.10 0.00
 -7 18 29 -2.13 0.00
 -19 29 0 4.36 0.00
 -19 27 0 5.96 0.00
 -19 25 0 7.86 0.00
 -19 23 0 -9.02 0.00
 -19 21 0 -14.94 0.00
 19 19 0 4.44 0.00
 19 21 0 3.62 0.00
 19 23 0 0.76 0.00
 19 25 0 2.96 0.00
 19 27 0 4.61 0.00
 19 29 0 -3.46 0.00
 -19 28 1 -0.47 0.00
 -19 26 1 6.41 0.00
 -19 24 1 -0.99 0.00
 -19 22 1 -1.24 0.00
 -19 20 1 10.29 0.00
 19 20 1 -5.75 0.00
 19 22 1 -6.43 0.00
 19 24 1 -4.62 0.00
 19 26 1 -0.77 0.00
 19 28 1 -6.26 0.00
 -19 29 2 -0.24 0.00
 -19 27 2 -0.41 0.00
 -19 25 2 3.43 0.00
 -19 23 2 0.32 0.00
 -19 21 2 -3.42 0.00
 19 19 2 -18.33 0.00
 19 21 2 0.94 0.00
 19 23 2 4.37 0.00
 19 25 2 -3.19 0.00
 19 27 2 -1.14 0.00
 19 29 2 2.79 0.00
 -19 28 3 -3.24 0.00
 -19 26 3 0.01 0.00
 -19 24 3 -3.85 0.00
 -19 22 3 1.98 0.00
 -19 20 3 1.49 0.00
 19 20 3 3.37 0.00
 19 22 3 -0.36 0.00
 19 24 3 -1.65 0.00
 19 26 3 -5.60 0.00
 19 28 3 -2.23 0.00
 -19 27 4 1.33 0.00
 -19 25 4 1.26 0.00
 -19 23 4 1.83 0.00
 -19 21 4 -0.81 0.00
 19 19 4 0.56 0.00
 19 21 4 8.03 0.00
 19 23 4 -0.61 0.00
 19 25 4 -6.06 0.00
 19 27 4 0.38 0.00
 -19 28 5 -4.48 0.00
 -19 26 5 2.56 0.00
 -19 24 5 -14.59 0.00
 -19 22 5 5.46 0.00
 -19 20 5 4.32 0.00
 19 20 5 4.11 0.00
 19 22 5 -7.90 0.00
 19 24 5 4.35 0.00
 19 26 5 0.48 0.00
 19 28 5 -0.39 0.00
 -19 27 6 1.43 0.00
 -19 25 6 6.83 0.00
 -19 23 6 6.32 0.00
 -19 21 6 -4.81 0.00
 19 19 6 1.21 0.00
 19 21 6 -9.12 0.00
 19 23 6 -5.05 0.00
 19 25 6 -1.02 0.00
 19 27 6 -3.69 0.00
 -19 28 7 -0.88 0.00
 -19 26 7 -2.35 0.00
 -19 24 7 -1.35 0.00
 -19 22 7 7.63 0.00
 -19 20 7 -7.35 0.00
 19 20 7 8.71 0.00
 19 22 7 -14.86 0.00
 19 24 7 1.38 0.00
 19 26 7 2.03 0.00
 19 28 7 -7.78 0.00
 -19 27 8 3.11 0.00
 -19 25 8 -4.81 0.00
 -19 23 8 14.13 0.00
 -19 21 8 -9.13 0.00
 19 19 8 -2.01 0.00
 19 21 8 1.04 0.00
 19 23 8 1.73 0.00
 19 25 8 7.21 0.00
 19 27 8 6.04 0.00
 -19 26 9 -10.36 0.00
 -19 24 9 5.08 0.00
 -19 22 9 2.10 0.00
 -19 20 9 4.76 0.00
 19 20 9 15.50 0.00
 19 22 9 0.73 0.00
 19 24 9 5.07 0.00
 19 26 9 -0.01 0.00
 -19 27 10 3.75 0.00
 -19 25 10 -15.02 0.00
 -19 23 10 1.77 0.00
 -19 21 10 -1.90 0.00
 19 19 10 -9.28 0.00
 19 21 10 9.04 0.00
 19 23 10 4.53 0.00
 19 25 10 3.68 0.00
 19 27 10 4.32 0.00
 -19 26 11 -21.34 0.00
 -19 24 11 -5.63 0.00
 -19 22 11 -0.08 0.00
 -19 20 11 -9.47 0.00
 19 20 11 -0.97 0.00
 19 22 11 6.15 0.00
 19 24 11 -0.01 0.00
 19 26 11 -8.04 0.00
 -19 25 12 -7.39 0.00
 -19 23 12 3.59 0.00
 -19 21 12 -17.49 0.00
 19 19 12 -13.44 0.00
 19 21 12 -6.55 0.00
 19 23 12 -4.93 0.00
 19 25 12 1.44 0.00
 -19 26 13 3.18 0.00
 -19 24 13 9.22 0.00
 -19 22 13 6.12 0.00
 -19 20 13 -4.67 0.00
 19 20 13 -7.82 0.00
 19 22 13 -0.27 0.00
 19 24 13 -4.66 0.00
 19 26 13 -4.21 0.00
 -19 25 14 -5.62 0.00
 -19 23 14 -9.89 0.00
 -19 21 14 -5.31 0.00
 19 19 14 -5.11 0.00
 19 21 14 3.80 0.00
 19 23 14 -3.41 0.00
 19 25 14 6.34 0.00
 -19 24 15 -4.43 0.00
 -19 22 15 8.64 0.00
 -19 20 15 8.45 0.00
 19 20 15 -3.12 0.00
 19 22 15 1.92 0.00
 19 24 15 5.64 0.00
 -19 23 16 0.53 0.00
 -19 21 16 -1.73 0.00
 19 19 16 -2.53 0.00
 19 21 16 -1.10 0.00
 19 23 16 -6.00 0.00
 -19 22 17 1.39 0.00
 -19 20 17 3.65 0.00
 19 20 17 -0.56 0.00
 19 22 17 -2.49 0.00
 -19 23 18 4.64 0.00
 -19 21 18 1.30 0.00
 19 19 18 -1.17 0.00
 19 21 18 -2.08 0.00
 -19 22 19 -5.33 0.00
 -19 20 19 -1.02 0.00
 19 20 19 -2.11 0.00
 19 22 19 -1.58 0.00
 -19 21 20 -3.35 0.00
 19 19 20 -8.83 0.00
 19 21 20 1.86 0.00
 -19 20 21 -2.55 0.00
 19 20 21 -3.06 0.00
 19 19 22 -0.96 0.00
 -7 19 28 0.42 0.00
 -9 19 28 3.82 0.00
 -20 28 0 3.98 0.00
 -20 26 0 10.74 0.00
 -20 24 0 3.69 0.00
 -20 22 0 -7.30 0.00
 20 20 0 -0.98 0.00
 20 22 0 -8.86 0.00
 20 24 0 -4.07 0.00
 20 26 0 12.38 0.00
 20 28 0 -1.89 0.00
 -20 27 1 -8.19 0.00
 -20 25 1 1.75 0.00
 -20 23 1 0.14 0.00
 -20 21 1 0.45 0.00
 20 21 1 -4.06 0.00
 20 23 1 -11.53 0.00
 20 25 1 6.26 0.00
 20 27 1 1.65 0.00
 -20 28 2 -6.02 0.00
 -20 26 2 2.67 0.00
 -20 24 2 6.60 0.00
 -20 22 2 -2.43 0.00
 20 20 2 -2.83 0.00
 20 22 2 0.77 0.00
 20 24 2 -2.78 0.00
 20 26 2 5.77 0.00
 20 28 2 0.60 0.00
 -20 27 3 -1.02 0.00
 -20 25 3 5.39 0.00
 -20 23 3 6.35 0.00
 -20 21 3 4.08 0.00
 20 21 3 6.93 0.00
 20 23 3 -9.46 0.00
 20 25 3 -1.42 0.00
 20 27 3 -3.70 0.00
 -20 28 4 -2.47 0.00
 -20 26 4 2.66 0.00
 -20 24 4 4.19 0.00
 -20 22 4 -8.94 0.00
 20 20 4 11.45 0.00
 20 22 4 0.81 0.00
 20 24 4 -4.86 0.00
 20 26 4 4.63 0.00
 20 28 4 5.53 0.00
 -20 27 5 -0.15 0.00
 -20 25 5 0.43 0.00
 -20 23 5 -1.83 0.00
 -20 21 5 12.40 0.00
 20 21 5 2.44 0.00
 20 23 5 0.00 0.00
 20 25 5 0.22 0.00
 20 27 5 0.70 0.00
 -20 26 6 5.69 0.00
 -20 24 6 -3.04 0.00
 -20 22 6 -14.63 0.00
 20 20 6 -6.01 0.00
 20 22 6 -6.41 0.00
 20 24 6 -0.79 0.00
 20 26 6 1.31 0.00
 -20 27 7 6.12 0.00
 -20 25 7 -0.03 0.00
 -20 23 7 6.06 0.00
 -20 21 7 0.15 0.00
 20 21 7 -1.88 0.00
 20 23 7 -6.23 0.00
 20 25 7 -2.53 0.00
 20 27 7 3.92 0.00
 -20 26 8 -2.17 0.00
 -20 24 8 1.86 0.00
 -20 22 8 -3.78 0.00
 20 20 8 -0.63 0.00
 20 22 8 4.96 0.00
 20 24 8 2.18 0.00
 20 26 8 7.40 0.00
 -20 27 9 -4.91 0.00
 -20 25 9 -6.51 0.00
 -20 23 9 3.35 0.00
 -20 21 9 1.06 0.00
 20 21 9 5.47 0.00
 20 23 9 -2.82 0.00
 20 25 9 -1.00 0.00
 20 27 9 2.99 0.00
 -20 26 10 -7.84 0.00
 -20 24 10 -4.23 0.00
 -20 22 10 -9.19 0.00
 20 20 10 7.42 0.00
 20 22 10 19.07 0.00
 20 24 10 6.10 0.00
 20 26 10 -2.68 0.00
 -20 25 11 -13.37 0.00
 -20 23 11 3.01 0.00
 -20 21 11 -2.50 0.00
 20 21 11 -1.25 0.00
 20 23 11 3.93 0.00
 20 25 11 -3.19 0.00
 -20 24 12 8.29 0.00
 -20 22 12 0.17 0.00
 20 20 12 -10.86 0.00
 20 22 12 -1.55 0.00
 20 24 12 -0.42 0.00
 20 26 12 -0.89 0.00
 -20 25 13 -6.87 0.00
 -20 23 13 2.05 0.00
 -20 21 13 -7.94 0.00
 20 21 13 -3.29 0.00
 20 23 13 -3.73 0.00
 20 25 13 -2.43 0.00
 -20 24 14 9.81 0.00
 -20 22 14 -1.47 0.00
 20 20 14 1.92 0.00
 20 22 14 0.12 0.00
 20 24 14 0.28 0.00
 -20 23 15 3.92 0.00
 -20 21 15 9.48 0.00
 20 21 15 -0.25 0.00
 20 23 15 2.22 0.00
 -20 22 16 -5.76 0.00
 20 20 16 -2.47 0.00
 20 22 16 3.23 0.00
 -20 23 17 8.10 0.00
 -20 21 17 9.89 0.00
 20 21 17 -6.58 0.00
 -20 22 18 -4.86 0.00
 20 20 18 -5.95 0.00
 20 22 18 3.98 0.00
 -20 21 19 4.25 0.00
 20 21 19 -4.99 0.00
 20 20 20 -1.37 0.00
 -12 20 26 -2.22 0.00
 -9 20 27 5.18 0.00
 6 20 28 0.21 0.00
 -6 20 28 -4.99 0.00
 -21 27 0 9.02 0.00
 -21 25 0 -3.72 0.00
 -21 23 0 -0.46 0.00
 21 21 0 -3.44 0.00
 21 23 0 -4.51 0.00
 21 25 0 -1.89 0.00
 21 27 0 2.04 0.00
 -21 26 1 -3.30 0.00
 -21 24 1 1.19 0.00
 -21 22 1 10.80 0.00
 21 22 1 4.66 0.00
 21 24 1 -5.61 0.00
 21 26 1 -5.79 0.00
 -21 27 2 1.50 0.00
 -21 25 2 0.47 0.00
 -21 23 2 6.49 0.00
 21 21 2 -1.01 0.00
 21 23 2 8.08 0.00
 21 25 2 -1.33 0.00
 21 27 2 7.11 0.00
 -21 26 3 -6.67 0.00
 -21 24 3 1.71 0.00
 -21 22 3 -1.54 0.00
 21 22 3 3.97 0.00
 21 24 3 -4.18 0.00
 21 26 3 -6.29 0.00
 -21 27 4 0.53 0.00
 -21 25 4 1.13 0.00
 -21 23 4 2.53 0.00
 21 21 4 -9.59 0.00
 21 23 4 2.33 0.00
 21 25 4 1.58 0.00
 21 27 4 8.61 0.00
 -21 26 5 -5.81 0.00
 -21 24 5 -1.40 0.00
 -21 22 5 -1.76 0.00
 21 22 5 0.75 0.00
 21 24 5 -7.73 0.00
 21 26 5 -8.67 0.00
 -21 27 6 6.09 0.00
 -21 25 6 3.97 0.00
 -21 23 6 2.48 0.00
 21 21 6 -17.58 0.00
 21 23 6 10.01 0.00
 21 25 6 -2.68 0.00
 21 27 6 -3.84 0.00
 -21 26 7 -5.01 0.00
 -21 24 7 2.71 0.00
 -21 22 7 -3.69 0.00
 21 22 7 -2.13 0.00
 21 24 7 -9.22 0.00
 21 26 7 -0.34 0.00
 -21 25 8 1.59 0.00
 -21 23 8 7.90 0.00
 21 21 8 -17.99 0.00
 21 23 8 -2.77 0.00
 21 25 8 3.98 0.00
 -21 26 9 -3.38 0.00
 -21 24 9 21.57 0.00
 -21 22 9 -2.84 0.00
 21 22 9 -6.06 0.00
 21 24 9 2.61 0.00
 21 26 9 11.90 0.00
 -21 25 10 0.55 0.00
 -21 23 10 0.70 0.00
 21 21 10 -8.62 0.00
 21 23 10 14.81 0.00
 21 25 10 -1.38 0.00
 -21 24 11 8.82 0.00
 -21 22 11 -3.40 0.00
 21 22 11 9.88 0.00
 21 24 11 6.45 0.00
 -21 25 12 -13.42 0.00
 -21 23 12 -6.38 0.00
 21 21 12 -10.42 0.00
 21 23 12 -0.20 0.00
 21 25 12 -0.41 0.00
 -21 24 13 7.19 0.00
 -21 22 13 -1.03 0.00
 21 22 13 -4.04 0.00
 21 24 13 -1.67 0.00
 -21 23 14 -2.32 0.00
 21 21 14 -7.93 0.00
 21 23 14 3.19 0.00
 -21 22 15 -0.06 0.00
 21 22 15 3.85 0.00
 -21 23 16 -12.04 0.00
 21 21 16 -1.62 0.00
 -21 22 17 -6.01 0.00
 21 22 17 1.99 0.00
 21 21 18 -4.06 0.00
 12 21 25 -0.21 0.00
 -12 21 25 -8.29 0.00
 -9 21 26 1.26 0.00
 -6 21 27 -1.44 0.00
 1 21 28 10.32 0.00
 -22 26 0 3.27 0.00
 -22 24 0 -9.63 0.00
 22 22 0 5.76 0.00
 22 24 0 8.54 0.00
 22 26 0 -1.20 0.00
 -22 27 1 4.38 0.00
 -22 25 1 -3.17 0.00
 -22 23 1 -0.61 0.00
 22 23 1 -1.23 0.00
 22 25 1 -2.07 0.00
 22 27 1 -1.78 0.00
 -22 26 2 1.56 0.00
 -22 24 2 -4.56 0.00
 22 22 2 1.87 0.00
 22 24 2 9.63 0.00
 22 26 2 -9.03 0.00
 -22 25 3 -0.88 0.00
 -22 23 3 2.26 0.00
 22 23 3 -3.11 0.00
 22 25 3 -1.72 0.00
 -22 26 4 -3.16 0.00
 -22 24 4 1.37 0.00
 22 22 4 -2.55 0.00
 22 24 4 9.49 0.00
 22 26 4 -0.87 0.00
 -22 25 5 -3.33 0.00
 -22 23 5 4.18 0.00
 22 23 5 -5.54 0.00
 22 25 5 -7.08 0.00
 -22 26 6 -5.58 0.00
 -22 24 6 -1.50 0.00
 22 22 6 3.55 0.00
 22 24 6 2.69 0.00
 22 26 6 -11.39 0.00
 -22 25 7 -4.95 0.00
 -22 23 7 8.22 0.00
 22 23 7 -0.77 0.00
 22 25 7 -7.77 0.00
 -22 24 8 4.98 0.00
 22 22 8 -6.01 0.00
 22 24 8 -6.06 0.00
 -22 25 9 -3.34 0.00
 -22 23 9 8.42 0.00
 22 23 9 -7.92 0.00
 22 25 9 4.70 0.00
 -22 24 10 0.82 0.00
 22 22 10 -1.22 0.00
 22 24 10 -2.56 0.00
 -22 23 11 -2.76 0.00
 22 23 11 -4.91 0.00
 -22 24 12 -7.10 0.00
 22 22 12 -2.68 0.00
 22 24 12 -5.87 0.00
 -22 23 13 -4.29 0.00
 22 23 13 2.29 0.00
 22 22 14 2.90 0.00
 22 22 16 3.30 0.00
 8 22 26 11.09 0.00
 -8 22 26 -3.71 0.00
 3 22 27 -5.96 0.00
 -23 25 0 3.66 0.00
 23 23 0 1.90 0.00
 23 25 0 -4.67 0.00
 -23 26 1 0.00 0.00
 -23 24 1 -7.04 0.00
 23 24 1 -6.81 0.00
 23 26 1 -10.42 0.00
 -23 25 2 5.78 0.00
 23 23 2 4.55 0.00
 23 25 2 -4.16 0.00
 -23 24 3 -3.24 0.00
 23 24 3 -1.46 0.00
 23 26 3 0.97 0.00
 -23 25 4 -4.64 0.00
 23 23 4 4.11 0.00
 23 25 4 4.42 0.00
 -23 24 5 1.08 0.00
 23 24 5 -11.71 0.00
 -23 25 6 -6.25 0.00
 23 23 6 2.63 0.00
 23 25 6 -1.77 0.00
 -23 24 7 0.95 0.00
 23 24 7 -6.14 0.00
 23 23 8 -2.28 0.00
 -23 24 9 -0.66 0.00
 23 24 9 -7.15 0.00
 23 23 10 0.91 0.00
 23 23 12 -11.20 0.00
 21 23 16 3.73 0.00
 20 23 17 -1.68 0.00
 19 23 18 -6.75 0.00
 -11 23 24 -3.48 0.00
 8 23 25 -1.95 0.00
 -8 23 25 -8.78 0.00
 3 23 26 -3.41 0.00
 24 24 0 3.24 0.00
 -24 25 1 2.85 0.00
 24 25 1 -4.64 0.00
 24 24 2 0.20 0.00
 24 25 3 8.85 0.00
 24 24 4 3.55 0.00
 24 24 6 -0.91 0.00
 19 24 17 0.99 0.00
 18 24 18 -11.10 0.00
 17 24 19 -1.75 0.00
 -11 24 23 -2.43 0.00
 -8 24 24 3.29 0.00
 -15 25 0 7.33 0.00
 -24 25 3 10.43 0.00
 -23 25 8 -7.06 0.00
 -23 26 3 -5.31 0.00
 -20 26 12 -2.84 0.00
 12 26 20 -3.58 0.00
 -12 26 20 -3.72 0.00
 -8 26 22 5.11 0.00
 13 27 18 6.60 0.00
 3 27 22 -0.30 0.00
 10 28 18 13.46 0.00
 -10 28 18 3.11 0.00
 9 28 19 4.02 0.00
 6 28 20 2.17 0.00
 19 29 4 5.96 0.00
 11 29 16 -3.14 0.00
 -11 29 16 -1.10 0.00
 -8 29 17 6.26 0.00
 7 29 18 3.47 0.00
 -7 29 18 4.62 0.00
 4 29 19 3.18 0.00
 -9 30 15 0.83 0.00
 8 30 16 9.80 0.00
 -8 30 16 2.12 0.00
 5 30 17 -0.30 0.00
 16 31 1 9.25 0.00
 -12 32 0 0.80 0.00
 11 33 0 -1.04 0.00
 -1 33 0 -2.73 0.00
 -10 33 1 5.40 0.00
 11 33 2 -5.21 0.00
 -10 33 3 6.48 0.00
 6 34 0 1.96 0.00
 4 34 0 -1.27 0.00
 2 34 0 8.69 0.00
 0 34 0 4.56 0.00
 -2 34 0 0.81 0.00
 -4 34 0 9.58 0.00
 -6 34 0 2.28 0.00
 7 34 1 -5.41 0.00
 -1 34 1 -8.14 0.00
 -3 34 1 -5.50 0.00
 -5 34 1 -3.92 0.00
 -7 34 1 6.48 0.00
 -2 34 2 -2.75 0.00
 -4 34 2 1.49 0.00
 7 34 3 3.27 0.00
 -3 34 3 0.36 0.00
 -7 34 3 7.23 0.00
 1 1 0 474.67 0.00
 0 2 0 511.21 0.00
 25 25 0 -1.30 0.00
 -24 26 0 7.15 0.00
 24 26 0 3.67 0.00
 26 26 0 7.10 0.00
 -25 27 0 -7.17 0.00
 -23 27 0 7.62 0.00
 23 27 0 -7.77 0.00
 25 27 0 -2.47 0.00
 -24 28 0 -0.19 0.00
 -22 28 0 4.61 0.00
 22 28 0 -3.14 0.00
 24 28 0 3.16 0.00
 -23 29 0 -0.83 0.00
 -21 29 0 9.62 0.00
 21 29 0 -0.60 0.00
 23 29 0 0.36 0.00
 -22 30 0 -6.52 0.00
 -20 30 0 -4.76 0.00
 -18 30 0 -4.64 0.00
 18 30 0 5.54 0.00
 20 30 0 -1.55 0.00
 22 30 0 4.03 0.00
 -19 31 0 -8.71 0.00
 -17 31 0 -7.85 0.00
 -15 31 0 -1.46 0.00
 17 31 0 15.66 0.00
 19 31 0 -5.34 0.00
 -18 32 0 -3.17 0.00
 -16 32 0 -0.50 0.00
 -14 32 0 13.64 0.00
 14 32 0 -14.94 0.00
 16 32 0 -10.56 0.00
 18 32 0 7.67 0.00
 -17 33 0 -6.27 0.00
 -15 33 0 4.38 0.00
 -13 33 0 -18.39 0.00
 -11 33 0 -13.54 0.00
 13 33 0 -18.84 0.00
 15 33 0 -9.16 0.00
 17 33 0 5.12 0.00
 -14 34 0 0.04 0.00
 -12 34 0 -4.58 0.00
 -10 34 0 -6.67 0.00
 -8 34 0 -5.16 0.00
 8 34 0 -3.44 0.00
 10 34 0 -5.42 0.00
 12 34 0 5.56 0.00
 14 34 0 -9.87 0.00
 0 1 1 376.70 0.00
 -25 26 1 5.44 0.00
 25 26 1 -0.33 0.00
 -24 27 1 -0.85 0.00
 24 27 1 -1.58 0.00
 -23 28 1 3.79 0.00
 -21 28 1 8.92 0.00
 21 28 1 -5.86 0.00
 23 28 1 -3.50 0.00
 -22 29 1 -1.52 0.00
 -20 29 1 -4.79 0.00
 20 29 1 -3.70 0.00
 22 29 1 8.64 0.00
 -21 30 1 8.16 0.00
 -19 30 1 3.57 0.00
 19 30 1 -19.00 0.00
 21 30 1 -8.41 0.00
 -20 31 1 -6.84 0.00
 -18 31 1 -3.32 0.00
 -16 31 1 7.30 0.00
 18 31 1 3.42 0.00
 20 31 1 1.39 0.00
 -19 32 1 -2.29 0.00
 -17 32 1 2.39 0.00
 -15 32 1 0.21 0.00
 -13 32 1 0.66 0.00
 15 32 1 -3.14 0.00
 17 32 1 4.29 0.00
 19 32 1 2.30 0.00
 -16 33 1 5.76 0.00
 -14 33 1 2.42 0.00
 -12 33 1 3.85 0.00
 12 33 1 -7.29 0.00
 14 33 1 -15.33 0.00
 16 33 1 -6.11 0.00
 -15 34 1 -8.59 0.00
 -13 34 1 -5.11 0.00
 -11 34 1 2.03 0.00
 -9 34 1 3.09 0.00
 9 34 1 -0.39 0.00
 11 34 1 -10.71 0.00
 13 34 1 1.73 0.00
 15 34 1 -1.41 0.00
 0 0 2 931.74 0.00
 25 25 2 9.23 0.00
 -24 26 2 11.61 0.00
 24 26 2 0.54 0.00
 26 26 2 13.03 0.00
 -25 27 2 5.35 0.00
 -23 27 2 6.68 0.00
 23 27 2 -4.85 0.00
 25 27 2 5.75 0.00
 -24 28 2 3.11 0.00
 -22 28 2 -5.07 0.00
 22 28 2 -1.02 0.00
 24 28 2 6.57 0.00
 -23 29 2 -2.30 0.00
 -21 29 2 -6.25 0.00
 21 29 2 -3.59 0.00
 23 29 2 6.90 0.00
 -22 30 2 -12.68 0.00
 -20 30 2 -6.05 0.00
 -18 30 2 -1.04 0.00
 18 30 2 10.71 0.00
 20 30 2 -1.76 0.00
 22 30 2 -2.71 0.00
 -19 31 2 -1.91 0.00
 -17 31 2 -2.82 0.00
 -15 31 2 -1.79 0.00
 17 31 2 2.29 0.00
 19 31 2 1.64 0.00
 -18 32 2 2.32 0.00
 -16 32 2 -0.92 0.00
 -14 32 2 2.22 0.00
 14 32 2 3.43 0.00
 16 32 2 -9.66 0.00
 18 32 2 9.24 0.00
 -17 33 2 -2.12 0.00
 -15 33 2 -4.32 0.00
 -13 33 2 -6.52 0.00
 -11 33 2 6.48 0.00
 13 33 2 -15.94 0.00
 15 33 2 2.08 0.00
 17 33 2 7.31 0.00
 -14 34 2 -2.15 0.00
 -12 34 2 9.50 0.00
 -10 34 2 0.62 0.00
 -8 34 2 -6.57 0.00
 8 34 2 1.95 0.00
 10 34 2 -5.27 0.00
 12 34 2 -6.00 0.00
 14 34 2 -2.33 0.00
 -25 26 3 11.75 0.00
 25 26 3 14.51 0.00
 -24 27 3 0.13 0.00
 -22 27 3 -0.08 0.00
 22 27 3 3.57 0.00
 24 27 3 7.02 0.00
 -23 28 3 -2.03 0.00
 -21 28 3 2.08 0.00
 21 28 3 -1.85 0.00
 23 28 3 4.62 0.00
 -22 29 3 -6.60 0.00
 -20 29 3 -5.58 0.00
 20 29 3 -1.29 0.00
 22 29 3 11.00 0.00
 -21 30 3 3.18 0.00
 -19 30 3 -1.46 0.00
 19 30 3 -6.49 0.00
 21 30 3 -4.84 0.00
 -20 31 3 -3.89 0.00
 -18 31 3 0.62 0.00
 -16 31 3 5.79 0.00
 16 31 3 -7.01 0.00
 18 31 3 -3.64 0.00
 20 31 3 6.91 0.00
 -17 32 3 8.13 0.00
 -15 32 3 -2.36 0.00
 -13 32 3 -0.62 0.00
 15 32 3 6.01 0.00
 17 32 3 -9.87 0.00
 -16 33 3 1.74 0.00
 -14 33 3 1.05 0.00
 -12 33 3 12.37 0.00
 12 33 3 -2.59 0.00
 14 33 3 4.14 0.00
 16 33 3 -3.33 0.00
 -15 34 3 -3.86 0.00
 -13 34 3 -0.64 0.00
 -11 34 3 3.45 0.00
 -9 34 3 -3.26 0.00
 9 34 3 -1.27 0.00
 11 34 3 -3.17 0.00
 13 34 3 0.57 0.00
 15 34 3 12.71 0.00
 25 25 4 13.64 0.00
 -24 26 4 3.46 0.00
 24 26 4 5.55 0.00
 26 26 4 12.17 0.00
 -25 27 4 3.12 0.00
 -23 27 4 0.33 0.00
 23 27 4 -0.75 0.00
 25 27 4 8.03 0.00
 -24 28 4 3.20 0.00
 -22 28 4 4.54 0.00
 22 28 4 -0.74 0.00
 24 28 4 3.75 0.00
 -23 29 4 0.97 0.00
 -21 29 4 1.81 0.00
 -19 29 4 -0.62 0.00
 21 29 4 3.61 0.00
 23 29 4 2.89 0.00
 -20 30 4 1.55 0.00
 -18 30 4 2.95 0.00
 18 30 4 4.77 0.00
 20 30 4 0.67 0.00
 -19 31 4 -5.40 0.00
 -17 31 4 0.26 0.00
 -15 31 4 -7.21 0.00
 17 31 4 -1.19 0.00
 19 31 4 -2.81 0.00
 -18 32 4 0.32 0.00
 -16 32 4 -2.39 0.00
 -14 32 4 -4.47 0.00
 14 32 4 12.40 0.00
 16 32 4 -5.22 0.00
 18 32 4 1.30 0.00
 -15 33 4 0.78 0.00
 -13 33 4 -3.10 0.00
 -11 33 4 -7.92 0.00
 11 33 4 1.17 0.00
 13 33 4 -12.26 0.00
 15 33 4 8.77 0.00
 -14 34 4 2.96 0.00
 -12 34 4 1.67 0.00
 -10 34 4 -8.62 0.00
 -8 34 4 -4.12 0.00
 8 34 4 1.95 0.00
 10 34 4 0.87 0.00
 12 34 4 -1.03 0.00
 14 34 4 3.88 0.00
 -24 25 5 1.87 0.00
 24 25 5 0.26 0.00
 -25 26 5 0.15 0.00
 -23 26 5 -3.22 0.00
 23 26 5 -3.58 0.00
 25 26 5 1.17 0.00
 -24 27 5 -1.25 0.00
 -22 27 5 -2.88 0.00
 22 27 5 -2.68 0.00
 24 27 5 3.79 0.00
 -23 28 5 8.58 0.00
 -21 28 5 4.95 0.00
 21 28 5 -9.20 0.00
 23 28 5 2.80 0.00
 -22 29 5 -0.79 0.00
 -20 29 5 -4.42 0.00
 20 29 5 -5.46 0.00
 22 29 5 7.32 0.00
 -21 30 5 5.73 0.00
 -19 30 5 -1.53 0.00
 -17 30 5 -0.28 0.00
 19 30 5 -5.02 0.00
 21 30 5 -7.43 0.00
 -20 31 5 -0.11 0.00
 -18 31 5 -0.47 0.00
 -16 31 5 -5.85 0.00
 16 31 5 -0.21 0.00
 18 31 5 2.24 0.00
 20 31 5 0.18 0.00
 -17 32 5 4.57 0.00
 -15 32 5 -2.15 0.00
 -13 32 5 -8.11 0.00
 15 32 5 3.60 0.00
 17 32 5 -3.70 0.00
 -16 33 5 2.58 0.00
 -14 33 5 2.61 0.00
 -12 33 5 -2.92 0.00
 -10 33 5 -2.75 0.00
 12 33 5 -0.40 0.00
 14 33 5 -3.48 0.00
 16 33 5 -0.89 0.00
 -13 34 5 -7.66 0.00
 -11 34 5 -8.90 0.00
 -9 34 5 -11.05 0.00
 -7 34 5 0.63 0.00
 7 34 5 0.99 0.00
 9 34 5 2.08 0.00
 11 34 5 2.07 0.00
 13 34 5 -3.84 0.00
 25 25 6 7.09 0.00
 -24 26 6 -4.63 0.00
 24 26 6 -7.37 0.00
 26 26 6 2.47 0.00
 -25 27 6 2.19 0.00
 -23 27 6 -4.91 0.00
 23 27 6 -9.74 0.00
 25 27 6 0.39 0.00
 -22 28 6 1.10 0.00
 -20 28 6 -10.14 0.00
 20 28 6 -8.65 0.00
 22 28 6 -8.93 0.00
 -21 29 6 1.81 0.00
 -19 29 6 -6.59 0.00
 19 29 6 3.01 0.00
 21 29 6 -2.23 0.00
 -20 30 6 -2.36 0.00
 -18 30 6 2.37 0.00
 18 30 6 3.91 0.00
 20 30 6 5.35 0.00
 -19 31 6 -0.91 0.00
 -17 31 6 -0.61 0.00
 -15 31 6 -6.97 0.00
 15 31 6 11.17 0.00
 17 31 6 0.57 0.00
 19 31 6 6.99 0.00
 -18 32 6 -3.02 0.00
 -16 32 6 -3.09 0.00
 -14 32 6 1.27 0.00
 14 32 6 0.49 0.00
 16 32 6 -10.62 0.00
 18 32 6 -2.04 0.00
 -15 33 6 -0.29 0.00
 -13 33 6 2.40 0.00
 -11 33 6 0.93 0.00
 11 33 6 6.11 0.00
 13 33 6 -4.34 0.00
 15 33 6 -7.44 0.00
 -14 34 6 -1.87 0.00
 -12 34 6 -3.58 0.00
 -10 34 6 -5.36 0.00
 -8 34 6 -12.56 0.00
 -6 34 6 4.55 0.00
 6 34 6 8.24 0.00
 8 34 6 3.65 0.00
 10 34 6 -5.50 0.00
 12 34 6 7.36 0.00
 14 34 6 -3.59 0.00
 -24 25 7 -0.55 0.00
 24 25 7 -8.10 0.00
 -25 26 7 -4.48 0.00
 -23 26 7 -6.84 0.00
 23 26 7 -7.63 0.00
 25 26 7 -4.44 0.00
 -24 27 7 3.33 0.00
 -22 27 7 -3.12 0.00
 22 27 7 -1.59 0.00
 24 27 7 -7.71 0.00
 -23 28 7 3.79 0.00
 -21 28 7 2.54 0.00
 21 28 7 -4.23 0.00
 23 28 7 -0.58 0.00
 -22 29 7 -5.93 0.00
 -20 29 7 0.96 0.00
 -18 29 7 1.01 0.00
 18 29 7 -7.19 0.00
 20 29 7 -2.72 0.00
 22 29 7 4.67 0.00
 -21 30 7 0.22 0.00
 -19 30 7 -3.52 0.00
 -17 30 7 2.70 0.00
 17 30 7 -0.44 0.00
 19 30 7 -6.45 0.00
 21 30 7 -1.92 0.00
 -18 31 7 1.36 0.00
 -16 31 7 4.25 0.00
 16 31 7 1.38 0.00
 18 31 7 -2.01 0.00
 -17 32 7 2.70 0.00
 -15 32 7 1.52 0.00
 -13 32 7 1.76 0.00
 13 32 7 6.32 0.00
 15 32 7 0.70 0.00
 17 32 7 -2.90 0.00
 -14 33 7 10.09 0.00
 -12 33 7 8.43 0.00
 -10 33 7 3.75 0.00
 10 33 7 -4.36 0.00
 12 33 7 -1.23 0.00
 14 33 7 -3.00 0.00
 -13 34 7 -1.82 0.00
 -11 34 7 3.77 0.00
 -9 34 7 1.00 0.00
 -7 34 7 0.34 0.00
 -5 34 7 9.55 0.00
 5 34 7 3.33 0.00
 7 34 7 10.33 0.00
 9 34 7 2.43 0.00
 11 34 7 2.58 0.00
 13 34 7 -3.39 0.00
 24 24 8 -8.15 0.00
 23 25 8 3.66 0.00
 25 25 8 2.85 0.00
 -24 26 8 -7.52 0.00
 -22 26 8 -3.41 0.00
 22 26 8 -1.71 0.00
 24 26 8 -5.78 0.00
 -23 27 8 2.66 0.00
 -21 27 8 7.09 0.00
 21 27 8 6.28 0.00
 23 27 8 -5.79 0.00
 -22 28 8 0.36 0.00
 -20 28 8 -0.30 0.00
 20 28 8 2.08 0.00
 22 28 8 -5.26 0.00
 -21 29 8 0.03 0.00
 -19 29 8 -1.88 0.00
 19 29 8 1.98 0.00
 21 29 8 0.77 0.00
 -20 30 8 -1.84 0.00
 -18 30 8 6.95 0.00
 -16 30 8 7.62 0.00
 16 30 8 5.49 0.00
 18 30 8 -0.60 0.00
 20 30 8 1.72 0.00
 -19 31 8 -2.20 0.00
 -17 31 8 3.20 0.00
 -15 31 8 0.55 0.00
 15 31 8 1.75 0.00
 17 31 8 -5.27 0.00
 19 31 8 2.76 0.00
 -16 32 8 1.91 0.00
 -14 32 8 9.92 0.00
 -12 32 8 -0.07 0.00
 12 32 8 -4.88 0.00
 14 32 8 -0.81 0.00
 16 32 8 -5.84 0.00
 -15 33 8 -1.19 0.00
 -13 33 8 5.76 0.00
 -11 33 8 5.22 0.00
 -9 33 8 5.45 0.00
 9 33 8 -4.26 0.00
 11 33 8 6.35 0.00
 13 33 8 -5.93 0.00
 15 33 8 1.07 0.00
 -12 34 8 -0.35 0.00
 -10 34 8 -3.37 0.00
 -8 34 8 -3.51 0.00
 -6 34 8 3.93 0.00
 -4 34 8 -2.92 0.00
 -2 34 8 -3.81 0.00
 0 34 8 5.97 0.00
 2 34 8 2.07 0.00
 4 34 8 -1.91 0.00
 6 34 8 13.63 0.00
 8 34 8 -0.29 0.00
 10 34 8 0.06 0.00
 12 34 8 3.42 0.00
 -24 25 9 -7.47 0.00
 24 25 9 -1.60 0.00
 -25 26 9 -5.37 0.00
 -23 26 9 -7.01 0.00
 23 26 9 4.93 0.00
 25 26 9 1.07 0.00
 -24 27 9 -2.28 0.00
 -22 27 9 0.10 0.00
 22 27 9 2.83 0.00
 24 27 9 1.55 0.00
 -21 28 9 9.55 0.00
 -19 28 9 2.16 0.00
 19 28 9 -7.47 0.00
 21 28 9 0.82 0.00
 -20 29 9 3.70 0.00
 -18 29 9 11.20 0.00
 18 29 9 -12.22 0.00
 20 29 9 1.20 0.00
 -19 30 9 5.38 0.00
 -17 30 9 9.39 0.00
 17 30 9 -0.65 0.00
 19 30 9 -9.61 0.00
 -18 31 9 3.17 0.00
 -16 31 9 0.98 0.00
 -14 31 9 11.68 0.00
 14 31 9 -6.18 0.00
 16 31 9 1.02 0.00
 18 31 9 -6.80 0.00
 -15 32 9 -2.98 0.00
 -13 32 9 -1.16 0.00
 -11 32 9 -5.20 0.00
 11 32 9 4.66 0.00
 13 32 9 -1.21 0.00
 15 32 9 3.92 0.00
 -14 33 9 6.78 0.00
 -12 33 9 -1.37 0.00
 -10 33 9 -5.68 0.00
 -8 33 9 -5.93 0.00
 8 33 9 -0.51 0.00
 10 33 9 -1.16 0.00
 12 33 9 -5.12 0.00
 14 33 9 -0.55 0.00
 -11 34 9 3.54 0.00
 -9 34 9 6.93 0.00
 -7 34 9 1.99 0.00
 -5 34 9 0.50 0.00
 -3 34 9 -3.16 0.00
 -1 34 9 0.85 0.00
 1 34 9 5.50 0.00
 3 34 9 5.54 0.00
 5 34 9 2.04 0.00
 7 34 9 4.75 0.00
 9 34 9 1.74 0.00
 11 34 9 3.78 0.00
 24 24 10 -4.93 0.00
 -23 25 10 1.87 0.00
 23 25 10 7.43 0.00
 25 25 10 4.47 0.00
 -24 26 10 -6.07 0.00
 -22 26 10 -7.19 0.00
 22 26 10 -7.25 0.00
 24 26 10 -2.80 0.00
 -23 27 10 3.06 0.00
 -21 27 10 1.46 0.00
 21 27 10 -3.18 0.00
 23 27 10 -2.02 0.00
 -22 28 10 -9.16 0.00
 -20 28 10 -1.66 0.00
 20 28 10 -0.39 0.00
 22 28 10 -1.85 0.00
 -21 29 10 1.28 0.00
 -19 29 10 4.22 0.00
 -17 29 10 5.57 0.00
 17 29 10 -9.78 0.00
 19 29 10 -4.78 0.00
 21 29 10 -1.14 0.00
 -18 30 10 0.95 0.00
 -16 30 10 -4.02 0.00
 16 30 10 14.57 0.00
 18 30 10 0.65 0.00
 -17 31 10 -2.20 0.00
 -15 31 10 -6.26 0.00
 -13 31 10 -7.69 0.00
 13 31 10 5.64 0.00
 15 31 10 -1.58 0.00
 17 31 10 -2.95 0.00
 -16 32 10 -0.68 0.00
 -14 32 10 2.92 0.00
 -12 32 10 -1.86 0.00
 -10 32 10 -4.88 0.00
 10 32 10 -3.07 0.00
 12 32 10 4.48 0.00
 14 32 10 4.93 0.00
 16 32 10 7.59 0.00
 -13 33 10 0.40 0.00
 -11 33 10 2.67 0.00
 -9 33 10 3.62 0.00
 -7 33 10 1.32 0.00
 7 33 10 6.78 0.00
 9 33 10 -0.19 0.00
 11 33 10 0.40 0.00
 13 33 10 -0.99 0.00
 -10 34 10 -1.09 0.00
 -8 34 10 -4.86 0.00
 -6 34 10 -0.77 0.00
 -4 34 10 5.79 0.00
 -2 34 10 1.02 0.00
 0 34 10 2.31 0.00
 2 34 10 3.65 0.00
 4 34 10 0.55 0.00
 6 34 10 4.31 0.00
 8 34 10 5.66 0.00
 10 34 10 -5.11 0.00
 -23 24 11 -4.81 0.00
 23 24 11 -8.37 0.00
 -24 25 11 -0.70 0.00
 -22 25 11 -2.77 0.00
 22 25 11 -1.54 0.00
 24 25 11 4.33 0.00
 -23 26 11 -4.16 0.00
 -21 26 11 -12.93 0.00
 21 26 11 -1.87 0.00
 23 26 11 -2.38 0.00
 -22 27 11 -3.39 0.00
 -20 27 11 -8.94 0.00
 20 27 11 -6.55 0.00
 22 27 11 -2.71 0.00
 -21 28 11 -3.24 0.00
 -19 28 11 3.05 0.00
 19 28 11 -4.35 0.00
 21 28 11 -4.16 0.00
 -20 29 11 4.86 0.00
 -18 29 11 13.16 0.00
 18 29 11 -5.17 0.00
 20 29 11 3.03 0.00
 -19 30 11 1.18 0.00
 -17 30 11 1.41 0.00
 -15 30 11 -4.48 0.00
 15 30 11 5.09 0.00
 17 30 11 0.16 0.00
 19 30 11 -2.46 0.00
 -16 31 11 0.15 0.00
 -14 31 11 -3.50 0.00
 -12 31 11 5.58 0.00
 12 31 11 7.32 0.00
 14 31 11 1.33 0.00
 16 31 11 5.73 0.00
 -15 32 11 -9.16 0.00
 -13 32 11 -4.19 0.00
 -11 32 11 0.67 0.00
 -9 32 11 -1.67 0.00
 9 32 11 3.07 0.00
 11 32 11 7.95 0.00
 13 32 11 4.97 0.00
 15 32 11 3.95 0.00
 -12 33 11 1.08 0.00
 -10 33 11 -9.62 0.00
 -8 33 11 -3.91 0.00
 -6 33 11 6.84 0.00
 -4 33 11 -10.44 0.00
 4 33 11 -5.06 0.00
 6 33 11 -0.26 0.00
 8 33 11 8.71 0.00
 10 33 11 5.58 0.00
 12 33 11 -2.98 0.00
 -9 34 11 -2.74 0.00
 -7 34 11 6.35 0.00
 -5 34 11 0.03 0.00
 -3 34 11 -6.20 0.00
 -1 34 11 -1.90 0.00
 1 34 11 8.33 0.00
 3 34 11 2.57 0.00
 5 34 11 -0.78 0.00
 7 34 11 3.30 0.00
 9 34 11 9.73 0.00
 24 24 12 -0.74 0.00
 -23 25 12 -4.95 0.00
 23 25 12 -1.01 0.00
 25 25 12 2.78 0.00
 -22 26 12 -8.00 0.00
 22 26 12 -6.54 0.00
 -21 27 12 -5.42 0.00
 -19 27 12 -3.07 0.00
 19 27 12 1.21 0.00
 21 27 12 -1.87 0.00
 -20 28 12 0.83 0.00
 -18 28 12 2.36 0.00
 18 28 12 2.20 0.00
 20 28 12 -6.42 0.00
 -19 29 12 -2.56 0.00
 -17 29 12 4.52 0.00
 17 29 12 7.08 0.00
 19 29 12 0.68 0.00
 -18 30 12 -2.15 0.00
 -16 30 12 -8.93 0.00
 -14 30 12 -2.62 0.00
 14 30 12 7.00 0.00
 16 30 12 15.06 0.00
 18 30 12 2.52 0.00
 -17 31 12 1.66 0.00
 -15 31 12 -6.15 0.00
 -13 31 12 -4.27 0.00
 -11 31 12 5.81 0.00
 11 31 12 -5.92 0.00
 13 31 12 3.11 0.00
 15 31 12 2.97 0.00
 17 31 12 1.08 0.00
 -14 32 12 -2.24 0.00
 -12 32 12 3.25 0.00
 -10 32 12 -1.14 0.00
 -8 32 12 8.32 0.00
 8 32 12 0.46 0.00
 10 32 12 -0.28 0.00
 12 32 12 -7.67 0.00
 14 32 12 4.96 0.00
 -11 33 12 5.58 0.00
 -9 33 12 6.50 0.00
 -7 33 12 17.16 0.00
 -5 33 12 3.34 0.00
 -3 33 12 0.23 0.00
 -1 33 12 11.62 0.00
 1 33 12 2.98 0.00
 3 33 12 -4.88 0.00
 5 33 12 14.26 0.00
 7 33 12 7.62 0.00
 9 33 12 8.75 0.00
 11 33 12 1.74 0.00
 -8 34 12 0.79 0.00
 -6 34 12 3.34 0.00
 -4 34 12 -2.82 0.00
 -2 34 12 -0.26 0.00
 0 34 12 -0.05 0.00
 2 34 12 -4.01 0.00
 4 34 12 -8.43 0.00
 6 34 12 2.92 0.00
 8 34 12 2.29 0.00
 -23 24 13 3.54 0.00
 23 24 13 -2.46 0.00
 -24 25 13 -1.39 0.00
 -22 25 13 -10.83 0.00
 22 25 13 4.23 0.00
 24 25 13 5.39 0.00
 -23 26 13 -2.80 0.00
 -21 26 13 -9.40 0.00
 21 26 13 -3.25 0.00
 23 26 13 -7.36 0.00
 -22 27 13 -1.37 0.00
 -20 27 13 0.56 0.00
 18 27 13 8.55 0.00
 20 27 13 1.11 0.00
 22 27 13 -1.04 0.00
 -21 28 13 2.80 0.00
 -19 28 13 -4.12 0.00
 -17 28 13 -10.40 0.00
 17 28 13 3.61 0.00
 19 28 13 9.63 0.00
 21 28 13 1.52 0.00
 -18 29 13 -3.45 0.00
 -16 29 13 -1.70 0.00
 16 29 13 4.94 0.00
 18 29 13 1.86 0.00
 -17 30 13 -2.85 0.00
 -15 30 13 -3.59 0.00
 -13 30 13 -3.31 0.00
 13 30 13 -2.69 0.00
 15 30 13 -1.63 0.00
 17 30 13 1.14 0.00
 -16 31 13 3.39 0.00
 -14 31 13 0.16 0.00
 -12 31 13 4.57 0.00
 -10 31 13 -4.50 0.00
 10 31 13 -0.77 0.00
 12 31 13 2.96 0.00
 14 31 13 -5.63 0.00
 16 31 13 3.05 0.00
 -13 32 13 0.27 0.00
 -11 32 13 1.83 0.00
 -9 32 13 1.05 0.00
 -7 32 13 13.03 0.00
 7 32 13 -3.67 0.00
 9 32 13 -7.28 0.00
 11 32 13 -0.51 0.00
 13 32 13 -6.44 0.00
 -10 33 13 -4.05 0.00
 -8 33 13 2.17 0.00
 -6 33 13 1.05 0.00
 -4 33 13 -7.93 0.00
 -2 33 13 3.64 0.00
 0 33 13 4.23 0.00
 2 33 13 0.64 0.00
 4 33 13 1.38 0.00
 6 33 13 5.67 0.00
 8 33 13 -1.03 0.00
 10 33 13 1.88 0.00
 -7 34 13 9.69 0.00
 -5 34 13 -1.89 0.00
 -3 34 13 3.10 0.00
 -1 34 13 -4.16 0.00
 1 34 13 2.73 0.00
 3 34 13 -2.94 0.00
 5 34 13 -0.22 0.00
 7 34 13 -4.34 0.00
 23 23 14 -0.51 0.00
 -22 24 14 10.45 0.00
 22 24 14 5.82 0.00
 24 24 14 2.84 0.00
 -23 25 14 -0.57 0.00
 -21 25 14 -6.73 0.00
 21 25 14 2.08 0.00
 23 25 14 4.01 0.00
 -22 26 14 -0.69 0.00
 -20 26 14 4.66 0.00
 20 26 14 -2.88 0.00
 22 26 14 -5.55 0.00
 -21 27 14 -0.96 0.00
 -19 27 14 -3.07 0.00
 19 27 14 10.69 0.00
 21 27 14 1.72 0.00
 -20 28 14 4.28 0.00
 -18 28 14 -1.34 0.00
 -16 28 14 -9.12 0.00
 16 28 14 -7.94 0.00
 18 28 14 -0.70 0.00
 20 28 14 -2.33 0.00
 -17 29 14 0.76 0.00
 -15 29 14 -1.30 0.00
 15 29 14 4.26 0.00
 17 29 14 6.29 0.00
 -16 30 14 -4.03 0.00
 -14 30 14 2.62 0.00
 -12 30 14 3.02 0.00
 12 30 14 -5.93 0.00
 14 30 14 5.60 0.00
 16 30 14 3.30 0.00
 -15 31 14 3.00 0.00
 -13 31 14 -1.09 0.00
 -11 31 14 3.28 0.00
 -9 31 14 -7.57 0.00
 9 31 14 -5.26 0.00
 11 31 14 2.91 0.00
 13 31 14 2.68 0.00
 15 31 14 -4.14 0.00
 -12 32 14 -2.08 0.00
 -10 32 14 -6.40 0.00
 -8 32 14 0.66 0.00
 -6 32 14 1.83 0.00
 -4 32 14 7.50 0.00
 4 32 14 0.59 0.00
 6 32 14 -5.27 0.00
 8 32 14 -6.28 0.00
 10 32 14 -5.37 0.00
 12 32 14 -4.82 0.00
 -9 33 14 0.65 0.00
 -7 33 14 0.56 0.00
 -5 33 14 8.13 0.00
 -3 33 14 2.89 0.00
 -1 33 14 6.82 0.00
 1 33 14 3.86 0.00
 3 33 14 -1.25 0.00
 5 33 14 9.50 0.00
 7 33 14 1.40 0.00
 9 33 14 -1.89 0.00
 -6 34 14 -4.94 0.00
 -4 34 14 0.42 0.00
 -2 34 14 -2.72 0.00
 0 34 14 0.38 0.00
 2 34 14 -5.06 0.00
 4 34 14 -0.36 0.00
 6 34 14 0.63 0.00
 -22 23 15 0.87 0.00
 22 23 15 7.33 0.00
 -23 24 15 3.09 0.00
 -21 24 15 7.46 0.00
 21 24 15 9.53 0.00
 23 24 15 -0.74 0.00
 -22 25 15 -2.68 0.00
 -20 25 15 -5.24 0.00
 20 25 15 5.72 0.00
 22 25 15 8.22 0.00
 -21 26 15 -4.41 0.00
 -19 26 15 2.23 0.00
 19 26 15 0.07 0.00
 21 26 15 1.46 0.00
 -20 27 15 3.92 0.00
 -18 27 15 5.59 0.00
 18 27 15 2.95 0.00
 20 27 15 -1.02 0.00
 -19 28 15 -2.56 0.00
 -17 28 15 -13.97 0.00
 -15 28 15 2.51 0.00
 15 28 15 -8.09 0.00
 17 28 15 -8.10 0.00
 19 28 15 1.97 0.00
 -18 29 15 -2.10 0.00
 -16 29 15 1.38 0.00
 -14 29 15 -2.43 0.00
 14 29 15 6.90 0.00
 16 29 15 1.57 0.00
 18 29 15 -4.84 0.00
 -15 30 15 2.22 0.00
 -13 30 15 -4.53 0.00
 -11 30 15 -7.66 0.00
 11 30 15 -9.95 0.00
 13 30 15 4.97 0.00
 15 30 15 5.10 0.00
 -14 31 15 1.32 0.00
 -12 31 15 -0.92 0.00
 -10 31 15 -6.62 0.00
 -8 31 15 -4.53 0.00
 8 31 15 -2.85 0.00
 10 31 15 6.38 0.00
 12 31 15 3.03 0.00
 14 31 15 -1.22 0.00
 -11 32 15 -4.56 0.00
 -9 32 15 -2.55 0.00
 -7 32 15 0.48 0.00
 -5 32 15 2.15 0.00
 -3 32 15 -5.55 0.00
 -1 32 15 4.25 0.00
 1 32 15 -0.11 0.00
 3 32 15 0.26 0.00
 5 32 15 -3.66 0.00
 7 32 15 -11.28 0.00
 9 32 15 -3.09 0.00
 11 32 15 3.40 0.00
 -8 33 15 -6.61 0.00
 -6 33 15 0.24 0.00
 -4 33 15 -5.92 0.00
 -2 33 15 -2.90 0.00
 0 33 15 -2.64 0.00
 2 33 15 -9.40 0.00
 4 33 15 4.58 0.00
 6 33 15 -1.78 0.00
 8 33 15 -3.19 0.00
 -3 34 15 1.60 0.00
 -1 34 15 1.51 0.00
 1 34 15 -1.18 0.00
 3 34 15 4.58 0.00
 23 23 16 -8.77 0.00
 -22 24 16 -4.49 0.00
 -20 24 16 0.95 0.00
 20 24 16 3.24 0.00
 22 24 16 2.31 0.00
 -21 25 16 -11.86 0.00
 -19 25 16 -3.73 0.00
 19 25 16 -3.57 0.00
 21 25 16 -0.48 0.00
 -20 26 16 -2.81 0.00
 -18 26 16 -1.88 0.00
 18 26 16 -1.04 0.00
 20 26 16 0.66 0.00
 -19 27 16 -0.04 0.00
 -17 27 16 1.53 0.00
 17 27 16 -2.44 0.00
 19 27 16 0.20 0.00
 -18 28 16 -1.17 0.00
 -16 28 16 0.00 0.00
 -14 28 16 -0.38 0.00
 14 28 16 7.39 0.00
 16 28 16 -3.11 0.00
 18 28 16 -0.08 0.00
 -17 29 16 3.04 0.00
 -15 29 16 3.40 0.00
 -13 29 16 2.12 0.00
 13 29 16 3.69 0.00
 15 29 16 1.47 0.00
 17 29 16 -3.45 0.00
 -14 30 16 7.07 0.00
 -12 30 16 0.75 0.00
 -10 30 16 -3.00 0.00
 10 30 16 11.03 0.00
 12 30 16 -0.55 0.00
 14 30 16 12.99 0.00
 -13 31 16 -0.33 0.00
 -11 31 16 -0.93 0.00
 -9 31 16 -5.38 0.00
 -7 31 16 -4.15 0.00
 -5 31 16 -10.49 0.00
 -3 31 16 -1.93 0.00
 3 31 16 -0.83 0.00
 5 31 16 -6.03 0.00
 7 31 16 -5.84 0.00
 9 31 16 1.32 0.00
 11 31 16 4.56 0.00
 13 31 16 -2.99 0.00
 -10 32 16 -3.89 0.00
 -8 32 16 7.90 0.00
 -6 32 16 1.80 0.00
 -4 32 16 5.74 0.00
 -2 32 16 1.79 0.00
 0 32 16 -1.34 0.00
 2 32 16 -1.23 0.00
 4 32 16 -3.57 0.00
 6 32 16 -0.72 0.00
 8 32 16 2.47 0.00
 10 32 16 4.68 0.00
 -7 33 16 1.83 0.00
 -5 33 16 -0.46 0.00
 -3 33 16 -6.64 0.00
 -1 33 16 -2.26 0.00
 1 33 16 -2.82 0.00
 3 33 16 -6.74 0.00
 5 33 16 -0.73 0.00
 7 33 16 2.89 0.00
 -22 23 17 -14.36 0.00
 22 23 17 -8.19 0.00
 -23 24 17 -8.70 0.00
 -21 24 17 0.45 0.00
 -19 24 17 1.00 0.00
 21 24 17 6.03 0.00
 23 24 17 -3.66 0.00
 -20 25 17 -1.82 0.00
 -18 25 17 0.33 0.00
 18 25 17 -5.13 0.00
 20 25 17 1.50 0.00
 -19 26 17 -1.13 0.00
 -17 26 17 9.63 0.00
 17 26 17 0.69 0.00
 19 26 17 -5.79 0.00
 -18 27 17 5.54 0.00
 -16 27 17 3.39 0.00
 -14 27 17 -1.41 0.00
 16 27 17 4.62 0.00
 18 27 17 5.77 0.00
 -17 28 17 0.37 0.00
 -15 28 17 5.34 0.00
 -13 28 17 -2.91 0.00
 13 28 17 4.16 0.00
 15 28 17 -1.79 0.00
 17 28 17 1.41 0.00
 -16 29 17 3.93 0.00
 -14 29 17 3.59 0.00
 -12 29 17 5.02 0.00
 -10 29 17 2.10 0.00
 10 29 17 13.48 0.00
 12 29 17 -2.33 0.00
 14 29 17 10.64 0.00
 16 29 17 -0.64 0.00
 -13 30 17 -0.35 0.00
 -11 30 17 -4.90 0.00
 -9 30 17 5.15 0.00
 -7 30 17 -2.67 0.00
 7 30 17 -4.73 0.00
 9 30 17 -1.45 0.00
 11 30 17 -2.06 0.00
 13 30 17 0.53 0.00
 -12 31 17 -3.75 0.00
 -10 31 17 -4.28 0.00
 -8 31 17 -1.02 0.00
 -6 31 17 2.18 0.00
 -4 31 17 3.09 0.00
 -2 31 17 6.48 0.00
 0 31 17 2.28 0.00
 2 31 17 1.02 0.00
 4 31 17 -2.01 0.00
 6 31 17 -1.02 0.00
 8 31 17 -4.19 0.00
 10 31 17 -0.48 0.00
 12 31 17 -6.07 0.00
 -9 32 17 -0.08 0.00
 -7 32 17 -2.74 0.00
 -5 32 17 -2.34 0.00
 -3 32 17 2.84 0.00
 -1 32 17 -0.92 0.00
 1 32 17 6.45 0.00
 3 32 17 1.90 0.00
 5 32 17 -1.96 0.00
 7 32 17 7.08 0.00
 9 32 17 3.09 0.00
 -4 33 17 -2.15 0.00
 -2 33 17 -0.97 0.00
 0 33 17 -5.52 0.00
 2 33 17 -1.63 0.00
 4 33 17 -8.82 0.00
 22 22 18 4.78 0.00
 -21 23 18 -7.45 0.00
 21 23 18 -0.59 0.00
 23 23 18 -9.50 0.00
 -22 24 18 -0.79 0.00
 -20 24 18 3.81 0.00
 -18 24 18 -0.51 0.00
 20 24 18 -3.89 0.00
 22 24 18 0.04 0.00
 -21 25 18 -6.29 0.00
 -19 25 18 2.15 0.00
 -17 25 18 3.67 0.00
 17 25 18 3.87 0.00
 19 25 18 -5.44 0.00
 21 25 18 -5.35 0.00
 -18 26 18 -3.03 0.00
 -16 26 18 -5.29 0.00
 16 26 18 6.94 0.00
 18 26 18 -1.39 0.00
 -17 27 18 4.04 0.00
 -15 27 18 4.47 0.00
 -13 27 18 2.37 0.00
 15 27 18 4.20 0.00
 17 27 18 7.43 0.00
 -16 28 18 2.77 0.00
 -14 28 18 -1.51 0.00
 -12 28 18 -2.28 0.00
 12 28 18 -0.13 0.00
 14 28 18 2.78 0.00
 16 28 18 5.91 0.00
 -15 29 18 -3.63 0.00
 -13 29 18 2.66 0.00
 -11 29 18 6.81 0.00
 -9 29 18 6.77 0.00
 9 29 18 2.94 0.00
 11 29 18 4.68 0.00
 13 29 18 -1.80 0.00
 15 29 18 2.29 0.00
 -12 30 18 -1.72 0.00
 -10 30 18 -1.85 0.00
 -8 30 18 -2.33 0.00
 -6 30 18 11.01 0.00
 -4 30 18 5.47 0.00
 -2 30 18 -5.42 0.00
 0 30 18 1.33 0.00
 2 30 18 4.31 0.00
 4 30 18 5.07 0.00
 6 30 18 6.01 0.00
 8 30 18 -3.24 0.00
 10 30 18 2.75 0.00
 12 30 18 -0.74 0.00
 -9 31 18 -5.06 0.00
 -7 31 18 -4.29 0.00
 -5 31 18 3.46 0.00
 -3 31 18 -2.09 0.00
 -1 31 18 -0.32 0.00
 1 31 18 0.22 0.00
 3 31 18 2.15 0.00
 5 31 18 9.34 0.00
 7 31 18 0.80 0.00
 9 31 18 -7.02 0.00
 -6 32 18 1.68 0.00
 -4 32 18 4.44 0.00
 -2 32 18 2.86 0.00
 0 32 18 2.80 0.00
 2 32 18 -3.80 0.00
 4 32 18 -1.05 0.00
 6 32 18 2.08 0.00
 -21 22 19 3.91 0.00
 21 22 19 4.79 0.00
 -22 23 19 8.71 0.00
 -20 23 19 4.18 0.00
 20 23 19 -8.70 0.00
 22 23 19 -1.54 0.00
 -21 24 19 12.14 0.00
 -19 24 19 -3.71 0.00
 -17 24 19 1.19 0.00
 19 24 19 4.37 0.00
 21 24 19 3.70 0.00
 -20 25 19 -3.01 0.00
 -18 25 19 -5.37 0.00
 -16 25 19 -6.10 0.00
 16 25 19 -7.64 0.00
 18 25 19 -4.02 0.00
 20 25 19 -3.27 0.00
 -17 26 19 2.92 0.00
 -15 26 19 1.89 0.00
 15 26 19 -4.69 0.00
 17 26 19 2.83 0.00
 -16 27 19 -4.09 0.00
 -14 27 19 10.16 0.00
 -12 27 19 6.46 0.00
 12 27 19 4.31 0.00
 14 27 19 3.75 0.00
 16 27 19 -3.07 0.00
 -15 28 19 1.94 0.00
 -13 28 19 -7.25 0.00
 -11 28 19 -7.44 0.00
 -9 28 19 1.57 0.00
 11 28 19 8.49 0.00
 13 28 19 -5.02 0.00
 15 28 19 -1.68 0.00
 -12 29 19 -0.52 0.00
 -10 29 19 4.17 0.00
 -8 29 19 7.15 0.00
 -6 29 19 4.81 0.00
 -4 29 19 -4.99 0.00
 -2 29 19 6.92 0.00
 0 29 19 -1.41 0.00
 2 29 19 14.34 0.00
 6 29 19 4.14 0.00
 8 29 19 1.69 0.00
 10 29 19 8.40 0.00
 12 29 19 -4.97 0.00
 -11 30 19 -2.88 0.00
 -9 30 19 1.99 0.00
 -7 30 19 -1.09 0.00
 -5 30 19 -4.03 0.00
 -3 30 19 3.16 0.00
 -1 30 19 1.73 0.00
 1 30 19 0.54 0.00
 3 30 19 7.55 0.00
 5 30 19 3.42 0.00
 7 30 19 0.88 0.00
 9 30 19 -3.75 0.00
 11 30 19 0.03 0.00
 -8 31 19 -4.00 0.00
 -6 31 19 -2.19 0.00
 -4 31 19 -1.71 0.00
 -2 31 19 8.16 0.00
 0 31 19 -3.42 0.00
 2 31 19 -2.76 0.00
 4 31 19 4.10 0.00
 6 31 19 -0.10 0.00
 8 31 19 -6.00 0.00
 -3 32 19 5.30 0.00
 -1 32 19 4.93 0.00
 1 32 19 3.22 0.00
 3 32 19 -0.34 0.00
 21 21 20 -8.26 0.00
 -20 22 20 -5.63 0.00
 20 22 20 -0.75 0.00
 22 22 20 5.22 0.00
 -21 23 20 -2.39 0.00
 -19 23 20 -2.65 0.00
 -17 23 20 -7.76 0.00
 19 23 20 -1.95 0.00
 21 23 20 -5.09 0.00
 -20 24 20 3.87 0.00
 -18 24 20 -9.63 0.00
 -16 24 20 -8.20 0.00
 16 24 20 4.21 0.00
 18 24 20 0.60 0.00
 20 24 20 -7.59 0.00
 -19 25 20 -3.22 0.00
 -17 25 20 -6.62 0.00
 -15 25 20 2.13 0.00
 15 25 20 6.71 0.00
 17 25 20 6.34 0.00
 19 25 20 5.33 0.00
 -16 26 20 -0.50 0.00
 -14 26 20 -2.00 0.00
 14 26 20 -6.22 0.00
 16 26 20 -3.64 0.00
 -15 27 20 8.06 0.00
 -13 27 20 2.38 0.00
 -11 27 20 6.13 0.00
 11 27 20 7.28 0.00
 13 27 20 7.90 0.00
 15 27 20 -7.07 0.00
 -14 28 20 3.34 0.00
 -12 28 20 -3.99 0.00
 -10 28 20 1.63 0.00
 -8 28 20 -9.48 0.00
 -6 28 20 2.21 0.00
 8 28 20 0.42 0.00
 10 28 20 12.34 0.00
 12 28 20 9.10 0.00
 14 28 20 -4.39 0.00
 -11 29 20 7.10 0.00
 -9 29 20 9.26 0.00
 -7 29 20 0.25 0.00
 -5 29 20 0.36 0.00
 -3 29 20 2.62 0.00
 -1 29 20 -0.97 0.00
 1 29 20 -4.51 0.00
 3 29 20 7.27 0.00
 5 29 20 -1.65 0.00
 7 29 20 1.97 0.00
 9 29 20 -0.16 0.00
 11 29 20 3.79 0.00
 -8 30 20 -3.43 0.00
 -6 30 20 -0.64 0.00
 -4 30 20 -2.91 0.00
 -2 30 20 5.61 0.00
 0 30 20 0.04 0.00
 2 30 20 6.72 0.00
 4 30 20 5.76 0.00
 6 30 20 -4.51 0.00
 8 30 20 6.78 0.00
 -5 31 20 -0.77 0.00
 -3 31 20 2.52 0.00
 -1 31 20 3.81 0.00
 1 31 20 -2.18 0.00
 3 31 20 3.54 0.00
 5 31 20 0.42 0.00
 -20 21 21 3.38 0.00
 20 21 21 2.94 0.00
 -21 22 21 -2.82 0.00
 -19 22 21 1.78 0.00
 19 22 21 -0.38 0.00
 21 22 21 2.71 0.00
 -20 23 21 0.30 0.00
 -18 23 21 -1.60 0.00
 -16 23 21 -3.70 0.00
 16 23 21 -11.90 0.00
 18 23 21 0.58 0.00
 20 23 21 0.05 0.00
 -19 24 21 4.98 0.00
 -17 24 21 2.76 0.00
 -15 24 21 3.29 0.00
 15 24 21 -1.25 0.00
 17 24 21 -1.20 0.00
 19 24 21 2.92 0.00
 -18 25 21 -2.75 0.00
 -16 25 21 -3.33 0.00
 -14 25 21 -1.93 0.00
 14 25 21 -4.46 0.00
 16 25 21 -0.01 0.00
 18 25 21 -2.23 0.00
 -15 26 21 1.56 0.00
 -13 26 21 -3.37 0.00
 -11 26 21 -7.73 0.00
 11 26 21 -6.56 0.00
 13 26 21 -0.92 0.00
 15 26 21 1.42 0.00
 -14 27 21 3.23 0.00
 -12 27 21 0.43 0.00
 -10 27 21 5.24 0.00
 -8 27 21 7.58 0.00
 8 27 21 -3.39 0.00
 10 27 21 -9.88 0.00
 12 27 21 5.73 0.00
 14 27 21 5.65 0.00
 -13 28 21 -6.28 0.00
 -11 28 21 -1.77 0.00
 -9 28 21 0.29 0.00
 -7 28 21 4.09 0.00
 -5 28 21 3.20 0.00
 -3 28 21 11.68 0.00
 -1 28 21 3.02 0.00
 1 28 21 1.69 0.00
 3 28 21 -2.53 0.00
 5 28 21 -3.94 0.00
 7 28 21 3.41 0.00
 9 28 21 -11.18 0.00
 11 28 21 -0.96 0.00
 13 28 21 -2.96 0.00
 -10 29 21 5.95 0.00
 -8 29 21 -6.68 0.00
 -6 29 21 1.62 0.00
 -4 29 21 1.79 0.00
 -2 29 21 9.79 0.00
 0 29 21 3.40 0.00
 2 29 21 5.02 0.00
 4 29 21 3.36 0.00
 6 29 21 7.70 0.00
 8 29 21 -2.48 0.00
 10 29 21 -4.05 0.00
 -7 30 21 -8.64 0.00
 -5 30 21 -2.48 0.00
 -3 30 21 -3.54 0.00
 -1 30 21 6.56 0.00
 1 30 21 3.06 0.00
 3 30 21 -0.12 0.00
 5 30 21 4.08 0.00
 7 30 21 4.80 0.00
 0 0 22 84.38 0.00
 20 20 22 7.78 0.00
 -19 21 22 -1.48 0.00
 19 21 22 -0.23 0.00
 21 21 22 -3.10 0.00
 -20 22 22 4.91 0.00
 -18 22 22 -2.11 0.00
 -16 22 22 4.96 0.00
 16 22 22 3.93 0.00
 18 22 22 0.64 0.00
 20 22 22 -5.93 0.00
 -19 23 22 -1.21 0.00
 -17 23 22 4.08 0.00
 -15 23 22 3.66 0.00
 15 23 22 2.28 0.00
 17 23 22 -1.00 0.00
 19 23 22 -1.37 0.00
 -18 24 22 -0.29 0.00
 -16 24 22 1.40 0.00
 -14 24 22 4.62 0.00
 14 24 22 -0.73 0.00
 16 24 22 -2.26 0.00
 18 24 22 -2.71 0.00
 -15 25 22 0.07 0.00
 -13 25 22 1.77 0.00
 -11 25 22 -6.45 0.00
 11 25 22 -6.73 0.00
 13 25 22 8.09 0.00
 15 25 22 5.06 0.00
 -14 26 22 -0.33 0.00
 -12 26 22 -0.04 0.00
 -10 26 22 0.25 0.00
 8 26 22 -2.63 0.00
 10 26 22 0.29 0.00
 12 26 22 -6.39 0.00
 14 26 22 3.30 0.00
 -13 27 22 -3.52 0.00
 -11 27 22 4.58 0.00
 -9 27 22 1.78 0.00
 -7 27 22 13.67 0.00
 -5 27 22 2.67 0.00
 -3 27 22 11.38 0.00
 5 27 22 -6.43 0.00
 7 27 22 -8.79 0.00
 9 27 22 -10.85 0.00
 11 27 22 -7.23 0.00
 13 27 22 6.71 0.00
 -10 28 22 1.22 0.00
 -8 28 22 4.62 0.00
 -6 28 22 6.53 0.00
 -4 28 22 -2.11 0.00
 -2 28 22 5.10 0.00
 0 28 22 0.37 0.00
 2 28 22 9.50 0.00
 4 28 22 1.90 0.00
 6 28 22 4.88 0.00
 8 28 22 3.62 0.00
 10 28 22 2.81 0.00
 -7 29 22 3.84 0.00
 -5 29 22 1.07 0.00
 -3 29 22 6.44 0.00
 -1 29 22 -3.56 0.00
 1 29 22 -4.98 0.00
 3 29 22 -6.47 0.00
 5 29 22 -1.39 0.00
 7 29 22 6.98 0.00
 -2 30 22 1.09 0.00
 0 30 22 1.51 0.00
 2 30 22 3.79 0.00
 -19 20 23 2.74 0.00
 19 20 23 -5.69 0.00
 -20 21 23 2.29 0.00
 -18 21 23 10.49 0.00
 -16 21 23 -2.87 0.00
 16 21 23 1.59 0.00
 18 21 23 4.67 0.00
 20 21 23 1.17 0.00
 -19 22 23 5.91 0.00
 -17 22 23 1.48 0.00
 -15 22 23 0.60 0.00
 15 22 23 4.42 0.00
 17 22 23 6.57 0.00
 19 22 23 0.70 0.00
 -18 23 23 1.16 0.00
 -16 23 23 -1.62 0.00
 -14 23 23 -0.84 0.00
 14 23 23 -4.68 0.00
 16 23 23 -10.65 0.00
 18 23 23 0.81 0.00
 -17 24 23 4.58 0.00
 -15 24 23 7.29 0.00
 -13 24 23 1.73 0.00
 11 24 23 -3.65 0.00
 13 24 23 6.21 0.00
 15 24 23 -3.37 0.00
 17 24 23 -3.14 0.00
 -14 25 23 0.12 0.00
 -12 25 23 2.15 0.00
 -10 25 23 -3.43 0.00
 10 25 23 -2.53 0.00
 12 25 23 4.96 0.00
 14 25 23 0.48 0.00
 -13 26 23 -2.14 0.00
 -11 26 23 -8.91 0.00
 -9 26 23 3.80 0.00
 -7 26 23 3.45 0.00
 -5 26 23 -3.20 0.00
 5 26 23 0.85 0.00
 7 26 23 -6.32 0.00
 9 26 23 -5.11 0.00
 11 26 23 -4.62 0.00
 13 26 23 2.05 0.00
 -10 27 23 -1.16 0.00
 -8 27 23 8.92 0.00
 -6 27 23 2.41 0.00
 -4 27 23 3.43 0.00
 -2 27 23 0.09 0.00
 0 27 23 4.25 0.00
 2 27 23 1.63 0.00
 4 27 23 2.02 0.00
 6 27 23 -3.80 0.00
 8 27 23 -6.79 0.00
 10 27 23 0.78 0.00
 -9 28 23 0.12 0.00
 -7 28 23 2.29 0.00
 -5 28 23 -2.31 0.00
 -3 28 23 6.25 0.00
 -1 28 23 -1.24 0.00
 1 28 23 4.88 0.00
 3 28 23 -4.17 0.00
 5 28 23 -5.11 0.00
 7 28 23 2.67 0.00
 9 28 23 6.16 0.00
 -4 29 23 3.29 0.00
 -2 29 23 2.13 0.00
 0 29 23 -3.34 0.00
 2 29 23 7.03 0.00
 4 29 23 -2.46 0.00
 -17 19 24 -2.38 0.00
 17 19 24 3.20 0.00
 19 19 24 1.76 0.00
 -18 20 24 9.95 0.00
 -16 20 24 10.77 0.00
 16 20 24 -8.16 0.00
 18 20 24 4.05 0.00
 20 20 24 7.45 0.00
 -19 21 24 -1.22 0.00
 -17 21 24 3.43 0.00
 -15 21 24 0.17 0.00
 15 21 24 -8.10 0.00
 17 21 24 -1.95 0.00
 19 21 24 4.66 0.00
 -18 22 24 1.97 0.00
 -16 22 24 -3.50 0.00
 -14 22 24 3.15 0.00
 14 22 24 0.45 0.00
 16 22 24 -3.70 0.00
 18 22 24 2.54 0.00
 -17 23 24 0.52 0.00
 -15 23 24 0.55 0.00
 -13 23 24 3.11 0.00
 11 23 24 0.92 0.00
 13 23 24 1.97 0.00
 15 23 24 2.90 0.00
 17 23 24 2.80 0.00
 -14 24 24 1.80 0.00
 -12 24 24 -6.36 0.00
 -10 24 24 8.30 0.00
 10 24 24 14.45 0.00
 12 24 24 1.66 0.00
 14 24 24 1.79 0.00
 -13 25 24 -5.41 0.00
 -11 25 24 -7.50 0.00
 -9 25 24 7.40 0.00
 -7 25 24 -2.14 0.00
 -5 25 24 0.01 0.00
 5 25 24 -8.81 0.00
 7 25 24 -2.99 0.00
 9 25 24 7.25 0.00
 11 25 24 -3.39 0.00
 13 25 24 1.98 0.00
 -12 26 24 1.62 0.00
 -10 26 24 9.42 0.00
 -8 26 24 8.71 0.00
 -6 26 24 -3.63 0.00
 -4 26 24 1.42 0.00
 -2 26 24 -7.08 0.00
 0 26 24 -0.56 0.00
 2 26 24 -1.12 0.00
 4 26 24 -4.52 0.00
 6 26 24 5.68 0.00
 8 26 24 5.97 0.00
 10 26 24 5.30 0.00
 12 26 24 -2.13 0.00
 -9 27 24 0.33 0.00
 -7 27 24 -0.98 0.00
 -5 27 24 -4.33 0.00
 -3 27 24 0.92 0.00
 -1 27 24 0.61 0.00
 1 27 24 6.88 0.00
 3 27 24 -5.54 0.00
 5 27 24 2.21 0.00
 7 27 24 3.45 0.00
 9 27 24 -7.10 0.00
 -6 28 24 -1.40 0.00
 -4 28 24 -1.43 0.00
 -2 28 24 -4.37 0.00
 0 28 24 4.95 0.00
 2 28 24 -0.04 0.00
 4 28 24 -3.26 0.00
 6 28 24 8.83 0.00
 -17 18 25 2.25 0.00
 17 18 25 8.93 0.00
 -18 19 25 7.73 0.00
 -16 19 25 -0.03 0.00
 16 19 25 -0.46 0.00
 18 19 25 4.12 0.00
 -19 20 25 -1.37 0.00
 -17 20 25 3.25 0.00
 -15 20 25 -0.18 0.00
 15 20 25 -10.77 0.00
 17 20 25 -2.96 0.00
 19 20 25 -3.28 0.00
 -18 21 25 7.64 0.00
 -16 21 25 3.81 0.00
 -14 21 25 -2.08 0.00
 14 21 25 -5.68 0.00
 16 21 25 -5.77 0.00
 18 21 25 3.42 0.00
 -15 22 25 8.54 0.00
 -13 22 25 2.50 0.00
 -11 22 25 -11.52 0.00
 11 22 25 4.13 0.00
 13 22 25 -2.32 0.00
 15 22 25 -0.66 0.00
 -14 23 25 3.75 0.00
 -12 23 25 -6.31 0.00
 -10 23 25 -6.36 0.00
 10 23 25 2.47 0.00
 12 23 25 1.94 0.00
 14 23 25 3.94 0.00
 -13 24 25 2.66 0.00
 -11 24 25 -1.76 0.00
 -9 24 25 -3.66 0.00
 -7 24 25 -6.70 0.00
 -5 24 25 12.42 0.00
 3 24 25 -2.78 0.00
 5 24 25 10.91 0.00
 7 24 25 -5.82 0.00
 9 24 25 5.96 0.00
 11 24 25 2.29 0.00
 13 24 25 2.27 0.00
 -12 25 25 2.41 0.00
 -10 25 25 6.10 0.00
 -8 25 25 8.30 0.00
 -6 25 25 -2.56 0.00
 -4 25 25 11.14 0.00
 -2 25 25 -8.03 0.00
 0 25 25 3.20 0.00
 2 25 25 4.01 0.00
 4 25 25 7.76 0.00
 6 25 25 2.23 0.00
 8 25 25 2.38 0.00
 10 25 25 8.42 0.00
 12 25 25 -0.10 0.00
 -9 26 25 10.07 0.00
 -7 26 25 -7.95 0.00
 -5 26 25 -0.32 0.00
 -3 26 25 -0.89 0.00
 -1 26 25 -7.42 0.00
 1 26 25 1.53 0.00
 3 26 25 -1.53 0.00
 5 26 25 2.91 0.00
 7 26 25 3.12 0.00
 9 26 25 4.57 0.00
 -6 27 25 -9.05 0.00
 -4 27 25 -2.82 0.00
 -2 27 25 -5.56 0.00
 0 27 25 1.71 0.00
 2 27 25 1.17 0.00
 4 27 25 2.80 0.00
 6 27 25 1.55 0.00
 17 17 26 -3.87 0.00
 -16 18 26 -0.07 0.00
 16 18 26 -1.10 0.00
 18 18 26 1.69 0.00
 -17 19 26 -4.57 0.00
 -15 19 26 -7.65 0.00
 15 19 26 3.37 0.00
 17 19 26 -0.76 0.00
 -16 20 26 6.08 0.00
 -14 20 26 3.62 0.00
 12 20 26 -8.34 0.00
 14 20 26 1.47 0.00
 16 20 26 -3.05 0.00
 -15 21 26 6.13 0.00
 -13 21 26 5.86 0.00
 -11 21 26 1.63 0.00
 11 21 26 7.44 0.00
 13 21 26 8.00 0.00
 15 21 26 3.09 0.00
 -14 22 26 1.60 0.00
 -12 22 26 -9.00 0.00
 -10 22 26 -10.31 0.00
 10 22 26 -3.76 0.00
 12 22 26 -1.04 0.00
 14 22 26 1.24 0.00
 -13 23 26 2.21 0.00
 -11 23 26 -3.26 0.00
 -9 23 26 -2.05 0.00
 -7 23 26 -10.72 0.00
 -5 23 26 3.28 0.00
 5 23 26 -2.42 0.00
 7 23 26 6.97 0.00
 9 23 26 -3.47 0.00
 11 23 26 1.16 0.00
 13 23 26 11.47 0.00
 -12 24 26 2.74 0.00
 -10 24 26 4.92 0.00
 -8 24 26 -4.85 0.00
 -6 24 26 9.02 0.00
 -4 24 26 12.14 0.00
 -2 24 26 1.66 0.00
 0 24 26 11.87 0.00
 2 24 26 6.23 0.00
 4 24 26 5.51 0.00
 6 24 26 16.00 0.00
 8 24 26 3.46 0.00
 10 24 26 -7.02 0.00
 12 24 26 9.49 0.00
 -9 25 26 0.33 0.00
 -7 25 26 -2.45 0.00
 -5 25 26 4.88 0.00
 -3 25 26 -2.78 0.00
 -1 25 26 -0.89 0.00
 1 25 26 -0.57 0.00
 3 25 26 4.54 0.00
 5 25 26 7.30 0.00
 7 25 26 1.57 0.00
 9 25 26 -6.75 0.00
 -6 26 26 -1.00 0.00
 -4 26 26 0.24 0.00
 -2 26 26 -2.38 0.00
 0 26 26 3.91 0.00
 2 26 26 -2.93 0.00
 4 26 26 5.66 0.00
 6 26 26 9.09 0.00
 -16 17 27 -4.51 0.00
 16 17 27 -2.89 0.00
 -17 18 27 -5.45 0.00
 -15 18 27 -3.09 0.00
 -13 18 27 -3.23 0.00
 15 18 27 0.45 0.00
 17 18 27 -1.27 0.00
 -16 19 27 -1.80 0.00
 -14 19 27 1.62 0.00
 -12 19 27 4.91 0.00
 12 19 27 0.76 0.00
 14 19 27 -1.42 0.00
 16 19 27 -2.10 0.00
 -15 20 27 2.79 0.00
 -13 20 27 6.36 0.00
 -11 20 27 10.18 0.00
 11 20 27 1.65 0.00
 13 20 27 0.78 0.00
 15 20 27 -1.04 0.00
 -14 21 27 -5.64 0.00
 -12 21 27 -2.04 0.00
 -10 21 27 -4.02 0.00
 -8 21 27 -6.00 0.00
 8 21 27 1.36 0.00
 10 21 27 4.35 0.00
 12 21 27 4.27 0.00
 14 21 27 6.13 0.00
 -13 22 27 0.59 0.00
 -11 22 27 1.76 0.00
 -9 22 27 -1.13 0.00
 -7 22 27 -4.55 0.00
 -5 22 27 1.15 0.00
 -3 22 27 4.75 0.00
 5 22 27 6.18 0.00
 7 22 27 2.55 0.00
 9 22 27 -2.65 0.00
 11 22 27 1.12 0.00
 13 22 27 2.20 0.00
 -10 23 27 1.26 0.00
 -8 23 27 -4.15 0.00
 -6 23 27 -7.62 0.00
 -4 23 27 3.68 0.00
 -2 23 27 -3.26 0.00
 0 23 27 -6.43 0.00
 2 23 27 -1.14 0.00
 4 23 27 -10.92 0.00
 6 23 27 5.81 0.00
 8 23 27 -0.87 0.00
 10 23 27 -8.60 0.00
 -9 24 27 -7.51 0.00
 -7 24 27 -4.54 0.00
 -5 24 27 0.05 0.00
 -3 24 27 5.93 0.00
 -1 24 27 -1.27 0.00
 1 24 27 2.01 0.00
 3 24 27 2.14 0.00
 5 24 27 7.80 0.00
 7 24 27 3.55 0.00
 9 24 27 -2.90 0.00
 -6 25 27 -3.94 0.00
 -4 25 27 -3.51 0.00
 -2 25 27 0.15 0.00
 0 25 27 0.86 0.00
 2 25 27 5.26 0.00
 4 25 27 0.97 0.00
 6 25 27 4.25 0.00
 15 15 28 -6.11 0.00
 -14 16 28 -5.98 0.00
 14 16 28 9.21 0.00
 16 16 28 3.17 0.00
 -15 17 28 -8.28 0.00
 -13 17 28 -1.97 0.00
 13 17 28 7.62 0.00
 15 17 28 5.67 0.00
 17 17 28 -6.65 0.00
 -16 18 28 1.34 0.00
 -14 18 28 2.32 0.00
 -12 18 28 4.47 0.00
 12 18 28 3.70 0.00
 14 18 28 1.42 0.00
 16 18 28 2.52 0.00
 -15 19 28 -0.84 0.00
 -13 19 28 15.06 0.00
 -11 19 28 9.61 0.00
 11 19 28 4.09 0.00
 13 19 28 6.72 0.00
 15 19 28 -1.86 0.00
 -14 20 28 0.08 0.00
 -12 20 28 5.42 0.00
 -10 20 28 -1.31 0.00
 -8 20 28 -8.82 0.00
 8 20 28 0.67 0.00
 10 20 28 -1.34 0.00
 12 20 28 3.53 0.00
 14 20 28 0.78 0.00
 -13 21 28 8.77 0.00
 -11 21 28 10.94 0.00
 -9 21 28 6.25 0.00
 -7 21 28 -1.95 0.00
 -5 21 28 2.05 0.00
 -3 21 28 -5.39 0.00
 -1 21 28 4.31 0.00
 3 21 28 4.65 0.00
 5 21 28 8.26 0.00
 7 21 28 -1.31 0.00
 9 21 28 -1.68 0.00
 11 21 28 2.49 0.00
 13 21 28 5.22 0.00
 -10 22 28 -3.12 0.00
 -8 22 28 3.31 0.00
 -6 22 28 1.27 0.00
 -4 22 28 0.27 0.00
 -2 22 28 -4.12 0.00
 0 22 28 5.30 0.00
 2 22 28 3.16 0.00
 4 22 28 0.05 0.00
 6 22 28 2.22 0.00
 8 22 28 -0.47 0.00
 10 22 28 1.74 0.00
 -9 23 28 2.92 0.00
 -7 23 28 -4.05 0.00
 -5 23 28 2.14 0.00
 -3 23 28 -11.10 0.00
 -1 23 28 -9.80 0.00
 1 23 28 -0.68 0.00
 3 23 28 -5.68 0.00
 5 23 28 4.19 0.00
 7 23 28 -6.58 0.00
 9 23 28 -3.09 0.00
 -6 24 28 5.93 0.00
 -4 24 28 2.15 0.00
 -2 24 28 -0.84 0.00
 0 24 28 2.41 0.00
 2 24 28 2.07 0.00
 4 24 28 -0.64 0.00
 6 24 28 6.07 0.00
 -14 15 29 -7.69 0.00
 14 15 29 9.13 0.00
 -15 16 29 -2.31 0.00
 -13 16 29 -0.83 0.00
 13 16 29 -4.70 0.00
 15 16 29 1.80 0.00
 -16 17 29 3.78 0.00
 -14 17 29 -6.62 0.00
 -12 17 29 2.44 0.00
 10 17 29 3.30 0.00
 12 17 29 -4.85 0.00
 14 17 29 1.34 0.00
 16 17 29 3.29 0.00
 -15 18 29 0.83 0.00
 -13 18 29 1.03 0.00
 -11 18 29 5.24 0.00
 -9 18 29 5.93 0.00
 9 18 29 0.35 0.00
 11 18 29 -8.44 0.00
 13 18 29 -1.84 0.00
 15 18 29 2.24 0.00
 -12 19 29 -1.28 0.00
 -10 19 29 -3.04 0.00
 -8 19 29 -4.65 0.00
 -6 19 29 -8.48 0.00
 -4 19 29 -11.68 0.00
 6 19 29 3.59 0.00
 8 19 29 7.16 0.00
 10 19 29 -5.12 0.00
 12 19 29 1.63 0.00
 -11 20 29 0.92 0.00
 -9 20 29 4.47 0.00
 -7 20 29 -8.57 0.00
 -5 20 29 -3.35 0.00
 -3 20 29 -7.46 0.00
 -1 20 29 -7.43 0.00
 1 20 29 0.29 0.00
 3 20 29 5.22 0.00
 5 20 29 3.03 0.00
 7 20 29 1.43 0.00
 9 20 29 -1.40 0.00
 11 20 29 -3.27 0.00
 -10 21 29 -5.76 0.00
 -8 21 29 -8.72 0.00
 -6 21 29 -1.24 0.00
 -4 21 29 -7.47 0.00
 -2 21 29 -1.69 0.00
 0 21 29 7.20 0.00
 2 21 29 -1.92 0.00
 4 21 29 3.61 0.00
 6 21 29 -2.62 0.00
 8 21 29 0.05 0.00
 10 21 29 -3.25 0.00
 -7 22 29 -0.80 0.00
 -5 22 29 0.56 0.00
 -3 22 29 0.00 0.00
 -1 22 29 5.24 0.00
 1 22 29 0.51 0.00
 3 22 29 -1.05 0.00
 5 22 29 3.42 0.00
 7 22 29 -5.58 0.00
 -4 23 29 -4.99 0.00
 -2 23 29 -2.08 0.00
 0 23 29 2.47 0.00
 2 23 29 -0.98 0.00
 4 23 29 -3.75 0.00
 13 13 30 -1.47 0.00
 -12 14 30 -6.14 0.00
 12 14 30 -5.05 0.00
 14 14 30 3.80 0.00
 -13 15 30 0.91 0.00
 -11 15 30 2.16 0.00
 11 15 30 -16.06 0.00
 13 15 30 -7.10 0.00
 15 15 30 -7.62 0.00
 -14 16 30 3.10 0.00
 -12 16 30 6.01 0.00
 -10 16 30 2.30 0.00
 10 16 30 5.96 0.00
 12 16 30 -9.61 0.00
 14 16 30 -7.21 0.00
 -13 17 30 1.92 0.00
 -11 17 30 2.43 0.00
 -9 17 30 -3.72 0.00
 -7 17 30 -8.50 0.00
 7 17 30 0.00 0.00
 9 17 30 5.26 0.00
 11 17 30 6.52 0.00
 13 17 30 -7.65 0.00
 -12 18 30 1.59 0.00
 -10 18 30 0.38 0.00
 -8 18 30 -1.13 0.00
 -6 18 30 -1.58 0.00
 -4 18 30 3.69 0.00
 -2 18 30 3.08 0.00
 0 18 30 -10.44 0.00
 2 18 30 2.10 0.00
 4 18 30 -10.48 0.00
 6 18 30 -3.12 0.00
 8 18 30 2.89 0.00
 10 18 30 1.87 0.00
 12 18 30 -0.67 0.00
 -11 19 30 -0.91 0.00
 -9 19 30 0.86 0.00
 -7 19 30 -1.69 0.00
 -5 19 30 -3.43 0.00
 -3 19 30 4.43 0.00
 -1 19 30 0.49 0.00
 1 19 30 -0.14 0.00
 3 19 30 -0.90 0.00
 5 19 30 -5.53 0.00
 7 19 30 -0.58 0.00
 9 19 30 -7.68 0.00
 11 19 30 -1.27 0.00
 -8 20 30 -1.76 0.00
 -6 20 30 -2.24 0.00
 -4 20 30 -0.55 0.00
 -2 20 30 -4.14 0.00
 0 20 30 0.66 0.00
 2 20 30 9.16 0.00
 4 20 30 -0.52 0.00
 6 20 30 -1.53 0.00
 8 20 30 0.30 0.00
 -7 21 30 1.78 0.00
 -5 21 30 -4.39 0.00
 -3 21 30 -3.19 0.00
 -1 21 30 1.91 0.00
 1 21 30 5.49 0.00
 3 21 30 -1.40 0.00
 5 21 30 1.66 0.00
 7 21 30 -2.27 0.00
 -2 22 30 6.37 0.00
 0 22 30 2.39 0.00
 2 22 30 5.94 0.00
 -12 13 31 -7.19 0.00
 10 13 31 2.02 0.00
 12 13 31 6.19 0.00
 -13 14 31 -4.84 0.00
 -11 14 31 -9.47 0.00
 -9 14 31 1.40 0.00
 9 14 31 4.69 0.00
 11 14 31 -6.70 0.00
 13 14 31 -8.38 0.00
 -14 15 31 -0.51 0.00
 -12 15 31 -4.38 0.00
 -10 15 31 -5.39 0.00
 -8 15 31 -4.99 0.00
 8 15 31 5.55 0.00
 10 15 31 7.40 0.00
 12 15 31 -7.04 0.00
 14 15 31 5.68 0.00
 -13 16 31 5.61 0.00
 -11 16 31 -0.78 0.00
 -9 16 31 -0.78 0.00
 -7 16 31 -6.87 0.00
 -5 16 31 -4.28 0.00
 3 16 31 -3.59 0.00
 5 16 31 -6.70 0.00
 7 16 31 -4.62 0.00
 9 16 31 0.94 0.00
 11 16 31 -6.50 0.00
 13 16 31 -12.30 0.00
 -12 17 31 -0.87 0.00
 -10 17 31 0.22 0.00
 -8 17 31 -9.14 0.00
 -6 17 31 -1.49 0.00
 -4 17 31 4.20 0.00
 -2 17 31 -1.69 0.00
 0 17 31 -4.05 0.00
 2 17 31 -4.45 0.00
 4 17 31 -0.20 0.00
 6 17 31 -0.56 0.00
 8 17 31 -3.80 0.00
 10 17 31 4.44 0.00
 12 17 31 -4.93 0.00
 -9 18 31 2.44 0.00
 -7 18 31 -9.40 0.00
 -5 18 31 7.95 0.00
 -3 18 31 10.97 0.00
 -1 18 31 6.21 0.00
 1 18 31 2.84 0.00
 3 18 31 -0.88 0.00
 5 18 31 -0.39 0.00
 7 18 31 4.73 0.00
 9 18 31 -1.59 0.00
 -8 19 31 -5.10 0.00
 -6 19 31 -0.39 0.00
 -4 19 31 5.85 0.00
 -2 19 31 2.55 0.00
 0 19 31 -1.02 0.00
 2 19 31 -5.68 0.00
 4 19 31 -5.26 0.00
 6 19 31 4.80 0.00
 8 19 31 -0.48 0.00
 -5 20 31 3.91 0.00
 -3 20 31 0.34 0.00
 -1 20 31 -3.29 0.00
 1 20 31 -0.75 0.00
 3 20 31 -7.34 0.00
 5 20 31 -7.77 0.00
 11 11 32 5.81 0.00
 -10 12 32 8.65 0.00
 8 12 32 0.81 0.00
 10 12 32 -2.16 0.00
 12 12 32 8.78 0.00
 -11 13 32 -2.35 0.00
 -9 13 32 -11.30 0.00
 -7 13 32 -1.21 0.00
 7 13 32 0.15 0.00
 9 13 32 -5.02 0.00
 11 13 32 -3.99 0.00
 13 13 32 -5.22 0.00
 -12 14 32 0.15 0.00
 -10 14 32 -1.86 0.00
 -8 14 32 5.17 0.00
 -6 14 32 15.35 0.00
 4 14 32 0.63 0.00
 6 14 32 6.98 0.00
 8 14 32 8.42 0.00
 10 14 32 -0.34 0.00
 12 14 32 -2.89 0.00
 -11 15 32 -1.20 0.00
 -9 15 32 -5.22 0.00
 -7 15 32 24.99 0.00
 -5 15 32 2.09 0.00
 -3 15 32 -7.79 0.00
 -1 15 32 8.58 0.00
 1 15 32 3.70 0.00
 3 15 32 -5.07 0.00
 5 15 32 2.47 0.00
 7 15 32 9.96 0.00
 9 15 32 4.53 0.00
 11 15 32 -4.94 0.00
 -10 16 32 -8.07 0.00
 -8 16 32 -1.91 0.00
 -6 16 32 11.55 0.00
 -4 16 32 -7.81 0.00
 -2 16 32 -1.52 0.00
 0 16 32 -5.67 0.00
 2 16 32 -5.31 0.00
 4 16 32 -13.67 0.00
 6 16 32 1.17 0.00
 8 16 32 5.74 0.00
 10 16 32 3.31 0.00
 -9 17 32 -4.05 0.00
 -7 17 32 5.38 0.00
 -5 17 32 -0.70 0.00
 -3 17 32 9.12 0.00
 -1 17 32 12.72 0.00
 1 17 32 2.08 0.00
 3 17 32 -5.18 0.00
 5 17 32 1.78 0.00
 7 17 32 -0.73 0.00
 9 17 32 -0.68 0.00
 -6 18 32 -0.67 0.00
 -4 18 32 3.52 0.00
 -2 18 32 10.34 0.00
 0 18 32 -0.51 0.00
 2 18 32 0.95 0.00
 4 18 32 -3.43 0.00
 6 18 32 -3.04 0.00
 -3 19 32 11.85 0.00
 -1 19 32 9.04 0.00
 1 19 32 3.83 0.00
 3 19 32 -2.29 0.00
 -8 9 33 0.91 0.00
 8 9 33 -12.42 0.00
 -9 10 33 -5.23 0.00
 -7 10 33 2.43 0.00
 7 10 33 6.29 0.00
 9 10 33 1.97 0.00
 -10 11 33 9.59 0.00
 -8 11 33 2.69 0.00
 -6 11 33 5.39 0.00
 4 11 33 10.01 0.00
 6 11 33 1.37 0.00
 8 11 33 -0.75 0.00
 10 11 33 4.75 0.00
 -11 12 33 -1.04 0.00
 -9 12 33 -3.13 0.00
 -7 12 33 -2.55 0.00
 -5 12 33 -1.39 0.00
 -3 12 33 -1.00 0.00
 3 12 33 3.07 0.00
 5 12 33 13.28 0.00
 7 12 33 13.17 0.00
 9 12 33 3.95 0.00
 11 12 33 7.24 0.00
 -10 13 33 -2.13 0.00
 -8 13 33 1.91 0.00
 -6 13 33 -7.03 0.00
 -4 13 33 2.72 0.00
 -2 13 33 9.79 0.00
 0 13 33 -11.85 0.00
 2 13 33 -8.54 0.00
 4 13 33 17.67 0.00
 6 13 33 6.56 0.00
 8 13 33 11.90 0.00
 10 13 33 -0.25 0.00
 -9 14 33 3.37 0.00
 -7 14 33 4.66 0.00
 -5 14 33 -0.87 0.00
 -3 14 33 4.18 0.00
 -1 14 33 4.91 0.00
 1 14 33 -1.34 0.00
 3 14 33 1.83 0.00
 5 14 33 -4.47 0.00
 7 14 33 6.76 0.00
 9 14 33 6.07 0.00
 -8 15 33 4.12 0.00
 -6 15 33 -3.43 0.00
 -4 15 33 -3.97 0.00
 -2 15 33 4.45 0.00
 0 15 33 2.31 0.00
 2 15 33 6.09 0.00
 4 15 33 -2.99 0.00
 6 15 33 -6.25 0.00
 8 15 33 4.60 0.00
 -7 16 33 2.84 0.00
 -5 16 33 -0.19 0.00
 -3 16 33 2.94 0.00
 -1 16 33 -1.31 0.00
 1 16 33 7.19 0.00
 3 16 33 5.17 0.00
 5 16 33 -9.43 0.00
 7 16 33 4.23 0.00
 -4 17 33 -2.50 0.00
 -2 17 33 0.52 0.00
 0 17 33 -6.31 0.00
 2 17 33 2.54 0.00
 4 17 33 4.20 0.00
 -5 7 34 1.31 0.00
 5 7 34 -3.60 0.00
 7 7 34 -5.01 0.00
 -6 8 34 -3.07 0.00
 -4 8 34 6.12 0.00
 4 8 34 4.81 0.00
 6 8 34 5.80 0.00
 8 8 34 0.88 0.00
 -7 9 34 -2.36 0.00
 -5 9 34 0.80 0.00
 -3 9 34 14.27 0.00
 -1 9 34 -7.53 0.00
 1 9 34 -3.78 0.00
 3 9 34 4.98 0.00
 5 9 34 -2.78 0.00
 7 9 34 4.25 0.00
 9 9 34 2.28 0.00
 -8 10 34 -5.75 0.00
 -6 10 34 2.17 0.00
 -4 10 34 -3.12 0.00
 -2 10 34 -0.60 0.00
 0 10 34 1.83 0.00
 2 10 34 8.38 0.00
 4 10 34 -3.74 0.00
 6 10 34 9.93 0.00
 8 10 34 6.20 0.00
 10 10 34 2.34 0.00
 -9 11 34 -7.05 0.00
 -7 11 34 3.12 0.00
 -5 11 34 1.78 0.00
 -3 11 34 -8.98 0.00
 -1 11 34 -4.43 0.00
 1 11 34 -1.13 0.00
 3 11 34 -13.09 0.00
 5 11 34 -10.44 0.00
 7 11 34 6.40 0.00
 9 11 34 0.65 0.00
 11 11 34 -0.73 0.00
 -8 12 34 -3.13 0.00
 -6 12 34 10.59 0.00
 -4 12 34 -1.89 0.00
 -2 12 34 -3.65 0.00
 0 12 34 6.70 0.00
 2 12 34 -0.18 0.00
 4 12 34 -3.86 0.00
 6 12 34 8.26 0.00
 8 12 34 5.23 0.00
 -7 13 34 -2.91 0.00
 -5 13 34 1.01 0.00
 -3 13 34 -0.54 0.00
 -1 13 34 -3.86 0.00
 1 13 34 -0.19 0.00
 3 13 34 -3.32 0.00
 5 13 34 7.38 0.00
 7 13 34 2.47 0.00
 -6 14 34 -1.82 0.00
 -4 14 34 1.29 0.00
 -2 14 34 -1.66 0.00
 0 14 34 4.44 0.00
 2 14 34 7.25 0.00
 4 14 34 7.82 0.00
 6 14 34 4.69 0.00
 -3 15 34 5.00 0.00
 -1 15 34 2.92 0.00
 1 15 34 -0.20 0.00
 3 15 34 1.34 0.00
 0 0 0 0.00 0.00
# SQUEEZE RESULTS (Version = 150216)
# Note: Data are Listed for all Voids in the P1 Unit Cell
# i.e. Centre of Gravity, Solvent Accessible Volume,
# Recovered number of Electrons in the Void and
# Details about the Squeezed Material
;
_platon_squeeze_void_probe_radius 1.20
_olex2_submission_special_instructions 'No special instructions were received'
_oxdiff_exptl_absorpt_empirical_details
;
Empirical correction (ABSPACK) includes:
- Absorption correction using spherical harmonics
- Frame scaling
;
_oxdiff_exptl_absorpt_empirical_full_max 1.822
_oxdiff_exptl_absorpt_empirical_full_min 0.606
loop_
_space_group_symop_operation_xyz
'x, y, z'
'-y, x, z'
'-x, -y, z'
'y, -x, z'
'x+1/2, y+1/2, z+1/2'
'-y+1/2, x+1/2, z+1/2'
'-x+1/2, -y+1/2, z+1/2'
'y+1/2, -x+1/2, z+1/2'
'-x, -y, -z'
'y, -x, -z'
'x, y, -z'
'-y, x, -z'
'-x+1/2, -y+1/2, -z+1/2'
'y+1/2, -x+1/2, -z+1/2'
'x+1/2, y+1/2, -z+1/2'
'-y+1/2, x+1/2, -z+1/2'
loop_
_atom_site_label
_atom_site_type_symbol
_atom_site_fract_x
_atom_site_fract_y
_atom_site_fract_z
_atom_site_U_iso_or_equiv
_atom_site_adp_type
_atom_site_occupancy
_atom_site_site_symmetry_order
_atom_site_calc_flag
_atom_site_refinement_flags_posn
_atom_site_refinement_flags_adp
_atom_site_refinement_flags_occupancy
_atom_site_disorder_assembly
_atom_site_disorder_group
Pd1 Pd -0.18258(3) 0.31269(3) 0.0000 0.0730(3) Uani 1 2 d S T P . .
Pd2 Pd 0.0000 0.0000 0.37580(5) 0.0841(4) Uani 1 4 d S T P . .
O1 O -0.0097(2) 0.3458(2) 0.1706(2) 0.0850(15) Uani 1 1 d . . . . .
O2 O 0.07239(19) 0.22415(19) 0.3155(2) 0.0795(14) Uani 1 1 d . . . . .
O3 O 0.19031(19) 0.30553(18) 0.16991(19) 0.0752(14) Uani 1 1 d . . . . .
N1 N -0.1369(2) 0.3327(2) 0.0497(3) 0.0735(17) Uani 1 1 d . . . . .
N2 N -0.0611(3) 0.3975(3) 0.1973(3) 0.107(3) Uani 1 1 d . . . . .
N3 N -0.0225(3) 0.3966(3) 0.2274(3) 0.108(3) Uani 1 1 d . . . . .
N4 N 0.1062(3) 0.2715(3) 0.3666(3) 0.102(3) Uani 1 1 d . . . . .
N5 N 0.0948(3) 0.2298(3) 0.3888(3) 0.095(2) Uani 1 1 d . . . . .
N6 N 0.0242(2) 0.0662(2) 0.3734(3) 0.0812(18) Uani 1 1 d . . . . .
N7 N 0.2061(3) 0.3776(3) 0.1890(3) 0.097(2) Uani 1 1 d . . . . .
H7 H 0.2048 0.4053 0.2023 0.116 Uiso 1 1 calc R . . . .
N8 N 0.2393(3) 0.3630(3) 0.1569(3) 0.096(2) Uani 1 1 d . . . . .
N9 N 0.2890(2) 0.2275(2) 0.0506(2) 0.0682(15) Uani 1 1 d . . . . .
C1 C -0.1022(3) 0.3058(3) 0.0637(3) 0.090(3) Uani 1 1 d . . . . .
H1 H -0.0975 0.2769 0.0480 0.109 Uiso 1 1 calc R . . . .
C2 C -0.0725(3) 0.3170(3) 0.0996(3) 0.086(2) Uani 1 1 d . . . . .
H2 H -0.0474 0.2965 0.1071 0.103 Uiso 1 1 calc R . . . .
C3 C -0.0786(3) 0.3563(3) 0.1239(4) 0.087(2) Uani 1 1 d . . . . .
C4 C -0.1151(3) 0.3864(3) 0.1089(3) 0.083(2) Uani 1 1 d . . . . .
H4 H -0.1202 0.4155 0.1240 0.100 Uiso 1 1 calc R . . . .
C5 C -0.1427(3) 0.3731(3) 0.0727(3) 0.077(2) Uani 1 1 d . . . . .
H5 H -0.1674 0.3934 0.0633 0.092 Uiso 1 1 calc R . . . .
C6 C -0.0513(3) 0.3683(3) 0.1649(3) 0.090(3) Uani 1 1 d . . . . .
C7 C 0.0067(3) 0.3656(3) 0.2110(3) 0.086(2) Uani 1 1 d . . . . .
C8 C 0.0506(4) 0.3471(3) 0.2294(4) 0.091(3) Uani 1 1 d . . . . .
C9 C 0.0496(3) 0.3178(3) 0.2693(3) 0.078(2) Uani 1 1 d . . . . .
C10 C 0.0927(3) 0.3010(3) 0.2850(3) 0.081(2) Uani 1 1 d . . . . .
C11 C 0.1363(3) 0.3099(3) 0.2625(3) 0.075(2) Uani 1 1 d . . . . .
C12 C 0.1337(3) 0.3393(3) 0.2230(3) 0.077(2) Uani 1 1 d . . . . .
C13 C 0.0938(3) 0.3586(3) 0.2061(3) 0.079(2) Uani 1 1 d . . . . .
C14 C 0.0057(3) 0.3047(4) 0.2931(4) 0.104(3) Uani 1 1 d . U . . .
H14C H -0.0144 0.3326 0.2974 0.124 Uiso 0.718(17) 1 calc R . . A 2
H14D H 0.0127 0.2912 0.3242 0.124 Uiso 0.718(17) 1 calc R . . A 2
H14A H 0.0056 0.2704 0.2985 0.124 Uiso 0.282(17) 1 calc R . . A 1
H14B H -0.0211 0.3122 0.2725 0.124 Uiso 0.282(17) 1 calc R . . A 1
C15A C -0.0218(6) 0.2650(6) 0.2598(7) 0.127(6) Uani 0.718(17) 1 d . U . A 2
H15A H -0.0511 0.2556 0.2749 0.191 Uiso 0.718(17) 1 calc R . . A 2
H15B H -0.0286 0.2786 0.2291 0.191 Uiso 0.718(17) 1 calc R . . A 2
H15C H -0.0017 0.2374 0.2559 0.191 Uiso 0.718(17) 1 calc R . . A 2
C16 C 0.1819(3) 0.2914(3) 0.2821(3) 0.084(2) Uani 1 1 d . . . . .
H16A H 0.1757 0.2638 0.3020 0.100 Uiso 1 1 calc R . . . .
H16B H 0.2027 0.2815 0.2561 0.100 Uiso 1 1 calc R . . . .
C17 C 0.2058(4) 0.3289(5) 0.3104(4) 0.132(4) Uani 1 1 d . . . . .
H17A H 0.2083 0.3576 0.2918 0.198 Uiso 1 1 calc GR . . . .
H17B H 0.2373 0.3182 0.3192 0.198 Uiso 1 1 calc GR . . . .
H17C H 0.1875 0.3351 0.3387 0.198 Uiso 1 1 calc GR . . . .
C18 C 0.0922(4) 0.3886(4) 0.1638(4) 0.103(3) Uani 1 1 d . . . . .
H18A H 0.1180 0.4117 0.1660 0.123 Uiso 1 1 calc R . . . .
H18B H 0.0625 0.4064 0.1644 0.123 Uiso 1 1 calc R . . . .
C19 C 0.0959(5) 0.3646(5) 0.1176(4) 0.128(4) Uani 1 1 d . . . . .
H19A H 0.0954 0.3880 0.0926 0.192 Uiso 1 1 calc GR . . . .
H19B H 0.0694 0.3432 0.1137 0.192 Uiso 1 1 calc GR . . . .
H19C H 0.1252 0.3469 0.1162 0.192 Uiso 1 1 calc GR . . . .
C20 C 0.0922(3) 0.2669(3) 0.3239(3) 0.085(2) Uani 1 1 d . . . . .
C21 C 0.0759(3) 0.2040(3) 0.3595(3) 0.078(2) Uani 1 1 d . . . . .
C22 C 0.0580(3) 0.1571(3) 0.3648(3) 0.075(2) Uani 1 1 d . . . . .
C23 C 0.0425(3) 0.1299(3) 0.3243(4) 0.095(3) Uani 1 1 d . . . . .
H23 H 0.0421 0.1434 0.2940 0.114 Uiso 1 1 calc R . . . .
C24 C 0.0291(4) 0.0859(4) 0.3311(4) 0.097(3) Uani 1 1 d . . . . .
H24 H 0.0225 0.0673 0.3044 0.116 Uiso 1 1 calc R . . . .
C25 C 0.0375(3) 0.0906(3) 0.4113(3) 0.076(2) Uani 1 1 d . . . . .
H25 H 0.0350 0.0765 0.4412 0.091 Uiso 1 1 calc R . . . .
C26 C 0.0546(3) 0.1355(3) 0.4078(3) 0.082(2) Uani 1 1 d . . . . .
H26 H 0.0642 0.1517 0.4352 0.099 Uiso 1 1 calc R . . . .
C27 C 0.1773(3) 0.3432(3) 0.1961(3) 0.084(2) Uani 1 1 d . . . . .
C28 C 0.2292(3) 0.3210(3) 0.1483(3) 0.077(2) Uani 1 1 d . . . . .
C29 C 0.2521(3) 0.2874(3) 0.1148(3) 0.0699(18) Uani 1 1 d . . . . .
C30 C 0.2925(3) 0.2993(3) 0.0921(3) 0.075(2) Uani 1 1 d . . . . .
H30 H 0.3076 0.3283 0.0982 0.090 Uiso 1 1 calc R . . . .
C31 C 0.3110(3) 0.2676(3) 0.0598(3) 0.0705(19) Uani 1 1 d . . . . .
H31 H 0.3395 0.2748 0.0442 0.085 Uiso 1 1 calc R . . . .
C32 C 0.2513(3) 0.2163(3) 0.0725(3) 0.078(2) Uani 1 1 d . . . . .
H32 H 0.2363 0.1875 0.0655 0.093 Uiso 1 1 calc R . . . .
C33 C 0.2328(3) 0.2449(3) 0.1052(3) 0.082(2) Uani 1 1 d . . . . .
H33 H 0.2058 0.2351 0.1218 0.098 Uiso 1 1 calc R . . . .
C15 C -0.0009(9) 0.3319(14) 0.3434(14) 0.108(13) Uani 0.282(17) 1 d . U . A 1
H15D H -0.0304 0.3221 0.3579 0.163 Uiso 0.282(17) 1 calc R . . A 1
H15E H 0.0253 0.3240 0.3641 0.163 Uiso 0.282(17) 1 calc R . . A 1
H15F H -0.0014 0.3658 0.3381 0.163 Uiso 0.282(17) 1 calc R . . A 1
O4 O 0.0280(3) 0.2298(3) 0.5000 0.105(3) Uani 1 2 d S T P B 2
O5 O 0.0946(3) 0.1972(3) 0.5000 0.081(2) Uani 1 2 d S T P B 2
O6 O 0.0913(3) 0.2715(3) 0.5000 0.079(2) Uani 1 2 d S T P B 2
N10 N 0.0719(4) 0.2332(3) 0.5000 0.077(2) Uani 1 2 d S T P B 2
loop_
_atom_site_aniso_label
_atom_site_aniso_U_11
_atom_site_aniso_U_22
_atom_site_aniso_U_33
_atom_site_aniso_U_23
_atom_site_aniso_U_13
_atom_site_aniso_U_12
Pd1 0.0686(5) 0.0770(5) 0.0734(5) 0.000 0.000 0.0049(4)
Pd2 0.0863(5) 0.0863(5) 0.0797(8) 0.000 0.000 0.000
O1 0.083(4) 0.080(3) 0.092(4) 0.004(3) -0.007(3) 0.014(3)
O2 0.089(4) 0.073(3) 0.077(4) -0.004(3) -0.003(3) 0.010(3)
O3 0.089(4) 0.066(3) 0.070(3) -0.001(2) 0.001(3) -0.004(3)
N1 0.050(3) 0.061(4) 0.109(5) 0.007(3) -0.004(3) 0.008(3)
N2 0.106(6) 0.118(6) 0.099(6) -0.023(5) -0.021(5) 0.039(5)
N3 0.078(5) 0.119(6) 0.126(7) -0.042(5) -0.040(5) 0.035(4)
N4 0.145(7) 0.096(5) 0.065(5) -0.009(4) -0.018(4) -0.035(5)
N5 0.103(5) 0.109(6) 0.072(5) 0.007(4) -0.014(4) -0.026(4)
N6 0.088(5) 0.084(4) 0.072(4) 0.007(4) -0.006(3) -0.002(3)
N7 0.096(5) 0.072(4) 0.122(7) -0.021(4) 0.001(5) -0.020(4)
N8 0.091(5) 0.073(4) 0.125(7) -0.024(4) 0.008(5) -0.009(4)
N9 0.079(4) 0.056(3) 0.070(4) 0.012(3) -0.004(3) -0.004(3)
C1 0.093(6) 0.080(5) 0.098(7) -0.018(5) -0.003(5) 0.029(5)
C2 0.080(5) 0.095(6) 0.083(6) -0.007(5) -0.014(4) 0.027(4)
C3 0.072(5) 0.083(5) 0.105(7) -0.013(5) -0.014(5) 0.009(4)
C4 0.077(5) 0.074(5) 0.098(6) -0.020(4) -0.017(4) 0.020(4)
C5 0.062(4) 0.078(5) 0.091(6) 0.006(4) -0.006(4) 0.020(4)
C6 0.089(6) 0.086(6) 0.094(6) -0.022(5) -0.019(5) 0.029(5)
C7 0.090(6) 0.087(6) 0.079(6) -0.019(4) -0.006(4) 0.015(4)
C8 0.099(7) 0.077(5) 0.099(7) -0.014(5) -0.029(5) 0.006(5)
C9 0.077(5) 0.075(5) 0.082(6) -0.009(4) -0.001(4) 0.005(4)
C10 0.088(6) 0.083(5) 0.073(5) -0.011(4) -0.010(4) -0.001(4)
C11 0.080(5) 0.084(5) 0.062(5) -0.009(4) -0.011(4) 0.001(4)
C12 0.078(5) 0.071(5) 0.081(5) -0.010(4) -0.004(4) -0.006(4)
C13 0.086(6) 0.069(5) 0.081(5) -0.010(4) -0.019(4) 0.004(4)
C14 0.082(6) 0.103(7) 0.126(8) -0.008(6) -0.010(5) 0.010(5)
C15A 0.114(12) 0.136(12) 0.132(13) -0.015(10) -0.005(9) -0.020(9)
C16 0.087(6) 0.093(6) 0.071(5) 0.008(4) 0.006(4) 0.017(4)
C17 0.087(7) 0.204(14) 0.104(8) -0.018(9) -0.013(6) 0.028(8)
C18 0.095(7) 0.101(7) 0.112(8) 0.013(6) -0.019(6) 0.013(5)
C19 0.131(10) 0.151(11) 0.103(9) 0.006(8) -0.010(7) 0.030(8)
C20 0.086(6) 0.083(6) 0.086(6) -0.008(5) 0.012(5) 0.005(4)
C21 0.084(5) 0.101(6) 0.050(4) -0.006(4) 0.008(4) 0.008(4)
C22 0.069(5) 0.087(5) 0.068(5) -0.002(4) 0.000(4) 0.003(4)
C23 0.100(7) 0.094(7) 0.091(7) 0.021(5) -0.009(5) -0.004(5)
C24 0.111(7) 0.091(6) 0.089(7) -0.015(5) 0.006(5) 0.001(5)
C25 0.078(5) 0.084(5) 0.067(5) 0.009(4) -0.002(4) 0.002(4)
C26 0.075(5) 0.088(6) 0.085(6) -0.008(4) -0.001(4) -0.001(4)
C27 0.100(6) 0.072(5) 0.079(6) -0.012(4) -0.014(5) 0.009(4)
C28 0.073(5) 0.071(5) 0.087(6) 0.001(4) 0.000(4) -0.019(4)
C29 0.071(4) 0.067(4) 0.072(5) 0.007(4) 0.003(4) -0.001(3)
C30 0.072(5) 0.076(5) 0.077(5) -0.001(4) -0.002(4) -0.018(4)
C31 0.065(4) 0.064(4) 0.082(5) 0.001(4) 0.002(4) -0.004(3)
C32 0.080(5) 0.069(5) 0.084(6) -0.003(4) 0.014(4) -0.020(4)
C33 0.092(6) 0.070(5) 0.083(6) -0.005(4) 0.018(4) -0.014(4)
C15 0.038(13) 0.15(3) 0.136(16) -0.035(18) -0.017(12) 0.007(15)
O4 0.075(6) 0.103(7) 0.138(8) 0.000 0.000 -0.012(5)
O5 0.089(5) 0.083(5) 0.073(5) 0.000 0.000 -0.010(4)
O6 0.082(5) 0.070(5) 0.087(5) 0.000 0.000 -0.021(4)
N10 0.080(6) 0.069(6) 0.083(7) 0.000 0.000 -0.020(5)
loop_
_atom_type_symbol
_atom_type_description
_atom_type_scat_dispersion_real
_atom_type_scat_dispersion_imag
_atom_type_scat_source
C C 0.0181 0.0091 'International Tables Vol C Tables 4.2.6.8 and 6.1.1.4'
H H 0.0000 0.0000 'International Tables Vol C Tables 4.2.6.8 and 6.1.1.4'
N N 0.0311 0.0180 'International Tables Vol C Tables 4.2.6.8 and 6.1.1.4'
O O 0.0492 0.0322 'International Tables Vol C Tables 4.2.6.8 and 6.1.1.4'
Pd Pd 0.1215 3.9337 'International Tables Vol C Tables 4.2.6.8 and 6.1.1.4'
loop_
_geom_angle_atom_site_label_1
_geom_angle_atom_site_label_2
_geom_angle_atom_site_label_3
_geom_angle
_geom_angle_site_symmetry_1
_geom_angle_site_symmetry_3
_geom_angle_publ_flag
N1 Pd1 N1 89.9(4) 11 . ?
N1 Pd1 N9 177.0(2) . 12 ?
N1 Pd1 N9 90.0(3) 11 12 ?
N1 Pd1 N9 90.0(3) . 2 ?
N1 Pd1 N9 177.0(2) 11 2 ?
N9 Pd1 N9 89.9(3) 12 2 ?
N6 Pd2 N6 89.933(15) 3 2 ?
N6 Pd2 N6 89.935(15) 2 . ?
N6 Pd2 N6 89.933(15) 3 4 ?
N6 Pd2 N6 89.931(15) 4 . ?
N6 Pd2 N6 176.1(4) 3 . ?
N6 Pd2 N6 176.1(4) 2 4 ?
C6 O1 C7 101.8(7) . . ?
C20 O2 C21 100.3(7) . . ?
C28 O3 C27 102.7(6) . . ?
C1 N1 Pd1 122.6(6) . . ?
C1 N1 C5 116.6(7) . . ?
C5 N1 Pd1 120.7(5) . . ?
C6 N2 N3 105.3(7) . . ?
C7 N3 N2 107.1(8) . . ?
C20 N4 N5 105.8(7) . . ?
C21 N5 N4 107.6(7) . . ?
C24 N6 Pd2 117.4(6) . . ?
C24 N6 C25 118.7(8) . . ?
C25 N6 Pd2 123.8(6) . . ?
C27 N7 N8 108.1(7) . . ?
C28 N8 N7 105.1(7) . . ?
C31 N9 Pd1 121.5(5) . 10 ?
C32 N9 Pd1 117.7(5) . 10 ?
C32 N9 C31 120.7(7) . . ?
N1 C1 C2 124.0(8) . . ?
C3 C2 C1 120.5(8) . . ?
C2 C3 C4 116.5(8) . . ?
C2 C3 C6 123.7(8) . . ?
C4 C3 C6 119.7(8) . . ?
C5 C4 C3 119.4(8) . . ?
N1 C5 C4 122.9(7) . . ?
O1 C6 C3 117.0(7) . . ?
N2 C6 O1 114.3(8) . . ?
N2 C6 C3 128.8(8) . . ?
O1 C7 C8 116.7(7) . . ?
N3 C7 O1 111.5(8) . . ?
N3 C7 C8 131.7(8) . . ?
C9 C8 C7 119.2(9) . . ?
C9 C8 C13 121.7(8) . . ?
C13 C8 C7 119.1(9) . . ?
C8 C9 C14 122.7(8) . . ?
C10 C9 C8 116.5(8) . . ?
C10 C9 C14 120.9(9) . . ?
C9 C10 C11 124.3(8) . . ?
C9 C10 C20 117.4(8) . . ?
C11 C10 C20 117.9(8) . . ?
C10 C11 C16 121.5(8) . . ?
C12 C11 C10 115.0(8) . . ?
C12 C11 C16 123.3(8) . . ?
C11 C12 C27 114.9(8) . . ?
C13 C12 C11 124.9(8) . . ?
C13 C12 C27 119.7(8) . . ?
C8 C13 C18 118.9(8) . . ?
C12 C13 C8 117.5(8) . . ?
C12 C13 C18 123.5(9) . . ?
C9 C14 C15A 107.9(10) . . ?
C9 C14 C15 112.4(14) . . ?
C17 C16 C11 110.0(8) . . ?
C13 C18 C19 117.2(9) . . ?
O2 C20 C10 117.2(8) . . ?
N4 C20 O2 112.8(8) . . ?
N4 C20 C10 130.0(9) . . ?
O2 C21 C22 117.0(7) . . ?
N5 C21 O2 113.5(8) . . ?
N5 C21 C22 129.5(8) . . ?
C21 C22 C23 121.2(8) . . ?
C26 C22 C21 122.3(8) . . ?
C26 C22 C23 116.5(8) . . ?
C24 C23 C22 118.3(9) . . ?
C23 C24 N6 123.9(10) . . ?
N6 C25 C26 121.8(8) . . ?
C25 C26 C22 120.4(8) . . ?
O3 C27 C12 117.4(7) . . ?
N7 C27 O3 109.7(8) . . ?
N7 C27 C12 132.7(8) . . ?
O3 C28 C29 116.3(6) . . ?
N8 C28 O3 114.3(8) . . ?
N8 C28 C29 129.3(8) . . ?
C30 C29 C28 120.8(7) . . ?
C33 C29 C28 121.5(7) . . ?
C33 C29 C30 117.7(8) . . ?
C29 C30 C31 118.2(7) . . ?
N9 C31 C30 120.7(7) . . ?
N9 C32 C33 121.0(7) . . ?
C32 C33 C29 121.5(8) . . ?
O5 N10 O4 117.8(9) . . ?
O5 N10 O6 121.0(10) . . ?
O6 N10 O4 121.3(11) . . ?
loop_
_geom_bond_atom_site_label_1
_geom_bond_atom_site_label_2
_geom_bond_distance
_geom_bond_site_symmetry_2
_geom_bond_publ_flag
Pd1 N1 2.014(7) 11 ?
Pd1 N1 2.014(7) . ?
Pd1 N9 2.048(6) 12 ?
Pd1 N9 2.048(6) 2 ?
Pd2 N6 2.013(7) 3 ?
Pd2 N6 2.013(7) 2 ?
Pd2 N6 2.013(7) 4 ?
Pd2 N6 2.013(7) . ?
O1 C6 1.363(9) . ?
O1 C7 1.370(10) . ?
O2 C20 1.367(10) . ?
O2 C21 1.390(10) . ?
O3 C27 1.362(10) . ?
O3 C28 1.346(9) . ?
N1 C1 1.314(10) . ?
N1 C5 1.338(10) . ?
N2 N3 1.401(10) . ?
N2 C6 1.278(11) . ?
N3 C7 1.304(11) . ?
N4 N5 1.389(10) . ?
N4 C20 1.292(12) . ?
N5 C21 1.240(11) . ?
N6 C24 1.343(12) . ?
N6 C25 1.344(11) . ?
N7 N8 1.383(11) . ?
N7 C27 1.298(11) . ?
N8 C28 1.259(10) . ?
N9 Pd1 2.048(6) 10 ?
N9 C31 1.334(9) . ?
N9 C32 1.285(9) . ?
C1 C2 1.368(12) . ?
C2 C3 1.333(12) . ?
C3 C4 1.419(11) . ?
C3 C6 1.448(12) . ?
C4 C5 1.356(11) . ?
C7 C8 1.457(12) . ?
C8 C9 1.414(13) . ?
C8 C13 1.442(14) . ?
C9 C10 1.397(12) . ?
C9 C14 1.475(13) . ?
C10 C11 1.423(12) . ?
C10 C20 1.481(13) . ?
C11 C12 1.410(12) . ?
C11 C16 1.514(11) . ?
C12 C13 1.355(11) . ?
C12 C27 1.467(12) . ?
C13 C18 1.483(13) . ?
C14 C15A 1.675(18) . ?
C14 C15 1.65(4) . ?
C16 C17 1.506(15) . ?
C18 C19 1.493(15) . ?
C21 C22 1.440(12) . ?
C22 C23 1.464(13) . ?
C22 C26 1.382(12) . ?
C23 C24 1.329(13) . ?
C25 C26 1.374(12) . ?
C28 C29 1.504(11) . ?
C29 C30 1.367(10) . ?
C29 C33 1.362(11) . ?
C30 C31 1.397(11) . ?
C32 C33 1.350(11) . ?
O4 N10 1.259(12) . ?
O5 N10 1.215(12) . ?
O6 N10 1.228(11) . ?
loop_
_geom_torsion_atom_site_label_1
_geom_torsion_atom_site_label_2
_geom_torsion_atom_site_label_3
_geom_torsion_atom_site_label_4
_geom_torsion
_geom_torsion_site_symmetry_1
_geom_torsion_site_symmetry_2
_geom_torsion_site_symmetry_3
_geom_torsion_site_symmetry_4
_geom_torsion_publ_flag
Pd1 N1 C1 C2 -175.3(8) . . . . ?
Pd1 N1 C5 C4 174.7(7) . . . . ?
Pd1 N9 C31 C30 175.6(6) 10 . . . ?
Pd1 N9 C32 C33 -177.9(7) 10 . . . ?
Pd2 N6 C24 C23 176.8(8) . . . . ?
Pd2 N6 C25 C26 178.7(6) . . . . ?
O1 C7 C8 C9 -105.8(10) . . . . ?
O1 C7 C8 C13 73.5(11) . . . . ?
O2 C21 C22 C23 7.7(12) . . . . ?
O2 C21 C22 C26 -172.4(7) . . . . ?
O3 C28 C29 C30 -178.1(7) . . . . ?
O3 C28 C29 C33 3.7(12) . . . . ?
N1 C1 C2 C3 2.4(16) . . . . ?
N2 N3 C7 O1 1.1(12) . . . . ?
N2 N3 C7 C8 -174.5(11) . . . . ?
N3 N2 C6 O1 2.1(13) . . . . ?
N3 N2 C6 C3 -178.4(11) . . . . ?
N3 C7 C8 C9 69.7(15) . . . . ?
N3 C7 C8 C13 -111.1(13) . . . . ?
N4 N5 C21 O2 0.1(11) . . . . ?
N4 N5 C21 C22 179.6(8) . . . . ?
N5 N4 C20 O2 -0.7(11) . . . . ?
N5 N4 C20 C10 176.2(9) . . . . ?
N5 C21 C22 C23 -171.7(10) . . . . ?
N5 C21 C22 C26 8.2(15) . . . . ?
N6 C25 C26 C22 0.9(13) . . . . ?
N7 N8 C28 O3 3.1(11) . . . . ?
N7 N8 C28 C29 178.0(9) . . . . ?
N8 N7 C27 O3 0.6(11) . . . . ?
N8 N7 C27 C12 -174.2(10) . . . . ?
N8 C28 C29 C30 7.1(14) . . . . ?
N8 C28 C29 C33 -171.1(10) . . . . ?
N9 C32 C33 C29 2.9(14) . . . . ?
C1 N1 C5 C4 -0.4(13) . . . . ?
C1 C2 C3 C4 -3.5(15) . . . . ?
C1 C2 C3 C6 174.1(10) . . . . ?
C2 C3 C4 C5 2.8(15) . . . . ?
C2 C3 C6 O1 19.4(16) . . . . ?
C2 C3 C6 N2 -160.1(12) . . . . ?
C3 C4 C5 N1 -0.8(14) . . . . ?
C4 C3 C6 O1 -163.0(9) . . . . ?
C4 C3 C6 N2 17.5(18) . . . . ?
C5 N1 C1 C2 -0.3(14) . . . . ?
C6 O1 C7 N3 0.1(11) . . . . ?
C6 O1 C7 C8 176.4(9) . . . . ?
C6 N2 N3 C7 -1.9(13) . . . . ?
C6 C3 C4 C5 -175.0(9) . . . . ?
C7 O1 C6 N2 -1.4(12) . . . . ?
C7 O1 C6 C3 179.0(9) . . . . ?
C7 C8 C9 C10 179.6(8) . . . . ?
C7 C8 C9 C14 0.6(13) . . . . ?
C7 C8 C13 C12 -177.3(8) . . . . ?
C7 C8 C13 C18 -0.7(12) . . . . ?
C8 C9 C10 C11 -2.6(12) . . . . ?
C8 C9 C10 C20 -174.6(8) . . . . ?
C8 C9 C14 C15A 74.4(12) . . . . ?
C8 C9 C14 C15 -106.6(17) . . . . ?
C8 C13 C18 C19 -100.6(11) . . . . ?
C9 C8 C13 C12 2.0(12) . . . . ?
C9 C8 C13 C18 178.6(8) . . . . ?
C9 C10 C11 C12 2.4(12) . . . . ?
C9 C10 C11 C16 178.6(8) . . . . ?
C9 C10 C20 O2 65.7(10) . . . . ?
C9 C10 C20 N4 -111.1(12) . . . . ?
C10 C9 C14 C15A -104.6(11) . . . . ?
C10 C9 C14 C15 74.4(18) . . . . ?
C10 C11 C12 C13 0.2(12) . . . . ?
C10 C11 C12 C27 -171.9(7) . . . . ?
C10 C11 C16 C17 -97.2(10) . . . . ?
C11 C10 C20 O2 -106.9(9) . . . . ?
C11 C10 C20 N4 76.4(13) . . . . ?
C11 C12 C13 C8 -2.2(12) . . . . ?
C11 C12 C13 C18 -178.7(8) . . . . ?
C11 C12 C27 O3 72.9(10) . . . . ?
C11 C12 C27 N7 -112.6(11) . . . . ?
C12 C11 C16 C17 78.7(11) . . . . ?
C12 C13 C18 C19 75.8(13) . . . . ?
C13 C8 C9 C10 0.3(12) . . . . ?
C13 C8 C9 C14 -178.7(8) . . . . ?
C13 C12 C27 O3 -99.6(9) . . . . ?
C13 C12 C27 N7 74.9(13) . . . . ?
C14 C9 C10 C11 176.4(8) . . . . ?
C14 C9 C10 C20 4.4(12) . . . . ?
C16 C11 C12 C13 -175.9(8) . . . . ?
C16 C11 C12 C27 12.0(11) . . . . ?
C20 O2 C21 N5 -0.5(9) . . . . ?
C20 O2 C21 C22 180.0(7) . . . . ?
C20 N4 N5 C21 0.3(11) . . . . ?
C20 C10 C11 C12 174.4(7) . . . . ?
C20 C10 C11 C16 -9.5(12) . . . . ?
C21 O2 C20 N4 0.7(10) . . . . ?
C21 O2 C20 C10 -176.6(8) . . . . ?
C21 C22 C23 C24 176.0(8) . . . . ?
C21 C22 C26 C25 -179.8(8) . . . . ?
C22 C23 C24 N6 7.2(15) . . . . ?
C23 C22 C26 C25 0.1(12) . . . . ?
C24 N6 C25 C26 1.9(13) . . . . ?
C25 N6 C24 C23 -6.2(15) . . . . ?
C26 C22 C23 C24 -4.0(13) . . . . ?
C27 O3 C28 N8 -2.7(10) . . . . ?
C27 O3 C28 C29 -178.3(7) . . . . ?
C27 N7 N8 C28 -2.2(11) . . . . ?
C27 C12 C13 C8 169.5(7) . . . . ?
C27 C12 C13 C18 -6.9(13) . . . . ?
C28 O3 C27 N7 1.1(9) . . . . ?
C28 O3 C27 C12 176.8(8) . . . . ?
C28 C29 C30 C31 -176.9(7) . . . . ?
C28 C29 C33 C32 174.6(8) . . . . ?
C29 C30 C31 N9 1.7(12) . . . . ?
C30 C29 C33 C32 -3.6(13) . . . . ?
C31 N9 C32 C33 0.3(13) . . . . ?
C32 N9 C31 C30 -2.6(12) . . . . ?
C33 C29 C30 C31 1.3(12) . . . . ?
loop_
_platon_squeeze_void_nr
_platon_squeeze_void_average_x
_platon_squeeze_void_average_y
_platon_squeeze_void_average_z
_platon_squeeze_void_volume
_platon_squeeze_void_count_electrons
_platon_squeeze_void_content
1 -0.002 -0.023 -0.025 12510 3818 ' '
loop_
_platon_missing_refln_index_h
_platon_missing_refln_index_k
_platon_missing_refln_index_l
_platon_missing_refln_theta
1 1 0 2.188
0 2 0 3.095
0 1 1 2.185
0 0 2 3.088
