#------------------------------------------------------------------------------
#$Date: 2021-10-06 16:59:38 +0300 (Wed, 06 Oct 2021) $
#$Revision: 269654 $
#$URL: file:///home/coder/svn-repositories/cod/cif/7/12/87/7128762.cif $
#------------------------------------------------------------------------------
#
# This file is available in the Crystallography Open Database (COD),
# http://www.crystallography.net/
#
# All data on this site have been placed in the public domain by the
# contributors.
#
data_7128762
loop_
_publ_author_name
'Dong, Long-Zhang'
'Zhang, Yu'
'Lu, Yun-Feng'
'Zhang, Lei'
'Huang, Xin'
'Wang, Jian-Hui'
'Liu, Jiang'
'Li, Shun-Li'
'Lan, Ya-Qian'
_publ_section_title
;
 A well-defined dual Mn-site based metal-organic framework to promote
 CO<sub>2</sub> reduction/evolution in Li-CO<sub>2</sub> batteries.
;
_journal_issue                   71
_journal_name_full
'Chemical communications (Cambridge, England)'
_journal_page_first              8937
_journal_page_last               8940
_journal_paper_doi               10.1039/d1cc03431f
_journal_volume                  57
_journal_year                    2021
_chemical_formula_moiety         'C32 H20 Cl Mn2 N12 O8 S2, 0.5(C4 H16 N2)'
_chemical_formula_sum            'C34 H28 Cl Mn2 N13 O8 S2'
_chemical_formula_weight         956.14
_space_group_crystal_system      orthorhombic
_space_group_IT_number           53
_space_group_name_Hall           '-P 2ac 2'
_space_group_name_H-M_alt        'P m n a'
_atom_sites_solution_hydrogens   mixed
_atom_sites_solution_primary     dual
_audit_creation_date             2021-06-02
_audit_creation_method
;
Olex2 1.3-alpha
(compiled 2020.11.12 svn.r5f609507 for OlexSys, GUI svn.r6272)
;
_audit_update_record
;
2021-06-03 deposited with the CCDC.	2021-08-09 downloaded from the CCDC.
;
_cell_angle_alpha                90
_cell_angle_beta                 90
_cell_angle_gamma                90
_cell_formula_units_Z            4
_cell_length_a                   21.678(6)
_cell_length_b                   13.712(4)
_cell_length_c                   15.918(5)
_cell_measurement_reflns_used    7336
_cell_measurement_temperature    296.15
_cell_measurement_theta_max      25.43
_cell_measurement_theta_min      2.55
_cell_volume                     4732(2)
_computing_cell_refinement       'SAINT V8.40A (Bruker, 2019)'
_computing_data_reduction        'SAINT V8.40A (Bruker, 2019)'
_computing_molecular_graphics    'Olex2 1.3-alpha (Dolomanov et al., 2009)'
_computing_publication_material  'Olex2 1.3-alpha (Dolomanov et al., 2009)'
_computing_structure_refinement  'XL  (Sheldrick, 2008)'
_computing_structure_solution    'SHELXT 2014/5 (Sheldrick, 2014)'
_diffrn_ambient_temperature      296.15
_diffrn_detector_area_resol_mean 8
_diffrn_measured_fraction_theta_full 0.964
_diffrn_measured_fraction_theta_max 0.964
_diffrn_measurement_device_type  'Bruker APEX-II CCD'
_diffrn_measurement_method       '\f and \w scans'
_diffrn_radiation_monochromator  graphite
_diffrn_radiation_type           MoK\a
_diffrn_radiation_wavelength     0.71073
_diffrn_reflns_av_R_equivalents  0.0334
_diffrn_reflns_av_unetI/netI     0.0373
_diffrn_reflns_Laue_measured_fraction_full 0.964
_diffrn_reflns_Laue_measured_fraction_max 0.964
_diffrn_reflns_limit_h_max       24
_diffrn_reflns_limit_h_min       -18
_diffrn_reflns_limit_k_max       10
_diffrn_reflns_limit_k_min       -15
_diffrn_reflns_limit_l_max       16
_diffrn_reflns_limit_l_min       -17
_diffrn_reflns_number            13419
_diffrn_reflns_point_group_measured_fraction_full 0.964
_diffrn_reflns_point_group_measured_fraction_max 0.964
_diffrn_reflns_theta_full        23.256
_diffrn_reflns_theta_max         23.256
_diffrn_reflns_theta_min         1.587
_diffrn_source                   'sealed tube'
_diffrn_source_current           0.0
_diffrn_source_power             0.0
_diffrn_source_voltage           0.0
_diffrn_standards_number         0
_exptl_absorpt_coefficient_mu    0.736
_exptl_absorpt_correction_T_max  0.7452
_exptl_absorpt_correction_T_min  0.6755
_exptl_absorpt_correction_type   multi-scan
_exptl_absorpt_process_details
;
SADABS-2016/2 (Bruker,2016/2) was used for absorption correction.
wR2(int) was 0.0716 before and 0.0584 after correction.
The Ratio of minimum to maximum transmission is 0.9065.
The \l/2 correction factor is Not present.
;
_exptl_crystal_colour            'metallic greenish violet'
_exptl_crystal_colour_lustre     metallic
_exptl_crystal_colour_modifier   greenish
_exptl_crystal_colour_primary    violet
_exptl_crystal_density_diffrn    1.342
_exptl_crystal_description       block
_exptl_crystal_F_000             1944
_exptl_crystal_size_max          0.623
_exptl_crystal_size_mid          0.152
_exptl_crystal_size_min          0.083
_refine_diff_density_max         0.977
_refine_diff_density_min         -1.823
_refine_diff_density_rms         0.124
_refine_ls_extinction_method     none
_refine_ls_goodness_of_fit_ref   1.066
_refine_ls_hydrogen_treatment    constr
_refine_ls_matrix_type           full
_refine_ls_number_parameters     293
_refine_ls_number_reflns         3395
_refine_ls_number_restraints     7
_refine_ls_restrained_S_all      1.066
_refine_ls_R_factor_all          0.1537
_refine_ls_R_factor_gt           0.1289
_refine_ls_shift/su_max          0.000
_refine_ls_shift/su_mean         0.000
_refine_ls_structure_factor_coef Fsqd
_refine_ls_weighting_details
'w=1/[\s^2^(Fo^2^)+(0.0338P)^2^+91.4041P] where P=(Fo^2^+2Fc^2^)/3'
_refine_ls_weighting_scheme      calc
_refine_ls_wR_factor_gt          0.2663
_refine_ls_wR_factor_ref         0.2821
_reflns_Friedel_coverage         0.000
_reflns_number_gt                2600
_reflns_number_total             3395
_reflns_threshold_expression     'I > 2\s(I)'
_cod_data_source_file            d1cc03431f2.cif
_cod_data_source_block           mntpzp-mn
_cod_depositor_comments
'Adding full bibliography for 7128762--7128764.cif.'
_cod_database_code               7128762
_shelx_shelxl_version_number     2016/6
_shelx_space_group_comment
;
The symmetry employed for this shelxl refinement is uniquely defined
by the following loop, which should always be used as a source of
symmetry information in preference to the above space-group names.
They are only intended as comments.
;
_shelx_estimated_absorpt_t_max   0.941
_shelx_estimated_absorpt_t_min   0.657
_olex2_refinement_description
;
1. Fixed Uiso
 At 1.2 times of:
  All C(H) groups, All N(H) groups, All N(H,H) groups
 At 1.5 times of:
  All C(H,H,H) groups
2. Restrained distances
 C14-N4
 2.1 with sigma of 0.02
3. Uiso/Uaniso restraints and constraints
O4B \\sim O4A: within 2A with sigma of 0.04 and sigma for terminal atoms of
0.08 within 2A
4. Others
 Sof(O4A)=1-FVAR(1)
 Sof(O4B)=FVAR(1)
 Fixed Sof: H8A(0.5) H8B(0.5) H18A(0.5) H18B(0.5) H18C(0.5) H17A(0.5)
 H17B(0.5) H17C(0.5)
5.a Riding coordinates:
 C18(H18A,H18B,H18C)
5.b Secondary CH2 refined with riding coordinates:
 N8(H8A,H8B)
5.c Aromatic/amide H refined with riding coordinates:
 N2(H2), N4(H4), C13(H13), C4(H4A), C14(H14), C3(H3), C9(H9), C1(H1), C8(H8),
 C16(H16)
5.d Idealised Me refined as rotating group:
 C17(H17A,H17B,H17C)
;
_shelx_res_file
;
TITL mo_mntpzpmn_0m_a.res in Pmna
    mntpzp-mn.res
    created by SHELXL-2016/6 at 22:37:29 on 02-Jun-2021
REM Old TITL mo_MnTPzPMn_0m in Pmmm
REM SHELXT solution in Pmna
REM R1 0.413, Rweak 0.023, Alpha 0.160, Orientation a'=c, b'=a, c'=b
REM Formula found by SHELXT: C46 N3 O9 Cl3 Mn2
CELL 0.71073 21.6783 13.7119 15.9176 90 90 90
ZERR 4 0.0062 0.0037 0.0048 0 0 0
LATT 1
SYMM 0.5-X,-Y,0.5+Z
SYMM 0.5-X,+Y,0.5-Z
SYMM +X,-Y,-Z
SFAC C H Cl Mn N O S
UNIT 136 112 4 8 52 32 8
DFIX 2.1 C14 N4
SIMU O4B O4A

L.S. 30 0 52
PLAN  8
SIZE 0.152 0.083 0.623
TEMP 23
CONF
BOND $H
list 4
ABIN
MORE -1
fmap 2 53
acta
SHEL 999 0.9
OMIT 12 6 0
OMIT 10 2 4
OMIT 5 2 3
OMIT 9 2 3
OMIT 7 2 7
OMIT 12 4 1
OMIT 14 2 4
OMIT 22 2 4
OMIT 7 6 7
REM <olex2.extras>
REM <HklSrc "%.\\MnTPzP-Mn.hkl">
REM </olex2.extras>

WGHT    0.033800   91.404099
FVAR       0.30068   0.50316
MN2   4    0.500000    0.131559    0.629365    10.50000    0.03721    0.01936 =
         0.08273   -0.00302    0.00000    0.00000
MN1   4    0.250000    0.631703    0.750000    10.50000    0.06368    0.02295 =
         0.17558    0.00000    0.06836    0.00000
CL1   3    0.500000    0.124370    0.778843    10.50000    0.12476    0.07459 =
         0.12864   -0.01155    0.00000    0.00000
S1    7    0.367259    0.640231    0.887937    11.00000    0.04372    0.07548 =
         0.19803    0.05803    0.02106    0.02164
O1    6    0.334416    0.632860    0.809200    11.00000    0.07934    0.08790 =
         0.16679    0.00336    0.03100    0.00153
O2    6    0.367875    0.742219    0.904723    11.00000    0.07196    0.14344 =
         0.20924   -0.02440   -0.05471    0.03113
O3    6    0.428451    0.614536    0.887343    11.00000    0.05419    0.14436 =
         0.44908    0.01976    0.01156    0.03655
PART 2
O4B   6    0.324648    0.626564    0.960628    21.00000    0.05590    0.24032 =
         0.12969    0.12590    0.00771   -0.02878
PART 0
N5    5    0.500000    0.276481    0.616637    10.50000    0.04721    0.01149 =
         0.09190    0.00387    0.00000    0.00000
N7    5    0.500000   -0.012708    0.609936    10.50000    0.02735    0.02405 =
         0.08059    0.01739    0.00000    0.00000
N6    5    0.407815    0.131325    0.615250    11.00000    0.04090    0.02102 =
         0.07923    0.00970    0.00365    0.00021
N2    5    0.258956    0.469740    0.605091    11.00000    0.04823    0.04507 =
         0.17807   -0.00225    0.00568    0.02039
AFIX  43
H2    2    0.224296    0.489613    0.585149    11.00000   -1.20000
AFIX   0
N1    5    0.287555    0.512613    0.665282    11.00000    0.03798    0.03286 =
         0.21261   -0.02379    0.03674   -0.01282
N4    5    0.256710   -0.202914    0.607154    11.00000    0.04951    0.05397 =
         0.20754    0.01685   -0.00047   -0.02281
AFIX  43
H4    2    0.220929   -0.220178    0.589176    11.00000   -1.20000
AFIX   0
N3    5    0.288529   -0.250330    0.666098    11.00000    0.05964    0.03119 =
         0.11140    0.00091    0.02638   -0.01811
C5    1    0.449479    0.336269    0.610170    11.00000    0.03918    0.01274 =
         0.07898   -0.00269   -0.00136    0.00323
C11   1    0.388546   -0.044691    0.614613    11.00000    0.03839    0.02029 =
         0.09736    0.01155   -0.00632   -0.00661
C13   1    0.469841   -0.168386    0.580363    11.00000    0.02678    0.02228 =
         0.07764    0.00085   -0.00217   -0.01732
AFIX  43
H13   2    0.444753   -0.221984    0.569669    11.00000   -1.20000
AFIX   0
C4    1    0.468709    0.433550    0.595591    11.00000    0.06214    0.02652 =
         0.08272    0.00547    0.00993   -0.00653
AFIX  43
H4A   2    0.443225    0.487304    0.587537    11.00000   -1.20000
AFIX   0
C10   1    0.370332    0.050802    0.625267    11.00000    0.04861    0.02870 =
         0.08857    0.00419    0.01442   -0.01132
C14   1    0.338995   -0.199728    0.673950    11.00000    0.05539    0.03169 =
         0.09056    0.00250    0.02140   -0.00870
AFIX  43
H14   2    0.370131   -0.215070    0.711908    11.00000   -1.20000
AFIX   0
C7    1    0.370760    0.209790    0.624381    11.00000    0.02274    0.02335 =
         0.12635    0.01202    0.00291   -0.00505
C15   1    0.341588   -0.118559    0.618477    11.00000    0.04100    0.02028 =
         0.09732   -0.00177    0.00206    0.00126
C6    1    0.389363    0.307993    0.616955    11.00000    0.05388    0.02669 =
         0.08185   -0.00589    0.01293    0.00676
C2    1    0.340058    0.385753    0.621489    11.00000    0.04715    0.01825 =
         0.12440   -0.00898    0.02266    0.00522
C3    1    0.288079    0.392593    0.577240    11.00000    0.06718    0.04073 =
         0.15024   -0.00931   -0.00566    0.01812
AFIX  43
H3    2    0.275026    0.350739    0.534841    11.00000   -1.20000
AFIX   0
C9    1    0.311367    0.081980    0.644760    11.00000    0.06261    0.02992 =
         0.14887    0.01452    0.01190   -0.00869
AFIX  43
H9    2    0.277918    0.041730    0.656435    11.00000   -1.20000
AFIX   0
C1    1    0.339035    0.461631    0.677233    11.00000    0.03482    0.04175 =
         0.20047   -0.01784    0.00847    0.00109
AFIX  43
H1    2    0.369306    0.475326    0.716917    11.00000   -1.20000
AFIX   0
C8    1    0.310338    0.179562    0.644068    11.00000    0.01776    0.04170 =
         0.23751    0.00717    0.01585    0.00681
AFIX  43
H8    2    0.276501    0.219460    0.654498    11.00000   -1.20000
AFIX   0
C16   1    0.287661   -0.125390    0.579870    11.00000    0.05165    0.07046 =
         0.19934    0.02317   -0.01877   -0.03785
AFIX  43
H16   2    0.273418   -0.082039    0.539339    11.00000   -1.20000
AFIX   0
C12   1    0.448972   -0.071875    0.599617    11.00000    0.03476    0.01897 =
         0.07109    0.00150    0.01074    0.00474

N8    5    0.500000    0.807021    0.887572    10.50000    0.16554    0.11905 =
         0.12039   -0.01492    0.00000    0.00000
AFIX  23
H8A   2    0.532854    0.768381    0.891607    10.50000   -1.20000
H8B   2    0.467146    0.768381    0.891607    10.50000   -1.20000
AFIX   0
C18   1    0.500000    0.866766    0.962763    10.50000    0.19310    0.21719 =
         0.18910   -0.16196    0.00000    0.00000
PART -1
AFIX   3
H18A  2    0.463670    0.906796    0.963373    10.50000   -1.50000
H18B  2    0.535990    0.907556    0.962913    10.50000   -1.50000
H18C  2    0.500340    0.825706    1.011613    10.50000   -1.50000
AFIX   0
PART 0
C17   1    0.500000    0.843216    0.804474    10.50000    0.23534    0.17882 =
         0.14108    0.07116    0.00000    0.00000
PART -1
AFIX 137
H17A  2    0.488126    0.792165    0.766501    10.50000   -1.50000
H17B  2    0.540602    0.865818    0.790307    10.50000   -1.50000
H17C  2    0.471272    0.896260    0.800147    10.50000   -1.50000
AFIX   0

PART 1
O4A   6    0.342765    0.560439    0.940434   -21.00000    0.06591    0.18761 =
         0.28987    0.15089   -0.04392   -0.05639
HKLF 4




REM  mo_mntpzpmn_0m_a.res in Pmna
REM R1 =  0.1289 for    2600 Fo > 4sig(Fo)  and  0.1537 for all    3395 data
REM    293 parameters refined using      7 restraints

END

WGHT      0.0337     91.4117

REM Highest difference peak  0.977,  deepest hole -1.823,  1-sigma level  0.124
Q1    1   0.2841  0.1001  0.7597  11.00000  0.05    0.98
Q2    1   0.3999  0.5365  0.9069  11.00000  0.05    0.61
Q3    1   0.5000  0.8579  1.0862  10.50000  0.05    0.58
Q4    1   0.5000  0.5849  0.5576  10.50000  0.05    0.56
Q5    1   0.2526  0.1638  0.7308  11.00000  0.05    0.54
Q6    1   0.5000  0.2047  0.6194  10.50000  0.05    0.49
Q7    1   0.5000  0.0388  0.7606  10.50000  0.05    0.48
Q8    1   0.3763 -0.3250  0.5609  11.00000  0.05    0.47
;
_shelx_res_checksum              95871
_shelx_fab_file
;
    0    2    0     58.47      0.00
    0    3    0     62.44      0.00
    0    5    0     37.45      0.00
    0    6    0    -10.79      0.00
    0    7    0      9.81      0.00
    0    8    0      4.37      0.00
    0    9    0     -0.59      0.00
    0   10    0      8.23      0.00
    0   11    0     -5.50      0.00
    0   12    0      1.68      0.00
    0   13    0     -5.27      0.00
    0    1    1     84.54      0.00
    0    2    1      7.37      0.00
    0    3    1      3.03      0.00
    0    4    1    -20.39      0.00
    0    5    1      7.56      0.00
    0    7    1     -2.60      0.00
    0    8    1      1.34      0.00
    0    9    1     -4.76      0.00
    0   10    1      2.05      0.00
    0   11    1      4.20      0.00
    0   12    1      1.09      0.00
    0   13    1     -0.08      0.00
    0   14    1     -1.61      0.00
    0    0    2      3.28      0.00
    0    1    2     40.71      0.00
    0    2    2     16.73      0.00
    0    3    2     -4.01      0.00
    0    4    2     16.96      0.00
    0    5    2     -7.27      0.00
    0    6    2     -2.77      0.00
    0    7    2      2.19      0.00
    0    8    2     -2.68      0.00
    0    9    2      0.38      0.00
    0   10    2     -0.77      0.00
    0   11    2     -0.53      0.00
    0   12    2      1.25      0.00
    0   13    2      1.03      0.00
    0   14    2     -0.99      0.00
    0   15    2     -2.21      0.00
    0    1    3     79.85      0.00
    0    2    3    -21.76      0.00
    0    3    3     39.53      0.00
    0    4    3     -9.58      0.00
    0    5    3      4.40      0.00
    0    6    3      4.03      0.00
    0    7    3     -7.27      0.00
    0    8    3      0.80      0.00
    0    9    3     -1.70      0.00
    0   10    3      1.75      0.00
    0   11    3     -0.20      0.00
    0   12    3      1.96      0.00
    0   13    3     -0.93      0.00
    0   14    3     -0.38      0.00
    0   15    3     -0.02      0.00
    0   16    3     -2.95      0.00
    0    1    4      1.69      0.00
    0    2    4     14.61      0.00
    0    3    4      4.80      0.00
    0    4    4     11.23      0.00
    0    5    4      2.80      0.00
    0    6    4      5.03      0.00
    0    7    4      2.58      0.00
    0    8    4      1.21      0.00
    0    9    4     -3.87      0.00
    0   10    4     -1.80      0.00
    0   11    4      1.93      0.00
    0   12    4     -2.61      0.00
    0   13    4      0.23      0.00
    0   14    4     -0.70      0.00
    0   15    4     -1.79      0.00
    0   16    4      0.30      0.00
    0    1    5    -19.47      0.00
    0    2    5     11.52      0.00
    0    3    5      4.85      0.00
    0    4    5      2.67      0.00
    0    5    5      5.31      0.00
    0    6    5     -4.06      0.00
    0    7    5     -0.95      0.00
    0    8    5      7.12      0.00
    0    9    5     -1.24      0.00
    0   10    5      0.04      0.00
    0   11    5      0.91      0.00
    0   12    5     -6.53      0.00
    0   13    5     -1.76      0.00
    0   14    5     -1.21      0.00
    0   15    5     -4.64      0.00
    0   16    5      1.63      0.00
    0    0    6      7.72      0.00
    0    1    6     24.55      0.00
    0    2    6      6.20      0.00
    0    3    6      2.06      0.00
    0    4    6     14.07      0.00
    0    5    6      4.53      0.00
    0    6    6      1.94      0.00
    0    7    6      0.29      0.00
    0    8    6     -2.89      0.00
    0    9    6      1.45      0.00
    0   10    6     -2.66      0.00
    0   11    6      0.40      0.00
    0   12    6      0.79      0.00
    0   13    6     -0.88      0.00
    0   14    6     -0.10      0.00
    0   15    6     -0.43      0.00
    0    1    7     -3.32      0.00
    0    2    7     -5.96      0.00
    0    3    7     -2.85      0.00
    0    4    7     -5.88      0.00
    0    5    7     -5.43      0.00
    0    6    7      5.72      0.00
    0    7    7      0.97      0.00
    0    8    7     -2.46      0.00
    0    9    7      2.20      0.00
    0   10    7      3.38      0.00
    0   11    7     -0.45      0.00
    0   12    7     -1.19      0.00
    0   13    7      1.60      0.00
    0   14    7     -2.94      0.00
    0   15    7     -0.45      0.00
    0    0    8     17.28      0.00
    0    1    8     -0.36      0.00
    0    2    8    -10.01      0.00
    0    3    8      6.51      0.00
    0    4    8     -2.17      0.00
    0    5    8     -6.07      0.00
    0    7    8      2.28      0.00
    0    8    8      2.01      0.00
    0    9    8      3.49      0.00
    0   10    8      1.39      0.00
    0   11    8     -0.47      0.00
    0   12    8      1.37      0.00
    0   13    8     -3.05      0.00
    0   14    8      0.65      0.00
    0   15    8      0.61      0.00
    0    1    9     -1.43      0.00
    0    2    9      5.35      0.00
    0    3    9     -6.55      0.00
    0    4    9     -3.18      0.00
    0    5    9     -0.67      0.00
    0    7    9      2.19      0.00
    0    8    9     -1.27      0.00
    0    9    9      4.49      0.00
    0   10    9     -0.25      0.00
    0   11    9      5.47      0.00
    0   12    9      3.14      0.00
    0   13    9     -0.89      0.00
    0   14    9      1.51      0.00
    0    0   10      2.51      0.00
    0    1   10     -8.73      0.00
    0    2   10      0.18      0.00
    0    3   10     -4.51      0.00
    0    4   10      0.83      0.00
    0    7   10      2.55      0.00
    0    8   10     -2.78      0.00
    0    9   10     -5.42      0.00
    0   10   10     -1.99      0.00
    0   11   10      0.69      0.00
    0   12   10     -2.01      0.00
    0   13   10     -1.30      0.00
    0   14   10     -0.56      0.00
    0    1   11      3.60      0.00
    0    2   11      3.43      0.00
    0    3   11      4.70      0.00
    0    7   11     -3.27      0.00
    0    8   11      4.39      0.00
    0    9   11     -4.67      0.00
    0   10   11     -0.25      0.00
    0   11   11      1.90      0.00
    0   12   11      0.38      0.00
    0   13   11      0.79      0.00
    0    0   12      7.96      0.00
    0    1   12      8.90      0.00
    0    2   12     10.45      0.00
    0    7   12      0.84      0.00
    0    8   12     -0.78      0.00
    0   10   12     -4.28      0.00
    0   11   12     -2.48      0.00
    0   12   12      1.57      0.00
    0   13   12      0.76      0.00
    0    1   13      0.84      0.00
    0    7   13     -2.57      0.00
    0    8   13      0.13      0.00
    0    9   13      0.72      0.00
    0   10   13      1.60      0.00
    0   11   13     -2.18      0.00
    0   12   13      2.00      0.00
    0    6   14      9.44      0.00
    0    7   14     -0.80      0.00
    0    8   14      1.86      0.00
    0    9   14      2.54      0.00
    0   10   14      1.90      0.00
    0   11   14     -0.26      0.00
    0    6   15     -3.01      0.00
    0    7   15      0.55      0.00
    0    8   15     -1.76      0.00
    0    9   15      0.66      0.00
    0   10   15      0.68      0.00
    0    5   16      1.26      0.00
    0    6   16     -0.92      0.00
    0    7   16      0.98      0.00
    0    8   16     -1.83      0.00
    0    9   16     -0.11      0.00
    0    5   17      2.17      0.00
    0    6   17     -0.05      0.00
    0    7   17     -1.80      0.00
    0    4   18      0.72      0.00
    0    5   18      3.33      0.00
    0    6   18     -2.36      0.00
    1    0    1   -165.71      0.00
    1    1    1    -14.38      0.00
    1    2    1    -31.39      0.00
    1    3    1    -14.79      0.00
    1    4    1     -3.43      0.00
    1    5    1    -12.62      0.00
    1    6    1      7.93      0.00
    1    7    1     -7.83      0.00
    1    8    1      2.20      0.00
    1    9    1     -0.28      0.00
    1   10    1     -2.40      0.00
    1   11    1      2.65      0.00
    1   12    1     -1.28      0.00
    1   13    1      3.03      0.00
    1   14    1     -2.35      0.00
    1    2    2     48.37      0.00
    1    3    2    -40.35      0.00
    1    4    2     19.68      0.00
    1    5    2      0.53      0.00
    1    6    2     -5.69      0.00
    1    7    2      8.18      0.00
    1    8    2     -4.08      0.00
    1    9    2      5.59      0.00
    1   10    2     -2.14      0.00
    1   11    2     -1.88      0.00
    1   12    2      2.49      0.00
    1   13    2     -2.45      0.00
    1   14    2      3.32      0.00
    1   15    2     -1.66      0.00
    1    0    3     52.71      0.00
    1    1    3      1.79      0.00
    1    2    3     -2.75      0.00
    1    3    3     -5.75      0.00
    1    4    3      3.05      0.00
    1    5    3      0.50      0.00
    1    6    3     -0.93      0.00
    1    7    3      0.76      0.00
    1    8    3     -1.93      0.00
    1    9    3      3.60      0.00
    1   10    3      0.01      0.00
    1   11    3     -0.16      0.00
    1   12    3      0.81      0.00
    1   13    3     -1.60      0.00
    1   14    3      2.64      0.00
    1   15    3     -0.21      0.00
    1   16    3     -1.47      0.00
    1    1    4      3.38      0.00
    1    2    4     -9.04      0.00
    1    3    4     -5.39      0.00
    1    4    4     -0.75      0.00
    1    5    4     -7.18      0.00
    1    6    4      5.25      0.00
    1    7    4     -2.98      0.00
    1    8    4      0.96      0.00
    1    9    4     -0.29      0.00
    1   10    4     -2.22      0.00
    1   11    4      2.34      0.00
    1   12    4     -0.28      0.00
    1   13    4      1.39      0.00
    1   14    4     -0.29      0.00
    1   15    4      2.74      0.00
    1   16    4      0.26      0.00
    1    0    5     21.19      0.00
    1    1    5    -17.49      0.00
    1    2    5     -5.38      0.00
    1    3    5      0.09      0.00
    1    4    5    -13.95      0.00
    1    5    5      2.97      0.00
    1    6    5     -8.27      0.00
    1    7    5     -1.24      0.00
    1    8    5      2.51      0.00
    1    9    5     -2.03      0.00
    1   10    5      2.16      0.00
    1   11    5      1.47      0.00
    1   12    5     -1.01      0.00
    1   13    5      2.17      0.00
    1   14    5      0.42      0.00
    1   15    5     -0.75      0.00
    1   16    5      1.51      0.00
    1    1    6     10.19      0.00
    1    2    6      0.10      0.00
    1    3    6     -3.84      0.00
    1    4    6      7.46      0.00
    1    5    6      1.10      0.00
    1    6    6     -2.28      0.00
    1    7    6      6.50      0.00
    1    8    6     -6.23      0.00
    1    9    6     -0.77      0.00
    1   10    6      3.14      0.00
    1   11    6     -4.01      0.00
    1   12    6      3.30      0.00
    1   13    6      2.95      0.00
    1   14    6      0.83      0.00
    1   15    6      2.20      0.00
    1    0    7    -12.90      0.00
    1    1    7     -7.33      0.00
    1    2    7      3.48      0.00
    1    3    7     -4.77      0.00
    1    4    7     -1.08      0.00
    1    5    7     -1.80      0.00
    1    6    7     -0.97      0.00
    1    7    7      1.20      0.00
    1    8    7     -2.69      0.00
    1    9    7     -0.40      0.00
    1   10    7      2.26      0.00
    1   11    7     -4.24      0.00
    1   12    7      2.38      0.00
    1   13    7     -0.72      0.00
    1   14    7     -0.11      0.00
    1   15    7      0.77      0.00
    1    1    8      5.29      0.00
    1    2    8     -5.21      0.00
    1    3    8      7.14      0.00
    1    4    8      3.25      0.00
    1    5    8     -0.95      0.00
    1    6    8      1.09      0.00
    1    7    8     -4.20      0.00
    1    8    8      3.83      0.00
    1    9    8     -2.26      0.00
    1   10    8     -4.22      0.00
    1   11    8      0.20      0.00
    1   12    8     -3.08      0.00
    1   13    8     -1.67      0.00
    1   14    8      1.72      0.00
    1   15    8     -1.63      0.00
    1    0    9      0.45      0.00
    1    1    9      2.51      0.00
    1    2    9      4.22      0.00
    1    3    9      5.79      0.00
    1    4    9     -4.84      0.00
    1    5    9      6.65      0.00
    1    6    9      0.23      0.00
    1    7    9     -5.01      0.00
    1    8    9     -0.12      0.00
    1    9    9      2.62      0.00
    1   10    9     -2.48      0.00
    1   11    9      1.90      0.00
    1   12    9     -0.76      0.00
    1   13    9      2.09      0.00
    1   14    9     -0.78      0.00
    1    1   10     -6.27      0.00
    1    2   10      2.17      0.00
    1    3   10      1.91      0.00
    1    4   10     -1.40      0.00
    1    6   10     -0.15      0.00
    1    7   10      0.92      0.00
    1    8   10     -1.58      0.00
    1    9   10      0.93      0.00
    1   10   10      0.07      0.00
    1   11   10     -3.18      0.00
    1   12   10      1.95      0.00
    1   13   10     -1.42      0.00
    1   14   10      1.15      0.00
    1    0   11     -6.51      0.00
    1    1   11      5.08      0.00
    1    2   11     -4.12      0.00
    1    3   11     -4.57      0.00
    1    6   11      5.54      0.00
    1    7   11     -1.47      0.00
    1    8   11      7.20      0.00
    1    9   11      3.02      0.00
    1   10   11      4.28      0.00
    1   11   11      2.61      0.00
    1   12   11     -1.22      0.00
    1   13   11      0.63      0.00
    1    1   12     -1.47      0.00
    1    2   12      2.71      0.00
    1    5   12     -5.12      0.00
    1    6   12      2.26      0.00
    1    7   12      1.88      0.00
    1    8   12     -0.61      0.00
    1    9   12      0.76      0.00
    1   10   12     -0.04      0.00
    1   11   12      1.41      0.00
    1   12   12     -1.98      0.00
    1   13   12     -0.23      0.00
    1    0   13     -1.60      0.00
    1    1   13     -7.99      0.00
    1    5   13      7.18      0.00
    1    6   13    -10.01      0.00
    1    7   13      2.03      0.00
    1    8   13     -3.59      0.00
    1    9   13     -0.49      0.00
    1   10   13      1.38      0.00
    1   11   13      0.11      0.00
    1   12   13      0.01      0.00
    1    5   14     -0.54      0.00
    1    6   14      2.35      0.00
    1    7   14      3.96      0.00
    1    8   14     -3.02      0.00
    1    9   14     -0.85      0.00
    1   10   14      0.10      0.00
    1   11   14     -1.81      0.00
    1    4   15      0.09      0.00
    1    5   15     -1.61      0.00
    1    6   15      1.65      0.00
    1    7   15     -1.56      0.00
    1    8   15     -0.25      0.00
    1    9   15      1.42      0.00
    1   10   15     -3.14      0.00
    1    3   16      5.72      0.00
    1    4   16     -9.47      0.00
    1    5   16      2.94      0.00
    1    6   16      1.95      0.00
    1    7   16     -3.39      0.00
    1    8   16      3.32      0.00
    1    9   16      1.16      0.00
    1    3   17      3.04      0.00
    1    4   17     -1.94      0.00
    1    5   17      0.43      0.00
    1    6   17     -0.31      0.00
    1    7   17     -0.69      0.00
    1    4   18     -1.20      0.00
    1    5   18     -2.20      0.00
    1    6   18      1.13      0.00
    2    0    0     63.20      0.00
    2    1    0   -127.05      0.00
    2    2    0     10.88      0.00
    2    3    0     17.02      0.00
    2    4    0    -32.91      0.00
    2    5    0     26.21      0.00
    2    6    0    -11.59      0.00
    2    7    0     -0.04      0.00
    2    8    0     -2.75      0.00
    2    9    0     -4.53      0.00
    2   10    0      2.51      0.00
    2   11    0     -6.36      0.00
    2   12    0      3.86      0.00
    2   13    0     -1.51      0.00
    2   14    0      1.55      0.00
    2    1    1     -5.21      0.00
    2    2    1    -13.70      0.00
    2    3    1      9.37      0.00
    2    4    1     -9.84      0.00
    2    5    1     18.32      0.00
    2    6    1     -2.53      0.00
    2    7    1      3.94      0.00
    2    8    1      3.31      0.00
    2    9    1     -3.84      0.00
    2   10    1      0.18      0.00
    2   11    1     -1.70      0.00
    2   12    1     -4.59      0.00
    2   13    1     -0.26      0.00
    2   14    1     -0.37      0.00
    2   15    1      1.69      0.00
    2    0    2    -30.54      0.00
    2    1    2      2.41      0.00
    2    2    2     -7.17      0.00
    2    3    2    -12.26      0.00
    2    4    2      8.92      0.00
    2    5    2     -5.87      0.00
    2    6    2      1.09      0.00
    2    7    2      3.02      0.00
    2    8    2     -3.42      0.00
    2    9    2      1.11      0.00
    2   10    2      0.24      0.00
    2   11    2     -1.16      0.00
    2   12    2      0.58      0.00
    2   13    2     -1.53      0.00
    2   14    2     -0.27      0.00
    2   15    2     -0.56      0.00
    2   16    2      1.78      0.00
    2    1    3     18.32      0.00
    2    2    3    -44.35      0.00
    2    3    3     21.86      0.00
    2    4    3    -15.74      0.00
    2    5    3      2.25      0.00
    2    6    3      6.68      0.00
    2    7    3     -1.10      0.00
    2    8    3      2.53      0.00
    2    9    3     -2.24      0.00
    2   10    3      0.79      0.00
    2   11    3     -3.14      0.00
    2   12    3      0.26      0.00
    2   13    3     -0.98      0.00
    2   14    3     -1.21      0.00
    2   15    3      1.40      0.00
    2   16    3     -1.46      0.00
    2    0    4    -10.65      0.00
    2    1    4      5.57      0.00
    2    2    4     -6.43      0.00
    2    3    4     -4.62      0.00
    2    4    4     -2.13      0.00
    2    5    4     -5.77      0.00
    2    6    4      2.36      0.00
    2    7    4      0.33      0.00
    2    8    4      2.98      0.00
    2    9    4     -0.70      0.00
    2   10    4     -1.35      0.00
    2   11    4      2.36      0.00
    2   12    4     -3.00      0.00
    2   13    4     -0.89      0.00
    2   14    4      1.81      0.00
    2   15    4     -0.19      0.00
    2   16    4      1.44      0.00
    2    1    5     -8.33      0.00
    2    2    5      2.90      0.00
    2    3    5     -7.12      0.00
    2    4    5     -6.65      0.00
    2    5    5     -0.46      0.00
    2    6    5     -5.39      0.00
    2    7    5     -2.53      0.00
    2    8    5      1.07      0.00
    2    9    5     -2.57      0.00
    2   10    5      0.50      0.00
    2   11    5      2.64      0.00
    2   12    5      0.31      0.00
    2   13    5      1.03      0.00
    2   14    5     -0.01      0.00
    2   15    5     -1.46      0.00
    2   16    5      0.41      0.00
    2    0    6    -18.10      0.00
    2    1    6      3.96      0.00
    2    2    6     -6.09      0.00
    2    3    6     -5.70      0.00
    2    4    6      1.12      0.00
    2    5    6     -5.13      0.00
    2    6    6      0.06      0.00
    2    7    6      1.98      0.00
    2    8    6     -0.26      0.00
    2    9    6      1.27      0.00
    2   10    6     -0.99      0.00
    2   11    6      0.84      0.00
    2   12    6     -0.99      0.00
    2   13    6     -0.41      0.00
    2   14    6     -0.47      0.00
    2   15    6      1.42      0.00
    2    1    7      0.72      0.00
    2    2    7     -0.50      0.00
    2    3    7      4.64      0.00
    2    4    7      1.69      0.00
    2    5    7     -6.68      0.00
    2    6    7      2.37      0.00
    2    7    7      0.40      0.00
    2    8    7     -2.43      0.00
    2    9    7      1.56      0.00
    2   10    7      1.25      0.00
    2   11    7      0.18      0.00
    2   12    7      1.88      0.00
    2   13    7      0.84      0.00
    2   14    7     -2.95      0.00
    2   15    7      1.57      0.00
    2    0    8      8.85      0.00
    2    1    8     -2.85      0.00
    2    2    8     -4.66      0.00
    2    3    8      7.94      0.00
    2    4    8      0.82      0.00
    2    5    8     -5.35      0.00
    2    6    8      0.21      0.00
    2    7    8     -2.02      0.00
    2    8    8     -0.59      0.00
    2    9    8     -1.03      0.00
    2   10    8      0.49      0.00
    2   11    8     -2.97      0.00
    2   12    8      3.39      0.00
    2   13    8      1.28      0.00
    2   14    8     -1.81      0.00
    2   15    8      0.46      0.00
    2    1    9     -1.54      0.00
    2    2    9      3.18      0.00
    2    3    9     -3.07      0.00
    2    4    9     -1.00      0.00
    2    5    9      1.91      0.00
    2    6    9     -1.76      0.00
    2    7    9     -4.40      0.00
    2    8    9      0.57      0.00
    2    9    9      3.28      0.00
    2   10    9     -4.17      0.00
    2   11    9      1.04      0.00
    2   12    9     -0.95      0.00
    2   13    9     -0.61      0.00
    2   14    9      1.23      0.00
    2    0   10     -0.09      0.00
    2    1   10     -7.25      0.00
    2    2   10      0.95      0.00
    2    3   10     -0.80      0.00
    2    4   10      3.93      0.00
    2    5   10     -0.10      0.00
    2    6   10     -0.17      0.00
    2    7   10      0.18      0.00
    2    8   10     -2.83      0.00
    2    9   10     -1.56      0.00
    2   10   10     -0.66      0.00
    2   11   10     -1.82      0.00
    2   12   10     -0.32      0.00
    2   13   10      1.73      0.00
    2   14   10      0.33      0.00
    2    1   11     -2.40      0.00
    2    2   11     -4.68      0.00
    2    3   11     -6.69      0.00
    2    4   11     -2.56      0.00
    2    5   11      2.70      0.00
    2    6   11     -1.88      0.00
    2    7   11     -2.29      0.00
    2    8   11      2.04      0.00
    2    9   11     -2.37      0.00
    2   10   11      0.66      0.00
    2   11   11     -0.26      0.00
    2   12   11     -3.84      0.00
    2   13   11      1.88      0.00
    2    0   12     -4.60      0.00
    2    1   12     -1.37      0.00
    2    2   12      0.73      0.00
    2    3   12     -6.24      0.00
    2    4   12     -1.96      0.00
    2    5   12      1.07      0.00
    2    6   12      2.76      0.00
    2    7   12      0.94      0.00
    2    8   12      0.66      0.00
    2    9   12      0.51      0.00
    2   10   12      0.58      0.00
    2   11   12      0.09      0.00
    2   12   12     -0.30      0.00
    2   13   12     -3.00      0.00
    2    1   13      0.15      0.00
    2    2   13     -0.22      0.00
    2    3   13      1.26      0.00
    2    4   13     -4.05      0.00
    2    5   13      1.69      0.00
    2    7   13      3.06      0.00
    2    8   13     -0.51      0.00
    2    9   13     -0.62      0.00
    2   10   13      2.24      0.00
    2   11   13     -0.87      0.00
    2   12   13      0.66      0.00
    2    4   14      0.72      0.00
    2    5   14     -5.15      0.00
    2    6   14      4.30      0.00
    2    7   14     -0.18      0.00
    2    8   14      0.78      0.00
    2    9   14     -0.41      0.00
    2   10   14      0.24      0.00
    2   11   14      0.93      0.00
    2    2   15      3.37      0.00
    2    3   15     -2.12      0.00
    2    4   15      2.98      0.00
    2    5   15     -2.10      0.00
    2    6   15      0.09      0.00
    2    7   15      1.32      0.00
    2    8   15     -0.04      0.00
    2    9   15      0.52      0.00
    2   10   15     -1.65      0.00
    2    3   16      0.29      0.00
    2    4   16     -1.01      0.00
    2    5   16     -1.69      0.00
    2    6   16     -0.55      0.00
    2    7   16      1.14      0.00
    2    8   16     -0.07      0.00
    2    9   16      2.41      0.00
    2    4   17     -0.20      0.00
    2    5   17     -1.62      0.00
    2    6   17      0.65      0.00
    2    7   17     -0.87      0.00
    2    5   18      0.32      0.00
    3    0    1     93.89      0.00
    3    1    1    106.70      0.00
    3    2    1     12.56      0.00
    3    3    1     20.51      0.00
    3    4    1      9.55      0.00
    3    5    1     -2.65      0.00
    3    6    1      8.10      0.00
    3    7    1     -0.10      0.00
    3    8    1      6.90      0.00
    3    9    1      0.39      0.00
    3   10    1     -0.88      0.00
    3   11    1      3.34      0.00
    3   12    1     -2.67      0.00
    3   13    1      1.38      0.00
    3   14    1     -1.85      0.00
    3   15    1     -0.07      0.00
    3    1    2     25.59      0.00
    3    2    2     59.38      0.00
    3    3    2    -28.47      0.00
    3    4    2      9.81      0.00
    3    5    2     -8.82      0.00
    3    6    2    -10.88      0.00
    3    7    2      0.53      0.00
    3    8    2     -5.26      0.00
    3    9    2      3.51      0.00
    3   10    2     -0.53      0.00
    3   11    2      2.34      0.00
    3   12    2      5.54      0.00
    3   13    2     -1.05      0.00
    3   14    2      1.19      0.00
    3   15    2     -3.21      0.00
    3   16    2     -1.85      0.00
    3    0    3    -30.06      0.00
    3    1    3    -11.94      0.00
    3    2    3     18.92      0.00
    3    3    3     -0.91      0.00
    3    4    3      7.26      0.00
    3    5    3     -0.10      0.00
    3    6    3     -3.51      0.00
    3    7    3      1.01      0.00
    3    8    3     -3.45      0.00
    3    9    3      0.71      0.00
    3   10    3     -1.41      0.00
    3   11    3     -0.83      0.00
    3   12    3      1.52      0.00
    3   13    3      0.94      0.00
    3   14    3     -0.52      0.00
    3   15    3      0.18      0.00
    3   16    3     -0.95      0.00
    3    1    4      4.77      0.00
    3    2    4      8.26      0.00
    3    3    4     10.41      0.00
    3    4    4     14.45      0.00
    3    5    4     -1.58      0.00
    3    6    4      3.95      0.00
    3    7    4     -2.78      0.00
    3    8    4      2.94      0.00
    3    9    4      4.19      0.00
    3   10    4     -1.57      0.00
    3   11    4      2.63      0.00
    3   12    4     -2.79      0.00
    3   13    4     -0.61      0.00
    3   14    4      0.06      0.00
    3   15    4     -1.07      0.00
    3   16    4      0.27      0.00
    3    0    5     16.81      0.00
    3    1    5      1.26      0.00
    3    2    5     13.72      0.00
    3    3    5     10.70      0.00
    3    4    5      4.47      0.00
    3    5    5     13.68      0.00
    3    6    5     -1.23      0.00
    3    7    5      0.61      0.00
    3    8    5     -0.12      0.00
    3    9    5     -2.93      0.00
    3   10    5      0.64      0.00
    3   11    5     -0.12      0.00
    3   12    5     -0.83      0.00
    3   13    5      0.37      0.00
    3   14    5     -0.70      0.00
    3   15    5     -1.79      0.00
    3    1    6     -3.63      0.00
    3    2    6     -0.31      0.00
    3    3    6      1.12      0.00
    3    4    6      1.71      0.00
    3    5    6      3.54      0.00
    3    6    6     -1.17      0.00
    3    7    6      5.88      0.00
    3    8    6      0.48      0.00
    3    9    6      0.37      0.00
    3   10    6      3.68      0.00
    3   11    6     -5.07      0.00
    3   12    6     -4.25      0.00
    3   13    6     -1.53      0.00
    3   14    6     -1.55      0.00
    3   15    6     -2.14      0.00
    3    0    7     12.36      0.00
    3    1    7      5.75      0.00
    3    2    7      3.80      0.00
    3    3    7     -2.72      0.00
    3    4    7      6.82      0.00
    3    5    7      2.52      0.00
    3    6    7      2.62      0.00
    3    7    7      3.55      0.00
    3    8    7     -2.28      0.00
    3    9    7      2.29      0.00
    3   10    7      2.43      0.00
    3   11    7     -0.35      0.00
    3   12    7      1.52      0.00
    3   13    7     -3.33      0.00
    3   14    7      2.57      0.00
    3   15    7     -1.30      0.00
    3    1    8      4.77      0.00
    3    2    8     -9.17      0.00
    3    3    8     -3.45      0.00
    3    4    8     -0.59      0.00
    3    5    8     -0.86      0.00
    3    6    8      2.67      0.00
    3    7    8     -0.28      0.00
    3    8    8      0.53      0.00
    3    9    8     -2.18      0.00
    3   10    8      0.69      0.00
    3   11    8      5.30      0.00
    3   12    8     -0.20      0.00
    3   13    8      0.29      0.00
    3   14    8      0.76      0.00
    3   15    8     -0.18      0.00
    3    0    9     -0.34      0.00
    3    1    9     -1.27      0.00
    3    2    9     -3.56      0.00
    3    3    9     -3.08      0.00
    3    4    9    -10.99      0.00
    3    5    9      6.54      0.00
    3    6    9      1.65      0.00
    3    7    9      2.29      0.00
    3    8    9      3.32      0.00
    3    9    9      2.51      0.00
    3   10    9     -3.30      0.00
    3   11    9      3.38      0.00
    3   12    9     -2.42      0.00
    3   13    9     -3.06      0.00
    3   14    9     -1.26      0.00
    3    1   10     -0.48      0.00
    3    2   10      7.75      0.00
    3    3   10      4.82      0.00
    3    4   10     -4.45      0.00
    3    5   10     -1.23      0.00
    3    6   10      0.68      0.00
    3    7   10      4.40      0.00
    3    8   10     -1.82      0.00
    3    9   10      1.62      0.00
    3   10   10      2.81      0.00
    3   11   10     -0.92      0.00
    3   12   10      7.12      0.00
    3   13   10     -2.85      0.00
    3   14   10     -0.83      0.00
    3    0   11      2.58      0.00
    3    1   11      6.22      0.00
    3    2   11      1.86      0.00
    3    3   11      7.84      0.00
    3    4   11      6.52      0.00
    3    5   11     -0.51      0.00
    3    6   11     -4.39      0.00
    3    7   11     -2.00      0.00
    3    8   11      0.65      0.00
    3    9   11     -8.15      0.00
    3   10   11     -2.53      0.00
    3   11   11      1.08      0.00
    3   12   11     -0.76      0.00
    3   13   11      2.38      0.00
    3    1   12      3.10      0.00
    3    2   12      1.06      0.00
    3    3   12      1.18      0.00
    3    4   12      1.74      0.00
    3    5   12     -0.24      0.00
    3    6   12     -0.89      0.00
    3    7   12     -2.74      0.00
    3    8   12      3.67      0.00
    3    9   12     -0.24      0.00
    3   10   12     -2.34      0.00
    3   11   12      0.81      0.00
    3   12   12      1.61      0.00
    3    0   13      3.52      0.00
    3    1   13      4.23      0.00
    3    2   13      5.10      0.00
    3    3   13      5.21      0.00
    3    4   13      2.56      0.00
    3    5   13      2.69      0.00
    3    6   13     -3.23      0.00
    3    7   13      1.53      0.00
    3    8   13     -0.86      0.00
    3    9   13      2.20      0.00
    3   10   13     -1.54      0.00
    3   11   13     -1.57      0.00
    3   12   13      1.22      0.00
    3    1   14     -2.09      0.00
    3    2   14     -3.89      0.00
    3    3   14     -1.95      0.00
    3    4   14      2.13      0.00
    3    5   14     -0.90      0.00
    3    6   14     -2.38      0.00
    3    7   14     -0.77      0.00
    3    8   14     -1.25      0.00
    3    9   14      1.79      0.00
    3   10   14      1.35      0.00
    3   11   14     -0.24      0.00
    3    2   15     -2.56      0.00
    3    3   15      0.83      0.00
    3    4   15      2.59      0.00
    3    5   15     -0.13      0.00
    3    6   15      1.61      0.00
    3    7   15     -0.10      0.00
    3    8   15      0.04      0.00
    3    9   15     -0.71      0.00
    3   10   15      1.28      0.00
    3    3   16      1.92      0.00
    3    4   16      0.65      0.00
    3    5   16      3.03      0.00
    3    6   16     -1.05      0.00
    3    7   16     -1.70      0.00
    3    8   16     -0.22      0.00
    3    9   16     -2.03      0.00
    3    4   17     -1.22      0.00
    3    5   17      1.62      0.00
    3    6   17     -0.53      0.00
    3    7   17      0.39      0.00
    3    5   18      0.96      0.00
    4    0    0    -78.51      0.00
    4    1    0   -123.19      0.00
    4    2    0     -4.23      0.00
    4    3    0    -14.17      0.00
    4    4    0    -25.19      0.00
    4    5    0      3.84      0.00
    4    6    0    -12.35      0.00
    4    7    0     -3.87      0.00
    4    8    0     -2.00      0.00
    4    9    0      0.96      0.00
    4   10    0      5.57      0.00
    4   11    0     -1.06      0.00
    4   12    0      2.07      0.00
    4   13    0     -1.37      0.00
    4   14    0      0.99      0.00
    4   15    0      0.12      0.00
    4    1    1    -40.82      0.00
    4    2    1     -7.71      0.00
    4    3    1      6.77      0.00
    4    4    1     -4.72      0.00
    4    5    1     13.88      0.00
    4    6    1     -5.28      0.00
    4    7    1      2.15      0.00
    4    8    1      2.08      0.00
    4    9    1     -3.01      0.00
    4   10    1      3.81      0.00
    4   11    1      1.71      0.00
    4   12    1     -0.95      0.00
    4   13    1      1.63      0.00
    4   14    1      0.30      0.00
    4   15    1      0.48      0.00
    4    0    2    -24.45      0.00
    4    1    2     -5.78      0.00
    4    2    2    -13.78      0.00
    4    3    2    -10.60      0.00
    4    4    2      5.58      0.00
    4    5    2     -1.70      0.00
    4    6    2     -0.19      0.00
    4    7    2      0.46      0.00
    4    8    2     -3.12      0.00
    4    9    2      0.64      0.00
    4   10    2      0.86      0.00
    4   11    2     -3.00      0.00
    4   12    2      0.59      0.00
    4   13    2     -0.32      0.00
    4   14    2      1.39      0.00
    4   15    2     -0.32      0.00
    4   16    2     -0.82      0.00
    4    1    3     -8.93      0.00
    4    2    3    -25.50      0.00
    4    3    3     11.89      0.00
    4    4    3    -10.48      0.00
    4    5    3      3.25      0.00
    4    6    3      2.66      0.00
    4    7    3     -2.28      0.00
    4    8    3     -0.13      0.00
    4    9    3     -2.30      0.00
    4   10    3      1.83      0.00
    4   11    3     -1.56      0.00
    4   12    3      0.95      0.00
    4   13    3     -1.30      0.00
    4   14    3      0.17      0.00
    4   15    3      5.25      0.00
    4   16    3      1.16      0.00
    4    0    4     27.21      0.00
    4    1    4      6.44      0.00
    4    2    4    -12.91      0.00
    4    3    4     -0.37      0.00
    4    4    4     -4.43      0.00
    4    5    4     -3.23      0.00
    4    6    4      1.85      0.00
    4    7    4     -2.64      0.00
    4    8    4      2.15      0.00
    4    9    4     -0.52      0.00
    4   10    4      1.20      0.00
    4   11    4      3.11      0.00
    4   12    4      1.10      0.00
    4   13    4      0.48      0.00
    4   14    4      0.40      0.00
    4   15    4     -1.30      0.00
    4   16    4      1.01      0.00
    4    1    5      7.88      0.00
    4    2    5      2.74      0.00
    4    3    5     -6.71      0.00
    4    4    5     -3.85      0.00
    4    5    5      4.64      0.00
    4    6    5     -0.07      0.00
    4    7    5     -0.29      0.00
    4    8    5     -0.21      0.00
    4    9    5     -6.10      0.00
    4   10    5     -2.88      0.00
    4   11    5      1.50      0.00
    4   12    5      2.44      0.00
    4   13    5      2.75      0.00
    4   14    5      1.59      0.00
    4   15    5      1.77      0.00
    4    0    6    -23.38      0.00
    4    1    6      0.99      0.00
    4    2    6     -5.70      0.00
    4    3    6     -3.92      0.00
    4    4    6     -3.62      0.00
    4    5    6     -7.54      0.00
    4    6    6     -1.63      0.00
    4    7    6     -2.10      0.00
    4    8    6      0.99      0.00
    4    9    6     -0.14      0.00
    4   10    6     -3.67      0.00
    4   11    6     -0.44      0.00
    4   12    6     -0.32      0.00
    4   13    6      2.31      0.00
    4   14    6     -1.21      0.00
    4   15    6      0.52      0.00
    4    1    7      1.55      0.00
    4    2    7      1.18      0.00
    4    3    7      2.26      0.00
    4    4    7      1.44      0.00
    4    5    7     -3.63      0.00
    4    6    7      2.23      0.00
    4    7    7     -2.64      0.00
    4    8    7     -0.07      0.00
    4    9    7      2.01      0.00
    4   10    7     -0.78      0.00
    4   11    7     -3.39      0.00
    4   12    7      0.61      0.00
    4   13    7      3.30      0.00
    4   14    7      1.33      0.00
    4   15    7      1.32      0.00
    4    0    8     -1.23      0.00
    4    1    8     -4.31      0.00
    4    2    8      2.35      0.00
    4    3    8      6.25      0.00
    4    4    8     -0.13      0.00
    4    5    8     -3.62      0.00
    4    6    8      1.07      0.00
    4    7    8     -5.10      0.00
    4    8    8     -3.09      0.00
    4    9    8     -1.15      0.00
    4   10    8      2.27      0.00
    4   11    8     -3.64      0.00
    4   12    8      0.97      0.00
    4   13    8      2.13      0.00
    4   14    8     -0.85      0.00
    4    1    9     -3.77      0.00
    4    2    9      0.28      0.00
    4    3    9      2.49      0.00
    4    4    9      3.09      0.00
    4    5    9      1.56      0.00
    4    6    9      2.67      0.00
    4    7    9     -0.57      0.00
    4    9    9      1.57      0.00
    4   10    9     -4.66      0.00
    4   11    9     -1.63      0.00
    4   12    9     -4.73      0.00
    4   13    9     -0.35      0.00
    4   14    9      1.83      0.00
    4    0   10      9.10      0.00
    4    1   10      2.33      0.00
    4    2   10      2.39      0.00
    4    3   10     -0.58      0.00
    4    4   10     -1.12      0.00
    4    5   10     -5.26      0.00
    4    6   10      2.67      0.00
    4    7   10     -1.83      0.00
    4    8   10      3.09      0.00
    4    9   10      5.06      0.00
    4   10   10      6.53      0.00
    4   11   10      0.95      0.00
    4   12   10      0.04      0.00
    4   13   10     -0.13      0.00
    4   14   10      0.12      0.00
    4    1   11     -2.46      0.00
    4    2   11      3.98      0.00
    4    3   11      0.06      0.00
    4    4   11      6.13      0.00
    4    5   11      0.61      0.00
    4    6   11     -0.94      0.00
    4    7   11      1.47      0.00
    4    8   11     -3.59      0.00
    4    9   11     -0.53      0.00
    4   10   11     -0.20      0.00
    4   11   11      1.95      0.00
    4   12   11     -1.61      0.00
    4   13   11      1.76      0.00
    4    0   12     -4.78      0.00
    4    1   12     -4.85      0.00
    4    2   12     -5.28      0.00
    4    3   12     -8.89      0.00
    4    4   12     -2.81      0.00
    4    5   12     -1.88      0.00
    4    6   12     -0.19      0.00
    4    7   12      0.31      0.00
    4    8   12      0.86      0.00
    4    9   12      3.93      0.00
    4   10   12      1.51      0.00
    4   11   12      0.42      0.00
    4   12   12      0.82      0.00
    4    1   13      0.99      0.00
    4    2   13      1.67      0.00
    4    3   13      1.87      0.00
    4    4   13      0.28      0.00
    4    5   13      1.13      0.00
    4    6   13     -0.13      0.00
    4    7   13      0.12      0.00
    4    8   13     -1.99      0.00
    4    9   13     -2.87      0.00
    4   10   13      1.47      0.00
    4   11   13     -0.89      0.00
    4   12   13     -2.13      0.00
    4    0   14     -0.85      0.00
    4    1   14     -0.41      0.00
    4    2   14     -0.22      0.00
    4    3   14     -2.12      0.00
    4    4   14     -0.88      0.00
    4    5   14      1.11      0.00
    4    6   14     -1.81      0.00
    4    7   14     -1.43      0.00
    4    8   14     -2.14      0.00
    4    9   14     -3.24      0.00
    4   10   14      0.26      0.00
    4   11   14      1.64      0.00
    4    1   15      0.37      0.00
    4    2   15      2.79      0.00
    4    3   15      0.22      0.00
    4    4   15     -0.81      0.00
    4    5   15     -0.38      0.00
    4    6   15      1.12      0.00
    4    7   15      1.45      0.00
    4    8   15      1.56      0.00
    4    9   15     -0.21      0.00
    4   10   15     -1.00      0.00
    4    3   16     -0.65      0.00
    4    4   16      0.90      0.00
    4    5   16      0.44      0.00
    4    6   16     -0.51      0.00
    4    7   16     -0.87      0.00
    4    8   16     -0.71      0.00
    4    9   16     -0.63      0.00
    4    5   17     -2.75      0.00
    4    6   17      1.52      0.00
    4    7   17      1.36      0.00
    5    0    1     -7.99      0.00
    5    1    1      5.87      0.00
    5    2    1    -12.39      0.00
    5    3    1      7.64      0.00
    5    4    1     -1.28      0.00
    5    5    1      1.53      0.00
    5    6    1      5.01      0.00
    5    7    1     -3.70      0.00
    5    8    1      0.53      0.00
    5    9    1     -3.64      0.00
    5   10    1     -5.08      0.00
    5   11    1      1.32      0.00
    5   12    1      0.23      0.00
    5   13    1      1.11      0.00
    5   14    1     -1.22      0.00
    5   15    1      0.96      0.00
    5   16    1      1.73      0.00
    5    1    2     -0.46      0.00
    5    2    2      7.12      0.00
    5    3    2    -14.22      0.00
    5    4    2      6.24      0.00
    5    5    2     -1.99      0.00
    5    6    2      2.28      0.00
    5    7    2      5.27      0.00
    5    8    2     -1.21      0.00
    5    9    2      0.61      0.00
    5   10    2     -5.24      0.00
    5   11    2     -5.93      0.00
    5   12    2     -3.38      0.00
    5   13    2     -0.62      0.00
    5   14    2     -0.21      0.00
    5   15    2     -2.02      0.00
    5   16    2      1.11      0.00
    5    0    3    -17.08      0.00
    5    1    3     -9.14      0.00
    5    2    3      4.34      0.00
    5    3    3    -11.98      0.00
    5    4    3      0.73      0.00
    5    5    3     -2.51      0.00
    5    6    3     -2.06      0.00
    5    7    3      4.31      0.00
    5    8    3     -1.04      0.00
    5    9    3      4.81      0.00
    5   10    3     -0.71      0.00
    5   11    3      0.13      0.00
    5   12    3     -1.01      0.00
    5   13    3     -1.44      0.00
    5   14    3     -0.56      0.00
    5   15    3      0.20      0.00
    5   16    3      0.38      0.00
    5    1    4     -4.10      0.00
    5    2    4     -4.10      0.00
    5    3    4     -7.34      0.00
    5    4    4      1.04      0.00
    5    5    4     -7.75      0.00
    5    6    4      2.11      0.00
    5    7    4     -0.96      0.00
    5    8    4      0.41      0.00
    5    9    4      3.67      0.00
    5   10    4     -2.26      0.00
    5   11    4      1.06      0.00
    5   12    4     -0.65      0.00
    5   13    4     -0.06      0.00
    5   14    4     -0.60      0.00
    5   15    4     -3.59      0.00
    5    0    5     -1.93      0.00
    5    1    5     -6.80      0.00
    5    2    5      1.38      0.00
    5    3    5     -2.09      0.00
    5    4    5     -3.11      0.00
    5    5    5      1.15      0.00
    5    6    5     -0.95      0.00
    5    7    5     -0.04      0.00
    5    8    5      1.67      0.00
    5    9    5      1.46      0.00
    5   10    5      0.69      0.00
    5   11    5      0.12      0.00
    5   12    5     -3.75      0.00
    5   13    5     -1.10      0.00
    5   14    5      2.48      0.00
    5   15    5      1.52      0.00
    5    1    6     -3.93      0.00
    5    2    6     -0.92      0.00
    5    3    6      0.58      0.00
    5    4    6     -3.69      0.00
    5    5    6     -2.40      0.00
    5    6    6     -7.17      0.00
    5    7    6      2.40      0.00
    5    8    6     -5.91      0.00
    5    9    6      0.73      0.00
    5   10    6      5.88      0.00
    5   11    6      0.69      0.00
    5   12    6      2.63      0.00
    5   13    6     -2.91      0.00
    5   14    6     -2.14      0.00
    5   15    6     -0.25      0.00
    5    0    7      3.73      0.00
    5    1    7     -2.63      0.00
    5    2    7      0.99      0.00
    5    3    7     -6.36      0.00
    5    4    7      2.88      0.00
    5    5    7      1.60      0.00
    5    6    7     -4.94      0.00
    5    7    7      5.75      0.00
    5    8    7     -1.62      0.00
    5    9    7     -0.30      0.00
    5   10    7      1.85      0.00
    5   11    7      0.79      0.00
    5   12    7      2.77      0.00
    5   13    7     -2.02      0.00
    5   14    7      1.83      0.00
    5   15    7     -1.02      0.00
    5    1    8      7.58      0.00
    5    2    8     -2.80      0.00
    5    3    8      1.52      0.00
    5    4    8     -0.68      0.00
    5    5    8     -3.10      0.00
    5    6    8      1.16      0.00
    5    7    8     -1.85      0.00
    5    8    8     -0.50      0.00
    5    9    8     -0.95      0.00
    5   10    8     -0.68      0.00
    5   11    8      4.77      0.00
    5   12    8      1.37      0.00
    5   13    8      0.18      0.00
    5   14    8     -2.29      0.00
    5    0    9     -5.35      0.00
    5    1    9     -3.18      0.00
    5    2    9     -1.33      0.00
    5    3    9      4.10      0.00
    5    4    9     -1.86      0.00
    5    5    9      5.58      0.00
    5    6    9     -5.36      0.00
    5    7    9      3.37      0.00
    5    8    9     -1.31      0.00
    5    9    9     -1.98      0.00
    5   10    9     -5.70      0.00
    5   11    9     -1.87      0.00
    5   12    9      1.38      0.00
    5   13    9      3.89      0.00
    5   14    9     -1.67      0.00
    5    1   10     -2.10      0.00
    5    2   10     -3.32      0.00
    5    3   10     -6.16      0.00
    5    4   10     -6.77      0.00
    5    5   10      2.17      0.00
    5    6   10     -5.73      0.00
    5    7   10     -3.33      0.00
    5    8   10      1.45      0.00
    5    9   10      0.02      0.00
    5   10   10      2.20      0.00
    5   11   10     -4.66      0.00
    5   12   10      0.82      0.00
    5   13   10     -2.56      0.00
    5    0   11     -7.49      0.00
    5    1   11     -2.10      0.00
    5    2   11     -0.22      0.00
    5    3   11      1.26      0.00
    5    4   11     -0.45      0.00
    5    5   11      3.53      0.00
    5    6   11      1.32      0.00
    5    7   11     -2.70      0.00
    5    8   11     -1.90      0.00
    5    9   11     -4.74      0.00
    5   10   11     -2.84      0.00
    5   11   11      0.19      0.00
    5   12   11     -2.22      0.00
    5   13   11      0.20      0.00
    5    1   12     -2.30      0.00
    5    2   12     -5.64      0.00
    5    3   12     -2.88      0.00
    5    4   12     -5.38      0.00
    5    5   12      1.28      0.00
    5    6   12      2.99      0.00
    5    7   12      0.45      0.00
    5    8   12      2.82      0.00
    5    9   12      0.00      0.00
    5   10   12      0.94      0.00
    5   11   12      0.00      0.00
    5   12   12      0.89      0.00
    5    0   13      0.90      0.00
    5    1   13      2.71      0.00
    5    2   13      2.04      0.00
    5    3   13      1.23      0.00
    5    4   13     -3.02      0.00
    5    5   13     -0.64      0.00
    5    7   13      2.85      0.00
    5    8   13      2.05      0.00
    5    9   13      3.41      0.00
    5   10   13     -2.84      0.00
    5   11   13      1.11      0.00
    5    1   14      1.03      0.00
    5    2   14      2.51      0.00
    5    3   14      2.79      0.00
    5    4   14     -0.50      0.00
    5    5   14     -2.95      0.00
    5    6   14     -1.43      0.00
    5    7   14     -1.15      0.00
    5    8   14      0.62      0.00
    5    9   14      1.53      0.00
    5   10   14     -1.62      0.00
    5   11   14      0.35      0.00
    5    0   15     -2.52      0.00
    5    1   15     -4.31      0.00
    5    3   15     -0.06      0.00
    5    4   15      0.82      0.00
    5    5   15     -1.11      0.00
    5    6   15     -2.10      0.00
    5    7   15      0.32      0.00
    5    8   15      1.42      0.00
    5    9   15     -0.74      0.00
    5   10   15      3.59      0.00
    5    4   16      1.31      0.00
    5    5   16      1.20      0.00
    5    6   16      0.00      0.00
    5    7   16      0.29      0.00
    5    8   16     -2.92      0.00
    5    5   17     -1.42      0.00
    5    6   17      1.75      0.00
    5    7   17      3.54      0.00
    6    0    0     94.50      0.00
    6    1    0     31.31      0.00
    6    2    0     29.66      0.00
    6    3    0      7.68      0.00
    6    4    0      1.50      0.00
    6    5    0      5.52      0.00
    6    6    0      1.46      0.00
    6    7    0      8.55      0.00
    6    8    0      4.49      0.00
    6    9    0      0.45      0.00
    6   10    0      3.83      0.00
    6   11    0     -0.63      0.00
    6   12    0     -2.61      0.00
    6   13    0     -2.11      0.00
    6   14    0      1.81      0.00
    6   15    0     -1.38      0.00
    6    1    1     10.42      0.00
    6    2    1     11.06      0.00
    6    3    1      0.07      0.00
    6    4    1     -6.40      0.00
    6    5    1      5.01      0.00
    6    6    1     -6.76      0.00
    6    7    1      0.76      0.00
    6    8    1      3.03      0.00
    6    9    1     -2.61      0.00
    6   10    1      3.79      0.00
    6   11    1      4.10      0.00
    6   12    1      2.03      0.00
    6   13    1      0.71      0.00
    6   14    1      0.56      0.00
    6   15    1     -1.51      0.00
    6   16    1     -2.09      0.00
    6    0    2     15.55      0.00
    6    1    2     26.24      0.00
    6    2    2     12.62      0.00
    6    3    2      7.79      0.00
    6    4    2      3.48      0.00
    6    5    2     -2.90      0.00
    6    6    2      0.95      0.00
    6    7    2      1.56      0.00
    6    8    2      1.19      0.00
    6    9    2      1.52      0.00
    6   10    2      3.83      0.00
    6   11    2     -1.18      0.00
    6   12    2      1.15      0.00
    6   13    2      1.18      0.00
    6   14    2     -0.53      0.00
    6   15    2      0.74      0.00
    6   16    2      1.03      0.00
    6    1    3     12.64      0.00
    6    2    3      5.59      0.00
    6    3    3     12.32      0.00
    6    4    3     -2.15      0.00
    6    5    3      1.24      0.00
    6    6    3     -2.18      0.00
    6    7    3     -4.71      0.00
    6    8    3     -0.18      0.00
    6    9    3      1.45      0.00
    6   10    3      4.92      0.00
    6   11    3      4.74      0.00
    6   12    3      3.72      0.00
    6   13    3     -0.52      0.00
    6   14    3      0.15      0.00
    6   15    3     -0.30      0.00
    6   16    3     -1.40      0.00
    6    0    4     -0.86      0.00
    6    1    4      1.94      0.00
    6    2    4      5.11      0.00
    6    3    4     11.07      0.00
    6    4    4      1.05      0.00
    6    5    4      2.23      0.00
    6    6    4      0.30      0.00
    6    7    4     -1.38      0.00
    6    8    4     -1.83      0.00
    6    9    4     -8.88      0.00
    6   10    4     -0.70      0.00
    6   11    4     -1.40      0.00
    6   12    4      1.59      0.00
    6   13    4      1.14      0.00
    6   14    4     -1.27      0.00
    6   15    4      0.23      0.00
    6    1    5     -1.65      0.00
    6    2    5      3.55      0.00
    6    3    5      6.95      0.00
    6    4    5      5.05      0.00
    6    5    5      5.16      0.00
    6    6    5      0.78      0.00
    6    7    5      0.93      0.00
    6    8    5      7.97      0.00
    6    9    5      0.49      0.00
    6   10    5     -0.88      0.00
    6   11    5     -1.47      0.00
    6   12    5     -3.71      0.00
    6   13    5      0.08      0.00
    6   14    5     -0.15      0.00
    6   15    5      2.11      0.00
    6    0    6      2.63      0.00
    6    1    6     13.67      0.00
    6    2    6     -0.17      0.00
    6    3    6      7.62      0.00
    6    4    6      7.28      0.00
    6    5    6      1.32      0.00
    6    6    6      6.51      0.00
    6    7    6      1.12      0.00
    6    8    6      0.33      0.00
    6    9    6      1.02      0.00
    6   10    6      0.55      0.00
    6   11    6      1.35      0.00
    6   12    6      0.08      0.00
    6   13    6      1.30      0.00
    6   14    6     -1.74      0.00
    6   15    6     -2.75      0.00
    6    1    7     -3.11      0.00
    6    2    7     -2.70      0.00
    6    3    7      0.98      0.00
    6    4    7      4.17      0.00
    6    5    7      3.92      0.00
    6    6    7      4.54      0.00
    6    7    7     -0.75      0.00
    6    8    7      5.36      0.00
    6    9    7     -2.25      0.00
    6   10    7     -0.94      0.00
    6   11    7     -3.75      0.00
    6   12    7     -5.21      0.00
    6   13    7      1.11      0.00
    6   14    7      0.35      0.00
    6   15    7     -3.17      0.00
    6    0    8      6.20      0.00
    6    1    8      1.51      0.00
    6    2    8     -2.63      0.00
    6    3    8     -2.81      0.00
    6    4    8     -1.29      0.00
    6    5    8     -2.66      0.00
    6    6    8      9.03      0.00
    6    7    8     -4.06      0.00
    6    8    8      1.04      0.00
    6    9    8      3.30      0.00
    6   10    8      1.66      0.00
    6   11    8      0.55      0.00
    6   12    8     -2.17      0.00
    6   13    8     -4.80      0.00
    6   14    8      0.15      0.00
    6    1    9      0.07      0.00
    6    2    9      1.77      0.00
    6    3    9      0.62      0.00
    6    4    9      5.58      0.00
    6    5    9     -1.93      0.00
    6    6    9      2.81      0.00
    6    7    9      2.59      0.00
    6    8    9     -3.51      0.00
    6    9    9      0.52      0.00
    6   10    9     -0.09      0.00
    6   11    9      4.79      0.00
    6   12    9      2.10      0.00
    6   13    9      1.15      0.00
    6   14    9     -1.09      0.00
    6    0   10      9.75      0.00
    6    1   10      0.35      0.00
    6    2   10     -1.28      0.00
    6    3   10     -0.22      0.00
    6    4   10      0.86      0.00
    6    5   10      0.36      0.00
    6    6   10      5.15      0.00
    6    7   10      0.23      0.00
    6    8   10      3.88      0.00
    6    9   10     -2.36      0.00
    6   10   10      1.41      0.00
    6   11   10      0.42      0.00
    6   12   10      0.23      0.00
    6   13   10     -0.87      0.00
    6    1   11      3.51      0.00
    6    2   11      7.69      0.00
    6    3   11      2.43      0.00
    6    4   11      2.71      0.00
    6    5   11     -3.07      0.00
    6    6   11      0.54      0.00
    6    7   11      2.87      0.00
    6    8   11     -2.08      0.00
    6    9   11      3.74      0.00
    6   10   11     -2.64      0.00
    6   11   11      0.57      0.00
    6   12   11      1.89      0.00
    6   13   11     -0.58      0.00
    6    0   12     -0.05      0.00
    6    1   12      2.08      0.00
    6    2   12      1.98      0.00
    6    3   12      1.79      0.00
    6    4   12      6.77      0.00
    6    5   12     -1.78      0.00
    6    6   12     -2.67      0.00
    6    7   12      0.24      0.00
    6    8   12     -2.79      0.00
    6    9   12     -0.77      0.00
    6   10   12      0.87      0.00
    6   11   12     -0.87      0.00
    6   12   12      2.01      0.00
    6    1   13     -0.86      0.00
    6    2   13     -0.78      0.00
    6    3   13     -2.22      0.00
    6    4   13      0.14      0.00
    6    5   13      1.65      0.00
    6    6   13     -0.60      0.00
    6    7   13      0.16      0.00
    6    8   13      4.08      0.00
    6    9   13     -1.81      0.00
    6   10   13      0.88      0.00
    6   11   13      0.77      0.00
    6    0   14      1.56      0.00
    6    1   14      1.55      0.00
    6    2   14      2.01      0.00
    6    3   14      2.17      0.00
    6    4   14      2.14      0.00
    6    5   14      1.84      0.00
    6    6   14     -2.00      0.00
    6    7   14     -0.63      0.00
    6    8   14     -0.47      0.00
    6    9   14     -0.05      0.00
    6   10   14     -0.44      0.00
    6    1   15     -3.43      0.00
    6    2   15     -3.77      0.00
    6    3   15     -4.65      0.00
    6    4   15      0.52      0.00
    6    5   15      3.64      0.00
    6    6   15      0.66      0.00
    6    7   15      0.61      0.00
    6    8   15      0.56      0.00
    6    9   15     -0.34      0.00
    6    0   16      0.92      0.00
    6    1   16      1.52      0.00
    6    4   16     -1.44      0.00
    6    5   16      0.19      0.00
    6    6   16      1.46      0.00
    6    7   16      0.45      0.00
    6    8   16      1.26      0.00
    6    6   17     -0.82      0.00
    7    0    1    -51.36      0.00
    7    1    1    -27.03      0.00
    7    2    1    -16.51      0.00
    7    3    1     -5.09      0.00
    7    4    1     -4.28      0.00
    7    5    1     -1.55      0.00
    7    6    1     -3.00      0.00
    7    7    1     -7.98      0.00
    7    8    1     -1.95      0.00
    7    9    1      1.56      0.00
    7   10    1     -2.53      0.00
    7   11    1      1.37      0.00
    7   12    1      0.63      0.00
    7   13    1     -1.06      0.00
    7   14    1      0.34      0.00
    7   15    1      0.07      0.00
    7   16    1     -2.64      0.00
    7    1    2    -20.20      0.00
    7    2    2     -1.46      0.00
    7    3    2     -0.77      0.00
    7    4    2      4.17      0.00
    7    5    2      0.63      0.00
    7    6    2      1.64      0.00
    7    7    2      1.52      0.00
    7    8    2     -1.50      0.00
    7    9    2      0.61      0.00
    7   10    2     -1.01      0.00
    7   11    2     -1.42      0.00
    7   12    2     -2.53      0.00
    7   13    2     -0.26      0.00
    7   14    2      0.91      0.00
    7   15    2      2.85      0.00
    7    0    3     11.08      0.00
    7    1    3     -4.83      0.00
    7    2    3     -3.85      0.00
    7    3    3     -8.58      0.00
    7    4    3      6.76      0.00
    7    5    3      3.52      0.00
    7    6    3     -1.92      0.00
    7    7    3      2.52      0.00
    7    8    3     -3.25      0.00
    7    9    3      2.24      0.00
    7   10    3     -2.85      0.00
    7   11    3      0.16      0.00
    7   12    3     -0.99      0.00
    7   13    3     -0.62      0.00
    7   14    3      0.55      0.00
    7   15    3     -1.58      0.00
    7    1    4      0.60      0.00
    7    2    4     -3.39      0.00
    7    3    4     -7.19      0.00
    7    4    4      2.01      0.00
    7    5    4     -0.41      0.00
    7    6    4      3.38      0.00
    7    7    4     -0.39      0.00
    7    8    4     -3.15      0.00
    7    9    4     -3.04      0.00
    7   10    4     -4.72      0.00
    7   11    4     -1.39      0.00
    7   12    4     -0.34      0.00
    7   13    4      0.08      0.00
    7   14    4      1.11      0.00
    7   15    4      2.48      0.00
    7    0    5      0.58      0.00
    7    1    5     -4.17      0.00
    7    2    5     -4.83      0.00
    7    3    5     -9.76      0.00
    7    4    5     -2.87      0.00
    7    5    5     -0.77      0.00
    7    6    5     -0.81      0.00
    7    7    5     -2.84      0.00
    7    8    5      3.47      0.00
    7    9    5      2.84      0.00
    7   10    5      0.33      0.00
    7   11    5      2.65      0.00
    7   12    5     -1.55      0.00
    7   13    5      0.25      0.00
    7   14    5     -0.30      0.00
    7   15    5      1.03      0.00
    7    1    6      4.82      0.00
    7    2    6      1.53      0.00
    7    3    6     -5.16      0.00
    7    4    6     -6.00      0.00
    7    5    6     -1.30      0.00
    7    6    6     -3.09      0.00
    7    7    6      5.14      0.00
    7    8    6     -9.93      0.00
    7    9    6     -1.13      0.00
    7   10    6      1.92      0.00
    7   11    6     -0.14      0.00
    7   12    6      7.19      0.00
    7   13    6      0.94      0.00
    7   14    6      0.80      0.00
    7   15    6      1.02      0.00
    7    0    7     -6.70      0.00
    7    1    7     -7.00      0.00
    7    2    7      4.46      0.00
    7    3    7     -4.71      0.00
    7    4    7     -2.28      0.00
    7    5    7     -1.99      0.00
    7    6    7    -11.21      0.00
    7    7    7      2.27      0.00
    7    8    7     -3.24      0.00
    7    9    7     -3.48      0.00
    7   10    7     -4.95      0.00
    7   11    7     -3.35      0.00
    7   12    7      0.89      0.00
    7   13    7     -1.20      0.00
    7   14    7      1.61      0.00
    7    1    8      2.55      0.00
    7    2    8     -1.94      0.00
    7    3    8      0.73      0.00
    7    4    8     -4.55      0.00
    7    5    8     -5.00      0.00
    7    6    8     -0.14      0.00
    7    7    8     -0.97      0.00
    7    8    8      2.49      0.00
    7    9    8      4.80      0.00
    7   10    8     -1.21      0.00
    7   11    8     -1.57      0.00
    7   12    8     -1.97      0.00
    7   13    8     -0.14      0.00
    7   14    8      1.01      0.00
    7    0    9     -0.80      0.00
    7    1    9      1.29      0.00
    7    2    9      4.04      0.00
    7    3    9      6.81      0.00
    7    4    9     -2.33      0.00
    7    5    9      1.47      0.00
    7    6    9     -7.33      0.00
    7    7    9      0.58      0.00
    7    8    9     -2.15      0.00
    7    9    9      2.94      0.00
    7   10    9      3.24      0.00
    7   11    9      1.42      0.00
    7   12    9      1.43      0.00
    7   13    9      2.82      0.00
    7   14    9     -3.91      0.00
    7    1   10     -4.22      0.00
    7    2   10     -1.26      0.00
    7    3   10      1.67      0.00
    7    4   10     -1.91      0.00
    7    5   10      4.97      0.00
    7    6   10     -1.46      0.00
    7    7   10     -0.22      0.00
    7    8   10      3.69      0.00
    7   10   10     -0.78      0.00
    7   11   10     -2.06      0.00
    7   12   10      0.26      0.00
    7   13   10     -1.08      0.00
    7    0   11     -2.18      0.00
    7    1   11     -0.14      0.00
    7    2   11     -3.67      0.00
    7    3   11     -2.29      0.00
    7    4   11     -3.47      0.00
    7    5   11     -3.08      0.00
    7    6   11     -4.14      0.00
    7    7   11     -1.56      0.00
    7    8   11      2.65      0.00
    7   10   11      0.57      0.00
    7   11   11      0.07      0.00
    7   12   11     -2.29      0.00
    7    1   12     -0.67      0.00
    7    2   12     -0.84      0.00
    7    3   12      2.66      0.00
    7    4   12      2.97      0.00
    7    5   12      1.80      0.00
    7    6   12     -0.90      0.00
    7    7   12     -2.82      0.00
    7    8   12     -5.86      0.00
    7   10   12      1.17      0.00
    7   11   12     -1.50      0.00
    7   12   12      0.40      0.00
    7    0   13      2.82      0.00
    7    1   13     -1.90      0.00
    7    2   13     -2.07      0.00
    7    3   13     -2.22      0.00
    7    4   13     -3.84      0.00
    7    5   13      1.59      0.00
    7    6   13      0.75      0.00
    7    7   13     -2.09      0.00
    7    8   13      0.01      0.00
    7    9   13      1.51      0.00
    7   10   13     -1.61      0.00
    7   11   13      2.59      0.00
    7    1   14      2.78      0.00
    7    2   14      2.58      0.00
    7    3   14      2.51      0.00
    7    4   14     -1.09      0.00
    7    5   14     -0.11      0.00
    7    6   14      0.60      0.00
    7    7   14     -2.16      0.00
    7    8   14     -1.06      0.00
    7    9   14      0.20      0.00
    7   10   14     -1.28      0.00
    7    0   15     -2.08      0.00
    7    1   15     -0.68      0.00
    7    2   15      0.32      0.00
    7    4   15     -1.31      0.00
    7    5   15      0.03      0.00
    7    6   15     -2.24      0.00
    7    7   15      1.01      0.00
    7    8   15     -0.94      0.00
    7    9   15     -4.63      0.00
    7    1   16      0.43      0.00
    7    5   16     -4.00      0.00
    7    6   16     -0.01      0.00
    7    7   16      2.89      0.00
    7    8   16      0.94      0.00
    7    0   17      3.95      0.00
    7    6   17     -1.11      0.00
    8    0    0     23.34      0.00
    8    1    0     -6.67      0.00
    8    2    0     -0.06      0.00
    8    3    0     -0.16      0.00
    8    4    0     -1.47      0.00
    8    5    0     -0.51      0.00
    8    6    0     -0.74      0.00
    8    7    0      0.80      0.00
    8    8    0     -1.28      0.00
    8    9    0     -4.50      0.00
    8   10    0     -3.46      0.00
    8   11    0     -1.37      0.00
    8   12    0      2.11      0.00
    8   13    0     -0.07      0.00
    8   14    0      1.31      0.00
    8   15    0      2.05      0.00
    8    1    1      5.01      0.00
    8    2    1     -1.80      0.00
    8    3    1     -5.07      0.00
    8    4    1     -4.13      0.00
    8    5    1      0.12      0.00
    8    6    1     -5.05      0.00
    8    7    1     -2.05      0.00
    8    8    1      0.27      0.00
    8    9    1     -1.95      0.00
    8   10    1     -1.85      0.00
    8   11    1     -0.94      0.00
    8   12    1     -1.62      0.00
    8   13    1     -0.10      0.00
    8   14    1      0.14      0.00
    8   15    1     -2.04      0.00
    8    0    2     -9.63      0.00
    8    1    2     -1.59      0.00
    8    2    2     -8.18      0.00
    8    3    2      0.37      0.00
    8    4    2     -3.61      0.00
    8    5    2     -2.62      0.00
    8    6    2      6.75      0.00
    8    7    2      1.24      0.00
    8    8    2      1.52      0.00
    8    9    2      0.17      0.00
    8   10    2      3.92      0.00
    8   11    2     -0.39      0.00
    8   12    2      1.07      0.00
    8   13    2      2.46      0.00
    8   14    2     -1.66      0.00
    8   15    2     -0.14      0.00
    8    1    3      2.69      0.00
    8    2    3     -2.93      0.00
    8    3    3     -3.53      0.00
    8    4    3     -7.26      0.00
    8    5    3     -0.45      0.00
    8    6    3      0.61      0.00
    8    7    3      0.09      0.00
    8    8    3      3.96      0.00
    8    9    3     -0.94      0.00
    8   10    3     -2.45      0.00
    8   11    3     -0.52      0.00
    8   12    3     -0.31      0.00
    8   13    3      0.09      0.00
    8   14    3     -0.26      0.00
    8   15    3     -5.06      0.00
    8    0    4    -10.18      0.00
    8    1    4      0.23      0.00
    8    2    4      4.08      0.00
    8    3    4     -0.17      0.00
    8    4    4     -7.99      0.00
    8    5    4     -2.17      0.00
    8    6    4     -6.48      0.00
    8    7    4      0.41      0.00
    8    8    4      4.23      0.00
    8    9    4     -0.48      0.00
    8   10    4      4.69      0.00
    8   11    4     -2.11      0.00
    8   12    4     -1.14      0.00
    8   13    4      0.92      0.00
    8   14    4      0.89      0.00
    8   15    4     -0.63      0.00
    8    1    5     -2.57      0.00
    8    2    5      1.22      0.00
    8    3    5      2.85      0.00
    8    4    5      1.43      0.00
    8    5    5     -2.40      0.00
    8    6    5     -2.69      0.00
    8    7    5     -1.58      0.00
    8    8    5      2.36      0.00
    8    9    5      3.37      0.00
    8   10    5      3.54      0.00
    8   11    5      1.09      0.00
    8   12    5     -1.39      0.00
    8   13    5     -1.49      0.00
    8   14    5     -2.28      0.00
    8   15    5     -1.39      0.00
    8    0    6     -1.39      0.00
    8    1    6      2.59      0.00
    8    2    6     -2.84      0.00
    8    3    6      8.37      0.00
    8    4    6      2.22      0.00
    8    5    6     -0.78      0.00
    8    6    6      2.56      0.00
    8    7    6     -0.65      0.00
    8    8    6     -0.98      0.00
    8    9    6      1.15      0.00
    8   10    6      2.93      0.00
    8   11    6      0.92      0.00
    8   12    6      1.10      0.00
    8   13    6      1.66      0.00
    8   14    6      0.68      0.00
    8   15    6     -0.23      0.00
    8    1    7     -1.31      0.00
    8    2    7     -3.43      0.00
    8    3    7      3.39      0.00
    8    4    7      3.67      0.00
    8    5    7      1.33      0.00
    8    6    7      0.54      0.00
    8    7    7     -5.81      0.00
    8    8    7      0.88      0.00
    8    9    7     -2.69      0.00
    8   10    7      2.12      0.00
    8   11    7      1.28      0.00
    8   12    7      0.11      0.00
    8   13    7      1.95      0.00
    8   14    7     -1.67      0.00
    8    0    8     -1.43      0.00
    8    1    8     -0.85      0.00
    8    2    8     -5.03      0.00
    8    3    8     -3.28      0.00
    8    4    8      2.24      0.00
    8    5    8      1.81      0.00
    8    6    8      9.75      0.00
    8    7    8     -1.48      0.00
    8    8    8      1.06      0.00
    8    9    8      1.74      0.00
    8   10    8     -0.23      0.00
    8   11    8     -1.99      0.00
    8   12    8      2.01      0.00
    8   13    8      1.80      0.00
    8   14    8      2.77      0.00
    8    1    9      2.72      0.00
    8    2    9      1.38      0.00
    8    3    9     -3.90      0.00
    8    4    9      0.87      0.00
    8    5    9     -1.11      0.00
    8    6    9      1.55      0.00
    8    7    9     -2.56      0.00
    8    8    9     -2.53      0.00
    8    9    9     -1.87      0.00
    8   10    9      0.17      0.00
    8   11    9      2.38      0.00
    8   12    9     -2.89      0.00
    8   13    9      0.09      0.00
    8    0   10     -0.10      0.00
    8    1   10     -2.97      0.00
    8    2   10      0.29      0.00
    8    3   10      0.45      0.00
    8    4   10      0.48      0.00
    8    5   10     -1.49      0.00
    8    6   10      4.96      0.00
    8    7   10     -1.24      0.00
    8    8   10     -1.48      0.00
    8    9   10     -4.26      0.00
    8   10   10     -1.94      0.00
    8   11   10     -1.77      0.00
    8   12   10     -0.12      0.00
    8   13   10      0.36      0.00
    8    1   11     -0.46      0.00
    8    2   11     -1.46      0.00
    8    3   11     -4.79      0.00
    8    4   11     -3.92      0.00
    8    5   11     -0.98      0.00
    8    6   11      1.02      0.00
    8    7   11      1.63      0.00
    8    8   11      1.69      0.00
    8    9   11      3.87      0.00
    8   10   11      2.24      0.00
    8   11   11      1.16      0.00
    8   12   11     -0.70      0.00
    8    0   12     -3.39      0.00
    8    1   12      1.51      0.00
    8    2   12      4.95      0.00
    8    3   12     -0.64      0.00
    8    4   12     -0.15      0.00
    8    5   12      0.01      0.00
    8    6   12      3.97      0.00
    8    7   12      1.51      0.00
    8    8   12      0.08      0.00
    8    9   12     -3.20      0.00
    8   10   12      0.52      0.00
    8   11   12      1.37      0.00
    8   12   12      0.74      0.00
    8    1   13     -2.31      0.00
    8    2   13      0.61      0.00
    8    3   13      0.95      0.00
    8    4   13     -1.89      0.00
    8    5   13     -3.83      0.00
    8    6   13      0.55      0.00
    8    7   13      1.18      0.00
    8    8   13      4.00      0.00
    8    9   13     -1.13      0.00
    8   10   13     -0.83      0.00
    8   11   13      2.26      0.00
    8    0   14     -1.49      0.00
    8    1   14     -0.34      0.00
    8    2   14     -1.63      0.00
    8    3   14      1.34      0.00
    8    4   14      2.57      0.00
    8    5   14     -1.46      0.00
    8    6   14      0.75      0.00
    8    7   14      1.98      0.00
    8    8   14      1.30      0.00
    8    9   14      3.99      0.00
    8   10   14     -4.29      0.00
    8    1   15      1.74      0.00
    8    2   15      1.62      0.00
    8    3   15     -0.59      0.00
    8    4   15      1.60      0.00
    8    5   15      2.00      0.00
    8    6   15     -4.39      0.00
    8    7   15     -1.74      0.00
    8    8   15     -1.30      0.00
    8    9   15      1.24      0.00
    8    0   16     -2.60      0.00
    8    1   16     -2.00      0.00
    8    2   16     -0.28      0.00
    8    5   16      0.82      0.00
    8    6   16      0.91      0.00
    8    7   16     -3.14      0.00
    8    1   17     -0.67      0.00
    8    6   17      2.37      0.00
    9    0    1     23.32      0.00
    9    1    1     22.25      0.00
    9    2    1     14.51      0.00
    9    3    1      6.85      0.00
    9    4    1      2.43      0.00
    9    5    1      2.68      0.00
    9    6    1      1.04      0.00
    9    7    1      3.31      0.00
    9    8    1      2.67      0.00
    9    9    1      4.70      0.00
    9   10    1      0.25      0.00
    9   11    1      0.99      0.00
    9   12    1     -0.96      0.00
    9   13    1     -3.06      0.00
    9   14    1     -0.10      0.00
    9   15    1     -1.02      0.00
    9    1    2      0.99      0.00
    9    2    2      9.06      0.00
    9    3    2      7.63      0.00
    9    4    2      3.14      0.00
    9    5    2      6.67      0.00
    9    6    2      3.31      0.00
    9    7    2     -0.68      0.00
    9    8    2      2.18      0.00
    9    9    2      0.74      0.00
    9   10    2      2.80      0.00
    9   11    2      6.09      0.00
    9   12    2      1.28      0.00
    9   13    2      0.02      0.00
    9   14    2      1.81      0.00
    9   15    2     -0.08      0.00
    9    0    3     10.58      0.00
    9    1    3      5.58      0.00
    9    2    3      9.60      0.00
    9    3    3      1.41      0.00
    9    4    3      5.69      0.00
    9    5    3      0.34      0.00
    9    6    3     -2.53      0.00
    9    7    3      1.20      0.00
    9    8    3     -3.72      0.00
    9    9    3     -2.97      0.00
    9   10    3     -4.10      0.00
    9   11    3      1.50      0.00
    9   12    3     -0.68      0.00
    9   13    3     -0.35      0.00
    9   14    3      0.01      0.00
    9   15    3      1.92      0.00
    9    1    4      2.17      0.00
    9    2    4      1.58      0.00
    9    3    4      2.40      0.00
    9    4    4      1.69      0.00
    9    5    4     -0.38      0.00
    9    6    4     -2.53      0.00
    9    7    4     -4.56      0.00
    9    8    4     -0.78      0.00
    9    9    4      1.33      0.00
    9   10    4      1.78      0.00
    9   11    4      1.54      0.00
    9   12    4      1.62      0.00
    9   13    4      1.15      0.00
    9   14    4     -0.07      0.00
    9   15    4      3.05      0.00
    9    0    5     -1.07      0.00
    9    1    5     -0.44      0.00
    9    2    5      1.60      0.00
    9    3    5     -2.85      0.00
    9    4    5      6.20      0.00
    9    5    5      5.37      0.00
    9    6    5      6.02      0.00
    9    7    5      1.67      0.00
    9    8    5     -2.02      0.00
    9    9    5     -6.78      0.00
    9   10    5     -3.35      0.00
    9   11    5      0.52      0.00
    9   12    5     -1.58      0.00
    9   13    5      1.49      0.00
    9   14    5     -1.51      0.00
    9   15    5      0.28      0.00
    9    1    6      1.25      0.00
    9    2    6     -0.32      0.00
    9    3    6     -3.23      0.00
    9    4    6      1.07      0.00
    9    5    6      1.01      0.00
    9    6    6      1.92      0.00
    9    7    6      9.29      0.00
    9    8    6     -0.78      0.00
    9    9    6      0.25      0.00
    9   10    6     -2.19      0.00
    9   11    6     -6.30      0.00
    9   12    6     -1.47      0.00
    9   13    6     -1.26      0.00
    9   14    6      0.66      0.00
    9    0    7      7.20      0.00
    9    1    7      5.54      0.00
    9    2    7      7.85      0.00
    9    3    7     -0.12      0.00
    9    4    7     -0.90      0.00
    9    5    7     -4.14      0.00
    9    6    7      0.38      0.00
    9    7    7      3.00      0.00
    9    8    7     -0.74      0.00
    9    9    7      4.36      0.00
    9   10    7     -0.63      0.00
    9   11    7      2.80      0.00
    9   12    7     -0.21      0.00
    9   13    7     -5.91      0.00
    9   14    7      0.13      0.00
    9    1    8     -1.26      0.00
    9    2    8      1.06      0.00
    9    3    8      3.57      0.00
    9    4    8      3.95      0.00
    9    5    8     -0.73      0.00
    9    6    8      0.10      0.00
    9    7    8      5.76      0.00
    9    8    8     -1.62      0.00
    9    9    8      0.97      0.00
    9   10    8     -1.29      0.00
    9   11    8      0.21      0.00
    9   12    8      1.41      0.00
    9   13    8     -1.12      0.00
    9   14    8     -1.36      0.00
    9    0    9      2.69      0.00
    9    1    9     -1.54      0.00
    9    2    9      0.01      0.00
    9    3    9      1.68      0.00
    9    4    9     -3.52      0.00
    9    5    9      1.22      0.00
    9    6    9     -5.34      0.00
    9    7    9     -0.50      0.00
    9    8    9      0.51      0.00
    9    9    9     -0.48      0.00
    9   10    9     -2.13      0.00
    9   11    9      1.35      0.00
    9   12    9     -0.58      0.00
    9   13    9     -0.81      0.00
    9    1   10     -2.65      0.00
    9    2   10      1.48      0.00
    9    3   10      5.42      0.00
    9    4   10      1.65      0.00
    9    5   10      4.00      0.00
    9    6   10     -1.71      0.00
    9    7   10     -1.98      0.00
    9    8   10     -0.88      0.00
    9    9   10     -0.41      0.00
    9   10   10     -4.08      0.00
    9   11   10     -0.20      0.00
    9   12   10      3.61      0.00
    9   13   10     -0.58      0.00
    9    0   11      1.77      0.00
    9    1   11      3.11      0.00
    9    2   11     -3.51      0.00
    9    3   11      0.17      0.00
    9    4   11      2.97      0.00
    9    5   11      4.30      0.00
    9    6   11     -1.85      0.00
    9    7   11      6.52      0.00
    9    8   11      1.13      0.00
    9    9   11     -0.68      0.00
    9   10   11      1.56      0.00
    9   11   11     -0.67      0.00
    9   12   11     -0.44      0.00
    9    1   12      3.10      0.00
    9    2   12      0.47      0.00
    9    3   12      1.41      0.00
    9    4   12      1.86      0.00
    9    5   12     -1.55      0.00
    9    6   12     -2.00      0.00
    9    7   12     -0.23      0.00
    9    8   12      0.08      0.00
    9    9   12      1.44      0.00
    9   10   12     -0.81      0.00
    9   11   12     -2.96      0.00
    9    0   13      1.16      0.00
    9    1   13     -2.06      0.00
    9    2   13     -0.10      0.00
    9    3   13      1.03      0.00
    9    4   13      0.26      0.00
    9    5   13      3.36      0.00
    9    6   13     -2.13      0.00
    9    7   13     -4.81      0.00
    9    8   13     -2.43      0.00
    9    9   13      0.00      0.00
    9   10   13      0.37      0.00
    9    1   14     -1.86      0.00
    9    2   14     -2.63      0.00
    9    3   14     -4.23      0.00
    9    4   14     -0.29      0.00
    9    5   14      4.70      0.00
    9    6   14      4.53      0.00
    9    7   14      3.34      0.00
    9    8   14      0.56      0.00
    9    9   14     -0.84      0.00
    9    0   15      3.60      0.00
    9    1   15      4.09      0.00
    9    2   15      3.27      0.00
    9    3   15      1.20      0.00
    9    5   15      0.18      0.00
    9    6   15      0.18      0.00
    9    7   15      4.46      0.00
    9    8   15      3.32      0.00
    9    1   16     -0.02      0.00
    9    2   16     -3.02      0.00
    9    3   16     -0.31      0.00
    9    6   16     -0.07      0.00
    9    7   16     -0.43      0.00
    9    0   17     -1.13      0.00
    9    1   17     -2.86      0.00
    9    2   17     -2.48      0.00
    9    1   18     -0.77      0.00
   10    0    0    -26.90      0.00
   10    1    0    -24.44      0.00
   10    2    0     -9.82      0.00
   10    3    0     -2.93      0.00
   10    4    0     -2.73      0.00
   10    5    0     -3.80      0.00
   10    6    0      4.01      0.00
   10    7    0     -5.55      0.00
   10    8    0     -4.57      0.00
   10    9    0      3.10      0.00
   10   10    0     -3.78      0.00
   10   11    0      0.36      0.00
   10   12    0      3.69      0.00
   10   13    0     -0.21      0.00
   10   14    0      2.62      0.00
   10   15    0      2.60      0.00
   10    1    1     -3.88      0.00
   10    2    1     -2.54      0.00
   10    3    1     -2.78      0.00
   10    4    1      1.72      0.00
   10    5    1     -6.53      0.00
   10    6    1     -2.14      0.00
   10    7    1      1.58      0.00
   10    8    1     -1.39      0.00
   10    9    1      0.74      0.00
   10   10    1     -2.67      0.00
   10   11    1      0.67      0.00
   10   12    1     -3.98      0.00
   10   13    1     -1.34      0.00
   10   14    1      1.18      0.00
   10   15    1     -0.01      0.00
   10    0    2    -14.75      0.00
   10    1    2     -8.41      0.00
   10    2    2    -10.48      0.00
   10    3    2      2.18      0.00
   10    4    2     -1.29      0.00
   10    5    2     -1.87      0.00
   10    6    2      1.65      0.00
   10    7    2     -6.79      0.00
   10    8    2     -0.63      0.00
   10    9    2     -4.46      0.00
   10   10    2     -0.96      0.00
   10   11    2     -2.87      0.00
   10   12    2     -1.12      0.00
   10   13    2      1.00      0.00
   10   14    2     -0.57      0.00
   10   15    2     -0.94      0.00
   10    1    3    -10.55      0.00
   10    2    3     -1.99      0.00
   10    3    3      0.02      0.00
   10    4    3     -3.58      0.00
   10    5    3      1.33      0.00
   10    6    3      1.72      0.00
   10    7    3     -0.06      0.00
   10    8    3      2.24      0.00
   10    9    3     -1.44      0.00
   10   10    3     -3.50      0.00
   10   11    3     -4.25      0.00
   10   12    3     -2.67      0.00
   10   13    3     -1.74      0.00
   10   14    3      0.88      0.00
   10   15    3      1.24      0.00
   10    0    4      4.87      0.00
   10    1    4      2.78      0.00
   10    2    4     -1.18      0.00
   10    3    4     -3.38      0.00
   10    4    4      0.38      0.00
   10    5    4      4.86      0.00
   10    6    4     -6.09      0.00
   10    7    4      4.02      0.00
   10    8    4      3.82      0.00
   10    9    4      1.91      0.00
   10   10    4      7.61      0.00
   10   11    4     -0.47      0.00
   10   12    4      0.21      0.00
   10   13    4     -0.45      0.00
   10   14    4     -0.22      0.00
   10   15    4     -2.34      0.00
   10    1    5      0.81      0.00
   10    2    5     -1.79      0.00
   10    3    5     -1.13      0.00
   10    4    5      4.03      0.00
   10    5    5     -1.28      0.00
   10    6    5      1.08      0.00
   10    7    5      4.00      0.00
   10    8    5     -3.96      0.00
   10    9    5     -2.40      0.00
   10   10    5      0.10      0.00
   10   11    5      1.48      0.00
   10   12    5      1.65      0.00
   10   13    5      1.49      0.00
   10   14    5     -0.52      0.00
   10    0    6     -1.68      0.00
   10    1    6     -5.46      0.00
   10    2    6    -11.79      0.00
   10    3    6     -2.72      0.00
   10    4    6     -4.27      0.00
   10    5    6     -2.34      0.00
   10    6    6     -6.89      0.00
   10    7    6     -1.96      0.00
   10    8    6      1.23      0.00
   10    9    6     -0.71      0.00
   10   10    6     -1.27      0.00
   10   11    6     -2.00      0.00
   10   12    6     -1.31      0.00
   10   13    6      0.19      0.00
   10   14    6     -0.70      0.00
   10    1    7      2.61      0.00
   10    2    7     -0.67      0.00
   10    3    7     -0.58      0.00
   10    4    7     -6.43      0.00
   10    5    7     -2.94      0.00
   10    6    7     -1.21      0.00
   10    7    7     -6.01      0.00
   10    8    7      0.57      0.00
   10    9    7      0.67      0.00
   10   10    7      3.39      0.00
   10   11    7     -0.05      0.00
   10   12    7      1.33      0.00
   10   13    7      2.18      0.00
   10   14    7     -0.33      0.00
   10    0    8     -2.49      0.00
   10    1    8     -1.19      0.00
   10    2    8     -5.53      0.00
   10    3    8      2.40      0.00
   10    4    8      1.94      0.00
   10    5    8     -0.16      0.00
   10    6    8      1.73      0.00
   10    7    8     -1.96      0.00
   10    8    8     -0.61      0.00
   10    9    8     -0.88      0.00
   10   10    8      0.47      0.00
   10   11    8     -2.33      0.00
   10   12    8      1.66      0.00
   10   13    8      0.30      0.00
   10    1    9      3.52      0.00
   10    2    9     -1.70      0.00
   10    3    9     -6.40      0.00
   10    4    9     -5.77      0.00
   10    5    9     -2.26      0.00
   10    6    9      0.06      0.00
   10    7    9     -3.49      0.00
   10    8    9      9.72      0.00
   10    9    9      0.75      0.00
   10   10    9      0.82      0.00
   10   11    9      2.19      0.00
   10   12    9     -3.20      0.00
   10   13    9      0.43      0.00
   10    0   10     -0.09      0.00
   10    1   10     -0.06      0.00
   10    2   10      2.58      0.00
   10    3   10      1.20      0.00
   10    4   10      2.75      0.00
   10    5   10     -4.03      0.00
   10    6   10      4.02      0.00
   10    7   10     -5.03      0.00
   10    8   10     -1.80      0.00
   10    9   10      4.57      0.00
   10   10   10      0.58      0.00
   10   11   10      0.87      0.00
   10   12   10     -0.09      0.00
   10    1   11     -1.22      0.00
   10    2   11      0.44      0.00
   10    3   11     -1.58      0.00
   10    4   11     -2.01      0.00
   10    5   11      0.39      0.00
   10    6   11      2.90      0.00
   10    7   11      1.86      0.00
   10    8   11     -0.89      0.00
   10    9   11     -2.71      0.00
   10   10   11      0.37      0.00
   10   11   11      0.77      0.00
   10   12   11      0.22      0.00
   10    0   12     -0.90      0.00
   10    1   12     -1.11      0.00
   10    2   12      2.55      0.00
   10    3   12     -2.07      0.00
   10    4   12     -1.28      0.00
   10    5   12     -4.27      0.00
   10    6   12     -4.72      0.00
   10    7   12     -3.22      0.00
   10    8   12      4.05      0.00
   10    9   12     -0.18      0.00
   10   10   12      0.77      0.00
   10   11   12      1.28      0.00
   10    1   13     -0.62      0.00
   10    2   13      0.31      0.00
   10    3   13      0.69      0.00
   10    4   13      1.74      0.00
   10    5   13      0.17      0.00
   10    6   13     -0.16      0.00
   10    7   13     -3.05      0.00
   10    8   13     -4.17      0.00
   10    9   13     -0.13      0.00
   10   10   13     -0.64      0.00
   10    0   14     -1.51      0.00
   10    1   14     -1.11      0.00
   10    2   14     -2.42      0.00
   10    3   14     -2.73      0.00
   10    4   14     -2.30      0.00
   10    5   14     -2.27      0.00
   10    6   14      0.14      0.00
   10    7   14      0.67      0.00
   10    8   14     -2.58      0.00
   10    9   14      2.48      0.00
   10    1   15      2.18      0.00
   10    2   15      1.77      0.00
   10    3   15      2.67      0.00
   10    4   15     -2.65      0.00
   10    5   15      0.10      0.00
   10    6   15     -3.82      0.00
   10    7   15      0.06      0.00
   10    8   15     -0.17      0.00
   10    0   16      0.77      0.00
   10    1   16     -0.74      0.00
   10    2   16     -0.15      0.00
   10    3   16      2.22      0.00
   10    6   16      1.09      0.00
   10    1   17     -1.94      0.00
   10    2   17     -0.04      0.00
   11    0    1      8.60      0.00
   11    1    1      0.71      0.00
   11    2    1     -3.94      0.00
   11    3    1     -5.34      0.00
   11    4    1      0.06      0.00
   11    5    1      1.36      0.00
   11    6    1     -3.51      0.00
   11    7    1      2.59      0.00
   11    8    1     -0.60      0.00
   11    9    1      1.69      0.00
   11   10    1      0.53      0.00
   11   11    1      0.69      0.00
   11   12    1      1.49      0.00
   11   13    1     -0.98      0.00
   11   14    1     -0.06      0.00
   11   15    1      0.08      0.00
   11    1    2      5.52      0.00
   11    2    2      1.44      0.00
   11    3    2     -5.31      0.00
   11    4    2     -9.72      0.00
   11    5    2      4.87      0.00
   11    6    2     -0.79      0.00
   11    7    2     -7.12      0.00
   11    8    2      4.80      0.00
   11    9    2     -2.50      0.00
   11   10    2     -0.70      0.00
   11   11    2      5.00      0.00
   11   12    2      1.40      0.00
   11   13    2      1.73      0.00
   11   14    2     -0.13      0.00
   11   15    2     -2.86      0.00
   11    0    3    -10.03      0.00
   11    1    3     -6.99      0.00
   11    2    3     -1.03      0.00
   11    3    3     -4.28      0.00
   11    4    3     -5.22      0.00
   11    5    3     -2.36      0.00
   11    6    3      3.00      0.00
   11    7    3      2.31      0.00
   11    8    3      2.01      0.00
   11    9    3      3.51      0.00
   11   10    3      1.55      0.00
   11   11    3      2.57      0.00
   11   12    3     -1.31      0.00
   11   13    3      4.23      0.00
   11   14    3      0.56      0.00
   11    1    4      6.08      0.00
   11    2    4      1.70      0.00
   11    3    4     -0.37      0.00
   11    4    4     -2.96      0.00
   11    5    4      0.43      0.00
   11    6    4     -1.38      0.00
   11    7    4      1.04      0.00
   11    8    4      2.26      0.00
   11    9    4      0.25      0.00
   11   10    4      1.05      0.00
   11   11    4      0.16      0.00
   11   12    4      0.45      0.00
   11   13    4     -1.13      0.00
   11   14    4     -0.86      0.00
   11    0    5     -6.89      0.00
   11    1    5      1.56      0.00
   11    2    5     12.49      0.00
   11    3    5      1.90      0.00
   11    4    5      0.52      0.00
   11    5    5     -4.00      0.00
   11    6    5     -3.97      0.00
   11    7    5     -3.11      0.00
   11    8    5      0.52      0.00
   11    9    5      0.02      0.00
   11   10    5     -0.26      0.00
   11   11    5      0.20      0.00
   11   12    5     -0.53      0.00
   11   13    5      2.74      0.00
   11   14    5     -0.38      0.00
   11    1    6     -1.68      0.00
   11    2    6     -1.89      0.00
   11    3    6      0.07      0.00
   11    4    6      8.86      0.00
   11    5    6     -1.84      0.00
   11    6    6     -1.69      0.00
   11    7    6     -0.09      0.00
   11    8    6     -3.66      0.00
   11    9    6      4.27      0.00
   11   10    6      2.10      0.00
   11   11    6     -1.68      0.00
   11   12    6      0.25      0.00
   11   13    6     -1.35      0.00
   11   14    6     -0.50      0.00
   11    0    7     -1.07      0.00
   11    1    7      2.65      0.00
   11    2    7      6.31      0.00
   11    3    7      2.77      0.00
   11    4    7      4.50      0.00
   11    5    7      3.09      0.00
   11    6    7      9.66      0.00
   11    7    7     -0.97      0.00
   11    8    7     -2.19      0.00
   11    9    7      3.46      0.00
   11   10    7      0.31      0.00
   11   11    7      1.15      0.00
   11   12    7      3.55      0.00
   11   13    7      1.30      0.00
   11    1    8     -4.51      0.00
   11    2    8     -0.38      0.00
   11    3    8      3.14      0.00
   11    4    8      5.96      0.00
   11    5    8      3.35      0.00
   11    6    8      1.88      0.00
   11    7    8      4.67      0.00
   11    8    8     -7.38      0.00
   11    9    8     -1.22      0.00
   11   10    8     -2.05      0.00
   11   11    8     -0.63      0.00
   11   12    8      0.09      0.00
   11   13    8     -0.27      0.00
   11    0    9      2.32      0.00
   11    1    9     -2.21      0.00
   11    2    9      0.18      0.00
   11    3    9     -4.71      0.00
   11    4    9     -5.60      0.00
   11    5    9      1.49      0.00
   11    6    9     -1.23      0.00
   11    7    9      1.39      0.00
   11    8    9      0.69      0.00
   11    9    9      2.34      0.00
   11   10    9     -1.29      0.00
   11   11    9     -1.56      0.00
   11   12    9      0.64      0.00
   11    1   10     -2.16      0.00
   11    2   10      2.17      0.00
   11    3   10      4.05      0.00
   11    4   10     -1.27      0.00
   11    5   10      3.16      0.00
   11    6   10     -1.08      0.00
   11    7   10     -1.28      0.00
   11    8   10     -3.21      0.00
   11    9   10      1.32      0.00
   11   10   10      1.49      0.00
   11   11   10      0.84      0.00
   11   12   10     -1.61      0.00
   11    0   11     -1.29      0.00
   11    1   11      2.01      0.00
   11    2   11     -3.75      0.00
   11    3   11     -0.65      0.00
   11    4   11     -2.59      0.00
   11    5   11      3.44      0.00
   11    6   11     -3.82      0.00
   11    7   11      5.88      0.00
   11    8   11     -1.19      0.00
   11    9   11     -6.24      0.00
   11   10   11      2.79      0.00
   11   11   11      0.61      0.00
   11    1   12      1.46      0.00
   11    2   12     -0.97      0.00
   11    3   12      0.31      0.00
   11    4   12     -1.06      0.00
   11    5   12     -2.18      0.00
   11    6   12      1.12      0.00
   11    7   12     -1.36      0.00
   11    8   12      4.25      0.00
   11    9   12      1.86      0.00
   11   10   12      0.66      0.00
   11   11   12      1.42      0.00
   11    0   13     -0.41      0.00
   11    1   13      0.25      0.00
   11    2   13      1.56      0.00
   11    3   13      2.44      0.00
   11    4   13      0.75      0.00
   11    5   13      3.73      0.00
   11    6   13      6.63      0.00
   11    7   13      0.09      0.00
   11    8   13      0.88      0.00
   11    9   13      0.09      0.00
   11   10   13     -1.86      0.00
   11    1   14     -0.05      0.00
   11    2   14      0.49      0.00
   11    3   14     -0.82      0.00
   11    4   14      1.51      0.00
   11    5   14     -2.72      0.00
   11    6   14     -1.91      0.00
   11    7   14      1.56      0.00
   11    8   14     -0.19      0.00
   11    9   14     -0.21      0.00
   11    0   15     -1.07      0.00
   11    1   15      0.81      0.00
   11    2   15     -0.06      0.00
   11    3   15     -0.47      0.00
   11    4   15      1.61      0.00
   11    6   15     -2.05      0.00
   11    7   15     -0.90      0.00
   11    1   16      0.81      0.00
   11    2   16      0.84      0.00
   11    3   16     -1.64      0.00
   11    4   16      2.86      0.00
   11    0   17      0.19      0.00
   11    1   17     -1.25      0.00
   11    2   17      0.90      0.00
   11    3   17     -0.27      0.00
   12    0    0     12.90      0.00
   12    1    0     12.34      0.00
   12    2    0     13.98      0.00
   12    3    0     12.60      0.00
   12    4    0      0.92      0.00
   12    5    0     -6.34      0.00
   12    6    0     10.38      0.00
   12    7    0      2.39      0.00
   12    8    0     -0.37      0.00
   12    9    0      7.52      0.00
   12   10    0     -4.35      0.00
   12   11    0      2.21      0.00
   12   12    0      1.34      0.00
   12   13    0     -3.76      0.00
   12   14    0     -0.52      0.00
   12    1    1      0.50      0.00
   12    2    1     -1.67      0.00
   12    3    1      6.30      0.00
   12    4    1     12.14      0.00
   12    5    1     -2.83      0.00
   12    6    1      3.81      0.00
   12    7    1      3.25      0.00
   12    8    1     -0.11      0.00
   12    9    1      1.25      0.00
   12   10    1     -4.53      0.00
   12   11    1      4.08      0.00
   12   12    1     -3.78      0.00
   12   13    1      0.41      0.00
   12   14    1      3.24      0.00
   12    0    2     14.54      0.00
   12    1    2     12.50      0.00
   12    2    2      5.65      0.00
   12    3    2      8.94      0.00
   12    4    2      0.32      0.00
   12    5    2     -1.20      0.00
   12    6    2     -0.75      0.00
   12    7    2     -4.57      0.00
   12    8    2      3.24      0.00
   12    9    2     -4.52      0.00
   12   10    2      0.54      0.00
   12   11    2     -1.31      0.00
   12   12    2     -1.33      0.00
   12   13    2     -0.69      0.00
   12   14    2     -1.57      0.00
   12    1    3     -5.24      0.00
   12    2    3      3.99      0.00
   12    3    3      7.54      0.00
   12    4    3      3.26      0.00
   12    5    3      3.80      0.00
   12    6    3     -2.02      0.00
   12    7    3     -4.02      0.00
   12    8    3     -2.06      0.00
   12    9    3     -0.40      0.00
   12   10    3      2.63      0.00
   12   11    3     -1.62      0.00
   12   12    3     -0.04      0.00
   12   13    3     -0.13      0.00
   12   14    3      0.50      0.00
   12    0    4      2.55      0.00
   12    1    4      2.99      0.00
   12    2    4     -1.57      0.00
   12    3    4     -4.79      0.00
   12    4    4      8.33      0.00
   12    5    4     11.00      0.00
   12    6    4     -2.61      0.00
   12    7    4      6.00      0.00
   12    8    4     -4.69      0.00
   12    9    4     -9.40      0.00
   12   10    4     -0.34      0.00
   12   11    4     -2.11      0.00
   12   12    4      0.85      0.00
   12   13    4     -3.65      0.00
   12   14    4      1.13      0.00
   12    1    5      1.17      0.00
   12    2    5     -1.41      0.00
   12    3    5     -5.33      0.00
   12    4    5     -2.40      0.00
   12    5    5     -1.66      0.00
   12    6    5      0.86      0.00
   12    7    5      0.89      0.00
   12    8    5     -0.73      0.00
   12    9    5     -0.07      0.00
   12   10    5     -2.29      0.00
   12   11    5      0.28      0.00
   12   12    5     -0.41      0.00
   12   13    5      2.00      0.00
   12   14    5      0.05      0.00
   12    0    6      7.64      0.00
   12    1    6     -0.63      0.00
   12    2    6     -6.61      0.00
   12    3    6     -1.21      0.00
   12    4    6     -5.20      0.00
   12    5    6     -0.05      0.00
   12    6    6      2.03      0.00
   12    7    6      4.02      0.00
   12    8    6     -0.14      0.00
   12    9    6     -1.14      0.00
   12   10    6     -0.48      0.00
   12   11    6      2.10      0.00
   12   12    6     -1.97      0.00
   12   13    6     -1.62      0.00
   12    1    7      5.37      0.00
   12    2    7      2.87      0.00
   12    3    7     -0.05      0.00
   12    4    7     -6.54      0.00
   12    5    7     -2.32      0.00
   12    6    7      1.49      0.00
   12    7    7      2.66      0.00
   12    8    7      2.80      0.00
   12    9    7     -3.41      0.00
   12   10    7      0.74      0.00
   12   11    7     -3.25      0.00
   12   12    7      0.83      0.00
   12   13    7      0.75      0.00
   12    0    8     -1.85      0.00
   12    1    8      4.33      0.00
   12    2    8     -0.27      0.00
   12    3    8      6.84      0.00
   12    4    8     -0.59      0.00
   12    5    8     -8.13      0.00
   12    6    8     -3.12      0.00
   12    7    8     -2.53      0.00
   12    8    8      0.83      0.00
   12    9    8     -0.75      0.00
   12   10    8     -2.25      0.00
   12   11    8      0.59      0.00
   12   12    8     -1.38      0.00
   12   13    8     -3.36      0.00
   12    1    9      1.47      0.00
   12    2    9     -1.14      0.00
   12    3    9     -0.36      0.00
   12    4    9      1.54      0.00
   12    5    9      1.01      0.00
   12    6    9     -0.59      0.00
   12    7    9     -5.98      0.00
   12    8    9      4.20      0.00
   12    9    9     -2.42      0.00
   12   10    9     -2.52      0.00
   12   11    9      1.09      0.00
   12   12    9      1.34      0.00
   12    0   10      0.65      0.00
   12    1   10     -2.82      0.00
   12    2   10      2.08      0.00
   12    3   10      2.84      0.00
   12    4   10      4.29      0.00
   12    5   10     -2.68      0.00
   12    6   10      5.35      0.00
   12    7   10     -0.24      0.00
   12    8   10     -1.30      0.00
   12    9   10      0.83      0.00
   12   10   10     -3.61      0.00
   12   11   10      1.24      0.00
   12   12   10     -0.53      0.00
   12    1   11     -1.28      0.00
   12    2   11     -0.79      0.00
   12    3   11     -0.12      0.00
   12    4   11      3.17      0.00
   12    5   11     -0.09      0.00
   12    6   11     -1.36      0.00
   12    7   11     -0.48      0.00
   12    8   11     -0.47      0.00
   12    9   11     -0.58      0.00
   12   10   11     -3.56      0.00
   12   11   11     -1.27      0.00
   12    0   12      0.96      0.00
   12    1   12      0.98      0.00
   12    2   12      3.24      0.00
   12    3   12     -2.45      0.00
   12    4   12      2.40      0.00
   12    5   12      1.44      0.00
   12    6   12     -0.28      0.00
   12    7   12      0.44      0.00
   12    8   12      0.41      0.00
   12    9   12     -0.41      0.00
   12   10   12      0.85      0.00
   12    1   13     -1.59      0.00
   12    2   13      0.97      0.00
   12    3   13      0.89      0.00
   12    4   13      0.71      0.00
   12    5   13      0.99      0.00
   12    6   13      0.46      0.00
   12    7   13      4.23      0.00
   12    8   13     -1.98      0.00
   12    9   13      0.98      0.00
   12    0   14      2.33      0.00
   12    1   14     -0.53      0.00
   12    2   14     -1.25      0.00
   12    3   14      0.51      0.00
   12    4   14     -1.31      0.00
   12    5   14     -1.02      0.00
   12    6   14     -4.26      0.00
   12    7   14      0.72      0.00
   12    8   14      0.27      0.00
   12    1   15      0.64      0.00
   12    2   15     -3.07      0.00
   12    3   15      0.43      0.00
   12    4   15     -1.36      0.00
   12    5   15      4.14      0.00
   12    6   15     -1.37      0.00
   12    7   15     -0.17      0.00
   12    0   16      1.44      0.00
   12    1   16     -0.62      0.00
   12    2   16     -0.48      0.00
   12    3   16      0.15      0.00
   12    4   16      0.94      0.00
   12    1   17     -0.09      0.00
   12    2   17      0.45      0.00
   13    0    1    -21.55      0.00
   13    1    1    -14.00      0.00
   13    2    1     -8.89      0.00
   13    3    1     -7.76      0.00
   13    4    1      1.78      0.00
   13    5    1      4.14      0.00
   13    6    1     -0.15      0.00
   13    7    1     -1.68      0.00
   13    8    1     -4.04      0.00
   13    9    1      0.28      0.00
   13   10    1     -3.07      0.00
   13   11    1     -0.99      0.00
   13   12    1      1.07      0.00
   13   13    1     -0.27      0.00
   13   14    1      3.34      0.00
   13    1    2     -5.18      0.00
   13    2    2     -0.15      0.00
   13    3    2     -4.71      0.00
   13    4    2    -11.16      0.00
   13    5    2      0.90      0.00
   13    6    2      2.01      0.00
   13    7    2     -2.22      0.00
   13    8    2      5.91      0.00
   13    9    2     -0.97      0.00
   13   10    2     -0.19      0.00
   13   11    2      0.76      0.00
   13   12    2     -1.63      0.00
   13   13    2     -1.46      0.00
   13   14    2     -0.71      0.00
   13    0    3      1.82      0.00
   13    1    3     -1.17      0.00
   13    2    3      1.06      0.00
   13    3    3      2.51      0.00
   13    4    3     -5.27      0.00
   13    5    3     -3.71      0.00
   13    6    3      0.03      0.00
   13    7    3     -0.65      0.00
   13    8    3      2.12      0.00
   13    9    3      1.77      0.00
   13   10    3      3.09      0.00
   13   11    3      0.97      0.00
   13   12    3     -2.19      0.00
   13   13    3      3.10      0.00
   13   14    3     -2.92      0.00
   13    1    4     -1.62      0.00
   13    2    4     -2.11      0.00
   13    3    4      1.05      0.00
   13    4    4     -0.29      0.00
   13    5    4      0.91      0.00
   13    6    4     -0.13      0.00
   13    7    4      4.50      0.00
   13    8    4      1.23      0.00
   13    9    4     -0.48      0.00
   13   10    4     -0.77      0.00
   13   11    4     -1.03      0.00
   13   12    4      1.89      0.00
   13   13    4     -0.50      0.00
   13   14    4     -0.39      0.00
   13    0    5     -1.18      0.00
   13    1    5     -0.41      0.00
   13    2    5      3.75      0.00
   13    3    5     -3.32      0.00
   13    4    5      0.27      0.00
   13    5    5     -2.65      0.00
   13    6    5     -4.13      0.00
   13    7    5     -0.20      0.00
   13    8    5      3.34      0.00
   13    9    5      4.55      0.00
   13   10    5      1.72      0.00
   13   11    5     -1.51      0.00
   13   12    5     -1.36      0.00
   13   13    5      2.32      0.00
   13    1    6     -1.40      0.00
   13    2    6      0.86      0.00
   13    3    6      1.18      0.00
   13    4    6      8.82      0.00
   13    5    6     -4.68      0.00
   13    6    6     -0.23      0.00
   13    7    6      1.07      0.00
   13    8    6     -5.54      0.00
   13    9    6      3.33      0.00
   13   10    6      2.10      0.00
   13   11    6      0.47      0.00
   13   12    6      0.27      0.00
   13   13    6     -0.79      0.00
   13    0    7     -5.97      0.00
   13    1    7     -6.25      0.00
   13    2    7     -7.55      0.00
   13    3    7     -2.47      0.00
   13    4    7      2.28      0.00
   13    5    7      0.92      0.00
   13    6    7      0.93      0.00
   13    7    7     -2.57      0.00
   13    8    7      0.15      0.00
   13    9    7     -1.59      0.00
   13   10    7      0.95      0.00
   13   11    7     -1.88      0.00
   13   12    7      1.09      0.00
   13   13    7     -0.69      0.00
   13    1    8     -0.69      0.00
   13    2    8     -2.51      0.00
   13    3    8     -2.89      0.00
   13    4    8     -1.41      0.00
   13    5    8      0.29      0.00
   13    6    8     -2.62      0.00
   13    7    8      2.31      0.00
   13    8    8      0.78      0.00
   13    9    8      4.81      0.00
   13   10    8      1.91      0.00
   13   11    8      1.90      0.00
   13   12    8     -0.55      0.00
   13    0    9      3.11      0.00
   13    1    9     -0.33      0.00
   13    2    9      1.51      0.00
   13    3    9     -4.72      0.00
   13    4    9     -0.04      0.00
   13    5    9      6.99      0.00
   13    6    9      2.67      0.00
   13    7    9      1.75      0.00
   13    8    9     -1.58      0.00
   13    9    9      2.27      0.00
   13   10    9      1.13      0.00
   13   11    9     -0.57      0.00
   13   12    9      2.72      0.00
   13    1   10      0.89      0.00
   13    2   10      1.57      0.00
   13    3   10      0.96      0.00
   13    4   10     -8.70      0.00
   13    5   10     -2.04      0.00
   13    6   10      0.74      0.00
   13    7   10      3.87      0.00
   13    8   10      5.23      0.00
   13    9   10      0.43      0.00
   13   10   10      1.41      0.00
   13   11   10      1.64      0.00
   13    0   11     -1.39      0.00
   13    1   11      0.50      0.00
   13    2   11     -4.33      0.00
   13    3   11      2.84      0.00
   13    4   11     -1.09      0.00
   13    5   11     -0.11      0.00
   13    6   11     -8.74      0.00
   13    7   11     -2.01      0.00
   13    8   11      1.60      0.00
   13    9   11     -0.40      0.00
   13   10   11      3.50      0.00
   13    1   12      1.05      0.00
   13    2   12     -0.19      0.00
   13    3   12     -2.90      0.00
   13    4   12     -0.77      0.00
   13    5   12      0.97      0.00
   13    6   12      3.87      0.00
   13    7   12     -4.31      0.00
   13    8   12     -0.25      0.00
   13    9   12     -1.94      0.00
   13   10   12     -0.41      0.00
   13    0   13     -2.50      0.00
   13    1   13     -0.87      0.00
   13    2   13      0.35      0.00
   13    3   13     -1.36      0.00
   13    4   13     -2.94      0.00
   13    5   13     -3.13      0.00
   13    6   13      1.98      0.00
   13    7   13     -3.12      0.00
   13    8   13      1.83      0.00
   13    9   13      1.99      0.00
   13    1   14      1.39      0.00
   13    2   14      0.57      0.00
   13    3   14     -0.34      0.00
   13    4   14     -0.87      0.00
   13    5   14     -2.19      0.00
   13    6   14     -0.49      0.00
   13    7   14     -0.98      0.00
   13    8   14     -0.54      0.00
   13    0   15     -2.42      0.00
   13    1   15     -0.53      0.00
   13    2   15      0.58      0.00
   13    3   15      0.71      0.00
   13    4   15     -0.51      0.00
   13    5   15      0.85      0.00
   13    1   16     -0.80      0.00
   13    2   16      1.36      0.00
   13    3   16     -1.13      0.00
   13    4   16      2.62      0.00
   14    0    0     16.19      0.00
   14    1    0      8.95      0.00
   14    2    0     -1.07      0.00
   14    3    0      0.21      0.00
   14    4    0      1.27      0.00
   14    5    0     -8.62      0.00
   14    6    0      1.54      0.00
   14    7    0     -0.44      0.00
   14    8    0     -1.73      0.00
   14    9    0      4.98      0.00
   14   10    0     -2.32      0.00
   14   11    0      2.49      0.00
   14   12    0      1.26      0.00
   14   13    0     -3.13      0.00
   14   14    0     -1.95      0.00
   14    1    1      7.75      0.00
   14    2    1     -4.22      0.00
   14    3    1     -0.21      0.00
   14    4    1      1.32      0.00
   14    5    1     -3.45      0.00
   14    6    1      1.47      0.00
   14    7    1     -4.48      0.00
   14    8    1      1.68      0.00
   14    9    1     -0.18      0.00
   14   10    1     -5.56      0.00
   14   11    1      6.87      0.00
   14   12    1     -4.04      0.00
   14   13    1      1.94      0.00
   14   14    1      0.77      0.00
   14    0    2      0.41      0.00
   14    1    2     -5.04      0.00
   14    2    2     -3.31      0.00
   14    3    2     -0.11      0.00
   14    4    2     -3.91      0.00
   14    5    2      2.93      0.00
   14    6    2      1.24      0.00
   14    7    2      0.38      0.00
   14    8    2      5.19      0.00
   14    9    2     -1.64      0.00
   14   10    2      3.66      0.00
   14   11    2     -0.61      0.00
   14   12    2     -0.77      0.00
   14   13    2      3.52      0.00
   14   14    2      0.15      0.00
   14    1    3      2.29      0.00
   14    2    3      4.16      0.00
   14    3    3      0.08      0.00
   14    4    3     -3.94      0.00
   14    5    3      2.50      0.00
   14    6    3     -1.83      0.00
   14    7    3     -0.83      0.00
   14    8    3      2.09      0.00
   14    9    3     -1.38      0.00
   14   10    3      3.82      0.00
   14   11    3      0.55      0.00
   14   12    3      0.60      0.00
   14   13    3      0.64      0.00
   14    0    4    -12.46      0.00
   14    1    4     -3.74      0.00
   14    2    4      0.56      0.00
   14    3    4     -0.67      0.00
   14    4    4      3.44      0.00
   14    5    4      0.17      0.00
   14    6    4     -3.78      0.00
   14    7    4      2.50      0.00
   14    8    4     -3.20      0.00
   14    9    4     -0.18      0.00
   14   10    4     -0.79      0.00
   14   11    4     -0.51      0.00
   14   12    4      3.22      0.00
   14   13    4     -2.52      0.00
   14    1    5      0.99      0.00
   14    2    5     -2.49      0.00
   14    3    5     -1.09      0.00
   14    4    5      2.94      0.00
   14    5    5      0.42      0.00
   14    6    5      0.07      0.00
   14    7    5     -0.33      0.00
   14    8    5     -0.32      0.00
   14    9    5      1.45      0.00
   14   10    5     -1.59      0.00
   14   11    5     -0.16      0.00
   14   12    5     -0.81      0.00
   14   13    5     -1.08      0.00
   14    0    6      6.97      0.00
   14    1    6      3.83      0.00
   14    2    6      7.46      0.00
   14    3    6      5.22      0.00
   14    4    6     -0.81      0.00
   14    5    6      2.35      0.00
   14    6    6     -0.86      0.00
   14    7    6     -1.81      0.00
   14    8    6     -0.12      0.00
   14    9    6     -1.04      0.00
   14   10    6     -0.44      0.00
   14   11    6      2.56      0.00
   14   12    6      0.11      0.00
   14   13    6      2.62      0.00
   14    1    7     -3.39      0.00
   14    2    7     -0.58      0.00
   14    3    7      2.64      0.00
   14    4    7      0.80      0.00
   14    5    7      3.77      0.00
   14    6    7      0.79      0.00
   14    7    7     -0.88      0.00
   14    8    7      0.15      0.00
   14    9    7     -3.06      0.00
   14   10    7      0.45      0.00
   14   11    7     -2.81      0.00
   14   12    7      0.75      0.00
   14    0    8     -0.03      0.00
   14    1    8      8.12      0.00
   14    2    8     -0.64      0.00
   14    3    8      2.41      0.00
   14    4    8      1.67      0.00
   14    5    8     -3.74      0.00
   14    6    8      5.01      0.00
   14    7    8     -2.43      0.00
   14    8    8     -0.04      0.00
   14    9    8      5.33      0.00
   14   10    8     -2.46      0.00
   14   11    8      0.40      0.00
   14   12    8      0.08      0.00
   14    1    9      0.61      0.00
   14    2    9     -0.71      0.00
   14    3    9      1.96      0.00
   14    4    9      4.26      0.00
   14    5    9      1.33      0.00
   14    6    9      1.58      0.00
   14    7    9     -3.35      0.00
   14    8    9     -4.36      0.00
   14    9    9     -3.28      0.00
   14   10    9     -1.30      0.00
   14   11    9     -1.12      0.00
   14    0   10      3.12      0.00
   14    1   10     -4.26      0.00
   14    2   10     -1.02      0.00
   14    3   10     -2.62      0.00
   14    4   10     -3.14      0.00
   14    5   10     -3.55      0.00
   14    6   10     -0.63      0.00
   14    7   10     -0.70      0.00
   14    8   10      0.14      0.00
   14    9   10      1.20      0.00
   14   10   10     -1.50      0.00
   14   11   10      1.62      0.00
   14    1   11     -0.39      0.00
   14    2   11      0.28      0.00
   14    3   11     -0.17      0.00
   14    4   11      2.45      0.00
   14    5   11      0.90      0.00
   14    6   11     -0.92      0.00
   14    7   11     -0.96      0.00
   14    8   11     -2.37      0.00
   14    9   11      2.71      0.00
   14   10   11      2.09      0.00
   14    1   12      1.23      0.00
   14    2   12      2.25      0.00
   14    3   12     -1.19      0.00
   14    4   12      2.28      0.00
   14    5   12      3.63      0.00
   14    6   12      4.03      0.00
   14    7   12      4.36      0.00
   14    8   12     -1.95      0.00
   14    9   12     -3.90      0.00
   14    1   13     -1.52      0.00
   14    2   13      0.04      0.00
   14    3   13      1.70      0.00
   14    4   13     -0.61      0.00
   14    5   13     -2.11      0.00
   14    6   13     -1.78      0.00
   14    7   13      2.22      0.00
   14    8   13     -0.57      0.00
   14    0   14      2.16      0.00
   14    1   14      0.74      0.00
   14    2   14      0.03      0.00
   14    3   14      0.92      0.00
   14    4   14      0.71      0.00
   14    5   14      3.41      0.00
   14    6   14     -2.34      0.00
   14    7   14      0.06      0.00
   14    1   15     -0.05      0.00
   14    2   15     -1.22      0.00
   14    3   15     -0.03      0.00
   14    4   15     -0.51      0.00
   14    5   15      2.85      0.00
   14    0   16      1.08      0.00
   14    1   16     -1.19      0.00
   14    2   16     -0.94      0.00
   15    0    1      3.48      0.00
   15    1    1      9.05      0.00
   15    2    1      8.84      0.00
   15    3    1      6.71      0.00
   15    4    1      0.82      0.00
   15    5    1     -4.47      0.00
   15    6    1      0.64      0.00
   15    7    1     -1.09      0.00
   15    8    1     -1.24      0.00
   15    9    1      3.24      0.00
   15   10    1     -3.29      0.00
   15   11    1      1.42      0.00
   15   12    1      1.66      0.00
   15   13    1     -3.01      0.00
   15    1    2     -4.43      0.00
   15    2    2     -0.43      0.00
   15    3    2      8.08      0.00
   15    4    2      7.11      0.00
   15    5    2      3.00      0.00
   15    6    2     -0.87      0.00
   15    7    2     -3.04      0.00
   15    8    2     -2.01      0.00
   15    9    2     -2.79      0.00
   15   10    2     -0.53      0.00
   15   11    2     -2.65      0.00
   15   12    2      0.08      0.00
   15   13    2      0.44      0.00
   15    0    3     11.49      0.00
   15    1    3      5.79      0.00
   15    2    3      0.06      0.00
   15    3    3      0.14      0.00
   15    4    3      0.78      0.00
   15    5    3      4.35      0.00
   15    6    3     -1.85      0.00
   15    7    3     -1.80      0.00
   15    8    3     -0.84      0.00
   15    9    3     -6.82      0.00
   15   10    3      2.31      0.00
   15   11    3     -1.16      0.00
   15   12    3     -2.75      0.00
   15   13    3      1.73      0.00
   15    1    4      0.23      0.00
   15    2    4      0.35      0.00
   15    3    4     -0.30      0.00
   15    4    4     -0.11      0.00
   15    5    4      1.67      0.00
   15    6    4     -1.38      0.00
   15    7    4     -1.99      0.00
   15    8    4     -3.74      0.00
   15    9    4     -1.04      0.00
   15   10    4     -1.82      0.00
   15   11    4     -1.30      0.00
   15   12    4     -0.78      0.00
   15   13    4      0.24      0.00
   15    0    5      1.78      0.00
   15    1    5     -0.69      0.00
   15    2    5     -4.05      0.00
   15    3    5     -8.40      0.00
   15    4    5     -0.27      0.00
   15    5    5      3.78      0.00
   15    6    5      2.60      0.00
   15    7    5      4.65      0.00
   15    8    5     -0.54      0.00
   15    9    5     -2.38      0.00
   15   10    5      0.79      0.00
   15   11    5      0.28      0.00
   15   12    5     -0.91      0.00
   15   13    5     -1.09      0.00
   15    1    6      3.81      0.00
   15    2    6      3.49      0.00
   15    3    6     -7.27      0.00
   15    4    6     -3.20      0.00
   15    5    6     -6.82      0.00
   15    6    6      1.85      0.00
   15    7    6      3.34      0.00
   15    8    6     -0.75      0.00
   15    9    6      1.43      0.00
   15   10    6     -0.47      0.00
   15   11    6      0.55      0.00
   15   12    6      1.56      0.00
   15    0    7     -5.01      0.00
   15    1    7     -1.09      0.00
   15    2    7     -2.00      0.00
   15    3    7      0.98      0.00
   15    4    7     -2.68      0.00
   15    5    7     -3.36      0.00
   15    6    7     -0.95      0.00
   15    7    7     -0.27      0.00
   15    8    7      1.06      0.00
   15    9    7     -2.19      0.00
   15   10    7     -0.59      0.00
   15   11    7     -1.56      0.00
   15   12    7     -0.30      0.00
   15    1    8      2.06      0.00
   15    2    8      1.43      0.00
   15    3    8     -1.78      0.00
   15    4    8     -3.25      0.00
   15    5    8     -0.84      0.00
   15    6    8     -1.60      0.00
   15    7    8      0.88      0.00
   15    8    8     -0.49      0.00
   15    9    8      1.35      0.00
   15   10    8      0.23      0.00
   15   11    8     -0.84      0.00
   15    0    9     -3.36      0.00
   15    1    9     -2.74      0.00
   15    2    9      5.49      0.00
   15    3    9      1.73      0.00
   15    4    9      1.05      0.00
   15    5    9     -0.76      0.00
   15    6    9     -2.60      0.00
   15    7    9      2.03      0.00
   15    8    9     -1.82      0.00
   15    9    9     -3.17      0.00
   15   10    9     -0.05      0.00
   15   11    9     -0.41      0.00
   15    1   10     -1.07      0.00
   15    2   10     -1.89      0.00
   15    3   10      4.26      0.00
   15    4   10     -0.32      0.00
   15    5   10      3.14      0.00
   15    6   10      0.10      0.00
   15    7   10     -3.27      0.00
   15    8   10      4.40      0.00
   15    9   10     -1.84      0.00
   15   10   10     -3.05      0.00
   15    0   11      2.18      0.00
   15    1   11      2.23      0.00
   15    2   11     -0.65      0.00
   15    3   11      4.77      0.00
   15    4   11     -0.10      0.00
   15    5   11      1.49      0.00
   15    6   11      1.90      0.00
   15    7   11      1.25      0.00
   15    8   11     -0.56      0.00
   15    9   11     -0.14      0.00
   15    1   12     -1.33      0.00
   15    2   12      1.31      0.00
   15    3   12     -0.28      0.00
   15    4   12      1.59      0.00
   15    5   12     -0.74      0.00
   15    6   12      0.95      0.00
   15    7   12      0.31      0.00
   15    8   12      1.25      0.00
   15    0   13     -0.33      0.00
   15    1   13     -0.04      0.00
   15    2   13     -0.16      0.00
   15    3   13     -1.78      0.00
   15    4   13      0.42      0.00
   15    5   13     -3.62      0.00
   15    6   13     -0.40      0.00
   15    7   13     -2.51      0.00
   15    1   14      1.16      0.00
   15    2   14     -0.32      0.00
   15    3   14      0.73      0.00
   15    4   14      1.04      0.00
   15    5   14      2.00      0.00
   15    6   14      0.45      0.00
   15    0   15     -0.07      0.00
   15    1   15      0.04      0.00
   15    2   15      0.38      0.00
   15    3   15      1.11      0.00
   15    4   15     -1.57      0.00
   16    0    0    -15.79      0.00
   16    1    0    -11.85      0.00
   16    2    0    -18.25      0.00
   16    3    0     -9.38      0.00
   16    4    0      6.78      0.00
   16    5    0      1.16      0.00
   16    6    0      6.46      0.00
   16    7    0     -1.64      0.00
   16    8    0     -4.94      0.00
   16    9    0      1.09      0.00
   16   10    0     -2.99      0.00
   16   11    0     -1.03      0.00
   16   12    0     -1.70      0.00
   16   13    0      0.64      0.00
   16    1    1      5.56      0.00
   16    2    1     -3.58      0.00
   16    3    1     -2.42      0.00
   16    4    1     -6.85      0.00
   16    5    1     -0.79      0.00
   16    6    1      4.49      0.00
   16    7    1     -1.80      0.00
   16    8    1      6.24      0.00
   16    9    1      0.74      0.00
   16   10    1     -2.16      0.00
   16   11    1      8.68      0.00
   16   12    1     -5.24      0.00
   16   13    1     -0.62      0.00
   16    0    2     -2.71      0.00
   16    1    2     -6.93      0.00
   16    2    2      0.61      0.00
   16    3    2     -2.03      0.00
   16    4    2     -2.78      0.00
   16    5    2      5.72      0.00
   16    6    2     -1.03      0.00
   16    7    2      1.94      0.00
   16    8    2      3.66      0.00
   16    9    2     -2.13      0.00
   16   10    2      2.44      0.00
   16   11    2      0.64      0.00
   16   12    2     -0.72      0.00
   16   13    2      0.66      0.00
   16    1    3     -3.17      0.00
   16    2    3      1.41      0.00
   16    3    3     -5.68      0.00
   16    4    3     -9.75      0.00
   16    5    3      0.68      0.00
   16    6    3      2.06      0.00
   16    7    3      3.02      0.00
   16    8    3      8.25      0.00
   16    9    3      0.43      0.00
   16   10    3      2.29      0.00
   16   11    3      0.83      0.00
   16   12    3      2.93      0.00
   16    0    4      0.67      0.00
   16    1    4      3.09      0.00
   16    2    4      3.74      0.00
   16    3    4      2.85      0.00
   16    4    4     -1.44      0.00
   16    5    4     -8.17      0.00
   16    6    4     -2.64      0.00
   16    7    4      0.73      0.00
   16    8    4     -0.13      0.00
   16    9    4      7.13      0.00
   16   10    4     -0.70      0.00
   16   11    4     -2.57      0.00
   16   12    4      1.30      0.00
   16    1    5      0.95      0.00
   16    2    5      0.64      0.00
   16    3    5      3.59      0.00
   16    4    5      4.21      0.00
   16    5    5     -0.79      0.00
   16    6    5     -1.91      0.00
   16    7    5      0.28      0.00
   16    8    5     -3.06      0.00
   16    9    5      2.14      0.00
   16   10    5      0.97      0.00
   16   11    5      0.15      0.00
   16   12    5      0.80      0.00
   16    0    6      1.28      0.00
   16    1    6     -5.69      0.00
   16    2    6      2.97      0.00
   16    3    6      3.46      0.00
   16    4    6      0.08      0.00
   16    5    6      2.35      0.00
   16    6    6     -1.29      0.00
   16    7    6     -2.43      0.00
   16    8    6      1.93      0.00
   16    9    6      0.14      0.00
   16   10    6      1.69      0.00
   16   11    6      0.78      0.00
   16   12    6     -2.41      0.00
   16    1    7     -3.63      0.00
   16    2    7     -0.44      0.00
   16    3    7      4.90      0.00
   16    4    7      3.36      0.00
   16    5    7      3.05      0.00
   16    6    7     -0.68      0.00
   16    7    7      0.29      0.00
   16    8    7     -1.25      0.00
   16    9    7     -0.85      0.00
   16   10    7      2.88      0.00
   16   11    7      0.80      0.00
   16    0    8     -3.28      0.00
   16    1    8      0.64      0.00
   16    2    8     -9.49      0.00
   16    3    8     -3.21      0.00
   16    4    8      2.73      0.00
   16    5    8     -2.79      0.00
   16    6    8      6.73      0.00
   16    7    8     -0.01      0.00
   16    8    8     -2.21      0.00
   16    9    8      3.62      0.00
   16   10    8     -0.97      0.00
   16   11    8      2.23      0.00
   16    1    9      4.39      0.00
   16    2    9     -3.62      0.00
   16    3    9     -2.39      0.00
   16    4    9     -0.43      0.00
   16    5    9     -4.54      0.00
   16    6    9      0.71      0.00
   16    7    9      4.31      0.00
   16    8    9      3.11      0.00
   16    9    9      0.99      0.00
   16   10    9      0.86      0.00
   16    0   10      3.30      0.00
   16    1   10      0.06      0.00
   16    2   10      1.90      0.00
   16    3   10     -0.96      0.00
   16    4   10      0.05      0.00
   16    5   10      3.10      0.00
   16    6   10     -1.97      0.00
   16    7   10     -1.16      0.00
   16    8   10      2.73      0.00
   16    9   10      1.16      0.00
   16   10   10     -1.83      0.00
   16    1   11     -1.06      0.00
   16    2   11      2.06      0.00
   16    3   11     -3.08      0.00
   16    4   11     -3.17      0.00
   16    5   11     -1.03      0.00
   16    6   11     -0.93      0.00
   16    7   11      1.36      0.00
   16    8   11     -1.08      0.00
   16    9   11      0.12      0.00
   16    0   12     -2.29      0.00
   16    1   12     -2.08      0.00
   16    2   12     -2.05      0.00
   16    3   12     -1.72      0.00
   16    4   12     -1.43      0.00
   16    5   12     -2.19      0.00
   16    6   12     -4.19      0.00
   16    7   12     -0.25      0.00
   16    8   12      0.89      0.00
   16    1   13      1.34      0.00
   16    2   13     -0.18      0.00
   16    3   13      0.35      0.00
   16    4   13     -0.25      0.00
   16    5   13     -0.11      0.00
   16    6   13      1.66      0.00
   16    7   13     -1.84      0.00
   16    0   14     -0.67      0.00
   16    1   14     -1.49      0.00
   16    2   14      0.96      0.00
   16    3   14      0.94      0.00
   16    4   14     -1.95      0.00
   16    5   14      3.49      0.00
   16    1   15      0.20      0.00
   16    2   15     -0.61      0.00
   17    0    1      3.16      0.00
   17    1    1      6.14      0.00
   17    2    1      3.33      0.00
   17    3    1      3.07      0.00
   17    4    1     -2.69      0.00
   17    5    1     -5.43      0.00
   17    6    1      2.25      0.00
   17    7    1     -1.03      0.00
   17    8    1      1.50      0.00
   17    9    1      3.77      0.00
   17   10    1     -2.98      0.00
   17   11    1      0.30      0.00
   17   12    1      2.71      0.00
   17    1    2      0.18      0.00
   17    2    2      0.03      0.00
   17    3    2      5.25      0.00
   17    4    2      0.96      0.00
   17    5    2     -0.63      0.00
   17    6    2     -1.64      0.00
   17    7    2     -3.84      0.00
   17    8    2     -1.56      0.00
   17    9    2     -0.98      0.00
   17   10    2     -1.02      0.00
   17   11    2     -2.84      0.00
   17   12    2     -2.33      0.00
   17    0    3     -6.73      0.00
   17    1    3     -6.64      0.00
   17    2    3     -2.23      0.00
   17    3    3      1.30      0.00
   17    4    3      0.11      0.00
   17    5    3      4.02      0.00
   17    6    3     -0.77      0.00
   17    7    3      0.69      0.00
   17    8    3     -0.21      0.00
   17    9    3     -4.77      0.00
   17   10    3      2.54      0.00
   17   11    3     -0.73      0.00
   17   12    3     -2.20      0.00
   17    1    4     -0.75      0.00
   17    2    4     -2.02      0.00
   17    3    4      1.76      0.00
   17    4    4      4.12      0.00
   17    5    4     -0.51      0.00
   17    6    4      0.02      0.00
   17    7    4      1.49      0.00
   17    8    4     -1.17      0.00
   17    9    4      1.48      0.00
   17   10    4      0.52      0.00
   17   11    4      1.61      0.00
   17   12    4     -1.93      0.00
   17    0    5     -3.69      0.00
   17    1    5      0.25      0.00
   17    2    5     -0.52      0.00
   17    3    5     -0.95      0.00
   17    4    5      3.41      0.00
   17    5    5      3.65      0.00
   17    6    5     -2.78      0.00
   17    7    5      1.61      0.00
   17    8    5     -1.04      0.00
   17    9    5     -4.96      0.00
   17   10    5     -0.48      0.00
   17   11    5      2.34      0.00
   17    1    6     -3.29      0.00
   17    2    6     -2.61      0.00
   17    3    6     -5.33      0.00
   17    4    6      3.90      0.00
   17    5    6     -0.84      0.00
   17    6    6      1.19      0.00
   17    7    6      2.75      0.00
   17    8    6      1.75      0.00
   17    9    6      0.43      0.00
   17   10    6     -2.69      0.00
   17   11    6     -4.60      0.00
   17    0    7      5.19      0.00
   17    1    7     11.22      0.00
   17    2    7      3.64      0.00
   17    3    7     -0.07      0.00
   17    4    7      0.27      0.00
   17    5    7      0.28      0.00
   17    6    7     -0.75      0.00
   17    7    7     -0.61      0.00
   17    8    7      1.24      0.00
   17    9    7      2.21      0.00
   17   10    7     -0.75      0.00
   17   11    7     -2.42      0.00
   17    1    8     -1.96      0.00
   17    2    8      3.05      0.00
   17    3    8      0.86      0.00
   17    4    8     -0.46      0.00
   17    5    8      2.16      0.00
   17    6    8     -2.76      0.00
   17    7    8     -4.51      0.00
   17    8    8     -1.44      0.00
   17    9    8     -0.70      0.00
   17   10    8     -0.87      0.00
   17    0    9      3.15      0.00
   17    1    9     -1.27      0.00
   17    2    9      1.86      0.00
   17    3    9     -1.15      0.00
   17    4    9     -0.21      0.00
   17    5    9      2.12      0.00
   17    6    9     -0.80      0.00
   17    7    9     -2.27      0.00
   17    8    9     -1.26      0.00
   17    9    9      1.04      0.00
   17   10    9      0.61      0.00
   17    1   10      0.02      0.00
   17    2   10     -1.06      0.00
   17    3   10      3.08      0.00
   17    4   10     -1.57      0.00
   17    5   10      2.82      0.00
   17    6   10      2.88      0.00
   17    7   10     -3.73      0.00
   17    8   10     -0.75      0.00
   17    9   10     -0.12      0.00
   17    0   11      0.20      0.00
   17    1   11     -1.26      0.00
   17    2   11     -3.06      0.00
   17    3   11      0.91      0.00
   17    4   11     -1.39      0.00
   17    5   11      0.55      0.00
   17    6   11      2.99      0.00
   17    7   11      1.32      0.00
   17    8   11     -1.77      0.00
   17    1   12      0.04      0.00
   17    2   12     -0.15      0.00
   17    3   12     -0.40      0.00
   17    4   12     -0.77      0.00
   17    5   12     -2.12      0.00
   17    6   12     -0.38      0.00
   17    7   12      0.83      0.00
   17    0   13     -0.65      0.00
   17    1   13      3.46      0.00
   17    2   13      2.99      0.00
   17    3   13     -1.02      0.00
   17    4   13      4.79      0.00
   17    5   13     -0.77      0.00
   17    6   13      0.62      0.00
   17    1   14     -2.24      0.00
   17    2   14     -0.70      0.00
   17    3   14     -1.14      0.00
   17    4   14     -1.57      0.00
   18    0    0      1.15      0.00
   18    1    0      6.58      0.00
   18    2    0      1.62      0.00
   18    3    0      4.05      0.00
   18    4    0      3.90      0.00
   18    5    0     -7.03      0.00
   18    6    0      1.55      0.00
   18    7    0     -4.20      0.00
   18    8    0     -4.42      0.00
   18    9    0      5.38      0.00
   18   10    0     -0.89      0.00
   18   11    0      1.86      0.00
   18   12    0     -0.76      0.00
   18    1    1     -0.89      0.00
   18    2    1     -2.75      0.00
   18    3    1      5.92      0.00
   18    4    1     -2.99      0.00
   18    5    1      3.72      0.00
   18    6    1      1.62      0.00
   18    7    1     -4.60      0.00
   18    8    1      2.02      0.00
   18    9    1     -0.77      0.00
   18   10    1     -1.00      0.00
   18   11    1      6.49      0.00
   18   12    1     -0.17      0.00
   18    0    2      8.61      0.00
   18    1    2      0.25      0.00
   18    2    2      4.17      0.00
   18    3    2     -0.61      0.00
   18    4    2     -0.49      0.00
   18    5    2      3.00      0.00
   18    6    2     -5.13      0.00
   18    7    2     -0.02      0.00
   18    8    2     -1.87      0.00
   18    9    2     -3.08      0.00
   18   10    2      1.52      0.00
   18   11    2     -0.05      0.00
   18   12    2      0.36      0.00
   18    1    3     -0.35      0.00
   18    2    3      1.35      0.00
   18    3    3      1.25      0.00
   18    4    3      2.98      0.00
   18    5    3      3.52      0.00
   18    6    3     -0.79      0.00
   18    7    3     -3.39      0.00
   18    8    3     -0.81      0.00
   18    9    3     -6.39      0.00
   18   10    3     -1.05      0.00
   18   11    3     -2.99      0.00
   18    0    4      4.86      0.00
   18    1    4      2.92      0.00
   18    2    4     -2.68      0.00
   18    3    4     -6.54      0.00
   18    4    4     -1.39      0.00
   18    5    4      0.80      0.00
   18    6    4      0.31      0.00
   18    7    4      0.82      0.00
   18    8    4      1.85      0.00
   18    9    4      1.10      0.00
   18   10    4      2.43      0.00
   18   11    4     -0.50      0.00
   18    1    5      3.21      0.00
   18    2    5      3.56      0.00
   18    3    5     -2.27      0.00
   18    4    5     -5.01      0.00
   18    5    5     -0.12      0.00
   18    6    5     -0.82      0.00
   18    7    5     -0.99      0.00
   18    8    5     -3.87      0.00
   18    9    5      0.66      0.00
   18   10    5     -0.26      0.00
   18   11    5      1.23      0.00
   18    0    6     -0.30      0.00
   18    1    6     -8.46      0.00
   18    2    6     -2.22      0.00
   18    3    6     -1.31      0.00
   18    4    6     -3.24      0.00
   18    5    6      0.24      0.00
   18    6    6      3.75      0.00
   18    7    6     -1.05      0.00
   18    8    6     -0.28      0.00
   18    9    6     -1.85      0.00
   18   10    6     -1.34      0.00
   18   11    6      0.14      0.00
   18    1    7      3.74      0.00
   18    2    7      0.01      0.00
   18    3    7     -2.02      0.00
   18    4    7     -5.27      0.00
   18    5    7     -1.58      0.00
   18    6    7      1.77      0.00
   18    7    7      4.92      0.00
   18    8    7      0.57      0.00
   18    9    7     -0.27      0.00
   18   10    7      2.96      0.00
   18    0    8     -8.30      0.00
   18    1    8     -1.75      0.00
   18    2    8     -1.67      0.00
   18    3    8      3.47      0.00
   18    4    8      1.01      0.00
   18    5    8     -8.50      0.00
   18    6    8      1.09      0.00
   18    7    8      0.14      0.00
   18    8    8     -1.56      0.00
   18    9    8      0.27      0.00
   18   10    8     -2.47      0.00
   18    1    9      1.60      0.00
   18    2    9     -2.85      0.00
   18    3    9      0.96      0.00
   18    4    9      2.70      0.00
   18    5    9     -1.14      0.00
   18    6    9      1.90      0.00
   18    7    9     -1.16      0.00
   18    8    9      0.68      0.00
   18    9    9      1.36      0.00
   18    0   10      0.54      0.00
   18    1   10      0.45      0.00
   18    2   10      2.64      0.00
   18    3   10      1.70      0.00
   18    4   10     -0.87      0.00
   18    5   10     -1.19      0.00
   18    6   10     -1.31      0.00
   18    7   10      1.66      0.00
   18    8   10      1.08      0.00
   18    1   11     -1.55      0.00
   18    2   11      2.81      0.00
   18    3   11      0.87      0.00
   18    4   11      4.26      0.00
   18    5   11      3.38      0.00
   18    6   11     -3.16      0.00
   18    7   11      0.22      0.00
   18    0   12      0.19      0.00
   18    1   12      0.09      0.00
   18    2   12     -0.37      0.00
   18    3   12      0.07      0.00
   18    4   12     -0.02      0.00
   18    5   12      0.88      0.00
   18    6   12     -0.54      0.00
   18    1   13      1.15      0.00
   18    2   13     -1.01      0.00
   18    3   13      0.35      0.00
   18    4   13      2.70      0.00
   18    0   14      2.32      0.00
   18    1   14     -1.34      0.00
   19    0    1     -7.40      0.00
   19    1    1     -4.56      0.00
   19    2    1    -10.76      0.00
   19    3    1     -2.26      0.00
   19    4    1      2.58      0.00
   19    5    1      0.60      0.00
   19    6    1      6.95      0.00
   19    7    1      1.41      0.00
   19    8    1      1.65      0.00
   19    9    1     -0.35      0.00
   19   10    1     -1.42      0.00
   19   11    1      0.26      0.00
   19    1    2      1.75      0.00
   19    2    2     -1.63      0.00
   19    3    2     -4.82      0.00
   19    4    2     -8.28      0.00
   19    5    2     -1.11      0.00
   19    6    2      2.59      0.00
   19    7    2      0.49      0.00
   19    8    2      8.16      0.00
   19    9    2      3.32      0.00
   19   10    2     -1.75      0.00
   19   11    2      3.91      0.00
   19    0    3     -0.33      0.00
   19    1    3      1.13      0.00
   19    2    3      4.30      0.00
   19    3    3      1.98      0.00
   19    4    3     -0.93      0.00
   19    5    3      1.53      0.00
   19    6    3     -2.15      0.00
   19    7    3      1.23      0.00
   19    8    3      1.37      0.00
   19    9    3      0.42      0.00
   19   10    3     -0.15      0.00
   19   11    3     -0.50      0.00
   19    1    4     -0.15      0.00
   19    2    4      0.20      0.00
   19    3    4     -4.93      0.00
   19    4    4     -1.53      0.00
   19    5    4     -2.85      0.00
   19    6    4      1.43      0.00
   19    7    4      4.20      0.00
   19    8    4      2.62      0.00
   19    9    4      4.45      0.00
   19   10    4      0.35      0.00
   19   11    4      1.70      0.00
   19    0    5      1.59      0.00
   19    1    5      5.08      0.00
   19    2    5      7.18      0.00
   19    3    5      6.88      0.00
   19    4    5     -1.13      0.00
   19    5    5     -3.12      0.00
   19    6    5     -5.35      0.00
   19    7    5     -0.56      0.00
   19    8    5      1.02      0.00
   19    9    5      2.21      0.00
   19   10    5      0.71      0.00
   19    1    6     -1.28      0.00
   19    2    6      2.52      0.00
   19    3    6      3.71      0.00
   19    4    6     10.81      0.00
   19    5    6     -2.13      0.00
   19    6    6     -4.47      0.00
   19    7    6     -1.14      0.00
   19    8    6     -6.99      0.00
   19    9    6     -1.07      0.00
   19   10    6      3.33      0.00
   19    0    7     -2.35      0.00
   19    1    7      1.40      0.00
   19    2    7     -3.11      0.00
   19    3    7     -1.57      0.00
   19    4    7      2.13      0.00
   19    5    7      1.55      0.00
   19    6    7      1.06      0.00
   19    7    7      1.34      0.00
   19    8    7     -1.10      0.00
   19    9    7      2.83      0.00
   19    1    8     -0.85      0.00
   19    2    8      0.50      0.00
   19    3    8      1.63      0.00
   19    4    8     -0.14      0.00
   19    5    8      1.68      0.00
   19    6    8     -1.01      0.00
   19    7    8     -0.51      0.00
   19    8    8      0.69      0.00
   19    9    8     -2.19      0.00
   19    0    9      2.98      0.00
   19    1    9     -1.45      0.00
   19    2    9     -0.50      0.00
   19    3    9     -1.95      0.00
   19    4    9      0.78      0.00
   19    5    9      5.09      0.00
   19    6    9      0.69      0.00
   19    7    9      0.53      0.00
   19    8    9      0.25      0.00
   19    1   10     -0.55      0.00
   19    2   10     -1.15      0.00
   19    3   10     -3.27      0.00
   19    4   10     -7.00      0.00
   19    5   10     -2.12      0.00
   19    6   10      0.77      0.00
   19    7   10      0.91      0.00
   19    0   11      0.46      0.00
   19    1   11      1.11      0.00
   19    2   11      1.09      0.00
   19    3   11      1.03      0.00
   19    4   11     -1.31      0.00
   19    5   11     -1.09      0.00
   19    6   11     -1.81      0.00
   19    1   12     -0.10      0.00
   19    2   12     -0.35      0.00
   19    3   12      1.12      0.00
   19    4   12     -1.39      0.00
   19    5   12     -1.11      0.00
   19    0   13     -3.05      0.00
   19    1   13     -0.72      0.00
   19    2   13     -0.03      0.00
   20    0    0      4.13      0.00
   20    1    0      6.86      0.00
   20    2    0      4.60      0.00
   20    3    0      5.20      0.00
   20    4    0     -0.26      0.00
   20    5    0     -7.54      0.00
   20    6    0      3.81      0.00
   20    7    0     -3.25      0.00
   20    8    0     -2.63      0.00
   20    9    0      5.88      0.00
   20   10    0     -5.25      0.00
   20    1    1     -0.37      0.00
   20    2    1     -0.08      0.00
   20    3    1      7.88      0.00
   20    4    1     -2.46      0.00
   20    5    1      4.91      0.00
   20    6    1      1.11      0.00
   20    7    1     -3.45      0.00
   20    8    1      0.40      0.00
   20    9    1     -1.07      0.00
   20   10    1     -2.58      0.00
   20    0    2      2.04      0.00
   20    1    2     -2.59      0.00
   20    2    2      6.91      0.00
   20    3    2     -1.57      0.00
   20    4    2     -4.66      0.00
   20    5    2      1.89      0.00
   20    6    2     -5.19      0.00
   20    7    2      0.56      0.00
   20    8    2      0.31      0.00
   20    9    2      0.95      0.00
   20   10    2      1.60      0.00
   20    1    3     -0.81      0.00
   20    2    3      0.94      0.00
   20    3    3      8.32      0.00
   20    4    3      4.58      0.00
   20    5    3     -0.04      0.00
   20    6    3     -1.53      0.00
   20    7    3     -5.84      0.00
   20    8    3     -4.22      0.00
   20    9    3     -4.01      0.00
   20   10    3      3.78      0.00
   20    0    4     -6.25      0.00
   20    1    4     -7.15      0.00
   20    2    4     -5.20      0.00
   20    3    4     -3.07      0.00
   20    4    4      3.02      0.00
   20    5    4      6.36      0.00
   20    6    4      1.15      0.00
   20    7    4      2.23      0.00
   20    8    4      0.58      0.00
   20    9    4     -9.49      0.00
   20   10    4      1.77      0.00
   20    1    5     -1.88      0.00
   20    2    5     -4.11      0.00
   20    3    5     -1.59      0.00
   20    4    5     -1.26      0.00
   20    5    5      2.13      0.00
   20    6    5      1.34      0.00
   20    7    5      4.95      0.00
   20    8    5      3.46      0.00
   20    9    5      2.36      0.00
   20    0    6      1.14      0.00
   20    1    6      1.07      0.00
   20    2    6      0.52      0.00
   20    3    6     -2.26      0.00
   20    4    6      2.28      0.00
   20    5    6      1.00      0.00
   20    6    6      2.67      0.00
   20    7    6     -1.89      0.00
   20    8    6      1.28      0.00
   20    9    6     -1.18      0.00
   20    1    7     -1.41      0.00
   20    2    7     -2.95      0.00
   20    3    7     -3.76      0.00
   20    4    7     -4.28      0.00
   20    5    7      0.69      0.00
   20    6    7      0.45      0.00
   20    7    7      0.04      0.00
   20    8    7      3.91      0.00
   20    9    7      0.40      0.00
   20    0    8      5.12      0.00
   20    1    8      5.09      0.00
   20    2    8      2.72      0.00
   20    3    8      3.57      0.00
   20    4    8     -0.98      0.00
   20    5    8     -5.08      0.00
   20    6    8      3.04      0.00
   20    7    8     -1.96      0.00
   20    8    8     -2.13      0.00
   20    1    9      0.09      0.00
   20    2    9      0.60      0.00
   20    3    9      4.94      0.00
   20    4    9      4.61      0.00
   20    5    9     -0.30      0.00
   20    6    9      1.82      0.00
   20    7    9     -2.71      0.00
   20    0   10     -2.11      0.00
   20    1   10     -2.88      0.00
   20    2   10     -3.14      0.00
   20    3   10     -3.22      0.00
   20    4   10     -0.43      0.00
   20    5   10      2.28      0.00
   20    6   10      1.01      0.00
   20    1   11     -0.66      0.00
   20    2   11      1.68      0.00
   20    3   11     -0.01      0.00
   20    4   11     -0.74      0.00
   20    5   11      0.52      0.00
   20    0   12     -0.31      0.00
   20    1   12      1.52      0.00
   20    2   12     -1.41      0.00
   20    3   12     -0.26      0.00
   21    0    1     -2.87      0.00
   21    1    1      1.92      0.00
   21    2    1     -3.97      0.00
   21    3    1      0.62      0.00
   21    4    1      2.14      0.00
   21    5    1     -2.31      0.00
   21    6    1      2.30      0.00
   21    7    1     -2.12      0.00
   21    8    1     -2.42      0.00
   21    9    1     -0.59      0.00
   21   10    1      0.67      0.00
   21    1    2     -2.99      0.00
   21    2    2     -1.89      0.00
   21    3    2     -0.23      0.00
   21    4    2     -6.43      0.00
   21    5    2      0.37      0.00
   21    6    2      2.63      0.00
   21    7    2     -2.20      0.00
   21    8    2      4.12      0.00
   21    9    2     -0.02      0.00
   21    0    3      3.81      0.00
   21    1    3      2.49      0.00
   21    2    3     -0.15      0.00
   21    3    3     -0.16      0.00
   21    4    3      0.12      0.00
   21    5    3     -1.61      0.00
   21    6    3     -3.23      0.00
   21    7    3      0.06      0.00
   21    8    3      0.77      0.00
   21    9    3      0.92      0.00
   21    1    4     -0.15      0.00
   21    2    4      3.61      0.00
   21    3    4     -3.76      0.00
   21    4    4      4.37      0.00
   21    5    4      0.01      0.00
   21    6    4     -1.35      0.00
   21    7    4     -0.80      0.00
   21    8    4     -3.36      0.00
   21    9    4     -0.25      0.00
   21    0    5      2.77      0.00
   21    1    5     -0.52      0.00
   21    2    5     -2.98      0.00
   21    3    5     -1.78      0.00
   21    4    5     -4.35      0.00
   21    5    5     -0.73      0.00
   21    6    5     -1.77      0.00
   21    7    5      0.86      0.00
   21    8    5     -0.46      0.00
   21    9    5      3.03      0.00
   21    1    6      3.42      0.00
   21    2    6      3.61      0.00
   21    3    6     -0.60      0.00
   21    4    6      5.25      0.00
   21    5    6     -2.21      0.00
   21    6    6     -0.96      0.00
   21    7    6      4.18      0.00
   21    8    6     -5.16      0.00
   21    0    7     -5.88      0.00
   21    1    7     -4.35      0.00
   21    2    7     -6.14      0.00
   21    3    7     -2.19      0.00
   21    4    7      0.06      0.00
   21    5    7     -0.77      0.00
   21    6    7     -0.60      0.00
   21    7    7      0.30      0.00
   21    8    7     -2.11      0.00
   21    1    8      2.14      0.00
   21    2    8     -0.64      0.00
   21    3    8     -1.14      0.00
   21    4    8     -4.71      0.00
   21    5    8      0.77      0.00
   21    6    8      0.74      0.00
   21    7    8      1.31      0.00
   21    0    9      1.10      0.00
   21    1    9     -0.76      0.00
   21    2    9      1.09      0.00
   21    3    9      1.99      0.00
   21    4    9      0.18      0.00
   21    5    9     -1.24      0.00
   21    6    9     -4.11      0.00
   21    1   10      0.40      0.00
   21    2   10      1.34      0.00
   21    3   10     -2.58      0.00
   21    4   10      0.08      0.00
   21    5   10      2.44      0.00
   21    0   11     -0.65      0.00
   21    1   11      0.74      0.00
   21    2   11      3.59      0.00
   21    3   11      2.20      0.00
   22    0    0      0.54      0.00
   22    1    0     -1.86      0.00
   22    2    0     -5.27      0.00
   22    3    0      4.20      0.00
   22    4    0      2.72      0.00
   22    5    0     -7.43      0.00
   22    6    0      6.45      0.00
   22    7    0      1.54      0.00
   22    8    0      1.52      0.00
   22    9    0      2.51      0.00
   22    1    1      1.50      0.00
   22    2    1     -1.46      0.00
   22    3    1      3.60      0.00
   22    4    1     -0.14      0.00
   22    5    1      2.54      0.00
   22    6    1     -1.12      0.00
   22    7    1     -3.33      0.00
   22    8    1      2.29      0.00
   22    9    1      1.15      0.00
   22    0    2      1.41      0.00
   22    1    2     -3.51      0.00
   22    2    2      1.81      0.00
   22    3    2     -2.65      0.00
   22    4    2     -0.07      0.00
   22    5    2      7.90      0.00
   22    6    2     -0.52      0.00
   22    7    2      2.60      0.00
   22    8    2      0.05      0.00
   22    1    3      3.46      0.00
   22    2    3     -2.25      0.00
   22    3    3     -3.98      0.00
   22    4    3     -3.20      0.00
   22    5    3     -0.29      0.00
   22    6    3      1.99      0.00
   22    7    3      2.47      0.00
   22    8    3      5.57      0.00
   22    0    4     -0.09      0.00
   22    1    4      2.74      0.00
   22    2    4      7.58      0.00
   22    3    4      1.10      0.00
   22    4    4     -1.53      0.00
   22    5    4      2.26      0.00
   22    6    4     -2.66      0.00
   22    7    4     -1.56      0.00
   22    8    4      2.47      0.00
   22    1    5     -0.16      0.00
   22    2    5     -0.86      0.00
   22    3    5      0.62      0.00
   22    4    5     -4.80      0.00
   22    5    5     -2.20      0.00
   22    6    5     -1.37      0.00
   22    7    5      0.30      0.00
   22    8    5     -1.98      0.00
   22    0    6      2.02      0.00
   22    1    6      5.75      0.00
   22    2    6      7.78      0.00
   22    3    6      4.99      0.00
   22    4    6      2.34      0.00
   22    5    6     -3.70      0.00
   22    6    6      0.82      0.00
   22    7    6     -1.63      0.00
   22    1    7     -1.55      0.00
   22    2    7      0.16      0.00
   22    3    7      3.19      0.00
   22    4    7      3.30      0.00
   22    5    7     -0.06      0.00
   22    6    7     -2.77      0.00
   22    0    8     -0.07      0.00
   22    1    8     -0.82      0.00
   22    2    8     -0.52      0.00
   22    3    8      1.10      0.00
   22    4    8      1.37      0.00
   22    5    8      1.09      0.00
   22    6    8      5.29      0.00
   22    1    9     -1.85      0.00
   22    2    9     -1.39      0.00
   22    3    9      1.63      0.00
   22    4    9     -0.27      0.00
   22    0   10      1.36      0.00
   22    1   10      0.54      0.00
   22    2   10     -0.38      0.00
   22    3   10     -1.73      0.00
   23    0    1      0.91      0.00
   23    1    1      4.48      0.00
   23    2    1      0.77      0.00
   23    3    1     -0.30      0.00
   23    4    1     -1.06      0.00
   23    5    1     -2.15      0.00
   23    6    1     -1.34      0.00
   23    7    1     -2.70      0.00
   23    8    1     -1.73      0.00
   23    1    2     -0.25      0.00
   23    2    2      3.19      0.00
   23    3    2      5.17      0.00
   23    4    2     -2.79      0.00
   23    5    2      1.91      0.00
   23    6    2      1.43      0.00
   23    7    2     -4.55      0.00
   23    0    3     -2.04      0.00
   23    1    3     -2.26      0.00
   23    2    3     -0.11      0.00
   23    3    3      0.86      0.00
   23    4    3     -0.98      0.00
   23    5    3     -1.38      0.00
   23    6    3     -0.23      0.00
   23    7    3      1.30      0.00
   23    1    4     -2.30      0.00
   23    2    4      1.33      0.00
   23    3    4      2.24      0.00
   23    4    4      6.81      0.00
   23    5    4      0.05      0.00
   23    6    4     -1.13      0.00
   23    7    4     -1.43      0.00
   23    0    5     -3.89      0.00
   23    1    5     -5.47      0.00
   23    2    5     -7.67      0.00
   23    3    5     -3.30      0.00
   23    4    5      2.96      0.00
   23    5    5      5.50      0.00
   23    6    5      1.78      0.00
   23    1    6      0.10      0.00
   23    2    6     -1.66      0.00
   23    3    6     -5.96      0.00
   23    4    6     -0.05      0.00
   23    5    6      0.45      0.00
   23    6    6      2.62      0.00
   23    0    7     -0.22      0.00
   23    1    7      1.06      0.00
   23    2    7     -1.02      0.00
   23    3    7     -0.16      0.00
   23    4    7     -2.28      0.00
   23    5    7     -1.47      0.00
   23    1    8      0.16      0.00
   23    2    8     -0.50      0.00
   23    3    8      0.45      0.00
   23    4    8     -1.92      0.00
   23    0    9     -0.16      0.00
   23    1    9      0.03      0.00
   23    2    9      0.36      0.00
   24    0    0     -5.01      0.00
   24    1    0     -2.22      0.00
   24    2    0      0.82      0.00
   24    3    0      0.77      0.00
   24    4    0      0.81      0.00
   24    5    0     -0.88      0.00
   24    6    0      7.92      0.00
   24    1    1     -4.16      0.00
   24    2    1     -4.09      0.00
   24    3    1      2.20      0.00
   24    4    1     -5.09      0.00
   24    5    1     -3.22      0.00
   24    6    1      2.54      0.00
   24    0    2      0.21      0.00
   24    1    2     -2.23      0.00
   24    2    2     -2.25      0.00
   24    3    2     -1.09      0.00
   24    4    2      0.23      0.00
   24    5    2      0.59      0.00
   24    6    2     -3.05      0.00
   24    1    3     -0.81      0.00
   24    2    3     -0.66      0.00
   24    3    3     -3.20      0.00
   24    4    3     -0.18      0.00
   24    5    3      0.38      0.00
   24    6    3     -0.52      0.00
   24    0    4      2.61      0.00
   24    1    4      2.62      0.00
   24    2    4      1.05      0.00
   24    3    4     -0.44      0.00
   24    4    4     -0.71      0.00
   24    5    4     -2.38      0.00
   24    1    5      0.78      0.00
   24    2    5      0.73      0.00
   24    3    5      2.50      0.00
   24    4    5      1.05      0.00
   24    5    5      1.50      0.00
   24    0    6      2.04      0.00
   24    1    6     -2.50      0.00
   24    2    6     -2.57      0.00
   24    3    6     -1.85      0.00
   24    4    6     -2.11      0.00
   24    1    7      2.30      0.00
   24    2    7      1.25      0.00
   24    3    7      0.57      0.00
   25    0    1      2.03      0.00
   25    1    1      1.20      0.00
   25    2    1     -1.19      0.00
   25    3    1      2.25      0.00
   25    4    1      1.04      0.00
   25    5    1     -1.43      0.00
   25    1    2      2.86      0.00
   25    2    2      1.23      0.00
   25    3    2     -0.52      0.00
   25    4    2      3.56      0.00
   25    0    3      0.37      0.00
   25    1    3     -0.27      0.00
   25    2    3      3.80      0.00
   25    3    3     -0.87      0.00
   25    4    3     -1.87      0.00
   25    1    4      1.43      0.00
   25    2    4     -1.29      0.00
   25    3    4     -1.37      0.00
   25    0    5     -0.45      0.00
   25    1    5      4.40      0.00
   25    2    5      6.15      0.00
   26    0    0      3.06      0.00
   26    1    0      0.11      0.00
   26    2    0      0.26      0.00
   26    1    1      1.54      0.00
   26    2    1     -0.17      0.00
   26    0    2     -1.96      0.00
   26    1    2      0.39      0.00
   26    2    2      0.15      0.00
    0    1    0     33.51      0.00
   26    3    0     -3.59      0.00
    0    4    0    -20.39      0.00
   26    4    0     -0.13      0.00
   26    5    0      0.88      0.00
   26    6    0      2.89      0.00
   24    7    0     -1.15      0.00
   26    7    0     -2.78      0.00
   24    8    0      0.69      0.00
   24    9    0      0.94      0.00
   22   10    0     -2.29      0.00
   20   11    0     -0.55      0.00
   22   11    0     -0.17      0.00
   20   12    0      3.96      0.00
   18   13    0     -1.42      0.00
    0   14    0      1.57      0.00
   16   14    0      3.14      0.00
    0   15    0      0.01      0.00
    2   15    0      1.61      0.00
   12   15    0     -1.62      0.00
   14   15    0     -1.65      0.00
    0   16    0     -3.36      0.00
    2   16    0     -2.05      0.00
    4   16    0     -2.98      0.00
    6   16    0     -1.11      0.00
    8   16    0      2.33      0.00
   10   16    0     -1.13      0.00
   12   16    0     -2.07      0.00
   26    3    1      1.77      0.00
   26    4    1     -4.12      0.00
   26    5    1     -2.82      0.00
    0    6    1    -14.73      0.00
   25    6    1     -1.56      0.00
   26    6    1      1.71      0.00
   24    7    1     -0.30      0.00
   25    7    1      1.27      0.00
   26    7    1      1.22      0.00
   24    8    1      0.76      0.00
   25    8    1      0.08      0.00
   23    9    1      1.79      0.00
   24    9    1      1.28      0.00
   22   10    1     -2.06      0.00
   23   10    1     -1.66      0.00
   20   11    1     -1.89      0.00
   21   11    1      1.29      0.00
   22   11    1     -0.77      0.00
   19   12    1     -0.08      0.00
   20   12    1     -1.15      0.00
   21   12    1     -1.61      0.00
   17   13    1     -1.14      0.00
   18   13    1      0.25      0.00
   19   13    1     -0.42      0.00
   15   14    1      0.78      0.00
   16   14    1      1.57      0.00
   17   14    1     -0.28      0.00
    0   15    1      1.82      0.00
    1   15    1      2.05      0.00
   12   15    1     -1.11      0.00
   13   15    1      1.59      0.00
   14   15    1     -3.39      0.00
   15   15    1      0.27      0.00
    0   16    1     -1.59      0.00
    1   16    1      0.22      0.00
    2   16    1      0.26      0.00
    3   16    1      0.83      0.00
    4   16    1      0.67      0.00
    8   16    1     -0.05      0.00
    9   16    1     -1.96      0.00
   10   16    1      2.55      0.00
   11   16    1      0.77      0.00
   12   16    1      0.24      0.00
    1    1    2   -104.03      0.00
   26    3    2      0.68      0.00
   26    4    2     -0.39      0.00
   25    5    2      4.30      0.00
   26    5    2     -1.11      0.00
   25    6    2     -1.53      0.00
   26    6    2     -3.95      0.00
   24    7    2      1.51      0.00
   25    7    2     -2.41      0.00
   23    8    2     -2.69      0.00
   24    8    2     -1.59      0.00
   25    8    2      0.31      0.00
   22    9    2      0.00      0.00
   23    9    2     -1.31      0.00
   24    9    2     -2.13      0.00
   21   10    2     -2.93      0.00
   22   10    2      1.40      0.00
   23   10    2     -0.93      0.00
   20   11    2     -1.94      0.00
   21   11    2      5.81      0.00
   22   11    2     -0.87      0.00
   19   12    2     -1.52      0.00
   20   12    2      0.49      0.00
   17   13    2      0.32      0.00
   18   13    2     -0.77      0.00
   19   13    2     -1.24      0.00
   15   14    2      0.49      0.00
   16   14    2     -0.73      0.00
   17   14    2     -1.16      0.00
   12   15    2      0.59      0.00
   13   15    2      1.46      0.00
   14   15    2     -0.43      0.00
   15   15    2      1.35      0.00
    0   16    2      1.92      0.00
    1   16    2      0.72      0.00
    7   16    2      3.77      0.00
    8   16    2      1.92      0.00
    9   16    2     -2.06      0.00
   10   16    2     -0.41      0.00
   11   16    2     -2.19      0.00
   12   16    2      0.44      0.00
   26    1    3     -3.27      0.00
   26    2    3      1.84      0.00
   26    3    3      0.21      0.00
   26    4    3      0.66      0.00
   25    5    3      5.40      0.00
   26    5    3      0.84      0.00
   25    6    3      5.31      0.00
   26    6    3     -1.29      0.00
   24    7    3      2.43      0.00
   25    7    3     -1.07      0.00
   23    8    3      2.17      0.00
   24    8    3      4.33      0.00
   25    8    3     -0.05      0.00
   22    9    3     -0.36      0.00
   23    9    3     -1.28      0.00
   24    9    3     -0.81      0.00
   21   10    3     -0.11      0.00
   22   10    3      2.46      0.00
   23   10    3      0.95      0.00
   20   11    3     -2.45      0.00
   21   11    3     -0.19      0.00
   18   12    3      1.54      0.00
   19   12    3     -1.01      0.00
   20   12    3     -2.18      0.00
   16   13    3      0.30      0.00
   17   13    3      3.53      0.00
   18   13    3      1.25      0.00
   19   13    3      0.38      0.00
   14   14    3      0.63      0.00
   15   14    3     -3.65      0.00
   16   14    3     -0.05      0.00
   17   14    3      0.21      0.00
   11   15    3      0.15      0.00
   12   15    3      0.90      0.00
   13   15    3     -0.95      0.00
   14   15    3     -1.39      0.00
    7   16    3     -0.16      0.00
    8   16    3     -1.34      0.00
    9   16    3      1.47      0.00
   10   16    3      1.86      0.00
   11   16    3      0.34      0.00
   12   16    3      0.77      0.00
    0    0    4    -63.16      0.00
   26    0    4     -2.03      0.00
   26    1    4     -1.29      0.00
   26    2    4     -5.49      0.00
   26    3    4     -0.39      0.00
   25    4    4     -4.15      0.00
   26    4    4      3.04      0.00
   25    5    4     -4.18      0.00
   26    5    4     -2.50      0.00
   24    6    4     -3.51      0.00
   25    6    4      1.86      0.00
   26    6    4      0.13      0.00
   24    7    4     -2.13      0.00
   25    7    4      2.54      0.00
   23    8    4     -2.19      0.00
   24    8    4      1.88      0.00
   22    9    4     -3.10      0.00
   23    9    4      1.62      0.00
   21   10    4     -2.50      0.00
   22   10    4     -0.45      0.00
   20   11    4      3.31      0.00
   21   11    4     -1.76      0.00
   18   12    4     -1.94      0.00
   19   12    4      1.73      0.00
   20   12    4     -1.30      0.00
   16   13    4     -0.94      0.00
   17   13    4     -1.18      0.00
   18   13    4     -0.10      0.00
   14   14    4      3.65      0.00
   15   14    4     -1.03      0.00
   16   14    4      1.62      0.00
   11   15    4     -1.50      0.00
   12   15    4     -0.05      0.00
   13   15    4      0.12      0.00
   14   15    4      0.33      0.00
    5   16    4     -2.20      0.00
    6   16    4     -0.15      0.00
    7   16    4     -1.03      0.00
    8   16    4     -1.26      0.00
    9   16    4      1.55      0.00
   10   16    4      0.29      0.00
   11   16    4     -0.87      0.00
   26    1    5      1.84      0.00
   26    2    5     -1.08      0.00
   25    3    5      2.25      0.00
   26    3    5      0.76      0.00
   25    4    5      1.12      0.00
   26    4    5      3.51      0.00
   25    5    5     -0.29      0.00
   26    5    5      4.39      0.00
   24    6    5     -1.40      0.00
   25    6    5     -2.16      0.00
   23    7    5      3.13      0.00
   24    7    5     -2.64      0.00
   25    7    5      2.01      0.00
   23    8    5     -4.30      0.00
   24    8    5     -5.30      0.00
   22    9    5      1.88      0.00
   23    9    5     -4.10      0.00
   20   10    5     -3.22      0.00
   21   10    5      2.55      0.00
   22   10    5     -1.38      0.00
   19   11    5     -1.49      0.00
   20   11    5      0.66      0.00
   21   11    5     -1.53      0.00
   17   12    5      3.77      0.00
   18   12    5     -0.21      0.00
   19   12    5      1.58      0.00
   16   13    5     -0.43      0.00
   17   13    5     -0.72      0.00
   18   13    5     -0.22      0.00
   13   14    5     -1.57      0.00
   14   14    5     -0.71      0.00
   15   14    5     -1.00      0.00
   16   14    5      0.24      0.00
   10   15    5     -0.34      0.00
   11   15    5      0.03      0.00
   12   15    5      1.96      0.00
   13   15    5     -0.45      0.00
    3   16    5     -1.25      0.00
    4   16    5     -0.96      0.00
    5   16    5     -1.31      0.00
    6   16    5      2.72      0.00
    7   16    5      1.14      0.00
    8   16    5     -0.80      0.00
    9   16    5      1.29      0.00
   10   16    5     -2.14      0.00
   26    0    6      0.26      0.00
   25    1    6     -2.34      0.00
   26    1    6     -4.35      0.00
   25    2    6     -0.20      0.00
   26    2    6     -3.03      0.00
   25    3    6     -0.07      0.00
   26    3    6     -3.14      0.00
   25    4    6     -2.64      0.00
   26    4    6     -2.00      0.00
   24    5    6     -1.95      0.00
   25    5    6     -3.27      0.00
   24    6    6      1.49      0.00
   25    6    6     -0.96      0.00
   23    7    6      7.10      0.00
   24    7    6     -0.69      0.00
   22    8    6      3.74      0.00
   23    8    6      4.89      0.00
   24    8    6      1.12      0.00
   21    9    6     -1.88      0.00
   22    9    6      3.25      0.00
   23    9    6     -0.06      0.00
   20   10    6     -3.66      0.00
   21   10    6      5.89      0.00
   22   10    6      1.08      0.00
   19   11    6     -3.92      0.00
   20   11    6     -0.43      0.00
   17   12    6      1.15      0.00
   18   12    6     -2.84      0.00
   19   12    6      0.41      0.00
   15   13    6      0.74      0.00
   16   13    6      2.16      0.00
   17   13    6      1.15      0.00
   12   14    6     -0.99      0.00
   13   14    6      1.20      0.00
   14   14    6      0.48      0.00
   15   14    6      1.42      0.00
    9   15    6      1.26      0.00
   10   15    6      0.61      0.00
   11   15    6     -0.93      0.00
   12   15    6      0.42      0.00
   13   15    6     -1.67      0.00
    0   16    6     -3.36      0.00
    1   16    6      0.96      0.00
    2   16    6     -0.21      0.00
    3   16    6      0.72      0.00
    4   16    6      2.25      0.00
    5   16    6      0.41      0.00
    6   16    6      1.15      0.00
    7   16    6     -1.25      0.00
    8   16    6     -0.57      0.00
    9   16    6      1.66      0.00
   25    0    7     -0.29      0.00
   25    1    7      1.38      0.00
   26    1    7      1.46      0.00
   25    2    7      2.41      0.00
   26    2    7      1.23      0.00
   25    3    7      4.75      0.00
   26    3    7     -2.59      0.00
   24    4    7      3.09      0.00
   25    4    7      1.02      0.00
   24    5    7     -0.52      0.00
   25    5    7      0.79      0.00
   23    6    7     -1.00      0.00
   24    6    7     -0.24      0.00
   22    7    7     -5.55      0.00
   23    7    7     -2.00      0.00
   24    7    7      0.61      0.00
   22    8    7     -1.99      0.00
   23    8    7      0.36      0.00
   21    9    7     -1.58      0.00
   22    9    7     -1.33      0.00
   19   10    7      3.22      0.00
   20   10    7     -0.91      0.00
   21   10    7     -1.73      0.00
   18   11    7      2.33      0.00
   19   11    7      2.18      0.00
   20   11    7     -2.01      0.00
   16   12    7     -1.25      0.00
   17   12    7     -1.03      0.00
   18   12    7      1.39      0.00
   14   13    7      0.83      0.00
   15   13    7     -2.43      0.00
   16   13    7     -1.91      0.00
   17   13    7      0.16      0.00
   11   14    7      4.13      0.00
   12   14    7     -1.84      0.00
   13   14    7      0.21      0.00
   14   14    7     -1.94      0.00
    7   15    7     -0.30      0.00
    8   15    7     -1.23      0.00
    9   15    7     -1.32      0.00
   10   15    7      1.25      0.00
   11   15    7      0.52      0.00
   12   15    7      1.47      0.00
    0   16    7     -1.67      0.00
    1   16    7      2.37      0.00
    2   16    7      0.54      0.00
    3   16    7     -1.74      0.00
    4   16    7      1.12      0.00
    5   16    7     -0.64      0.00
    6   16    7     -0.73      0.00
    7   16    7      0.20      0.00
    8   16    7      0.35      0.00
   24    0    8      0.65      0.00
   26    0    8     -1.92      0.00
   24    1    8      0.93      0.00
   25    1    8     -2.45      0.00
   26    1    8      0.05      0.00
   24    2    8     -0.78      0.00
   25    2    8     -0.25      0.00
   24    3    8     -1.17      0.00
   25    3    8      1.88      0.00
   24    4    8      1.82      0.00
   25    4    8      0.81      0.00
   23    5    8      1.80      0.00
   24    5    8      0.49      0.00
    0    6    8      9.34      0.00
   23    6    8     -0.39      0.00
   24    6    8     -0.06      0.00
   22    7    8      0.83      0.00
   23    7    8     -0.42      0.00
   21    8    8      1.10      0.00
   22    8    8     -3.95      0.00
   20    9    8      3.36      0.00
   21    9    8     -1.06      0.00
   19   10    8     -0.37      0.00
   20   10    8     -0.71      0.00
   17   11    8     -1.51      0.00
   18   11    8      0.04      0.00
   19   11    8      1.19      0.00
   15   12    8      1.01      0.00
   16   12    8      3.35      0.00
   17   12    8     -0.95      0.00
   18   12    8      2.91      0.00
   13   13    8      0.13      0.00
   14   13    8      1.52      0.00
   15   13    8      1.58      0.00
   16   13    8     -0.37      0.00
   10   14    8     -0.85      0.00
   11   14    8     -1.02      0.00
   12   14    8     -3.08      0.00
   13   14    8      0.61      0.00
    4   15    8      1.87      0.00
    5   15    8      1.44      0.00
    6   15    8      1.87      0.00
    7   15    8      3.51      0.00
    8   15    8      1.09      0.00
    9   15    8     -0.31      0.00
   10   15    8      0.19      0.00
   11   15    8     -0.40      0.00
    0   16    8     -4.21      0.00
    1   16    8      0.19      0.00
    2   16    8     -0.58      0.00
    3   16    8     -1.45      0.00
    4   16    8      0.58      0.00
    5   16    8      0.00      0.00
    6   16    8     -1.93      0.00
   25    0    9     -1.20      0.00
   24    1    9      1.06      0.00
   25    1    9     -0.31      0.00
   24    2    9     -0.32      0.00
   25    2    9     -1.25      0.00
   23    3    9     -0.27      0.00
   24    3    9     -2.18      0.00
   25    3    9     -1.28      0.00
   23    4    9     -0.50      0.00
   24    4    9     -3.48      0.00
   22    5    9     -1.57      0.00
   23    5    9     -0.09      0.00
   24    5    9     -1.25      0.00
    0    6    9      0.30      0.00
   22    6    9      2.41      0.00
   23    6    9     -0.41      0.00
   21    7    9      2.10      0.00
   22    7    9      1.92      0.00
   23    7    9      0.73      0.00
    4    8    9      1.49      0.00
   20    8    9     -0.02      0.00
   21    8    9      3.03      0.00
   22    8    9      1.06      0.00
   19    9    9     -1.14      0.00
   20    9    9      2.97      0.00
   21    9    9     -0.06      0.00
   18   10    9     -2.09      0.00
   19   10    9     -1.22      0.00
   20   10    9     -0.50      0.00
   16   11    9      1.58      0.00
   17   11    9      0.16      0.00
   18   11    9     -0.59      0.00
   14   12    9     -1.07      0.00
   15   12    9     -0.86      0.00
   16   12    9      1.31      0.00
   17   12    9     -1.99      0.00
   11   13    9      2.22      0.00
   12   13    9     -0.29      0.00
   13   13    9     -0.91      0.00
   14   13    9     -3.01      0.00
   15   13    9     -1.27      0.00
    8   14    9     -0.04      0.00
    9   14    9     -3.44      0.00
   10   14    9      3.01      0.00
   11   14    9      1.23      0.00
   12   14    9      1.25      0.00
    0   15    9      1.58      0.00
    1   15    9      1.41      0.00
    2   15    9     -1.18      0.00
    3   15    9      0.99      0.00
    4   15    9     -1.62      0.00
    5   15    9     -0.25      0.00
    6   15    9     -1.74      0.00
    7   15    9      0.75      0.00
    8   15    9     -1.70      0.00
    9   15    9      1.79      0.00
    0   16    9      0.95      0.00
    1   16    9      0.37      0.00
    2   16    9      0.80      0.00
    3   16    9     -1.27      0.00
   24    0   10      1.15      0.00
   23    1   10     -0.43      0.00
   24    1   10     -0.60      0.00
   23    2   10      2.40      0.00
   24    2   10      0.75      0.00
   23    3   10      1.24      0.00
   24    3   10      1.75      0.00
   22    4   10     -0.90      0.00
   23    4   10      2.05      0.00
   24    4   10      0.29      0.00
    0    5   10     -2.27      0.00
    1    5   10      4.40      0.00
   22    5   10     -0.21      0.00
   23    5   10      0.97      0.00
    0    6   10     -7.74      0.00
   21    6   10     -1.04      0.00
   22    6   10     -1.18      0.00
   20    7   10     -1.00      0.00
   21    7   10     -3.72      0.00
   22    7   10     -0.88      0.00
   19    8   10      1.50      0.00
   20    8   10     -1.70      0.00
   21    8   10     -1.37      0.00
    7    9   10     -3.09      0.00
   18    9   10     -0.14      0.00
   19    9   10      0.06      0.00
   20    9   10      0.96      0.00
   17   10   10     -0.04      0.00
   18   10   10      0.78      0.00
   19   10   10      0.25      0.00
   15   11   10      0.85      0.00
   16   11   10     -0.31      0.00
   17   11   10      1.15      0.00
   13   12   10      0.08      0.00
   14   12   10     -0.37      0.00
   15   12   10     -0.84      0.00
   16   12   10      0.91      0.00
   10   13   10     -2.29      0.00
   11   13   10     -2.47      0.00
   12   13   10     -0.66      0.00
   13   13   10      1.79      0.00
    5   14   10      2.35      0.00
    6   14   10      1.41      0.00
    7   14   10      2.88      0.00
    8   14   10      2.33      0.00
    9   14   10     -0.07      0.00
   10   14   10     -0.23      0.00
   11   14   10      0.17      0.00
    0   15   10     -1.55      0.00
    1   15   10     -1.02      0.00
    2   15   10     -0.74      0.00
    3   15   10      0.64      0.00
    4   15   10     -0.18      0.00
    5   15   10      0.00      0.00
    6   15   10     -0.12      0.00
    7   15   10     -0.44      0.00
   23    0   11     -0.87      0.00
   22    1   11     -1.05      0.00
   23    1   11     -1.45      0.00
   24    1   11      1.94      0.00
   22    2   11     -0.65      0.00
   23    2   11     -0.22      0.00
   22    3   11     -0.40      0.00
   23    3   11     -0.65      0.00
    0    4   11     -3.99      0.00
    1    4   11     -3.41      0.00
   21    4   11     -0.61      0.00
   22    4   11     -2.38      0.00
   23    4   11      0.04      0.00
    0    5   11      2.40      0.00
    1    5   11     -1.29      0.00
   21    5   11      0.18      0.00
   22    5   11     -2.06      0.00
    0    6   11     -0.38      0.00
   20    6   11     -1.13      0.00
   21    6   11      1.20      0.00
   22    6   11     -1.58      0.00
   19    7   11     -1.22      0.00
   20    7   11      1.82      0.00
   21    7   11     -0.07      0.00
   18    8   11     -0.01      0.00
   19    8   11      2.10      0.00
   20    8   11     -0.24      0.00
    7    9   11      3.98      0.00
   17    9   11     -1.59      0.00
   18    9   11     -1.62      0.00
   19    9   11     -0.99      0.00
   15   10   11      1.86      0.00
   16   10   11      0.90      0.00
   17   10   11      0.94      0.00
   18   10   11     -0.32      0.00
   13   11   11     -0.75      0.00
   14   11   11      1.39      0.00
   15   11   11     -0.64      0.00
   16   11   11     -0.93      0.00
   11   12   11      0.07      0.00
   12   12   11      0.11      0.00
   13   12   11     -0.76      0.00
   14   12   11     -0.38      0.00
    7   13   11     -1.39      0.00
    8   13   11     -1.09      0.00
    9   13   11      1.50      0.00
   10   13   11      1.36      0.00
   11   13   11      1.27      0.00
   12   13   11      0.55      0.00
    0   14   11     -1.69      0.00
    1   14   11      0.36      0.00
    2   14   11     -0.46      0.00
    3   14   11      0.56      0.00
    4   14   11     -1.19      0.00
    5   14   11     -0.83      0.00
    6   14   11     -2.66      0.00
    7   14   11     -1.64      0.00
    8   14   11      0.46      0.00
    9   14   11      0.68      0.00
    0   15   11      1.58      0.00
    1   15   11     -0.24      0.00
    2   15   11      0.74      0.00
    3   15   11     -0.35      0.00
    4   15   11      0.57      0.00
   14    0   12     -0.69      0.00
   22    0   12     -1.55      0.00
   21    1   12     -0.24      0.00
   22    1   12      1.64      0.00
   23    1   12     -1.01      0.00
   21    2   12     -0.26      0.00
   22    2   12     -1.90      0.00
    0    3   12     10.07      0.00
    1    3   12     -2.09      0.00
   21    3   12      2.25      0.00
   22    3   12     -0.89      0.00
    0    4   12     11.48      0.00
    1    4   12      5.16      0.00
   20    4   12      1.74      0.00
   21    4   12      2.83      0.00
   22    4   12      1.67      0.00
    0    5   12     -0.48      0.00
   20    5   12      0.61      0.00
   21    5   12      2.42      0.00
    0    6   12     -3.37      0.00
   19    6   12      0.86      0.00
   20    6   12     -0.89      0.00
   21    6   12      1.79      0.00
   18    7   12      1.01      0.00
   19    7   12     -0.82      0.00
   20    7   12      0.28      0.00
   17    8   12      0.89      0.00
   18    8   12     -0.45      0.00
   19    8   12      0.55      0.00
    0    9   12     -6.33      0.00
    7    9   12     -2.09      0.00
   15    9   12     -1.59      0.00
   16    9   12      0.31      0.00
   17    9   12      0.00      0.00
   18    9   12      0.28      0.00
   14   10   12     -1.18      0.00
   15   10   12     -1.22      0.00
   16   10   12      0.60      0.00
   12   11   12     -0.99      0.00
   13   11   12      0.73      0.00
   14   11   12     -1.12      0.00
   15   11   12      0.26      0.00
    9   12   12      0.44      0.00
   10   12   12     -0.75      0.00
   11   12   12      0.35      0.00
   12   12   12     -1.23      0.00
   13   12   12     -1.37      0.00
    3   13   12     -0.77      0.00
    4   13   12     -2.36      0.00
    5   13   12      0.14      0.00
    6   13   12      1.14      0.00
    7   13   12      0.47      0.00
    8   13   12     -0.26      0.00
    9   13   12     -1.00      0.00
   10   13   12      0.07      0.00
    0   14   12      1.07      0.00
    1   14   12     -0.91      0.00
    2   14   12      0.10      0.00
    3   14   12      0.80      0.00
    4   14   12      1.36      0.00
    5   14   12      1.27      0.00
    6   14   12      2.03      0.00
   21    0   13      0.14      0.00
   20    1   13      1.10      0.00
   21    1   13     -0.87      0.00
   22    1   13      1.62      0.00
    0    2   13     -3.29      0.00
    1    2   13     -2.01      0.00
   20    2   13     -2.04      0.00
   21    2   13      0.75      0.00
    0    3   13      1.06      0.00
    1    3   13     -5.41      0.00
   19    3   13     -3.09      0.00
   20    3   13     -3.10      0.00
   21    3   13     -1.72      0.00
    0    4   13     -0.77      0.00
    1    4   13     -5.57      0.00
   19    4   13      2.27      0.00
   20    4   13     -0.28      0.00
   21    4   13     -0.24      0.00
    0    5   13      3.94      0.00
   18    5   13      0.25      0.00
   19    5   13     -1.69      0.00
   20    5   13     -2.13      0.00
    0    6   13     -7.60      0.00
    2    6   13      0.30      0.00
    5    6   13      5.09      0.00
   18    6   13      1.94      0.00
   19    6   13      0.55      0.00
   17    7   13     -1.57      0.00
   18    7   13     -0.05      0.00
   19    7   13      0.22      0.00
   15    8   13      1.24      0.00
   16    8   13     -0.76      0.00
   17    8   13     -0.30      0.00
   18    8   13      0.06      0.00
   14    9   13      1.58      0.00
   15    9   13      1.28      0.00
   16    9   13      2.99      0.00
   12   10   13     -0.10      0.00
   13   10   13      0.18      0.00
   14   10   13     -0.60      0.00
   15   10   13      0.83      0.00
    9   11   13     -1.39      0.00
   10   11   13      0.47      0.00
   11   11   13     -2.20      0.00
   12   11   13     -0.92      0.00
   13   11   13      1.42      0.00
    5   12   13     -0.07      0.00
    6   12   13     -1.68      0.00
    7   12   13      0.19      0.00
    8   12   13     -0.78      0.00
    9   12   13     -0.81      0.00
   10   12   13     -1.16      0.00
   11   12   13      0.29      0.00
    0   13   13      0.75      0.00
    1   13   13     -0.24      0.00
    2   13   13      0.57      0.00
    3   13   13      1.33      0.00
    4   13   13      0.08      0.00
    5   13   13     -1.40      0.00
    6   13   13      0.58      0.00
    7   13   13     -0.64      0.00
    8   13   13      1.46      0.00
    0    0   14     -1.74      0.00
    2    0   14     -3.66      0.00
   20    0   14      1.35      0.00
    0    1   14      6.11      0.00
    1    1   14      4.03      0.00
    2    1   14      1.63      0.00
   19    1   14     -0.28      0.00
   20    1   14      0.25      0.00
    0    2   14     -3.17      0.00
    1    2   14     -1.80      0.00
    2    2   14     -1.98      0.00
   18    2   14      0.43      0.00
   19    2   14      1.19      0.00
   20    2   14      1.59      0.00
    0    3   14      3.07      0.00
    1    3   14     -0.64      0.00
    2    3   14      1.17      0.00
   18    3   14      1.08      0.00
   19    3   14      1.23      0.00
   20    3   14      1.79      0.00
    0    4   14      3.66      0.00
    1    4   14      1.61      0.00
   18    4   14     -3.52      0.00
   19    4   14     -1.53      0.00
    0    5   14     -6.37      0.00
   17    5   14      0.89      0.00
   18    5   14      2.46      0.00
   19    5   14     -0.52      0.00
   16    6   14      1.19      0.00
   17    6   14     -0.70      0.00
   18    6   14      0.05      0.00
   15    7   14     -0.04      0.00
   16    7   14      0.92      0.00
   17    7   14     -1.04      0.00
   14    8   14      0.66      0.00
   15    8   14      0.05      0.00
   16    8   14     -0.76      0.00
   12    9   14     -0.10      0.00
   13    9   14      1.13      0.00
   14    9   14     -1.13      0.00
   15    9   14     -1.72      0.00
    9   10   14      2.04      0.00
   10   10   14     -1.81      0.00
   11   10   14      1.89      0.00
   12   10   14      0.45      0.00
   13   10   14      0.84      0.00
    6   11   14     -0.61      0.00
    7   11   14      0.17      0.00
    8   11   14     -0.71      0.00
    9   11   14      0.89      0.00
   10   11   14      3.09      0.00
   11   11   14     -0.40      0.00
    0   12   14     -0.94      0.00
    1   12   14      0.87      0.00
    2   12   14     -0.62      0.00
    3   12   14      0.35      0.00
    4   12   14     -0.91      0.00
    5   12   14      0.06      0.00
    6   12   14     -1.51      0.00
    7   12   14     -0.09      0.00
    8   12   14     -0.49      0.00
    0   13   14      0.79      0.00
    1   13   14     -0.93      0.00
    2   13   14      0.74      0.00
    3   13   14      0.16      0.00
    4   13   14      0.67      0.00
    1    0   15      1.62      0.00
    3    0   15      3.84      0.00
   17    0   15      0.60      0.00
   19    0   15      1.11      0.00
    0    1   15     -3.84      0.00
    1    1   15      1.46      0.00
    2    1   15     -0.52      0.00
    3    1   15     -1.40      0.00
   17    1   15     -0.96      0.00
   18    1   15      2.61      0.00
   19    1   15     -0.22      0.00
    0    2   15      1.70      0.00
    1    2   15      2.62      0.00
    5    2   15     -2.23      0.00
   17    2   15     -2.00      0.00
   18    2   15     -0.66      0.00
   19    2   15     -1.36      0.00
    0    3   15     -4.01      0.00
    1    3   15     -0.85      0.00
    7    3   15     -2.46      0.00
   16    3   15      0.66      0.00
   17    3   15      0.46      0.00
   18    3   15      2.01      0.00
   19    3   15      1.82      0.00
    0    4   15      6.78      0.00
    9    4   15     -0.82      0.00
   16    4   15     -1.66      0.00
   17    4   15     -1.94      0.00
   18    4   15      1.38      0.00
    0    5   15     -4.45      0.00
   11    5   15      1.90      0.00
   15    5   15      1.55      0.00
   16    5   15     -1.00      0.00
   17    5   15      0.26      0.00
   13    6   15      0.15      0.00
   14    6   15     -1.45      0.00
   15    6   15      0.17      0.00
   16    6   15     -0.02      0.00
   17    6   15     -0.79      0.00
   13    7   15     -0.76      0.00
   14    7   15     -0.76      0.00
   15    7   15      0.92      0.00
   16    7   15      2.86      0.00
   11    8   15      0.63      0.00
   12    8   15      1.92      0.00
   13    8   15     -2.32      0.00
   14    8   15      0.37      0.00
   15    8   15      1.98      0.00
    9    9   15     -4.25      0.00
   10    9   15     -0.81      0.00
   11    9   15     -2.16      0.00
   12    9   15     -1.57      0.00
   13    9   15     -0.32      0.00
    6   10   15      0.88      0.00
    7   10   15      4.79      0.00
    8   10   15      0.35      0.00
    9   10   15      3.91      0.00
   10   10   15     -1.44      0.00
   11   10   15      0.44      0.00
    0   11   15      2.79      0.00
    1   11   15      0.23      0.00
    2   11   15      0.01      0.00
    3   11   15     -0.88      0.00
    4   11   15      0.91      0.00
    5   11   15     -1.55      0.00
    6   11   15      1.70      0.00
    7   11   15     -1.00      0.00
    8   11   15     -1.86      0.00
    9   11   15     -0.42      0.00
    0   12   15     -0.56      0.00
    1   12   15      0.04      0.00
    2   12   15     -1.07      0.00
    3   12   15     -1.18      0.00
    4   12   15      0.01      0.00
    5   12   15      0.80      0.00
    0    0   16      1.39      0.00
    2    0   16      0.61      0.00
    4    0   16      0.69      0.00
   16    0   16      2.42      0.00
   18    0   16     -1.66      0.00
    0    1   16     -5.91      0.00
    1    1   16      0.91      0.00
    2    1   16     -0.76      0.00
    3    1   16      2.88      0.00
    4    1   16      3.48      0.00
    5    1   16      2.52      0.00
   15    1   16     -0.01      0.00
   16    1   16      1.80      0.00
   17    1   16     -0.78      0.00
   18    1   16      0.03      0.00
    0    2   16     -4.67      0.00
    1    2   16     -1.76      0.00
    2    2   16      0.81      0.00
    3    2   16     -3.74      0.00
    4    2   16      2.54      0.00
    5    2   16     -2.50      0.00
    6    2   16     -0.10      0.00
    7    2   16     -0.30      0.00
   15    2   16      2.02      0.00
   16    2   16      1.45      0.00
   17    2   16      1.55      0.00
    0    3   16      1.08      0.00
    5    3   16     -0.36      0.00
    6    3   16     -2.00      0.00
    7    3   16      2.59      0.00
    8    3   16     -0.06      0.00
   14    3   16     -1.98      0.00
   15    3   16     -1.33      0.00
   16    3   16     -0.75      0.00
   17    3   16     -2.63      0.00
    0    4   16      3.02      0.00
    7    4   16     -0.57      0.00
    8    4   16     -0.75      0.00
    9    4   16      1.58      0.00
   10    4   16      1.43      0.00
   14    4   16      1.34      0.00
   15    4   16      1.79      0.00
   16    4   16      1.11      0.00
    9    5   16     -4.43      0.00
   10    5   16     -0.67      0.00
   11    5   16     -0.48      0.00
   12    5   16     -1.28      0.00
   13    5   16     -1.72      0.00
   14    5   16     -0.82      0.00
   15    5   16     -1.99      0.00
   16    5   16     -3.36      0.00
   11    6   16      3.17      0.00
   12    6   16      3.46      0.00
   13    6   16      2.34      0.00
   14    6   16      0.93      0.00
   15    6   16     -1.69      0.00
   10    7   16     -2.87      0.00
   11    7   16     -1.57      0.00
   12    7   16      1.73      0.00
   13    7   16      2.74      0.00
   14    7   16     -0.28      0.00
    8    8   16     -0.30      0.00
    9    8   16      3.15      0.00
   10    8   16     -0.65      0.00
   11    8   16     -0.08      0.00
   12    8   16      2.37      0.00
    5    9   16     -0.70      0.00
    6    9   16     -1.14      0.00
    7    9   16     -1.35      0.00
    8    9   16      0.54      0.00
    9    9   16     -0.08      0.00
   10    9   16      0.98      0.00
   11    9   16      0.77      0.00
    0   10   16     -0.02      0.00
    1   10   16      0.51      0.00
    2   10   16      0.73      0.00
    3   10   16      0.31      0.00
    4   10   16     -1.63      0.00
    5   10   16      0.78      0.00
    6   10   16     -1.09      0.00
    7   10   16      0.05      0.00
    8   10   16      0.63      0.00
    0   11   16      0.42      0.00
    1   11   16     -0.90      0.00
    2   11   16     -0.01      0.00
    3   11   16      0.98      0.00
    4   11   16     -0.69      0.00
    5   11   16     -2.36      0.00
    1    0   17     -0.26      0.00
    3    0   17     -5.07      0.00
    5    0   17     -1.71      0.00
   13    0   17      2.86      0.00
   15    0   17     -4.27      0.00
    0    1   17      0.67      0.00
    1    1   17      3.42      0.00
    2    1   17     -2.70      0.00
    3    1   17     -1.69      0.00
    4    1   17     -3.47      0.00
    5    1   17      1.17      0.00
    6    1   17      0.40      0.00
    7    1   17      2.49      0.00
   13    1   17      2.89      0.00
   14    1   17      0.31      0.00
   15    1   17     -1.73      0.00
   16    1   17     -0.18      0.00
    0    2   17      0.88      0.00
    1    2   17      0.78      0.00
    2    2   17      0.20      0.00
    3    2   17     -2.90      0.00
    4    2   17      3.08      0.00
    5    2   17      0.89      0.00
    6    2   17      3.80      0.00
    7    2   17      0.05      0.00
    8    2   17      0.82      0.00
   13    2   17      1.66      0.00
   14    2   17     -0.07      0.00
   15    2   17     -1.60      0.00
   16    2   17     -0.38      0.00
    0    3   17      0.38      0.00
    2    3   17     -2.24      0.00
    3    3   17     -1.81      0.00
    4    3   17     -1.65      0.00
    5    3   17      0.80      0.00
    6    3   17      0.85      0.00
    7    3   17      2.92      0.00
    8    3   17     -1.19      0.00
    9    3   17     -2.70      0.00
   10    3   17      0.03      0.00
   12    3   17     -0.81      0.00
   13    3   17      0.46      0.00
   14    3   17     -1.38      0.00
   15    3   17      0.35      0.00
    0    4   17      6.76      0.00
    4    4   17     -2.95      0.00
    5    4   17     -1.15      0.00
    6    4   17      2.56      0.00
    7    4   17      4.66      0.00
    8    4   17      0.79      0.00
    9    4   17     -0.90      0.00
   10    4   17      0.16      0.00
   11    4   17     -1.65      0.00
   12    4   17     -1.25      0.00
   13    4   17     -1.35      0.00
   14    4   17     -0.49      0.00
   15    4   17      1.67      0.00
    6    5   17     -1.89      0.00
    7    5   17      1.00      0.00
    8    5   17      1.32      0.00
    9    5   17     -0.67      0.00
   10    5   17      1.87      0.00
   11    5   17      0.67      0.00
   12    5   17     -2.02      0.00
   13    5   17     -1.62      0.00
   14    5   17      0.51      0.00
    9    6   17     -2.41      0.00
   10    6   17      1.81      0.00
   11    6   17     -0.17      0.00
   12    6   17     -3.84      0.00
   13    6   17     -1.98      0.00
    6    7   17      0.19      0.00
    7    7   17     -0.28      0.00
    8    7   17      0.57      0.00
    9    7   17     -0.02      0.00
   10    7   17      2.67      0.00
   11    7   17      0.98      0.00
   12    7   17     -0.36      0.00
    0    8   17      1.02      0.00
    1    8   17     -1.40      0.00
    2    8   17      0.13      0.00
    3    8   17      0.16      0.00
    4    8   17      0.63      0.00
    5    8   17      0.65      0.00
    6    8   17     -1.35      0.00
    7    8   17     -0.56      0.00
    8    8   17     -4.28      0.00
    9    8   17     -0.99      0.00
   10    8   17     -2.46      0.00
    0    9   17     -3.89      0.00
    1    9   17     -1.76      0.00
    2    9   17     -0.32      0.00
    3    9   17      0.31      0.00
    4    9   17      2.25      0.00
    5    9   17      2.40      0.00
    6    9   17      1.76      0.00
    7    9   17      1.21      0.00
    8    9   17      0.74      0.00
    0   10   17     -2.23      0.00
    1   10   17      1.00      0.00
    2   10   17      0.63      0.00
    3   10   17     -0.56      0.00
    4   10   17      0.87      0.00
    0    0   18      0.66      0.00
    2    0   18      1.87      0.00
    4    0   18      3.67      0.00
    6    0   18     -1.86      0.00
    8    0   18     -0.83      0.00
   10    0   18      2.43      0.00
   12    0   18     -4.53      0.00
   14    0   18      0.15      0.00
    0    1   18     -2.46      0.00
    1    1   18     -0.42      0.00
    2    1   18     -0.65      0.00
    3    1   18      1.91      0.00
    4    1   18     -0.62      0.00
    5    1   18      0.13      0.00
    6    1   18     -2.75      0.00
    7    1   18     -0.55      0.00
    8    1   18      0.96      0.00
   10    1   18      3.66      0.00
   11    1   18     -1.19      0.00
   12    1   18     -1.50      0.00
   13    1   18     -0.76      0.00
   14    1   18      1.39      0.00
    0    2   18      0.04      0.00
    1    2   18     -0.20      0.00
    2    2   18      2.39      0.00
    3    2   18      0.77      0.00
    4    2   18      0.65      0.00
    5    2   18     -2.95      0.00
    6    2   18     -1.51      0.00
    7    2   18     -1.20      0.00
    8    2   18      1.08      0.00
    9    2   18      2.58      0.00
   10    2   18     -0.48      0.00
   11    2   18      1.55      0.00
   12    2   18     -2.31      0.00
   13    2   18      0.73      0.00
    0    3   18     -6.07      0.00
    1    3   18     -1.65      0.00
    2    3   18     -1.39      0.00
    3    3   18      3.18      0.00
    4    3   18      2.67      0.00
    5    3   18      0.42      0.00
    6    3   18     -1.43      0.00
    7    3   18     -1.93      0.00
    8    3   18      0.80      0.00
    9    3   18      0.32      0.00
   10    3   18      1.24      0.00
   11    3   18      0.60      0.00
   12    3   18      0.46      0.00
   13    3   18      2.60      0.00
    2    4   18     -0.04      0.00
    3    4   18      3.30      0.00
    4    4   18      2.07      0.00
    5    4   18      0.27      0.00
    6    4   18     -0.78      0.00
    7    4   18     -2.52      0.00
    8    4   18     -1.03      0.00
    9    4   18     -1.81      0.00
   10    4   18      0.64      0.00
   11    4   18     -1.17      0.00
   12    4   18      0.88      0.00
    4    5   18     -0.41      0.00
    5    5   18     -0.72      0.00
    6    5   18     -1.63      0.00
    7    5   18      2.76      0.00
    8    5   18     -1.63      0.00
    9    5   18      1.07      0.00
   10    5   18     -0.91      0.00
   11    5   18      0.57      0.00
    2    6   18      0.03      0.00
    3    6   18      0.32      0.00
    4    6   18      0.01      0.00
    5    6   18     -1.99      0.00
    6    6   18     -0.87      0.00
    7    6   18      0.71      0.00
    8    6   18      3.14      0.00
    9    6   18     -2.68      0.00
   10    6   18      1.41      0.00
    0    7   18      0.09      0.00
    1    7   18      1.63      0.00
    2    7   18      1.48      0.00
    3    7   18     -0.32      0.00
    4    7   18     -2.08      0.00
    5    7   18     -0.90      0.00
    6    7   18     -2.08      0.00
    7    7   18      0.06      0.00
    8    7   18      2.77      0.00
    0    8   18      2.84      0.00
    1    8   18     -0.87      0.00
    2    8   18      1.09      0.00
    3    8   18     -0.49      0.00
    4    8   18     -1.86      0.00
    5    8   18      0.56      0.00
    6    8   18     -2.18      0.00
    0    0    0      0.00      0.00
# SQUEEZE RESULTS (Version =  21116)
# Note: Data are Listed for all Voids in the P1 Unit Cell
# i.e. Centre of Gravity, Solvent Accessible Volume,
# Recovered number of Electrons in the Void and
# Details about the Squeezed Material
loop_
  _platon_squeeze_void_nr
  _platon_squeeze_void_average_x
  _platon_squeeze_void_average_y
  _platon_squeeze_void_average_z
  _platon_squeeze_void_volume
  _platon_squeeze_void_count_electrons
  _platon_squeeze_void_content
   1  0.500 -0.002  0.000       666       184 ' '
   2  0.000 -0.039  0.500       666       184 ' '
# Missing Reflections Below sin(th)/lambda = 0.25
loop_
  _platon_missing_refln_index_h
  _platon_missing_refln_index_k
  _platon_missing_refln_index_l
  _platon_missing_refln_theta
    0    1    0     1.485
    0    4    0     5.950
    0    6    1     9.038
    1    1    2     3.105
    0    0    4     5.123
_platon_squeeze_void_probe_radius                  1.20
_platon_squeeze_details
)
TITL mo_mntpzpmn_0m_a.res in Pmna
CELL   21.6780   13.7120   15.9180     90.00     90.00     90.00
SPGR Pmna
# Solvent Accessible Volume =      1323
# Electrons Found in S.A.V. =       366
# Note: Atoms in Void as Cxxx and Qxxx all others
C101 0.153 0.891 0.377 !       2.75 eA-3
C102 0.538 0.423 0.885 !       2.45 eA-3
C103 1.000 0.577 0.420 !       2.33 eA-3
C104 0.147 1.000 0.500 !       2.29 eA-3
C105 0.338 0.961 0.017 !       2.19 eA-3
C106 0.368 0.832 0.108 !       2.10 eA-3
Q107 0.500 0.656 0.635 !       2.02 eA-3
Q108 0.026 0.387 0.229 !       1.96 eA-3
C109 0.354 0.011 0.154 !       1.84 eA-3
C110 0.339 0.985 0.080 !       1.56 eA-3
C111 0.014 0.423 0.671 !       1.48 eA-3
C112 1.000 0.674 0.370 !       1.46 eA-3
Q113 0.220 0.892 0.272 !       1.41 eA-3
Q114 0.344 0.175 0.813 !       1.39 eA-3
Q115 0.970 0.391 0.132 !       1.32 eA-3
C116 0.104 0.938 0.399 !       1.27 eA-3
Q117 0.250 0.156 0.761 !       1.21 eA-3
C118 0.634 0.742 0.099 !       1.15 eA-3
C119 0.594 0.327 0.874 !       1.04 eA-3
Q120 0.599 0.924 0.139 !       1.03 eA-3
C121 0.634 0.930 0.186 !       1.02 eA-3
Q122 0.694 0.881 0.113 !       1.01 eA-3
Q123 0.623 0.863 0.231 !       1.00 eA-3
C124 0.141 0.735 0.313 !       0.99 eA-3
C125 0.500 0.500 0.000 !       0.98 eA-3
Q126 0.312 0.765 0.172 !       0.98 eA-3
Q127 0.813 0.814 0.375 !       0.97 eA-3
C128 0.093 0.336 0.584 !       0.96 eA-3
Q129 0.953 0.665 0.736 !       0.95 eA-3
C130 0.648 0.661 0.120 !       0.94 eA-3
C131 0.453 0.648 0.150 !       0.93 eA-3
Q132 1.000 0.190 0.904 !       0.92 eA-3
Q133 0.446 0.903 0.129 !       0.92 eA-3
Q134 0.500 0.290 0.770 !       0.89 eA-3
C135 0.915 0.339 0.685 !       0.88 eA-3
Q136 0.407 0.054 0.011 !       0.88 eA-3
Q137 0.484 0.443 0.203 !       0.88 eA-3
Q138 0.203 0.057 0.339 !       0.87 eA-3
Q139 0.500 0.214 0.367 !       0.87 eA-3
Q140 0.093 0.137 0.652 !       0.86 eA-3
Q141 0.613 0.204 0.818 !       0.84 eA-3
Q142 1.000 0.427 0.058 !       0.84 eA-3
Q143 0.696 0.811 0.221 !       0.83 eA-3
Q144 0.624 0.601 0.186 !       0.82 eA-3
Q145 0.500 0.135 0.831 !       0.82 eA-3
Q146 0.891 0.016 0.427 !       0.81 eA-3
Q147 0.595 0.320 0.378 !       0.80 eA-3
C148 0.674 0.281 0.874 !       0.80 eA-3
Q149 0.548 0.040 0.846 !       0.79 eA-3
Q150 1.000 0.958 0.270 !       0.79 eA-3
Q151 0.110 0.534 0.594 !       0.78 eA-3
Q152 0.161 0.533 0.862 !       0.78 eA-3
Q153 0.428 0.590 0.674 !       0.78 eA-3
Q154 0.532 0.840 0.142 !       0.77 eA-3
Q155 1.000 0.021 0.666 !       0.77 eA-3
Q156 0.157 0.323 0.470 !       0.76 eA-3
Q157 0.382 0.131 0.489 !       0.76 eA-3
C158 0.396 0.727 0.161 !       0.76 eA-3
C159 0.062 0.397 0.686 !       0.76 eA-3
Q160 1.000 0.443 0.784 !       0.75 eA-3
Q161 0.526 0.591 0.233 !       0.75 eA-3
Q162 0.099 0.607 0.764 !       0.75 eA-3
Q163 0.500 0.866 0.090 !       0.74 eA-3
Q164 0.250 0.998 0.620 !       0.73 eA-3
Q165 0.062 0.251 0.606 !       0.73 eA-3
Q166 0.900 0.392 0.368 !       0.73 eA-3
Q167 0.500 0.161 0.128 !       0.72 eA-3
Q168 1.000 0.659 0.706 !       0.71 eA-3
Q169 0.352 0.398 0.403 !       0.71 eA-3
Q170 0.024 0.061 0.722 !       0.71 eA-3
Q171 0.663 0.708 0.019 !       0.69 eA-3
Q172 0.500 0.036 0.241 !       0.68 eA-3
Q173 0.477 0.064 0.785 !       0.68 eA-3
Q174 0.576 0.560 0.699 !       0.68 eA-3
C175 0.374 0.397 0.887 !       0.68 eA-3
Q176 0.026 0.492 0.267 !       0.68 eA-3
Q177 0.945 0.825 0.300 !       0.67 eA-3
Q178 1.000 0.669 0.504 !       0.67 eA-3
Q179 0.846 0.825 0.519 !       0.66 eA-3
Q180 0.283 0.912 0.020 !       0.65 eA-3
Q181 0.250 0.687 0.249 !       0.65 eA-3
Q182 0.466 0.078 0.324 !       0.65 eA-3
Q183 0.437 0.824 0.378 !       0.65 eA-3
Q184 0.267 0.247 0.937 !       0.64 eA-3
Q185 0.148 0.851 0.648 !       0.64 eA-3
Q186 1.000 0.897 0.237 !       0.64 eA-3
Q187 0.188 0.422 0.947 !       0.63 eA-3
Q188 0.159 0.019 0.782 !       0.62 eA-3
Q189 0.907 0.993 0.342 !       0.62 eA-3
Q190 0.328 0.695 0.304 !       0.62 eA-3
Q191 0.500 0.271 0.690 !       0.62 eA-3
Q192 0.383 0.789 0.050 !       0.62 eA-3
Q193 0.845 0.081 0.124 !       0.61 eA-3
Q194 0.062 0.268 0.312 !       0.61 eA-3
Q195 0.334 0.576 0.847 !       0.61 eA-3
Q196 0.126 0.437 0.834 !       0.61 eA-3
Q197 0.062 0.801 0.441 !       0.60 eA-3
Q198 0.921 0.104 0.371 !       0.60 eA-3
Q199 0.337 0.984 0.379 !       0.60 eA-3
)
;
_shelx_fab_checksum              80446
_olex2_submission_special_instructions 'No special instructions were received'
loop_
_space_group_symop_operation_xyz
'x, y, z'
'-x+1/2, -y, z+1/2'
'-x+1/2, y, -z+1/2'
'x, -y, -z'
'-x, -y, -z'
'x-1/2, y, -z-1/2'
'x-1/2, -y, z-1/2'
'-x, y, z'
loop_
_atom_site_label
_atom_site_type_symbol
_atom_site_fract_x
_atom_site_fract_y
_atom_site_fract_z
_atom_site_U_iso_or_equiv
_atom_site_adp_type
_atom_site_occupancy
_atom_site_site_symmetry_order
_atom_site_calc_flag
_atom_site_refinement_flags_posn
_atom_site_refinement_flags_adp
_atom_site_refinement_flags_occupancy
_atom_site_disorder_assembly
_atom_site_disorder_group
Mn2 Mn 0.500000 0.13156(15) 0.62936(17) 0.0464(7) Uani 1 2 d S T P . .
Mn1 Mn 0.250000 0.63170(16) 0.750000 0.0874(13) Uani 1 2 d S T P . .
Cl1 Cl 0.500000 0.1244(4) 0.7788(4) 0.109(2) Uani 1 2 d S T P . .
S1 S 0.36726(16) 0.6402(3) 0.8879(4) 0.1057(19) Uani 1 1 d . . . . .
O1 O 0.3344(5) 0.6329(8) 0.8092(9) 0.111(4) Uani 1 1 d . . . . .
O2 O 0.3679(5) 0.7422(10) 0.9047(10) 0.142(5) Uani 1 1 d . . . . .
O3 O 0.4285(5) 0.6145(11) 0.8873(14) 0.216(10) Uani 1 1 d . . . . .
O4B O 0.3246(17) 0.627(6) 0.961(3) 0.14(2) Uani 0.50(9) 1 d . U P A 2
N5 N 0.500000 0.2765(7) 0.6166(9) 0.050(4) Uani 1 2 d S T P . .
N7 N 0.500000 -0.0127(8) 0.6099(9) 0.044(3) Uani 1 2 d S T P . .
N6 N 0.4078(4) 0.1313(5) 0.6153(6) 0.047(2) Uani 1 1 d . . . . .
N2 N 0.2590(5) 0.4697(7) 0.6051(9) 0.090(4) Uani 1 1 d . . . . .
H2 H 0.224296 0.489613 0.585149 0.109 Uiso 1 1 calc R U . . .
N1 N 0.2876(4) 0.5126(7) 0.6653(10) 0.094(5) Uani 1 1 d . . . . .
N4 N 0.2567(5) -0.2029(8) 0.6072(10) 0.104(5) Uani 1 1 d D . . . .
H4 H 0.220929 -0.220178 0.589176 0.124 Uiso 1 1 calc R U . . .
N3 N 0.2885(5) -0.2503(6) 0.6661(8) 0.067(3) Uani 1 1 d . . . . .
C5 C 0.4495(4) 0.3363(6) 0.6102(7) 0.044(3) Uani 1 1 d . . . . .
C11 C 0.3885(5) -0.0447(7) 0.6146(8) 0.052(3) Uani 1 1 d . . . . .
C13 C 0.4698(4) -0.1684(6) 0.5804(7) 0.042(3) Uani 1 1 d . . . . .
H13 H 0.444753 -0.221984 0.569669 0.051 Uiso 1 1 calc R U . . .
C4 C 0.4687(5) 0.4336(7) 0.5956(8) 0.057(3) Uani 1 1 d . . . . .
H4A H 0.443225 0.487304 0.587537 0.069 Uiso 1 1 calc R U . . .
C10 C 0.3703(5) 0.0508(7) 0.6253(8) 0.055(3) Uani 1 1 d . . . . .
C14 C 0.3390(5) -0.1997(7) 0.6739(8) 0.059(3) Uani 1 1 d D . . . .
H14 H 0.370131 -0.215070 0.711908 0.071 Uiso 1 1 calc R U . . .
C7 C 0.3708(4) 0.2098(7) 0.6244(9) 0.057(4) Uani 1 1 d . . . . .
C15 C 0.3416(5) -0.1186(7) 0.6185(8) 0.053(3) Uani 1 1 d . . . . .
C6 C 0.3894(5) 0.3080(7) 0.6170(8) 0.054(3) Uani 1 1 d . . . . .
C2 C 0.3401(5) 0.3858(7) 0.6215(9) 0.063(4) Uani 1 1 d . . . . .
C3 C 0.2881(6) 0.3926(9) 0.5772(11) 0.086(5) Uani 1 1 d . . . . .
H3 H 0.275026 0.350739 0.534841 0.103 Uiso 1 1 calc R U . . .
C9 C 0.3114(6) 0.0820(8) 0.6448(10) 0.080(5) Uani 1 1 d . . . . .
H9 H 0.277918 0.041730 0.656435 0.097 Uiso 1 1 calc R U . . .
C1 C 0.3390(5) 0.4616(8) 0.6772(12) 0.092(6) Uani 1 1 d . . . . .
H1 H 0.369306 0.475326 0.716917 0.111 Uiso 1 1 calc R U . . .
C8 C 0.3103(5) 0.1796(8) 0.6441(12) 0.099(6) Uani 1 1 d . . . . .
H8 H 0.276501 0.219460 0.654498 0.119 Uiso 1 1 calc R U . . .
C16 C 0.2877(6) -0.1254(10) 0.5799(13) 0.107(6) Uani 1 1 d . . . . .
H16 H 0.273418 -0.082039 0.539339 0.129 Uiso 1 1 calc R U . . .
C12 C 0.4490(4) -0.0719(6) 0.5996(7) 0.042(3) Uani 1 1 d . . . . .
N8 N 0.500000 0.8070(18) 0.8876(15) 0.135(8) Uani 1 2 d S T P . .
H8A H 0.532854 0.768381 0.891607 0.162 Uiso 0.5 1 calc R U P . .
H8B H 0.467146 0.768381 0.891607 0.162 Uiso 0.5 1 calc R U P . .
C18 C 0.500000 0.867(3) 0.963(2) 0.200(19) Uani 1 2 d S T P . .
H18A H 0.463670 0.906796 0.963373 0.300 Uiso 0.5 1 d R U P B -1
H18B H 0.535990 0.907556 0.962913 0.300 Uiso 0.5 1 d R U P B -1
H18C H 0.500340 0.825706 1.011613 0.300 Uiso 0.5 1 d R U P B -1
C17 C 0.500000 0.843(3) 0.804(2) 0.185(16) Uani 1 2 d S T P . .
H17A H 0.488126 0.792165 0.766501 0.278 Uiso 0.5 1 calc R U P C -1
H17B H 0.540602 0.865818 0.790307 0.278 Uiso 0.5 1 calc R U P C -1
H17C H 0.471272 0.896260 0.800147 0.278 Uiso 0.5 1 calc R U P C -1
O4A O 0.343(2) 0.560(6) 0.940(4) 0.18(2) Uani 0.50(9) 1 d . U P A 1
loop_
_atom_site_aniso_label
_atom_site_aniso_U_11
_atom_site_aniso_U_22
_atom_site_aniso_U_33
_atom_site_aniso_U_23
_atom_site_aniso_U_13
_atom_site_aniso_U_12
Mn2 0.0372(12) 0.0194(10) 0.0827(19) -0.0030(11) 0.000 0.000
Mn1 0.0637(17) 0.0230(12) 0.176(3) 0.000 0.068(2) 0.000
Cl1 0.125(5) 0.075(4) 0.129(6) -0.012(4) 0.000 0.000
S1 0.0437(19) 0.075(3) 0.198(6) 0.058(3) 0.021(3) 0.0216(19)
O1 0.079(7) 0.088(7) 0.167(12) 0.003(8) 0.031(8) 0.002(6)
O2 0.072(7) 0.143(11) 0.209(15) -0.024(11) -0.055(9) 0.031(8)
O3 0.054(7) 0.144(12) 0.45(3) 0.020(16) 0.012(12) 0.037(8)
O4B 0.056(16) 0.24(5) 0.13(3) 0.13(3) 0.008(15) -0.03(2)
N5 0.047(7) 0.011(5) 0.092(11) 0.004(6) 0.000 0.000
N7 0.027(6) 0.024(6) 0.081(10) 0.017(6) 0.000 0.000
N6 0.041(5) 0.021(4) 0.079(7) 0.010(4) 0.004(4) 0.000(4)
N2 0.048(6) 0.045(6) 0.178(14) -0.002(8) 0.006(8) 0.020(6)
N1 0.038(6) 0.033(5) 0.213(16) -0.024(8) 0.037(8) -0.013(5)
N4 0.050(7) 0.054(7) 0.208(16) 0.017(9) 0.000(9) -0.023(6)
N3 0.060(7) 0.031(5) 0.111(10) 0.001(6) 0.026(6) -0.018(5)
C5 0.039(5) 0.013(4) 0.079(9) -0.003(5) -0.001(5) 0.003(4)
C11 0.038(6) 0.020(5) 0.097(10) 0.012(5) -0.006(6) -0.007(4)
C13 0.027(4) 0.022(5) 0.078(8) 0.001(5) -0.002(5) -0.017(4)
C4 0.062(7) 0.027(5) 0.083(9) 0.005(6) 0.010(6) -0.007(5)
C10 0.049(6) 0.029(6) 0.089(10) 0.004(6) 0.014(6) -0.011(5)
C14 0.055(7) 0.032(6) 0.091(10) 0.003(6) 0.021(7) -0.009(5)
C7 0.023(5) 0.023(5) 0.126(11) 0.012(6) 0.003(6) -0.005(4)
C15 0.041(6) 0.020(5) 0.097(10) -0.002(6) 0.002(6) 0.001(4)
C6 0.054(7) 0.027(5) 0.082(9) -0.006(6) 0.013(6) 0.007(5)
C2 0.047(7) 0.018(5) 0.124(12) -0.009(6) 0.023(7) 0.005(5)
C3 0.067(9) 0.041(7) 0.150(15) -0.009(8) -0.006(9) 0.018(7)
C9 0.063(8) 0.030(6) 0.149(15) 0.015(7) 0.012(9) -0.009(6)
C1 0.035(7) 0.042(7) 0.200(18) -0.018(9) 0.008(9) 0.001(5)
C8 0.018(5) 0.042(7) 0.24(2) 0.007(9) 0.016(8) 0.007(5)
C16 0.052(8) 0.070(9) 0.199(19) 0.023(11) -0.019(10) -0.038(8)
C12 0.035(5) 0.019(5) 0.071(8) 0.001(5) 0.011(5) 0.005(4)
N8 0.17(2) 0.119(18) 0.12(2) -0.015(17) 0.000 0.000
C18 0.19(3) 0.22(4) 0.19(4) -0.16(3) 0.000 0.000
C17 0.24(4) 0.18(4) 0.14(3) 0.07(3) 0.000 0.000
O4A 0.07(2) 0.19(4) 0.29(5) 0.15(4) -0.04(2) -0.06(2)
loop_
_atom_type_symbol
_atom_type_description
_atom_type_scat_dispersion_real
_atom_type_scat_dispersion_imag
_atom_type_scat_source
C C 0.0033 0.0016 'International Tables Vol C Tables 4.2.6.8 and 6.1.1.4'
H H 0.0000 0.0000 'International Tables Vol C Tables 4.2.6.8 and 6.1.1.4'
Cl Cl 0.1484 0.1585 'International Tables Vol C Tables 4.2.6.8 and 6.1.1.4'
Mn Mn 0.3368 0.7283 'International Tables Vol C Tables 4.2.6.8 and 6.1.1.4'
N N 0.0061 0.0033 'International Tables Vol C Tables 4.2.6.8 and 6.1.1.4'
O O 0.0106 0.0060 'International Tables Vol C Tables 4.2.6.8 and 6.1.1.4'
S S 0.1246 0.1234 'International Tables Vol C Tables 4.2.6.8 and 6.1.1.4'
loop_
_geom_angle_atom_site_label_1
_geom_angle_atom_site_label_2
_geom_angle_atom_site_label_3
_geom_angle
_geom_angle_site_symmetry_1
_geom_angle_site_symmetry_3
_geom_angle_publ_flag
N5 Mn2 Cl1 98.2(5) . . ?
N5 Mn2 N7 165.3(6) . . ?
N5 Mn2 N6 89.4(2) . 8_655 ?
N5 Mn2 N6 89.4(2) . . ?
N7 Mn2 Cl1 96.5(4) . . ?
N7 Mn2 N6 88.9(2) . 8_655 ?
N7 Mn2 N6 88.9(2) . . ?
N6 Mn2 Cl1 96.4(3) 8_655 . ?
N6 Mn2 Cl1 96.4(3) . . ?
N6 Mn2 N6 167.2(6) . 8_655 ?
O1 Mn1 O1 179.1(6) 3_556 . ?
O1 Mn1 N1 87.6(5) 3_556 3_556 ?
O1 Mn1 N1 93.0(5) . 3_556 ?
O1 Mn1 N1 87.6(5) . . ?
O1 Mn1 N1 93.0(5) 3_556 . ?
O1 Mn1 N3 86.4(4) 3_556 3_566 ?
O1 Mn1 N3 93.0(4) 3_556 1_565 ?
O1 Mn1 N3 93.0(4) . 3_566 ?
O1 Mn1 N3 86.4(4) . 1_565 ?
N1 Mn1 N1 87.9(6) 3_556 . ?
N3 Mn1 N1 179.3(4) 3_566 . ?
N3 Mn1 N1 91.8(4) 1_565 . ?
N3 Mn1 N1 91.8(4) 3_566 3_556 ?
N3 Mn1 N1 179.3(4) 1_565 3_556 ?
N3 Mn1 N3 88.5(5) 3_566 1_565 ?
O1 S1 O4B 111.0(16) . . ?
O1 S1 O4A 105(2) . . ?
O2 S1 O1 103.7(7) . . ?
O2 S1 O4B 89(4) . . ?
O2 S1 O4A 129(4) . . ?
O3 S1 O1 116.9(12) . . ?
O3 S1 O2 104.1(9) . . ?
O3 S1 O4B 125(2) . . ?
O3 S1 O4A 99(3) . . ?
S1 O1 Mn1 146.7(7) . . ?
C5 N5 Mn2 127.0(5) . . ?
C5 N5 Mn2 127.0(5) 8_655 . ?
C5 N5 C5 105.9(10) . 8_655 ?
C12 N7 Mn2 126.8(5) 8_655 . ?
C12 N7 Mn2 126.8(5) . . ?
C12 N7 C12 106.4(10) . 8_655 ?
C10 N6 Mn2 125.0(7) . . ?
C7 N6 Mn2 125.3(7) . . ?
C7 N6 C10 105.9(8) . . ?
N1 N2 H2 123.5 . . ?
N1 N2 C3 112.9(12) . . ?
C3 N2 H2 123.5 . . ?
N2 N1 Mn1 126.9(8) . . ?
N2 N1 C1 105.7(11) . . ?
C1 N1 Mn1 126.5(13) . . ?
N3 N4 H4 124.5 . . ?
C16 N4 H4 124.5 . . ?
C16 N4 N3 111.0(11) . . ?
N4 N3 Mn1 125.0(8) . 1_545 ?
C14 N3 Mn1 129.5(10) . 1_545 ?
C14 N3 N4 104.0(9) . . ?
N5 C5 C4 109.9(9) . . ?
C6 C5 N5 125.9(8) . . ?
C6 C5 C4 124.2(9) . . ?
C10 C11 C15 117.5(9) . . ?
C10 C11 C12 123.3(9) . . ?
C12 C11 C15 119.2(9) . . ?
C13 C13 H13 125.8 8_655 . ?
C13 C13 C12 108.4(5) 8_655 . ?
C12 C13 H13 125.8 . . ?
C5 C4 H4A 126.4 . . ?
C4 C4 C5 107.1(6) 8_655 . ?
C4 C4 H4A 126.4 8_655 . ?
N6 C10 C9 108.8(9) . . ?
C11 C10 N6 125.3(10) . . ?
C11 C10 C9 125.9(10) . . ?
N3 C14 H14 123.5 . . ?
N3 C14 C15 113.0(11) . . ?
C15 C14 H14 123.5 . . ?
N6 C7 C6 125.5(9) . . ?
N6 C7 C8 110.0(9) . . ?
C8 C7 C6 124.4(10) . . ?
C14 C15 C11 127.3(11) . . ?
C16 C15 C11 130.9(12) . . ?
C16 C15 C14 101.4(11) . . ?
C5 C6 C7 123.4(9) . . ?
C5 C6 C2 118.6(9) . . ?
C7 C6 C2 117.9(9) . . ?
C3 C2 C6 128.5(12) . . ?
C3 C2 C1 106.0(11) . . ?
C1 C2 C6 125.4(13) . . ?
N2 C3 C2 106.6(14) . . ?
N2 C3 H3 126.7 . . ?
C2 C3 H3 126.7 . . ?
C10 C9 H9 125.6 . . ?
C8 C9 C10 108.8(11) . . ?
C8 C9 H9 125.6 . . ?
N1 C1 C2 108.7(14) . . ?
N1 C1 H1 125.7 . . ?
C2 C1 H1 125.7 . . ?
C7 C8 H8 126.9 . . ?
C9 C8 C7 106.3(11) . . ?
C9 C8 H8 126.9 . . ?
N4 C16 H16 124.7 . . ?
C15 C16 N4 110.5(15) . . ?
C15 C16 H16 124.7 . . ?
N7 C12 C11 125.4(9) . . ?
N7 C12 C13 108.4(8) . . ?
C11 C12 C13 125.8(8) . . ?
H8A N8 H8B 106.3 . . ?
C18 N8 H8A 106.1 . . ?
C18 N8 H8B 106.1 . . ?
C17 N8 H8A 106.1 . . ?
C17 N8 H8B 106.1 . . ?
C17 N8 C18 125(3) . . ?
N8 C18 H18A 109.3 . . ?
N8 C18 H18B 109.3 . . ?
N8 C18 H18C 109.7 . . ?
H18A C18 H18B 109.5 . . ?
H18A C18 H18C 109.5 . . ?
H18B C18 H18C 109.5 . . ?
N8 C17 H17A 109.5 . . ?
N8 C17 H17B 109.5 . . ?
N8 C17 H17C 109.5 . . ?
H17A C17 H17B 109.5 . . ?
H17A C17 H17C 109.5 . . ?
H17B C17 H17C 109.5 . . ?
loop_
_geom_bond_atom_site_label_1
_geom_bond_atom_site_label_2
_geom_bond_distance
_geom_bond_site_symmetry_2
_geom_bond_publ_flag
Mn2 Cl1 2.381(8) . ?
Mn2 N5 1.997(10) . ?
Mn2 N7 2.002(11) . ?
Mn2 N6 2.011(8) . ?
Mn2 N6 2.011(8) 8_655 ?
Mn1 O1 2.058(13) 3_556 ?
Mn1 O1 2.058(13) . ?
Mn1 N1 2.269(12) . ?
Mn1 N1 2.269(12) 3_556 ?
Mn1 N3 2.258(10) 3_566 ?
Mn1 N3 2.258(10) 1_565 ?
S1 O1 1.445(13) . ?
S1 O2 1.424(14) . ?
S1 O3 1.373(11) . ?
S1 O4B 1.49(3) . ?
S1 O4A 1.48(4) . ?
N5 C5 1.372(11) . ?
N5 C5 1.372(11) 8_655 ?
N7 C12 1.382(11) 8_655 ?
N7 C12 1.382(11) . ?
N6 C10 1.380(12) . ?
N6 C7 1.351(12) . ?
N2 H2 0.8600 . ?
N2 N1 1.284(17) . ?
N2 C3 1.309(15) . ?
N1 C1 1.331(16) . ?
N4 H4 0.8600 . ?
N4 N3 1.334(16) . ?
N4 C16 1.330(16) . ?
N3 C14 1.302(13) . ?
C5 C4 1.417(13) . ?
C5 C6 1.364(14) . ?
C11 C10 1.378(14) . ?
C11 C15 1.437(13) . ?
C11 C12 1.383(14) . ?
C13 C13 1.308(18) 8_655 ?
C13 H13 0.9300 . ?
C13 C12 1.432(13) . ?
C4 C4 1.36(2) 8_655 ?
C4 H4A 0.9300 . ?
C10 C9 1.383(16) . ?
C14 H14 0.9300 . ?
C14 C15 1.422(15) . ?
C7 C6 1.411(14) . ?
C7 C8 1.409(14) . ?
C15 C16 1.324(17) . ?
C6 C2 1.511(14) . ?
C2 C3 1.332(18) . ?
C2 C1 1.368(18) . ?
C3 H3 0.9300 . ?
C9 H9 0.9300 . ?
C9 C8 1.338(16) . ?
C1 H1 0.9300 . ?
C8 H8 0.9300 . ?
C16 H16 0.9300 . ?
N8 H8A 0.8900 . ?
N8 H8B 0.8900 . ?
N8 C18 1.45(3) . ?
N8 C17 1.41(3) . ?
C18 H18A 0.9600 . ?
C18 H18B 0.9600 . ?
C18 H18C 0.9600 . ?
C17 H17A 0.9600 . ?
C17 H17B 0.9600 . ?
C17 H17C 0.9600 . ?
loop_
_geom_torsion_atom_site_label_1
_geom_torsion_atom_site_label_2
_geom_torsion_atom_site_label_3
_geom_torsion_atom_site_label_4
_geom_torsion
_geom_torsion_site_symmetry_1
_geom_torsion_site_symmetry_2
_geom_torsion_site_symmetry_3
_geom_torsion_site_symmetry_4
_geom_torsion_publ_flag
Mn2 N5 C5 C4 -175.6(10) . . . . ?
Mn2 N5 C5 C6 5(2) . . . . ?
Mn2 N7 C12 C11 -11(2) . . . . ?
Mn2 N7 C12 C13 175.2(9) . . . . ?
Mn2 N6 C10 C11 -26.2(18) . . . . ?
Mn2 N6 C10 C9 155.9(10) . . . . ?
Mn2 N6 C7 C6 22.8(19) . . . . ?
Mn2 N6 C7 C8 -156.2(11) . . . . ?
Mn1 N1 C1 C2 169.2(9) . . . . ?
Mn1 N3 C14 C15 -167.8(8) 1_545 . . . ?
O2 S1 O1 Mn1 -79.7(15) . . . . ?
O3 S1 O1 Mn1 166.4(13) . . . . ?
O4B S1 O1 Mn1 15(4) . . . . ?
N5 C5 C4 C4 -1.7(12) . . . 8_655 ?
N5 C5 C6 C7 -6(2) . . . . ?
N5 C5 C6 C2 170.7(13) . . . . ?
N6 C10 C9 C8 2.3(19) . . . . ?
N6 C7 C6 C5 -9(2) . . . . ?
N6 C7 C6 C2 174.5(13) . . . . ?
N6 C7 C8 C9 -1(2) . . . . ?
N2 N1 C1 C2 -0.2(17) . . . . ?
N1 N2 C3 C2 -1.2(18) . . . . ?
N4 N3 C14 C15 -1.2(14) . . . . ?
N3 N4 C16 C15 1(2) . . . . ?
N3 C14 C15 C11 175.6(11) . . . . ?
N3 C14 C15 C16 1.6(15) . . . . ?
C5 N5 C5 C4 2.8(18) 8_655 . . . ?
C5 N5 C5 C6 -176.9(8) 8_655 . . . ?
C5 C6 C2 C3 130.7(15) . . . . ?
C5 C6 C2 C1 -53.4(19) . . . . ?
C11 C10 C9 C8 -175.6(15) . . . . ?
C11 C15 C16 N4 -175.1(13) . . . . ?
C13 C13 C12 N7 1.0(11) 8_655 . . . ?
C13 C13 C12 C11 -172.4(11) 8_655 . . . ?
C4 C5 C6 C7 174.4(13) . . . . ?
C4 C5 C6 C2 -9(2) . . . . ?
C10 N6 C7 C6 -178.3(14) . . . . ?
C10 N6 C7 C8 2.7(16) . . . . ?
C10 C11 C15 C14 -122.2(13) . . . . ?
C10 C11 C15 C16 50(2) . . . . ?
C10 C11 C12 N7 14(2) . . . . ?
C10 C11 C12 C13 -173.8(12) . . . . ?
C10 C9 C8 C7 -1(2) . . . . ?
C14 C15 C16 N4 -1.4(18) . . . . ?
C7 N6 C10 C11 174.9(14) . . . . ?
C7 N6 C10 C9 -3.1(15) . . . . ?
C7 C6 C2 C3 -52(2) . . . . ?
C7 C6 C2 C1 123.4(15) . . . . ?
C15 C11 C10 N6 -173.2(12) . . . . ?
C15 C11 C10 C9 4(2) . . . . ?
C15 C11 C12 N7 -166.9(12) . . . . ?
C15 C11 C12 C13 5(2) . . . . ?
C6 C5 C4 C4 178.0(11) . . . 8_655 ?
C6 C7 C8 C9 179.7(15) . . . . ?
C6 C2 C3 N2 177.6(12) . . . . ?
C6 C2 C1 N1 -177.2(12) . . . . ?
C3 N2 N1 Mn1 -168.5(10) . . . . ?
C3 N2 N1 C1 0.9(18) . . . . ?
C3 C2 C1 N1 -0.6(17) . . . . ?
C1 C2 C3 N2 1.0(17) . . . . ?
C8 C7 C6 C5 170.0(15) . . . . ?
C8 C7 C6 C2 -7(2) . . . . ?
C16 N4 N3 Mn1 167.6(11) . . . 1_545 ?
C16 N4 N3 C14 0.2(17) . . . . ?
C12 N7 C12 C11 171.8(8) 8_655 . . . ?
C12 N7 C12 C13 -1.6(17) 8_655 . . . ?
C12 C11 C10 N6 6(2) . . . . ?
C12 C11 C10 C9 -176.4(14) . . . . ?
C12 C11 C15 C14 58.5(18) . . . . ?
C12 C11 C15 C16 -129.3(17) . . . . ?
O4A S1 O1 Mn1 57(4) . . . . ?
