#------------------------------------------------------------------------------
#$Date: 2021-05-05 11:02:42 +0300 (Wed, 05 May 2021) $
#$Revision: 264865 $
#$URL: file:///home/coder/svn-repositories/cod/cif/7/12/80/7128075.cif $
#------------------------------------------------------------------------------
#
# This file is available in the Crystallography Open Database (COD),
# http://www.crystallography.net/
#
# All data on this site have been placed in the public domain by the
# contributors.
#
data_7128075
loop_
_publ_author_name
'Voigt, Laura'
'Wugt Larsen, Ren\'e'
'Kubus, Mariusz'
'Pedersen, Kasper S.'
_publ_section_title
;
 Zero-valent metals in metal-organic frameworks:
 fac-M(CO)<sub>3</sub>(pyrazine)<sub>3/2</sub>.
;
_journal_issue                   32
_journal_name_full
'Chemical communications (Cambridge, England)'
_journal_page_first              3861
_journal_page_last               3864
_journal_paper_doi               10.1039/d1cc00864a
_journal_volume                  57
_journal_year                    2021
_chemical_formula_moiety         'C9 H6 Mo N3 O3, C2 H2 N'
_chemical_formula_sum            'C11 H8 Mo N4 O3'
_chemical_formula_weight         340.15
_space_group_crystal_system      triclinic
_space_group_IT_number           2
_space_group_name_Hall           '-P 1'
_space_group_name_H-M_alt        'P -1'
_atom_sites_solution_hydrogens   mixed
_atom_sites_solution_primary     iterative
_audit_creation_date             2021-03-12
_audit_creation_method
;
Olex2 1.3
(compiled 2020.11.12 svn.r5f609507 for OlexSys, GUI svn.r6272)
;
_audit_update_record
;
2021-03-18 deposited with the CCDC.	2021-03-25 downloaded from the CCDC.
;
_cell_angle_alpha                64.131(10)
_cell_angle_beta                 88.185(9)
_cell_angle_gamma                86.345(10)
_cell_formula_units_Z            2
_cell_length_a                   6.8571(8)
_cell_length_b                   9.7204(11)
_cell_length_c                   10.0406(10)
_cell_measurement_reflns_used    1262
_cell_measurement_temperature    120.00(10)
_cell_measurement_theta_max      28.0670
_cell_measurement_theta_min      4.7810
_cell_volume                     600.95(13)
_computing_cell_refinement       'CrysAlisPro 1.171.39.46 (Rigaku OD, 2018)'
_computing_data_collection       'CrysAlisPro 1.171.39.46 (Rigaku OD, 2018)'
_computing_data_reduction        'CrysAlisPro 1.171.39.46 (Rigaku OD, 2018)'
_computing_molecular_graphics    'Olex2 1.3 (Dolomanov et al., 2009)'
_computing_publication_material  'Olex2 1.3 (Dolomanov et al., 2009)'
_computing_structure_refinement  'SHELXL 2018/3 (Sheldrick, 2015)'
_computing_structure_solution    'olex2.solve 1.3 (Bourhis et al., 2015)'
_diffrn_ambient_environment      N~2~
_diffrn_ambient_temperature      120.00(10)
_diffrn_detector                 'CCD plate'
_diffrn_detector_area_resol_mean 5.3073
_diffrn_detector_type            Atlas
_diffrn_measured_fraction_theta_full 0.998
_diffrn_measured_fraction_theta_max 0.998
_diffrn_measurement_details
;
List of Runs (angles in degrees, time in seconds):

  # Type    Start    End  Width  t~exp~   \w     \q     \k     \f   Frames
#--------------------------------------------------------------------------
  1  \w     13.00  39.00   1.00  110.00    --   10.87 -99.00 120.00   26
  2  \w    -57.00  34.00   1.00  110.00    --   10.87 -57.00 120.00   91
  3  \w    -15.00  77.00   1.00  110.00    --   10.87  77.00  30.00   92
  4  \w    -16.00  83.00   1.00  110.00    --   10.87  57.00 -90.00   99
;
_diffrn_measurement_device       'four-circle diffractometer'
_diffrn_measurement_device_type  'SuperNova, Dual, Cu at home/near, Atlas'
_diffrn_measurement_method       '\w scans'
_diffrn_orient_matrix_type
'CrysAlisPro convention (1999,Acta A55,543-557)'
_diffrn_orient_matrix_UB_11      0.0878018000
_diffrn_orient_matrix_UB_12      -0.0467549000
_diffrn_orient_matrix_UB_13      0.0211321000
_diffrn_orient_matrix_UB_21      0.0531043000
_diffrn_orient_matrix_UB_22      0.0655437000
_diffrn_orient_matrix_UB_23      -0.0151634000
_diffrn_orient_matrix_UB_31      -0.0146481000
_diffrn_orient_matrix_UB_32      -0.0107264000
_diffrn_orient_matrix_UB_33      0.0740777000
_diffrn_radiation_monochromator  mirror
_diffrn_radiation_probe          x-ray
_diffrn_radiation_type           'Mo K\a'
_diffrn_radiation_wavelength     0.71073
_diffrn_reflns_av_unetI/netI     0.1047
_diffrn_reflns_Laue_measured_fraction_full 0.998
_diffrn_reflns_Laue_measured_fraction_max 0.998
_diffrn_reflns_limit_h_max       8
_diffrn_reflns_limit_h_min       -8
_diffrn_reflns_limit_k_max       12
_diffrn_reflns_limit_k_min       -11
_diffrn_reflns_limit_l_max       12
_diffrn_reflns_limit_l_min       -12
_diffrn_reflns_number            4212
_diffrn_reflns_point_group_measured_fraction_full 0.998
_diffrn_reflns_point_group_measured_fraction_max 0.998
_diffrn_reflns_theta_full        25.242
_diffrn_reflns_theta_max         26.368
_diffrn_reflns_theta_min         3.679
_diffrn_source                   'micro-focus sealed X-ray tube'
_diffrn_source_type              'SuperNova (Mo) X-ray Source'
_exptl_absorpt_coefficient_mu    1.101
_exptl_absorpt_correction_T_max  1.00000
_exptl_absorpt_correction_T_min  0.66932
_exptl_absorpt_correction_type   multi-scan
_exptl_absorpt_process_details
;
CrysAlisPro 1.171.39.46 (Rigaku Oxford Diffraction, 2018)
Empirical absorption correction using spherical harmonics,
 implemented in SCALE3 ABSPACK scaling algorithm.
;
_exptl_crystal_colour            'metallic dark green'
_exptl_crystal_colour_lustre     metallic
_exptl_crystal_colour_modifier   dark
_exptl_crystal_colour_primary    green
_exptl_crystal_density_diffrn    1.880
_exptl_crystal_description       needle
_exptl_crystal_F_000             336
_exptl_crystal_size_max          0.02
_exptl_crystal_size_mid          0.02
_exptl_crystal_size_min          0.02
_refine_diff_density_max         0.534
_refine_diff_density_min         -0.642
_refine_diff_density_rms         0.129
_refine_ls_extinction_method     none
_refine_ls_goodness_of_fit_ref   0.868
_refine_ls_hydrogen_treatment    mixed
_refine_ls_matrix_type           full
_refine_ls_number_parameters     177
_refine_ls_number_reflns         4212
_refine_ls_number_restraints     0
_refine_ls_restrained_S_all      0.868
_refine_ls_R_factor_all          0.0572
_refine_ls_R_factor_gt           0.0361
_refine_ls_shift/su_max          0.000
_refine_ls_shift/su_mean         0.000
_refine_ls_structure_factor_coef Fsqd
_refine_ls_weighting_details
'w=1/[\s^2^(Fo^2^)+(0.0249P)^2^] where P=(Fo^2^+2Fc^2^)/3'
_refine_ls_weighting_scheme      calc
_refine_ls_wR_factor_gt          0.0640
_refine_ls_wR_factor_ref         0.0672
_reflns_Friedel_coverage         0.000
_reflns_number_gt                3081
_reflns_number_total             4212
_reflns_threshold_expression     'I > 2\s(I)'
_twin_special_details
;
Component 2 rotated by -179.9834\% 
 around [0.03 0.67 -0.75] (reciprocal) or [-0.00 0.71 -0.71] (direct)
;
_cod_data_source_file            d1cc00864a2.cif
_cod_data_source_block           lv194_moco3pyz2_e_twin1_hklf4
_cod_depositor_comments
'Adding full bibliography for 7128075--7128079.cif.'
_cod_database_code               7128075
_shelx_shelxl_version_number     2018/3
_chemical_oxdiff_formula         'C22 H16 Mo2 N8 O8'
_shelx_space_group_comment
;
The symmetry employed for this shelxl refinement is uniquely defined
by the following loop, which should always be used as a source of
symmetry information in preference to the above space-group names.
They are only intended as comments.
;
_shelx_estimated_absorpt_t_max   0.978
_shelx_estimated_absorpt_t_min   0.978
_olex2_refinement_description
;
1. Twinned data refinement
 Scales: 0.6022(9)
 0.3978(9)
2. Fixed Uiso
 At 1.2 times of:
  All C(H) groups
3.a Aromatic/amide H refined with riding coordinates:
 C4(H4), C5(H5), C6(H6), C8(H8), C7(H7), C9(H9), C11(H11)
;
_shelx_res_file
;
TITL LV194_MoCo3pyz2_e_twin1_hklf4 in P-1
    lv194_moco3pyz2_e_twin1_hklf4.res
    created by SHELXL-2018/3 at 12:43:10 on 12-Mar-2021
REM P-1 (#2 in standard setting)
CELL 0.71073 6.857082 9.720358 10.040595 64.131 88.1854 86.3452
ZERR 2 0.000822 0.001086 0.001009 0.0104 0.0089 0.0095
LATT 1
SFAC C H Mo N O
UNIT 22 16 2 8 6

L.S. 21
PLAN  5
SIZE 0.02 0.02 0.02
CONF
MORE -1
BOND $H
fmap 2
acta
SHEL 999 0.8
REM <olex2.extras>
REM <HklSrc "%.\\LV194_MoCo3pyz2_e_twin1_hklf5.hkl">
REM </olex2.extras>

WGHT    0.024900
BASF   0.39785
FVAR       1.05898
MO1   3    0.330922    0.655549    0.176400    11.00000    0.00751    0.01017 =
         0.01027   -0.00412    0.00040   -0.00044
N1    4    0.120383    0.863853    0.070857    11.00000    0.00824    0.01274 =
         0.00754   -0.00313    0.00160   -0.00091
O1    5    0.574349    0.830754    0.303383    11.00000    0.01566    0.02601 =
         0.02359   -0.01457   -0.00492   -0.00198
N3    4    0.126318    0.563478    0.375950    11.00000    0.01121    0.00969 =
         0.00852   -0.00264   -0.00220   -0.00292
N4    4    0.130556    0.553181    0.071150    11.00000    0.00795    0.00904 =
         0.01188   -0.00592    0.00225    0.00238
O2    5    0.594135    0.765784   -0.106534    11.00000    0.01999    0.02777 =
         0.01992   -0.01334    0.00832   -0.00887
C1    1    0.483137    0.762500    0.257913    11.00000    0.01015    0.01770 =
         0.01003    0.00016    0.00141    0.00551
C2    1    0.495557    0.726081   -0.000160    11.00000    0.00821    0.01549 =
         0.02022   -0.01094   -0.00583   -0.00182
O3    5    0.640987    0.383850    0.322979    11.00000    0.02460    0.02737 =
         0.02923   -0.00851   -0.00216    0.01124
C3    1    0.519436    0.482459    0.267687    11.00000    0.01153    0.02009 =
         0.01517   -0.00938    0.00353   -0.00445
C4    1    0.044750    0.419321    0.141903    11.00000    0.01313    0.01685 =
         0.01432   -0.00686   -0.00244    0.00403
AFIX  43
H4    2    0.072492    0.359460    0.241496    11.00000   -1.20000
AFIX   0
C5    1    0.082788    0.632943   -0.072883    11.00000    0.01479    0.01167 =
         0.01511   -0.00678    0.00267   -0.00478
AFIX  43
H5    2    0.137721    0.726461   -0.127636    11.00000   -1.20000
AFIX   0
C6    1   -0.072336    0.862685    0.055051    11.00000    0.00465    0.01200 =
         0.01789   -0.00604    0.00303   -0.00651
AFIX  43
H6    2   -0.129709    0.768875    0.092394    11.00000   -1.20000
AFIX   0
C8    1    0.138054    0.413165    0.473069    11.00000    0.01555    0.01285 =
         0.01092   -0.00712   -0.00088    0.00708
AFIX  43
H8    2    0.233334    0.348516    0.458510    11.00000   -1.20000
AFIX   0
C7    1    0.190254    1.004613    0.014647    11.00000    0.01057    0.01219 =
         0.01042   -0.00530   -0.00012   -0.00294
AFIX  43
H7    2    0.323158    1.013192    0.022915    11.00000   -1.20000
AFIX   0
C9    1   -0.012650    0.647342    0.406600    11.00000    0.01274    0.01203 =
         0.01074   -0.00061   -0.00229    0.00101
AFIX  43
H9    2   -0.026407    0.751567    0.344358    11.00000   -1.20000
AFIX   0

N5    4    0.020751    0.980474   -0.354682    11.00000    0.02965    0.02802 =
         0.02073   -0.01001    0.00317   -0.00052
C10   1   -0.151776    1.002403   -0.417960    11.00000    0.02421    0.02326 =
         0.03001   -0.01224    0.00782   -0.00317
C11   1    0.171981    0.978621   -0.438686    11.00000    0.02085    0.02103 =
         0.03344   -0.00787   -0.00490   -0.00229
AFIX  43
H11   2    0.296963    0.963960   -0.399714    11.00000   -1.20000
AFIX   0
H10   2   -0.262975    0.997083   -0.356639    11.00000    0.03778
HKLF 5




REM  LV194_MoCo3pyz2_e_twin1_hklf4 in P-1
REM wR2 = 0.0672, GooF = S = 0.868, Restrained GooF = 0.868 for all data
REM R1 = 0.0361 for 3081 Fo > 4sig(Fo) and 0.0572 for all 4212 data
REM 177 parameters refined using 0 restraints

END

WGHT      0.0249      0.0000

REM Highest difference peak  0.534,  deepest hole -0.642,  1-sigma level  0.129
Q1    1   0.3797  0.5304  0.2521  11.00000  0.05    0.50
Q2    1   0.7834  0.3167  0.4958  11.00000  0.05    0.48
Q3    1   0.3022  0.3801  0.3980  11.00000  0.05    0.46
Q4    1   0.7552  0.3855  0.2326  11.00000  0.05    0.46
Q5    1   0.1400  0.3791  0.4617  11.00000  0.05    0.45
;
_shelx_res_checksum              33986
_shelx_hkl_file
;
   0   0  -2 62.6953 13.6782   1
   0   0   3 190.943 17.5177   1
   0   0  -4 610.037 17.2793   1
   0   0   5 318.237 16.2994   1
   0   0  -6 578.018 22.0297   1
   0   0  -7 9.98334 18.4302   1
   0   0  -8 601.341 27.8131   1
   0   0  -9 681.567 33.6107   1
   0   0 -10 33.7819 36.2809   1
   0   0 -11 535.882 88.7495   1
   0   1 -10 506.432 85.5501   1
   0   1  -9 1057.07 52.5965   1
   0   1  -8 126.127 26.0495   1
   0   1  -7 466.668 25.4631   1
   0   1  -6 1359.84 33.9206   1
   0   1  -5 18.9446 20.4968   1
   0   1  -4 1595.08 36.3813   1
   0  -1   3 2587.93 38.8089   1
   0   1  -2 93.9467 17.9372   1
   0  -1   1 4106.38 36.0027   1
   0  -2  -1 6408.71 41.2208  -2
   0   1   2 6408.71 41.2208   1
   0   3   1 805.325 19.6909  -2
   0  -1  -3 805.325 19.6909   1
   0  -1  -4 372.843 18.4981   1
   0   4   1 387.326 47.3270  -2
   0  -1  -4 387.326 47.3270   1
   0  -1  -5 337.127 17.7952   1
   0  -1  -6 24.0345 15.5593   1
   0  -1  -7 916.882 26.5853   1
   0  -1  -8 1115.72 31.0275   1
   0  -1  -9 15.5587 23.4240   1
   0  -1 -10 698.214 44.6001   1
   0  -1 -11 452.825 81.4710   1
   0  -1 -12 9.51670 75.5260   1
   0   2 -10 521.320 90.8334   1
   0   2  -9 47.8293 40.4636   1
   0   2  -8 582.495 29.0378   1
   0   2  -7 215.535 35.2708   1
   0   2  -6 81.7121 39.6426   1
   0   2  -5 938.869 35.3728   1
   0  -2   4 3306.63 52.3452   1
   0   2  -3 292.946 25.9228   1
   0   2  -2 2086.78 39.4659   1
   0  -2   1 116.588 21.9506   1
   0   2   0 50.6293 36.6684   1
   0   2   1 3866.35 65.5611   1
   0   2   2 4.71862 13.3073  -2
   0  -2  -2 4.71862 13.3073   1
   0  -3  -2 1314.80 28.7594  -2
   0   2   3 1314.80 28.7594   1
   0   4   2 7221.85 51.3821  -2
   0  -2  -4 7221.85 51.3821   1
   0  -2  -5 1586.52 39.3392   1
   0   5   2 2173.55 45.0564  -2
   0  -2  -5 2173.55 45.0564   1
   0  -2  -6 1444.67 24.6281   1
   0  -2  -7 520.357 23.2575   1
   0  -2  -8 104.511 21.4877   1
   0  -2  -9 320.850 28.1102   1
   0  -2 -10 201.332 34.1908   1
   0  -2 -11 30.7495 65.0401   1
   0  -2 -12 776.884 91.3341   1
   0   3  -9-24.6087 70.9852   1
   0   3  -8 455.697 49.4861   1
   0   3  -7 55.7046 33.0730   1
   0   3  -6 489.520 37.6952   1
   0   3  -5 2185.64 77.6309   1
   0   3  -4 55.4982 38.6975   1
   0  -3   3 2831.31 53.8501   1
   0   3  -2 1184.29 41.2965   1
   0  -3   1 1.37248 26.1083   1
   0  -3   0 3879.27 54.6463   1
   0   3   1-12.4158 39.0872   1
   0  -2  -3 1030.58 28.8329  -2
   0   3   2 1030.58 28.8329   1
   0   3   3 806.925 20.1121  -2
   0  -3  -3 806.925 20.1121   1
   0   4   3 806.589 28.9740  -2
   0  -3  -4 806.589 28.9740   1
   0   5   3 2935.77 39.6080  -2
   0  -3  -5 2935.77 39.6080   1
   0  -3  -6 3994.17 84.5197   1
   0  -6  -3 5504.50 61.0213  -2
   0   3   6 5504.50 61.0213   1
   0  -3  -7 64.3634 16.6405   1
   0  -3  -8 297.817 25.4827   1
   0  -3  -9 663.439 32.5163   1
   0  -3 -10 12.9158 26.1420   1
   0  -3 -11 515.179 42.8510   1
   0  -3 -12 528.425 82.7067   1
   0  -3 -13 17.3946 80.8030   1
   0   4  -8 243.631 49.0389   1
   0   4  -7 103.498 56.4763   1
   0  -4   6 355.928 39.4033   1
   0   4  -5 53.3252 31.1984   1
   0  -4   4 2193.11 57.0250   1
   0   4  -3 1535.13 69.8364   1
   0   4  -2 139.954 43.0655   1
   0  -4   1 984.643 34.3008   1
   0   4   0 706.074 54.8473   1
   0   4   1-11.8274 43.9955   1
   0   4   2 3454.73 87.7262   1
   0  -2  -4 6762.56 66.3736  -2
   0   4   2 6762.56 66.3736   1
   0  -3  -4 818.504 22.1795  -2
   0   4   3 818.504 22.1795   1
   0   4   4 2046.83 30.4253  -2
   0  -4  -4 2046.83 30.4253   1
   0  -5  -4 1715.07 39.8738  -2
   0   4   5 1715.07 39.8738   1
   0  -6  -4 1905.14 39.5048  -2
   0   4   6 1905.14 39.5048   1
   0  -4  -7 1269.92 62.7781   1
   0  -7  -4 1259.28 40.5638  -2
   0   4   7 1259.28 40.5638   1
   0   4   8 2687.67 48.8023   1
   0  -4  -9 496.796 26.4396   1
   0  -4 -10 194.986 28.2075   1
   0  -4 -11 71.2824 35.9651   1
   0  -4 -12 9.61815 62.7883   1
   0  -4 -13 196.676 77.1394   1
   0   5  -8 380.283 87.4273   1
   0   5  -7 690.558 57.7723   1
   0   5  -6 13.3287 40.4751   1
   0   5  -5 559.675 48.0224   1
   0   5  -4 1269.25 44.2335   1
   0   5  -3 60.9529 27.9067   1
   0  -5   2 1482.21 53.4667   1
   0   5  -1 645.788 40.2834   1
   0   5   0 631.584 60.4860   1
   0   5   1 3696.93 99.1093   1
   0   5   2 884.228 30.9197   1
   0   5   3 140.146 48.1234   1
   0  -3  -5 2023.18 44.1235  -2
   0   5   3 2023.18 44.1235   1
   0   4   5 1633.91 30.0789  -2
   0  -5  -4 1633.91 30.0789   1
   0   5   5 480.470 20.4470  -2
   0  -5  -5 480.470 20.4470   1
   0   6   5 253.518 27.4172  -2
   0  -5  -6 253.518 27.4172   1
   0  -7  -5 2019.80 44.4557  -2
   0   5   7 2019.80 44.4557   1
   0   8   5 735.094 36.6847  -2
   0  -5  -8 735.094 36.6847   1
   0   5   9 827.962 35.8674   1
   0  -5 -10 433.229 28.1273   1
   0  -5 -11-15.0428 33.6859   1
   0  -5 -12 307.476 66.6825   1
   0  -5 -13 228.535 71.3104   1
   0   6  -7 61.4610 72.7391   1
   0   6  -6 391.632 73.8290   1
   0   6  -5 1036.88 85.8500   1
   0   6  -4 243.822 64.6804   1
   0   6  -3-5.65564 58.9780   1
   0  -6   2 562.146 47.0854   1
   0  -6   1 31.2206 34.2207   1
   0  -6   0 1383.87 54.7102   1
   0   6   1 122.086 51.8481   1
   0   6   2 199.419 54.7032   1
   0   6   3 2329.19 43.4500   1
   0  -4  -6 2066.84 41.2467  -2
   0   6   4 2066.84 41.2467   1
   0  -5  -6 361.462 21.3051  -2
   0   6   5 361.462 21.3051   1
   0  -6  -6 824.861 36.2758  -2
   0   6   6 824.861 36.2758   1
   0   7   6 483.448 33.7794  -2
   0  -6  -7 483.448 33.7794   1
   0  -8  -6 376.023 34.3893  -2
   0   6   8 376.023 34.3893   1
   0  -6  -9 735.990 52.8291   1
   0  -9  -6 1006.80 67.4290  -2
   0   6   9 1006.80 67.4290   1
   0   6  10 15.6261 33.0315   1
   0   6  11 332.461 33.3234   1
   0  -6 -12 690.326 71.6773   1
   0  -6 -13 50.8089 63.1362   1
   0   7  -6 257.835 74.2033   1
   0   7  -5-22.3295 70.4257   1
   0   7  -4 261.065 68.9113   1
   0   7  -3 591.458 76.5300   1
   0   7  -2 116.986 61.9855   1
   0   7  -1 723.886 78.9864   1
   0   7   0 131.289 64.9076   1
   0   7   1 146.096 62.0971   1
   0   7   2 2652.90 73.1532   1
   0   7   3 1599.42 37.3273   1
   0   7   4 8.71996 19.5798   1
   0   4   7 803.112 62.1440  -2
   0  -7  -4 803.112 62.1440   1
   0   5   7 1897.36 40.1804  -2
   0  -7  -5 1897.36 40.1804   1
   0  -6  -7 503.469 33.5175  -2
   0   7   6 503.469 33.5175   1
   0  -7  -7 409.103 37.1588  -2
   0   7   7 409.103 37.1588   1
   0   8   7 1257.39 52.6773  -2
   0  -7  -8 1257.39 52.6773   1
   0  -9  -7 155.423 37.6793  -2
   0   7   9 155.423 37.6793   1
   0  -7 -10 302.313 45.0518   1
   0 -10  -7 385.374 67.6676  -2
   0   7  10 385.374 67.6676   1
   0  -7 -11 271.519 40.3645   1
   0  -7 -12 216.493 34.7436   1
   0   8  -5 274.871 82.9485   1
   0   8  -4 745.018 96.0346   1
   0   8  -3 53.1695 69.2590   1
   0   8  -2 340.354 81.1444   1
   0   8  -1 1031.17 94.1711   1
   0   8   0 186.071 72.2133   1
   0   8   1 512.054 80.8010   1
   0   8   2 221.275 69.1418   1
   0   8   3 52.1666 26.3511   1
   0   8   4 2009.43 46.2540   1
   0   8   5 617.328 31.1377   1
   0  -5  -8 805.150 95.1824  -2
   0   8   5 805.150 95.1824   1
   0  -6  -8 550.616 33.7576  -2
   0   8   6 550.616 33.7576   1
   0  -7  -8 1397.52 86.2499  -2
   0   8   7 1397.52 86.2499   1
   0  -8  -8 505.993 33.6113  -2
   0   8   8 505.993 33.6113   1
   0  -9  -8 138.258 38.2221  -2
   0   8   9 138.258 38.2221   1
   0 -10  -8 1058.34 52.5729  -2
   0   8  10 1058.34 52.5729   1
   0 -11  -8 462.617 75.8728  -2
   0   8  11 462.617 75.8728   1
   0   8  12 16.9756 69.3419   1
   0   9  -4 24.9423 87.4834   1
   0   9  -3 301.533 81.4566   1
   0   9  -2 446.452 90.5653   1
   0   9  -1-13.3517 77.4250   1
   0   9   0 812.723 96.2437   1
   0   9   1 630.485 90.8217   1
   0   9   2 71.0687 73.3479   1
   0   9   3 634.580 39.6555   1
   0   9   4 1045.21 40.2257   1
   0   9   5 238.595 25.3015   1
   0   9   6 265.469 24.0463   1
   0  -6  -9 752.131 105.656  -2
   0   9   6 752.131 105.656   1
   0  -7  -9 335.102 69.4205  -2
   0   9   7 335.102 69.4205   1
   0  -8  -9 140.022 68.8998  -2
   0   9   8 140.022 68.8998   1
   0  -9  -9 1118.31 100.080  -2
   0   9   9 1118.31 100.080   1
   0 -10  -9 539.443 85.7034  -2
   0   9  10 539.443 85.7034   1
   0 -11  -9 123.774 78.7624  -2
   0   9  11 123.774 78.7624   1
   0 -12  -9 421.253 112.023  -2
   0   9  12 421.253 112.023   1
   0  10  -3 290.963 99.9707   1
   0  10  -2 44.9538 92.7584   1
   0  10  -1 497.745 95.6755   1
   0  10   0 686.608 102.780   1
   0  10   1 46.5193 74.8943   1
   0  10   2 509.027 89.5641   1
   0  10   3 298.521 83.8577   1
   0  10   4 116.725 76.0213   1
   0  10   5 191.460 75.1688   1
   0  10   6 13.2577 72.6454   1
   0  -7 -10 319.806 74.6329  -2
   0  10   7 319.806 74.6329   1
   0  -8 -10 1199.39 91.9137  -2
   0  10   8 1199.39 91.9137   1
   0  -9 -10 561.806 86.8422  -2
   0  10   9 561.806 86.8422   1
   0 -10 -10 423.814 88.5514  -2
   0  10  10 423.814 88.5514   1
   0 -11 -10 1242.95 153.265  -2
   0  10  11 1242.95 153.265   1
   0 -12 -10 58.1930 107.816  -2
   0  10  12 58.1930 107.816   1
   0  11  -1 622.950 104.472   1
   0  11   0 77.3614 97.4874   1
   0  11   1 609.807 104.333   1
   0  11   2 112.423 84.8125   1
   0  11   3 40.8036 83.2083   1
   0  11   4 270.117 88.0773   1
   0  11   5 662.954 101.210   1
   0  11   6 56.2764 75.7193   1
   0  11   7 315.970 60.7842   1
   0  -8 -11 533.759 85.6670  -2
   0  11   8 533.759 85.6670   1
   0  -9 -11 180.331 79.9712  -2
   0  11   9 180.331 79.9712   1
   0 -10 -11 1233.22 155.410  -2
   0  11  10 1233.22 155.410   1
   0 -11 -11 433.460 135.010  -2
   0  11  11 433.460 135.010   1
   0  12   4 439.832 101.610   1
   0  12   5 16.5463 85.9474   1
   0  12   6 440.095 99.1169   1
   0  12   7 471.865 70.9280   1
   0  12   8-32.4522 91.8966   1
  -1  13   6-26.1313 84.4373   1
  -1  13   5 326.053 84.5552   1
  -1  12   8 741.759 104.148   1
  -1  12   7 62.1525 82.0821   1
  -1  12   6 69.9381 82.0195   1
  -1  12   5 160.923 81.2474   1
   1 -10 -11 275.988 129.904  -2
  -1  11  10 275.988 129.904   1
   1  -9 -11 704.355 92.0384  -2
  -1  11   9 704.355 92.0384   1
   1  -8 -11 107.421 78.2632  -2
  -1  11   8 107.421 78.2632   1
  -1  11   7 183.666 59.6408   1
  -1  11   6 154.418 54.5045   1
  -1  11   5 32.4276 51.8797   1
  -1  11   4 474.469 91.0252   1
  -1  11   3 671.770 100.730   1
  -1  11   2 33.8409 74.2805   1
  -1  11   1 281.960 86.6291   1
  -1  11   0 129.382 83.1950   1
  -1  11  -1 38.9154 89.4582   1
  -1  11  -2 342.060 98.0879   1
   1 -11 -10 255.811 122.938  -2
  -1  10  11 255.811 122.938   1
   1 -10 -10 789.119 104.324  -2
  -1  10  10 789.119 104.324   1
   1  -9 -10 148.610 75.6499  -2
  -1  10   9 148.610 75.6499   1
   1  -8 -10 29.3446 72.4058  -2
  -1  10   8 29.3446 72.4058   1
   1  -7 -10 274.202 72.5367  -2
  -1  10   7 274.202 72.5367   1
  -1  10   6 5.84034 50.1954   1
  -1  10   5 388.378 54.4581   1
  -1  10   4 990.491 97.1880   1
  -1  10   3 7.43058 71.2817   1
  -1  10   2 436.045 84.5703   1
  -1  10   1 443.733 44.6698   1
  -1  10   0-12.7404 40.5007   1
  -1  10  -1 584.852 56.6009   1
  -1  10  -2 131.586 47.6792   1
  -1  10  -3 207.653 55.7317   1
   1  -9 -13 183.304 73.4832   1
   1 -12  -9 647.063 119.668  -2
  -1   9  12 647.063 119.668   1
   1 -11  -9 751.619 120.640  -2
  -1   9  11 751.619 120.640   1
   1 -10  -9 123.020 75.8554  -2
  -1   9  10 123.020 75.8554   1
   1  -9  -9 86.6130 71.8097  -2
  -1   9   9 86.6130 71.8097   1
   1  -8  -9 1829.36 105.733  -2
  -1   9   8 1829.36 105.733   1
   1  -7  -9 358.766 69.1291  -2
  -1   9   7 358.766 69.1291   1
  -1   9   6 257.318 74.9266   1
   1  -6  -9 293.505 91.1863  -2
  -1   9   6 293.505 91.1863   1
  -1   9   5 259.062 47.7840   1
  -1   9   4-14.2657 65.4301   1
  -1   9   3 1889.84 33.1561   1
  -1   9   2 725.506 40.5858   1
  -1   9   1 98.9360 35.3283   1
  -1   9   0 302.096 42.5157   1
  -1   9  -1 714.907 54.2926   1
  -1   9  -2 8.16794 44.2117   1
  -1   9  -3 470.123 56.7064   1
  -1   9  -4 69.1990 51.8300   1
  -1   8  13 77.2500 75.6664   1
  -1   8  12 475.313 57.8599   1
   1 -11  -8 150.803 96.4460  -2
  -1   8  11 150.803 96.4460   1
   1 -10  -8 17.9387 96.1486  -2
  -1   8  10 17.9387 96.1486   1
   1  -9  -8 1740.67 105.230  -2
  -1   8   9 1740.67 105.230   1
   1  -8  -8 492.864 78.1241  -2
  -1   8   8 492.864 78.1241   1
   1  -7  -8 241.128 65.6118  -2
  -1   8   7 241.128 65.6118   1
   1  -6  -8 2542.01 90.4979  -2
  -1   8   6 2542.01 90.4979   1
  -1   8   5 207.293 45.4355   1
  -1   8   4 369.843 66.9433   1
  -1   8   3 1000.98 23.3820   1
  -1   8   2-2.13663 59.3969   1
  -1   8   1 338.687 68.3286   1
  -1   8   0 621.816 77.5438   1
  -1   8  -1 9.55010 68.4687   1
  -1   8  -2 480.721 51.2873   1
  -1   8  -3 139.617 45.8648   1
  -1   8  -4 48.0503 45.8519   1
  -1   8  -5 230.782 77.4504   1
   1  -7 -12 430.029 50.8284   1
   1  -7 -11 7.84442 41.3606   1
   1  -7 -10 73.7915 35.9600   1
   1 -10  -7 291.853 89.2745  -2
  -1   7  10 291.853 89.2745   1
   1  -9  -7 416.792 38.3451  -2
  -1   7   9 416.792 38.3451   1
  -1   8   7 236.775 29.4516  -2
   1  -7  -8 236.775 29.4516   1
  -1   7   7 1902.82 42.9518  -2
   1  -7  -7 1902.82 42.9518   1
   1  -6  -7 128.538 54.9517  -2
  -1   7   6 128.538 54.9517   1
   1  -5  -7 682.729 60.2429  -2
  -1   7   5 682.729 60.2429   1
  -1   7   4 704.909 70.7585   1
   1  -7  -3 365.717 19.6004   1
  -1   7   2 899.777 52.8380   1
  -1   7   1 607.923 67.8191   1
  -1   7   0 72.5338 58.9877   1
  -1   7  -1 748.229 76.7474   1
  -1   7  -2 291.862 63.0798   1
  -1   7  -3 11.3398 40.2802   1
  -1   7  -4 563.312 53.1908   1
  -1   7  -5 621.933 57.2137   1
  -1   7  -6 25.4027 72.3215   1
   1  -6 -12 14.5351 36.1875   1
   1  -6 -11 161.180 31.0546   1
  -1   6  10-12.4500 30.8975   1
   1  -6  -9 103.311 34.6477   1
   1  -9  -6 360.186 87.1818  -2
  -1   6   9 360.186 87.1818   1
   1  -8  -6 2555.18 55.4148  -2
  -1   6   8 2555.18 55.4148   1
  -1   7   6 169.520 28.6538  -2
   1  -6  -7 169.520 28.6538   1
   1  -6  -6 1908.03 29.3416  -2
  -1   6   6 1908.03 29.3416   1
   1  -5  -6 2840.28 75.1696  -2
  -1   6   5 2840.28 75.1696   1
   1  -4  -6 1017.10 55.1858  -2
  -1   6   4 1017.10 55.1858   1
  -1   6   3 384.879 55.9309   1
   1  -6  -2 2011.35 60.0207   1
  -1   6   1 35.3930 26.5916   1
  -1   6   0 516.910 42.8627   1
   1  -6   1 139.398 39.0099   1
   1  -6   2 128.136 38.4189   1
  -1   6  -3 1356.96 47.4747   1
  -1   6  -4 706.220 52.0447   1
  -1   6  -5 65.7845 42.7983   1
  -1   6  -6 784.545 57.6735   1
  -1   6  -7 279.156 84.2472   1
   1  -5 -13-0.27313 55.5665   1
   1  -5 -12 679.682 49.6518   1
   1  -5 -11 993.504 52.4596   1
   1  -5 -10 89.1085 27.9857   1
   1  -5  -9 574.541 32.9809   1
   1  -8  -5 180.623 40.0907  -2
  -1   5   8 180.623 40.0907   1
  -1   7   5 542.520 31.7824  -2
   1  -5  -7 542.520 31.7824   1
  -1   6   5 2792.36 49.5308  -2
   1  -5  -6 2792.36 49.5308   1
  -1   5   5 960.838 21.8611  -2
   1  -5  -5 960.838 21.8611   1
   1  -4  -5 842.796 54.6958  -2
  -1   5   4 842.796 54.6958   1
   1  -3  -5 2401.54 93.3121  -2
  -1   5   3 2401.54 93.3121   1
  -1   5   2 18.0707 40.2989   1
  -1   5   1 952.973 59.9807   1
  -1   5   0 2047.56 77.8316   1
  -1   5  -1 33.4794 27.7490   1
   1  -5   2 872.913 43.9957   1
  -1   5  -3 1326.71 51.9096   1
   1  -5   4-18.6524 28.4718   1
   1  -5   5 772.861 39.5686   1
  -1   5  -6 528.528 47.3200   1
  -1   5  -7 27.3474 66.4029   1
  -1   5  -8 256.488 87.1978   1
   1  -4 -13 96.7413 60.9975   1
   1  -4 -12 463.756 46.5520   1
   1  -4 -11 27.4397 32.5138   1
   1  -4 -10 1253.29 52.4315   1
   1  -4  -9 496.772 31.5907   1
   1  -4  -8 29.5482 21.7018   1
  -1   7   4 1824.86 44.6924  -2
   1  -4  -7 1824.86 44.6924   1
  -1   6   4 877.953 31.9673  -2
   1  -4  -6 877.953 31.9673   1
  -1   5   4 908.333 31.4170  -2
   1  -4  -5 908.333 31.4170   1
  -1   4   4 1926.71 34.1044  -2
   1  -4  -4 1926.71 34.1044   1
   1  -3  -4 860.386 49.8725  -2
  -1   4   3 860.386 49.8725   1
   1  -2  -4 2370.97 81.9444  -2
  -1   4   2 2370.97 81.9444   1
   1  -4  -1 3339.30 59.9008   1
   1  -4   0 907.672 38.7533   1
   1  -4   1 104.822 26.6720   1
   1  -4   2 1039.90 40.5041   1
  -1   4  -3 341.057 46.3384   1
  -1   4  -4 1382.55 49.9113   1
  -1   4  -5 283.985 28.3723   1
   1  -4   6 256.467 30.3612   1
  -1   4  -7 378.126 43.3256   1
  -1   4  -8 103.588 69.0811   1
   1  -3 -13 182.270 79.9754   1
   1  -3 -12 62.3724 63.3813   1
   1  -3 -11 428.661 44.5476   1
   1  -3 -10 434.461 32.3957   1
   1  -3  -9 25.5552 23.8148   1
   1  -3  -8 2500.75 49.3842   1
   1  -3  -7 1767.31 32.3993   1
  -1   6   3 313.608 29.8450  -2
   1  -3  -6 313.608 29.8450   1
   1  -5  -3 2117.46 41.7318  -2
  -1   3   5 2117.46 41.7318   1
   1  -4  -3 605.882 27.1114  -2
  -1   3   4 605.882 27.1114   1
  -1   3   3 8.15298 11.6749  -2
   1  -3  -3 8.15298 11.6749   1
   1  -2  -3 369.534 38.0092  -2
  -1   3   2 369.534 38.0092   1
  -1   3   1 27.2608 14.2102   1
  -1   1   3 2622.21 75.2803  -2
   1  -3  -1 2622.21 75.2803   1
   1  -3   0 932.800 25.3373   1
   1  -3   1 5329.71 62.5919   1
  -1   3  -2-1.84129 27.5825   1
  -1   3  -3 1433.63 33.4354   1
  -1   3  -4 1367.59 34.3562   1
  -1   3  -5 17.9023 21.2676   1
  -1   3  -6 1068.24 35.3572   1
  -1   3  -7 145.839 36.4309   1
  -1   3  -8 31.0689 64.5827   1
  -1   3  -9 533.136 89.2569   1
   1  -2 -12 172.563 75.2172   1
   1  -2 -11 436.630 47.2458   1
   1  -2 -10 20.3297 26.9149   1
   1  -2  -9 268.565 29.3656   1
   1  -2  -8 510.865 30.7005   1
   1  -2  -7 135.857 22.5374   1
   1  -2  -6 2751.57 53.6248   1
   1  -2  -5 1269.17 52.7588   1
  -1   5   2 1371.10 44.4585  -2
   1  -2  -5 1371.10 44.4585   1
  -1   4   2 2099.16 52.1283  -2
   1  -2  -4 2099.16 52.1283   1
   1  -3  -2 211.398 36.3173  -2
  -1   2   3 211.398 36.3173   1
   1  -2  -2 251.913 24.6750  -2
  -1   2   2 251.913 24.6750   1
   1  -1  -2 1503.32 32.2712  -2
  -1   2   1 1503.32 32.2712   1
  -1   2   0 12527.8 65.4690   1
  -1   0   2 20633.5 135.783  -2
   1  -2   0 20633.5 135.783   1
   1  -2   1 981.702 22.8734   1
   1  -2   2 4094.09 39.9869   1
   1  -2   3 1281.91 28.4501   1
  -1   2  -4 385.431 17.7199   1
  -1   2  -5 384.718 19.6126   1
   1  -2   6 706.848 24.7968   1
   1  -2   7 14.4486 15.2601   1
  -1   2  -8 453.989 26.0604   1
  -1   2  -9 304.146 73.7156   1
  -1   2 -10 145.620 78.3195   1
   1  -1 -12 293.216 82.3174   1
   1  -1 -11 30.2006 42.3202   1
   1  -1 -10 728.701 49.9999   1
   1  -1  -9 504.929 34.2063   1
   1  -1  -8 0.91488 28.7877   1
   1  -1  -7 964.042 34.0118   1
   1  -1  -6 259.524 22.2656   1
   1  -1  -5 76.4266 20.4205   1
   1  -1  -4 5205.76 86.5683   1
  -1   4   1 7442.51 105.175  -2
   1  -1  -4 7442.51 105.175   1
   1  -1  -3 3624.82 70.1024   1
  -1   3   1 3688.23 54.7026  -2
   1  -1  -3 3688.23 54.7026   1
   1  -2  -1 1218.54 41.4008  -2
  -1   1   2 1218.54 41.4008   1
  -1   1   1 8503.27 93.7201  -2
   1  -1  -1 8503.27 93.7201   1
  -1   0   1 1356.77 20.0369  -2
   1  -1   0 1356.77 20.0369   1
  -1   1  -1 1069.17 21.0295   1
  -1  -1   1 1319.48 34.0075  -2
   1  -1   1 1319.48 34.0075   1
  -1   1  -2 1620.47 17.0336   1
  -1   1  -3 4.04160 9.71518   1
  -1   1  -4 1091.39 20.1962   1
   1  -1   5 1151.01 22.7814   1
  -1   1  -6 77.9396 13.0650   1
   1  -1   7 1153.38 28.1241   1
  -1   1  -8 587.777 23.3442   1
  -1   1  -9 46.9647 66.2335   1
  -1   1 -10 853.013 95.4973   1
   1   0 -11 385.011 86.1515   1
   1   0 -10 1032.14 59.3433   1
   1   0  -9 49.0317 34.2433   1
   1   0  -8 352.308 35.7855   1
   1   0  -7 40.1812 22.5486   1
   1   0  -6 46.1131 22.3671   1
   1   0  -5 451.943 22.5762   1
   1   0  -4 4076.75 45.7467   1
   1   0  -3 865.512 31.2499   1
   1   0  -2 13102.1 78.0196   1
  -1   1   0 1447.50 47.4317  -2
   1   0  -1 1447.50 47.4317   1
   1   1   0 7530.58 86.0441  -2
  -1   0  -1 7530.58 86.0441   1
  -1  -2   0 67.1311 23.7388  -2
   1   0   2 67.1311 23.7388   1
  -1   0  -3 10.5531 20.1992   1
   1   0   4 494.942 10.5570   1
  -1   0  -5 251.210 12.6537   1
  -1   0  -6 1834.34 25.0675   1
  -1   0  -7 1648.00 27.0001   1
  -1   0  -8 47.6167 16.7556   1
  -1   0  -9 147.464 29.8650   1
  -1   0 -10 311.148 76.5610   1
  -1   0 -11 100.156 77.3121   1
   1   1 -10 7.27625 44.3326   1
   1   1  -9 343.956 62.1486   1
   1   1  -8 644.461 34.0857   1
   1   1  -7 1.09201 23.3003   1
   1   1  -6 746.743 55.5691   1
   1   1  -5 1515.24 63.7227   1
   1   1  -4 4.60432 23.7232   1
   1   1  -3 2905.79 48.8332   1
  -1  -1   2 1909.12 38.7995   1
   1   1  -1 349.118 34.3059   1
   1   1   0 4301.94 57.2199   1
  -1  -1  -1 1530.13 26.2908  -2
   1   1   1 1530.13 26.2908   1
  -1  -1  -2 1258.91 22.5755   1
  -1  -2  -1 1266.13 29.4210  -2
   1   1   2 1266.13 29.4210   1
  -1  -1  -3 48.0708 15.4193   1
  -1  -3  -1 2413.43 26.7452  -2
   1   1   3 2413.43 26.7452   1
  -1  -1  -4 216.583 10.6007   1
  -1  -4  -1 245.025 35.5411  -2
   1   1   4 245.025 35.5411   1
  -1  -1  -5 1283.70 20.9254   1
  -1  -1  -6 1880.77 27.0092   1
  -1  -1  -7 1.70761 14.6054   1
  -1  -1  -8 1223.93 28.0820   1
  -1  -1  -9 632.363 24.5689   1
  -1  -1 -10 27.7096 63.6489   1
  -1  -1 -11 630.973 88.4606   1
   1   2 -10 231.423 84.0245   1
   1   2  -9 742.900 72.9160   1
   1   2  -8 259.040 38.2592   1
  -1  -2   7 477.280 41.2413   1
   1   2  -6 601.599 39.9955   1
   1   2  -5-4.27807 42.2005   1
   1   2  -4 1651.48 66.5531   1
   1   2  -3 431.463 31.7788   1
  -1  -2   2 1018.01 36.1014   1
   1   2  -1 1526.61 37.0960   1
   1   2   0 30.4710 35.8192   1
   1   2   1 40.1335 29.8793   1
   1   1   2 612.929 25.7843  -2
  -1  -2  -1 612.929 25.7843   1
  -1  -2  -2 25381.6 176.572  -2
   1   2   2 25381.6 176.572   1
  -1  -3  -2 2700.00 33.2453  -2
   1   2   3 2700.00 33.2453   1
  -1  -4  -2 1802.65 26.2044  -2
   1   2   4 1802.65 26.2044   1
   1   2   5 826.996 28.6750   1
  -1  -5  -2 2658.15 40.5014  -2
   1   2   5 2658.15 40.5014   1
  -1  -2  -6 291.397 14.1919   1
  -1  -2  -7 802.469 32.4861   1
  -1  -2  -8 980.256 28.2807   1
  -1  -2  -9 165.290 21.1568   1
  -1  -2 -10 661.636 36.0813   1
  -1  -2 -11 400.474 80.6753   1
  -1  -2 -12 75.4690 70.5582   1
   1   3  -9 3.15843 61.3745   1
   1   3  -8 386.891 66.5658   1
   1   3  -7 969.815 75.0476   1
   1   3  -6 133.927 35.5084   1
   1   3  -5 1435.93 51.6461   1
  -1  -3   4 2580.17 59.0267   1
   1   3  -3 204.670 43.5024   1
   1   3  -2 1594.92 46.0343   1
   1   3  -1 106.288 41.3051   1
   1   3   0 655.993 47.1744   1
  -1  -3  -1 3267.53 51.0049   1
  -1  -1  -3 3622.75 71.4991  -2
   1   3   1 3622.75 71.4991   1
  -1  -2  -3 3449.56 39.9446  -2
   1   3   2 3449.56 39.9446   1
   1   3   3 3316.49 39.7794  -2
  -1  -3  -3 3316.49 39.7794   1
  -1  -4  -3 4741.77 51.3217  -2
   1   3   4 4741.77 51.3217   1
  -1  -5  -3 823.458 24.7399  -2
   1   3   5 823.458 24.7399   1
  -1  -3  -6 679.175 40.0590   1
   1   6   3 744.268 33.1322  -2
  -1  -3  -6 744.268 33.1322   1
  -1  -3  -7 1299.26 24.8099   1
  -1  -3  -8 124.880 21.6006   1
  -1  -3  -9 309.397 25.7973   1
  -1  -3 -10 414.323 69.2570   1
  -1  -3 -11 24.9873 64.2571   1
  -1  -3 -12 314.124 79.2934   1
   1   4  -8 661.652 78.8541   1
   1   4  -7 34.2362 59.1258   1
   1   4  -6 1835.03 92.4525   1
  -1  -4   5 846.169 48.6640   1
  -1  -4   4 159.579 36.0443   1
  -1  -4   3 598.280 38.4644   1
   1   4  -2 1565.13 70.9705   1
   1   4  -1 74.2637 45.1062   1
   1   4   0 642.071 58.7167   1
   1   4   1 92.6743 45.2603   1
   1   4   2 951.773 59.4960   1
  -1  -2  -4 1661.29 55.7184  -2
   1   4   2 1661.29 55.7184   1
  -1  -3  -4 5048.54 53.4118  -2
   1   4   3 5048.54 53.4118   1
   1   4   4 4375.96 47.7184  -2
  -1  -4  -4 4375.96 47.7184   1
   1   5   4 428.239 27.4586  -2
  -1  -4  -5 428.239 27.4586   1
  -1  -6  -4 2786.13 45.1413  -2
   1   4   6 2786.13 45.1413   1
  -1  -4  -7 589.715 48.8569   1
  -1  -7  -4 1898.85 46.4042  -2
   1   4   7 1898.85 46.4042   1
  -1  -4  -8 600.943 26.9021   1
  -1  -4  -9 233.007 21.5731   1
  -1  -4 -10 25.9229 23.4655   1
  -1  -4 -11 266.799 68.5520   1
  -1  -4 -12 105.502 69.2534   1
  -1  -4 -13 11.9404 75.2332   1
   1   5  -8 249.975 79.4128   1
   1   5  -7 171.676 67.6759   1
   1   5  -6 434.065 73.8704   1
   1   5  -5 68.4597 62.4911   1
   1   5  -4 282.220 62.5191   1
   1   5  -3 1343.95 55.0626   1
   1   5  -2-8.80809 34.1558   1
  -1  -5   1 2204.87 60.3723   1
   1   5   0 273.229 53.1044   1
   1   5   1-2.83115 51.0562   1
   1   5   2 2587.63 51.5752   1
  -1  -3  -5 890.568 35.8745  -2
   1   5   3 890.568 35.8745   1
  -1  -4  -5 259.185 24.1245  -2
   1   5   4 259.185 24.1245   1
   1   5   5 1171.61 35.8782  -2
  -1  -5  -5 1171.61 35.8782   1
   1   6   5 961.188 33.0532  -2
  -1  -5  -6 961.188 33.0532   1
  -1  -7  -5 665.443 35.1179  -2
   1   5   7 665.443 35.1179   1
  -1  -8  -5 1471.60 42.3141  -2
   1   5   8 1471.60 42.3141   1
   1   5   9 18.8603 23.9175   1
  -1  -5 -10 659.146 29.9334   1
  -1  -5 -11 360.226 39.4292   1
  -1  -5 -12 27.9406 63.9128   1
  -1  -5 -13 210.361 78.4966   1
   1   6  -7 512.105 62.6691   1
   1   6  -6 136.664 73.2910   1
   1   6  -5 23.1380 68.9344   1
   1   6  -4 329.422 70.6875   1
   1   6  -3 20.8918 62.6304   1
   1   6  -2 1271.33 85.5598   1
  -1  -6   1 977.348 43.6522   1
   1   6   0 8.43818 29.1287   1
   1   6   1 1599.69 86.1593   1
   1   6   2 769.605 36.5017   1
   1   6   3 170.040 26.6269   1
   1   3   6 563.999 70.6076  -2
  -1  -6  -3 563.999 70.6076   1
  -1  -4  -6 2296.38 48.6201  -2
   1   6   4 2296.38 48.6201   1
   1   5   6 849.888 32.7511  -2
  -1  -6  -5 849.888 32.7511   1
  -1  -6  -6 1662.41 46.0752  -2
   1   6   6 1662.41 46.0752   1
  -1  -7  -6 1454.96 48.9303  -2
   1   6   7 1454.96 48.9303   1
   1   8   6 576.674 38.6385  -2
  -1  -6  -8 576.674 38.6385   1
   1   9   6 743.991 41.0077  -2
  -1  -6  -9 743.991 41.0077   1
  -1  -6 -10 858.726 37.0168   1
   1   6  11 195.590 31.2799   1
  -1  -6 -12 90.9948 66.9331   1
  -1  -6 -13 488.070 86.2743   1
   1   7  -6 180.310 84.5253   1
   1   7  -5 274.441 58.2610   1
   1   7  -4 64.2756 51.2646   1
   1   7  -3 324.251 53.5960   1
   1   7  -2 644.237 84.7581   1
   1   7  -1 28.6769 65.0121   1
   1   7   0 2026.28 102.791   1
   1   7   1 470.716 69.2795   1
  -1  -7  -2 61.8956 36.6086   1
   1   7   3 2737.77 51.7063   1
   1   7   4 1941.59 51.1022   1
   1   4   7 2436.11 103.301  -2
  -1  -7  -4 2436.11 103.301   1
   1   5   7 477.778 35.9342  -2
  -1  -7  -5 477.778 35.9342   1
   1   6   7 1118.22 38.0647  -2
  -1  -7  -6 1118.22 38.0647   1
   1   7   7 21.1469 29.5380  -2
  -1  -7  -7 21.1469 29.5380   1
  -1  -8  -7 151.040 40.0625  -2
   1   7   8 151.040 40.0625   1
  -1  -9  -7 1088.37 54.2292  -2
   1   7   9 1088.37 54.2292   1
   1  10   7 780.586 52.3592  -2
  -1  -7 -10 780.586 52.3592   1
   1   7  11 272.837 38.4339   1
  -1  -7 -12 349.621 69.9697   1
  -1  -7 -13 17.7466 70.7350   1
   1   8  -5 55.2421 83.9612   1
   1   8  -4 53.7727 76.3757   1
   1   8  -3 661.990 98.8469   1
   1   8  -2 33.3347 72.6612   1
   1   8  -1 333.785 77.4673   1
   1   8   0 701.215 86.3606   1
   1   8   1 32.4102 69.2101   1
   1   8   2 1315.58 53.2080   1
   1   8   3 647.506 79.2961   1
   1   8   4 49.9468 29.1348   1
   1   8   5 615.059 43.2524   1
  -1  -5  -8 1364.62 107.782  -2
   1   8   5 1364.62 107.782   1
  -1  -6  -8 454.867 43.3901  -2
   1   8   6 454.867 43.3901   1
  -1  -7  -8 176.064 31.7155  -2
   1   8   7 176.064 31.7155   1
   1   8   8 265.566 36.6306  -2
  -1  -8  -8 265.566 36.6306   1
  -1  -9  -8 535.854 50.4873  -2
   1   8   9 535.854 50.4873   1
  -1 -10  -8 294.284 48.7414  -2
   1   8  10 294.284 48.7414   1
   1  11   8 1188.83 60.6383  -2
  -1  -8 -11 1188.83 60.6383   1
   1   9  -5 117.511 95.9026   1
   1   9  -4 247.822 98.2020   1
   1   9  -3 64.3778 84.6483   1
   1   9  -2 263.178 90.7739   1
   1   9  -1 481.240 95.8185   1
   1   9   0 217.079 81.4767   1
   1   9   1 818.489 98.1816   1
   1   9   2 237.688 40.7652   1
   1   9   3 69.7144 33.7628   1
   1   9   4 452.043 80.2471   1
   1   9   5 536.673 38.9186   1
   1   9   6 115.428 33.3578   1
  -1  -6  -9 414.247 97.4186  -2
   1   9   6 414.247 97.4186   1
  -1  -7  -9 984.653 51.8567  -2
   1   9   7 984.653 51.8567   1
  -1  -8  -9 530.462 78.7760  -2
   1   9   8 530.462 78.7760   1
  -1  -9  -9 159.757 36.9067  -2
   1   9   9 159.757 36.9067   1
  -1 -10  -9 1147.45 97.3511  -2
   1   9  10 1147.45 97.3511   1
  -1 -11  -9 444.363 81.6834  -2
   1   9  11 444.363 81.6834   1
  -1 -12  -9 142.017 100.198  -2
   1   9  12 142.017 100.198   1
   1  10  -3 258.248 108.661   1
   1  10  -2 897.985 115.572   1
   1  10  -1 116.256 89.3723   1
   1  10   0 211.415 90.9734   1
   1  10   1 300.062 93.5403   1
   1  10   2 17.2499 81.9622   1
   1  10   3 356.672 91.0375   1
   1  10   4 68.9801 76.0215   1
   1  10   5 26.4934 77.4035   1
   1  10   6 849.177 95.5801   1
  -1  -7 -10 742.176 111.369  -2
   1  10   7 742.176 111.369   1
  -1  -8 -10 386.272 111.065  -2
   1  10   8 386.272 111.065   1
  -1  -9 -10 1277.27 102.131  -2
   1  10   9 1277.27 102.131   1
  -1 -10 -10 613.858 91.3877  -2
   1  10  10 613.858 91.3877   1
  -1 -11 -10 261.460 115.192  -2
   1  10  11 261.460 115.192   1
  -1 -12 -10 296.292 116.034  -2
   1  10  12 296.292 116.034   1
   1  11   0 263.638 101.766   1
   1  11   1 33.0870 98.5971   1
   1  11   2 340.721 102.035   1
   1  11   3 131.521 89.5756   1
   1  11   4 11.0946 83.9310   1
   1  11   5 515.749 94.2285   1
   1  11   6 1364.62 116.553   1
   1  11   7 16.0926 77.7668   1
  -1  -8 -11 1222.16 133.822  -2
   1  11   8 1222.16 133.822   1
  -1  -9 -11 486.638 89.7326  -2
   1  11   9 486.638 89.7326   1
  -1 -10 -11 254.770 117.250  -2
   1  11  10 254.770 117.250   1
  -1 -11 -11 648.992 140.791  -2
   1  11  11 648.992 140.791   1
  -1 -12 -11 178.200 117.758  -2
   1  11  12 178.200 117.758   1
   1  12   4 253.973 103.179   1
   1  12   5 474.200 106.391   1
   1  12   6 49.6336 86.2827   1
   1  12   7 397.637 96.2040   1
   1  12   8 124.286 93.4720   1
  -1  -8 -12 259.792 126.015  -2
   1  12   8 259.792 126.015   1
  -2  12   8 93.1234 75.6012   1
  -2  12   7 175.522 87.1861   1
  -2  12   6 96.4543 71.3071   1
  -2  12   5 346.399 82.7723   1
   2  -9 -11 162.059 119.320  -2
  -2  11   9 162.059 119.320   1
   2  -8 -11 724.144 89.4539  -2
  -2  11   8 724.144 89.4539   1
  -2  11   7 17.7482 52.7369   1
  -2  11   6 147.161 54.8130   1
  -2  11   5 540.905 60.9702   1
  -2  11   4 16.0504 52.1264   1
  -2  11   3 851.628 64.3664   1
  -2  11   2 368.293 88.0781   1
  -2  11   1 158.629 84.2374   1
  -2  11   0 231.700 83.1991   1
  -2  11  -1 75.8351 82.6115   1
   2 -10 -10 226.109 124.101  -2
  -2  10  10 226.109 124.101   1
   2  -9 -10 674.145 94.6265  -2
  -2  10   9 674.145 94.6265   1
   2  -8 -10 86.8689 76.3068  -2
  -2  10   8 86.8689 76.3068   1
   2  -7 -10 401.453 76.0606  -2
  -2  10   7 401.453 76.0606   1
  -2  10   6 630.662 60.1345   1
  -2  10   5 78.9485 45.5110   1
  -2  10   4 386.616 53.5256   1
  -2  10   3 820.018 59.0924   1
  -2  10   2 2.74685 43.5329   1
  -2  10   1 550.326 89.2283   1
  -2  10   0 117.691 77.2641   1
  -2  10  -1 22.1685 72.9364   1
  -2  10  -2 352.805 82.6303   1
  -2   9  12 214.453 89.0735   1
   2 -11  -9 98.8581 110.316  -2
  -2   9  11 98.8581 110.316   1
   2 -10  -9 604.378 128.081  -2
  -2   9  10 604.378 128.081   1
   2  -9  -9 164.671 108.537  -2
  -2   9   9 164.671 108.537   1
   2  -8  -9 86.3596 70.7091  -2
  -2   9   8 86.3596 70.7091   1
   2  -7  -9 1732.51 91.1732  -2
  -2   9   7 1732.51 91.1732   1
   2  -6  -9-16.3736 62.2604  -2
  -2   9   6-16.3736 62.2604   1
  -2   9   5 798.275 57.0327   1
  -2   9   4 286.404 49.0969   1
  -2   9   3 192.031 44.5528   1
  -2   9   2 783.536 32.4572   1
  -2   9   1 691.850 42.5902   1
  -2   9   0 62.7884 36.3158   1
  -2   9  -1 325.063 45.9644   1
  -2   9  -2 38.0723 42.2418   1
  -2   9  -3 120.190 48.6774   1
  -2   9  -4 353.861 82.5009   1
   2  -8 -13 298.493 76.2245   1
   2  -8 -12-21.6096 50.3247   1
   2 -11  -8 638.421 112.860  -2
  -2   8  11 638.421 112.860   1
   2 -10  -8 146.097 99.6088  -2
  -2   8  10 146.097 99.6088   1
   2  -9  -8 31.3480 93.9215  -2
  -2   8   9 31.3480 93.9215   1
   2  -8  -8 1732.32 89.9452  -2
  -2   8   8 1732.32 89.9452   1
   2  -7  -8 152.272 65.4499  -2
  -2   8   7 152.272 65.4499   1
   2  -6  -8 754.795 69.3726  -2
  -2   8   6 754.795 69.3726   1
  -2   8   5 892.583 83.0377   1
   2  -5  -8 1502.00 94.8826  -2
  -2   8   5 1502.00 94.8826   1
  -2   8   4 20.4491 40.0940   1
  -2   8   3 189.536 40.4271   1
  -2   8   2 841.547 30.2944   1
  -2   8   1 0.98211 28.7252   1
  -2   8   0 335.768 38.3468   1
  -2   8  -1 222.036 37.6301   1
  -2   8  -2 34.3802 39.1829   1
  -2   8  -3 670.469 53.4465   1
  -2   8  -4 204.238 47.2102   1
  -2   8  -5 57.7559 72.5215   1
   2  -7 -13-12.6313 72.3074   1
   2  -7 -12 140.275 66.9114   1
  -2   7  11 379.246 56.3263   1
   2 -10  -7 295.607 97.9488  -2
  -2   7  10 295.607 97.9488   1
   2  -9  -7 1660.88 124.011  -2
  -2   7   9 1660.88 124.011   1
   2  -7  -8 137.983 12.1229   1
   2  -8  -7 157.362 92.0754  -2
  -2   7   8 157.362 92.0754   1
   2  -7  -7 218.314 55.1386  -2
  -2   7   7 218.314 55.1386   1
   2  -6  -7 2959.58 103.340  -2
  -2   7   6 2959.58 103.340   1
   2  -5  -7 717.207 60.7148  -2
  -2   7   5 717.207 60.7148   1
  -2   7   4 574.735 44.3104   1
  -2   7   3 318.112 37.9457   1
  -2   7   2 9.10367 17.8851   1
  -2   7   1 1626.25 45.5307   1
  -2   7   0 210.808 33.0743   1
  -2   7  -1 18.9844 33.6713   1
  -2   7  -2 836.610 49.0698   1
  -2   7  -3 1249.15 57.3806   1
  -2   7  -4 15.3289 39.2287   1
  -2   7  -5 398.468 75.7234   1
  -2   7  -6 243.903 80.0794   1
   2  -6 -13 47.8206 70.2917   1
   2  -6 -12 153.424 70.3429   1
   2  -6 -11 38.3609 37.0068   1
   2  -6 -10 1098.34 43.1386   1
   2  -6  -9 22.0863 31.8943   1
   2  -9  -6-17.6302 84.2401  -2
  -2   6   9-17.6302 84.2401   1
   2  -8  -6 636.406 39.7227  -2
  -2   6   8 636.406 39.7227   1
  -2   7   6 3512.60 57.2678  -2
   2  -6  -7 3512.60 57.2678   1
   2  -6  -6 1131.86 65.4339  -2
  -2   6   6 1131.86 65.4339   1
   2  -5  -6 533.479 59.0871  -2
  -2   6   5 533.479 59.0871   1
   2  -4  -6 2290.67 58.8858  -2
  -2   6   4 2290.67 58.8858   1
  -2   6   3 200.379 32.9348   1
  -2   3   6 318.067 71.1292  -2
   2  -6  -3 318.067 71.1292   1
  -2   6   2 1287.98 25.4364   1
  -2   6   1 1500.54 30.0362   1
  -2   6   0 1.75733 20.6851   1
   2  -6   1 256.096 29.1759   1
  -2   6  -2 571.328 35.2491   1
  -2   6  -3 150.222 33.2009   1
   2  -6   4 788.443 40.8671   1
  -2   6  -5 590.484 47.0266   1
  -2   6  -6 8.82080 66.7845   1
  -2   6  -7 283.012 82.4693   1
   2  -5 -12 28.5297 40.9000   1
   2  -5 -11 513.440 46.9411   1
   2  -5 -10 384.615 40.6388   1
   2  -5  -9 65.0406 27.2761   1
   2  -5  -8 750.930 46.1775   1
   2  -8  -5 1336.64 98.8262  -2
  -2   5   8 1336.64 98.8262   1
  -2   7   5 853.337 41.6024  -2
   2  -5  -7 853.337 41.6024   1
   2  -6  -5 488.169 29.8333  -2
  -2   5   6 488.169 29.8333   1
   2  -5  -5 3876.20 76.1812  -2
  -2   5   5 3876.20 76.1812   1
   2  -4  -5 789.318 55.9982  -2
  -2   5   4 789.318 55.9982   1
   2  -3  -5 160.130 38.7756  -2
  -2   5   3 160.130 38.7756   1
  -2   5   2 377.031 16.5557   1
  -2   5   1 105.120 17.2764   1
  -2   5   0 1354.77 39.2491   1
   2  -5   1 1135.14 34.8037   1
   2  -5   2 23.8056 23.2505   1
   2  -5   3 705.075 34.2021   1
   2  -5   4 637.323 36.8335   1
  -2   5  -5 110.004 27.2840   1
  -2   5  -6 366.490 75.1343   1
  -2   5  -7 421.221 83.3322   1
   2  -4 -13 24.7407 54.4567   1
   2  -4 -12 307.217 48.6312   1
   2  -4 -11 654.733 51.6604   1
   2  -4 -10 28.0841 33.7425   1
   2  -4  -9 682.483 44.1891   1
   2  -4  -8 2.07369 24.4355   1
   2  -4  -7 7.12384 30.2029   1
  -2   7   4 429.352 52.0533  -2
   2  -4  -7 429.352 52.0533   1
  -2   6   4 2688.34 60.4247  -2
   2  -4  -6 2688.34 60.4247   1
  -2   5   4 820.859 46.4409  -2
   2  -4  -5 820.859 46.4409   1
   2  -4  -4 2433.13 27.7232  -2
  -2   4   4 2433.13 27.7232   1
   2  -3  -4 752.188 48.4527  -2
  -2   4   3 752.188 48.4527   1
   2  -2  -4 1226.61 45.2893  -2
  -2   4   2 1226.61 45.2893   1
  -2   4   1 361.208 18.2480   1
  -2   1   4 432.622 58.9288  -2
   2  -4  -1 432.622 58.9288   1
   2  -4   0 2490.78 30.3764   1
  -2   4  -1 533.827 25.5476   1
   2  -4   2 2110.37 40.1741   1
  -2   4  -3 602.037 34.6696   1
  -2   4  -4 43.9057 16.8895   1
  -2   4  -5 342.815 23.1379   1
  -2   4  -6 248.879 32.0624   1
  -2   4  -7 4.30242 65.3613   1
  -2   4  -8 566.030 87.5150   1
   2  -3 -13 159.589 78.2279   1
   2  -3 -12 245.607 45.7511   1
   2  -3 -11 11.1705 37.9987   1
   2  -3 -10 1348.38 59.2890   1
   2  -3  -9 926.304 49.0000   1
   2  -3  -8 21.0147 35.2584   1
   2  -3  -7 822.883 44.3149   1
   2  -3  -6 107.913 46.4647   1
  -2   6   3 272.929 44.0861  -2
   2  -3  -6 272.929 44.0861   1
   2  -5  -3 206.806 42.1805  -2
  -2   3   5 206.806 42.1805   1
   2  -4  -3 823.395 78.9241  -2
  -2   3   4 823.395 78.9241   1
   2  -3  -3 282.367 21.9751  -2
  -2   3   3 282.367 21.9751   1
  -2   2   3 1668.37 31.8730  -2
   2  -3  -2 1668.37 31.8730   1
  -2   1   3 7101.50 42.4667  -2
   2  -3  -1 7101.50 42.4667   1
  -2   3   0 490.547 26.0200   1
  -2   0   3 1985.79 70.1057  -2
   2  -3   0 1985.79 70.1057   1
  -2   3  -1 1444.26 30.7536   1
   2  -3   2 1752.30 28.7182   1
  -2   3  -3 7.12395 10.4340   1
   2  -3   4 776.117 19.9416   1
   2  -3   5 800.966 22.1272   1
  -2   3  -6 54.6335 16.3350   1
  -2   3  -7 424.208 72.0808   1
  -2   3  -8 428.625 81.6868   1
  -2   3  -9-5.64985 73.9497   1
   2  -2 -12-24.3506 66.4981   1
   2  -2 -11 323.791 49.1447   1
   2  -2 -10 1117.30 58.0049   1
   2  -2  -9 39.0809 49.7120   1
   2  -2  -8 1070.84 51.5335   1
   2  -2  -7 53.7051 30.9090   1
   2  -2  -6 291.312 33.3788   1
  -2   5   2 1032.81 49.7183  -2
   2  -2  -5 1032.81 49.7183   1
  -2   4   2 1203.57 49.6729  -2
   2  -2  -4 1203.57 49.6729   1
   2  -3  -2 1771.90 57.3941  -2
  -2   2   3 1771.90 57.3941   1
   2  -2  -2 7915.25 55.3835  -2
  -2   2   2 7915.25 55.3835   1
  -2   1   2 4196.47 35.6481  -2
   2  -2  -1 4196.47 35.6481   1
  -2   0   2 6408.05 34.6129  -2
   2  -2   0 6408.05 34.6129   1
  -2   2  -1 3689.69 34.0507   1
  -2   2  -2 1301.44 25.8702   1
  -2   2  -3 166.727 18.1617   1
  -2   2  -4 198.910 16.0748   1
  -2   2  -5 16.4138 13.0962   1
  -2   2  -6 942.188 14.5183   1
   2  -2   7 1053.01 37.1253   1
  -2   2  -8-16.9379 68.2255   1
  -2   2  -9 158.128 69.9063   1
   2  -1 -11 257.968 50.8997   1
   2  -1 -10 33.9213 54.5949   1
   2  -1  -9 848.234 73.8511   1
   2  -1  -8 298.302 39.6226   1
   2  -1  -7 21.4585 31.0150   1
   2  -1  -6 2797.25 62.0769   1
   2  -1  -5 1800.29 49.3695   1
   2  -1  -4 21.6190 35.9433   1
  -2   4   1 338.018 56.8619  -2
   2  -1  -4 338.018 56.8619   1
  -2   3   1 6638.61 115.219  -2
   2  -1  -3 6638.61 115.219   1
  -2   2   1 4023.02 106.584  -2
   2  -1  -2 4023.02 106.584   1
  -2   1   1 1.50138 15.6244  -2
   2  -1  -1 1.50138 15.6244   1
  -2   0   1 1026.54 26.1469  -2
   2  -1   0 1026.54 26.1469   1
   2   1  -1 292.896 19.4781  -2
  -2   1  -1 292.896 19.4781   1
  -2   1  -2 1189.44 22.2107   1
   2   2  -1 1187.13 42.9314  -2
  -2   1  -2 1187.13 42.9314   1
   2  -1   3 941.224 17.1111   1
  -2   1  -4 29.4543 14.4988   1
   2  -1   5 433.651 19.3395   1
  -2   1  -6 1869.63 85.6674   1
  -2   1  -7 28.9919 55.7787   1
  -2   1  -8 1022.45 87.0136   1
  -2   1  -9 163.758 69.2830   1
  -2   1 -10 46.4517 77.9441   1
   2   0 -11 2.84667 49.4820   1
   2   0 -10 191.245 62.2721   1
   2   0  -9 423.116 66.8653   1
   2   0  -8 45.6970 33.7895   1
   2   0  -7 455.779 39.1956   1
   2   0  -6 1063.43 37.3177   1
   2   0  -5 8.33306 26.5489   1
   2   0  -4 2305.05 52.1943   1
   2   0  -3 2075.51 68.7351   1
  -2   2   0 5983.13 102.360  -2
   2   0  -2 5983.13 102.360   1
  -2   1   0 924.390 33.3257  -2
   2   0  -1 924.390 33.3257   1
  -2   0   0 382.437 23.0536  -2
   2   0   0 382.437 23.0536   1
  -2  -1   0 602.457 27.0643  -2
   2   0   1 602.457 27.0643   1
   2   0   2 3374.74 41.0964   1
   2   2   0 4890.91 42.8178  -2
  -2   0  -2 4890.91 42.8178   1
  -2   0  -3 772.785 47.7249   1
  -2  -3   0 2192.34 48.3536  -2
   2   0   3 2192.34 48.3536   1
  -2   0  -4 1618.75 37.0297   1
  -2   0  -5 1705.71 72.5339   1
  -2   0  -6 156.410 49.6419   1
  -2   0  -7 474.304 62.1744   1
  -2   0  -8 964.346 81.3276   1
  -2   0  -9 20.5974 61.1230   1
  -2   0 -10 394.464 81.3001   1
  -2   0 -11 325.642 88.2417   1
   2   1 -10 227.291 68.0508   1
   2   1  -9 18.8164 55.9415   1
   2   1  -8 416.064 65.2242   1
   2   1  -7 116.402 28.0806   1
  -2  -1   6 6.59362 29.9222   1
  -2  -1   5 2628.87 60.4374   1
   2   1  -4 2356.99 77.4325   1
   2   1  -3 206.864 40.9383   1
   2   1  -2 4383.85 88.4515   1
  -2   1  -1 413.914 53.8819  -2
   2   1  -1 413.914 53.8819   1
  -2   0  -1 721.857 38.2659  -2
   2   1   0 721.857 38.2659   1
  -2  -1  -1 538.265 28.3570  -2
   2   1   1 538.265 28.3570   1
   2   2   1 2784.18 31.4167  -2
  -2  -1  -2 2784.18 31.4167   1
   2   1   3 1436.06 16.9183   1
   2   3   1 1622.87 72.7044  -2
  -2  -1  -3 1622.87 72.7044   1
   2   4   1 1979.09 47.4698  -2
  -2  -1  -4 1979.09 47.4698   1
  -2  -1  -5 4.27649 23.7071   1
  -2  -1  -6 965.564 64.6951   1
  -2  -1  -7 1811.90 85.0393   1
  -2  -1  -8 79.4177 59.1498   1
  -2  -1  -9 783.078 81.1516   1
  -2  -1 -10 384.551 77.1813   1
  -2  -1 -11 26.1845 73.5869   1
   2   2 -10-35.4911 67.8958   1
   2   2  -9 235.531 68.5987   1
   2   2  -8 768.707 79.6941   1
   2   2  -7 77.4910 55.9452   1
  -2  -2   6 1536.65 57.6202   1
   2   2  -5 261.986 35.9673   1
  -2  -2   4 176.088 30.6849   1
   2   2  -3 819.255 56.7781   1
   2   2  -2 3198.23 84.4276   1
   2   2  -1 12.3827 38.7119   1
  -2  -2   0 2342.34 45.6555   1
   2   1   2 1638.62 38.4793  -2
  -2  -2  -1 1638.62 38.4793   1
   2   2   2 3675.54 45.9507  -2
  -2  -2  -2 3675.54 45.9507   1
  -2  -3  -2 8641.70 57.0457  -2
   2   2   3 8641.70 57.0457   1
  -2  -2  -4 451.495 23.9575   1
  -2  -4  -2 1364.91 39.5887  -2
   2   2   4 1364.91 39.5887   1
  -2  -2  -5 66.0079 13.7270   1
   2   5   2 59.3877 21.3457  -2
  -2  -2  -5 59.3877 21.3457   1
   2   2   6 1866.66 26.5943   1
   2   2   7 360.367 35.5351   1
  -2  -2  -8 584.611 68.9449   1
  -2  -2  -9 642.999 74.9110   1
  -2  -2 -10 10.0346 62.0620   1
  -2  -2 -11 132.744 73.7535   1
  -2  -2 -12 163.118 80.4890   1
   2   3  -9 613.446 85.8679   1
   2   3  -8 54.3703 66.2079   1
   2   3  -7 956.733 79.8601   1
   2   3  -6 1138.62 82.7071   1
  -2  -3   5 13.2157 33.8094   1
   2   3  -4 290.361 37.4592   1
   2   3  -3 826.796 42.4882   1
   2   3  -2-0.96839 41.5306   1
   2   3  -1 1938.70 75.5608   1
   2   3   0 1890.56 67.4955   1
  -2  -3  -1 255.922 29.2474   1
  -2  -2  -3 7057.01 64.2952  -2
   2   3   2 7057.01 64.2952   1
   2   3   3 3946.55 52.0717  -2
  -2  -3  -3 3946.55 52.0717   1
   2   4   3 1078.00 30.8627  -2
  -2  -3  -4 1078.00 30.8627   1
   2   5   3 1876.77 34.6141  -2
  -2  -3  -5 1876.77 34.6141   1
  -2  -3  -6 554.896 24.5887   1
   2   6   3 980.953 34.5499  -2
  -2  -3  -6 980.953 34.5499   1
  -2  -3  -7 68.3286 11.2655   1
  -2  -3  -8 691.011 18.1798   1
  -2  -3  -9 96.5596 10.4703   1
  -2  -3 -10 723.380 80.0977   1
  -2  -3 -11 398.997 81.9717   1
  -2  -3 -12-21.1557 75.3021   1
   2   4  -9 3.08447 77.1984   1
   2   4  -8 568.128 83.4021   1
   2   4  -7 813.716 85.4683   1
   2   4  -6 303.430 68.1826   1
   2   4  -5 516.047 69.0305   1
   2   4  -4 332.012 60.5023   1
  -2  -4   3 78.0783 32.5497   1
  -2  -4   2 518.871 37.8605   1
   2   4  -1 199.782 49.9503   1
   2   4   0 323.404 52.4407   1
   2   4   1 1754.37 72.3303   1
  -2  -1  -4 2242.56 72.0725  -2
   2   4   1 2242.56 72.0725   1
  -2  -4  -2 1478.80 64.7644   1
  -2  -2  -4 1986.24 54.6077  -2
   2   4   2 1986.24 54.6077   1
  -2  -3  -4 752.995 29.5860  -2
   2   4   3 752.995 29.5860   1
  -2  -4  -4 4941.41 56.8692  -2
   2   4   4 4941.41 56.8692   1
   2   5   4 1912.28 48.6353  -2
  -2  -4  -5 1912.28 48.6353   1
   2   6   4 1058.24 31.0074  -2
  -2  -4  -6 1058.24 31.0074   1
  -2  -4  -7 1164.98 37.7671   1
   2   7   4 1617.45 44.9973  -2
  -2  -4  -7 1617.45 44.9973   1
  -2  -4  -8 29.0896 17.8286   1
  -2  -4  -9 721.415 20.8910   1
  -2  -4 -10 482.876 72.8851   1
  -2  -4 -11 114.458 69.4636   1
  -2  -4 -12 271.779 79.0185   1
   2   5  -8 307.333 84.1289   1
   2   5  -7 34.0001 66.6456   1
   2   5  -6 235.531 75.8633   1
   2   5  -5 377.687 76.6597   1
   2   5  -4 88.0549 59.7391   1
   2   5  -3 586.306 69.1033   1
  -2  -5   2 1978.25 62.5172   1
  -2  -5   1 141.371 32.8207   1
   2   5   0 1722.10 80.2195   1
   2   5   1 142.960 51.1616   1
   2   5   2-4.81621 31.6287   1
   2   5   3 2410.05 85.1373   1
  -2  -3  -5 2783.58 60.7075  -2
   2   5   3 2783.58 60.7075   1
   2   4   5 2859.35 61.2067  -2
  -2  -5  -4 2859.35 61.2067   1
   2   5   5 820.142 42.5555  -2
  -2  -5  -5 820.142 42.5555   1
   2   6   5 2310.39 49.2605  -2
  -2  -5  -6 2310.39 49.2605   1
   2   7   5 129.564 25.5959  -2
  -2  -5  -7 129.564 25.5959   1
  -2  -5  -8 517.866 46.1115   1
   2   8   5 678.986 36.9715  -2
  -2  -5  -8 678.986 36.9715   1
   2   5   9 804.358 30.1258   1
  -2  -5 -10 207.321 23.6985   1
  -2  -5 -11 78.7195 65.7330   1
  -2  -5 -12 473.875 83.7573   1
  -2  -5 -13 30.6012 80.3627   1
   2   6  -8 20.7680 82.0686   1
   2   6  -7 232.190 89.5531   1
   2   6  -6 646.024 90.5644   1
   2   6  -5 63.8999 72.7138   1
   2   6  -4 750.669 86.1650   1
   2   6  -3 591.576 77.4559   1
   2   6  -2 34.3594 63.9952   1
   2   6  -1 1237.59 85.4460   1
   2   6   0 1383.28 56.2847   1
  -2  -6  -1 8.68248 25.8002   1
   2   6   2 424.411 34.5453   1
  -2  -6  -3 626.121 43.8660   1
  -2  -4  -6 1006.78 57.1987  -2
   2   6   4 1006.78 57.1987   1
   2   5   6 2372.55 61.4006  -2
  -2  -6  -5 2372.55 61.4006   1
   2   6   6 899.356 32.9065  -2
  -2  -6  -6 899.356 32.9065   1
   2   7   6 261.661 33.0107  -2
  -2  -6  -7 261.661 33.0107   1
  -2  -8  -6 889.391 36.5292  -2
   2   6   8 889.391 36.5292   1
  -2  -9  -6 1103.59 42.1526  -2
   2   6   9 1103.59 42.1526   1
   2   6  10 402.005 36.1194   1
  -2  -6 -11 606.212 58.4126   1
  -2  -6 -12 100.824 73.1798   1
  -2  -6 -13 111.056 77.5536   1
   2   7  -7 249.656 92.3566   1
   2   7  -6 359.623 94.1634   1
   2   7  -5 226.820 84.1511   1
   2   7  -4 403.673 85.8347   1
   2   7  -3 42.8144 74.8044   1
   2   7  -2 464.226 81.0997   1
   2   7  -1 1244.73 95.2952   1
   2   7   0 48.4208 63.0213   1
   2   7   1 1923.00 53.4549   1
   2   7   2 945.701 47.5747   1
  -2  -7  -3 9.22871 26.6399   1
   2   7   4 603.080 70.6993   1
   2   4   7 1692.83 93.5153  -2
  -2  -7  -4 1692.83 93.5153   1
   2   5   7 193.809 54.9928  -2
  -2  -7  -5 193.809 54.9928   1
  -2  -6  -7 173.323 31.2640  -2
   2   7   6 173.323 31.2640   1
   2   7   7 1064.32 38.4507  -2
  -2  -7  -7 1064.32 38.4507   1
   2   8   7 500.104 36.6514  -2
  -2  -7  -8 500.104 36.6514   1
   2   9   7 207.722 37.5969  -2
  -2  -7  -9 207.722 37.5969   1
  -2 -10  -7 1535.50 60.6284  -2
   2   7  10 1535.50 60.6284   1
   2   7  11 76.8170 39.2251   1
  -2 -11  -7 348.735 111.988  -2
   2   7  11 348.735 111.988   1
   2   7  12 279.422 53.4317   1
  -2  -7 -13 160.428 78.1603   1
   2   8  -6 16.5860 88.4526   1
   2   8  -5 324.200 68.5687   1
   2   8  -4 26.4505 59.4438   1
   2   8  -3 282.164 86.7444   1
   2   8  -2 1045.64 72.7074   1
   2   8  -1 108.980 53.7846   1
   2   8   0 576.351 91.2578   1
   2   8   1 759.317 89.5086   1
   2   8   2 2.45933 37.0500   1
   2   8   3 327.141 40.6066   1
   2   8   4 212.258 37.0224   1
   2   8   5 230.149 44.8458   1
  -2  -5  -8 540.904 99.4635  -2
   2   8   5 540.904 99.4635   1
  -2  -6  -8 754.489 55.2957  -2
   2   8   6 754.489 55.2957   1
  -2  -7  -8 476.487 42.8609  -2
   2   8   7 476.487 42.8609   1
  -2  -8  -8 432.145 40.2630  -2
   2   8   8 432.145 40.2630   1
  -2  -9  -8 1406.56 67.5012  -2
   2   8   9 1406.56 67.5012   1
  -2 -10  -8 561.830 54.5571  -2
   2   8  10 561.830 54.5571   1
  -2 -11  -8 398.192 53.3017  -2
   2   8  11 398.192 53.3017   1
  -2  -8 -12 435.134 60.6065   1
   2   9  -4 111.884 93.5755   1
   2   9  -3 256.525 99.7136   1
   2   9  -2 46.3729 85.7165   1
   2   9  -1 483.257 99.3566   1
   2   9   0 433.362 95.5010   1
   2   9   1 11.5305 81.4130   1
   2   9   2 552.762 93.0082   1
   2   9   3 67.3887 37.9579   1
   2   9   4 198.096 39.1218   1
   2   9   5 1188.54 55.6829   1
   2   9   6 1270.27 66.0378   1
  -2  -6  -9 1367.87 122.632  -2
   2   9   6 1367.87 122.632   1
  -2  -7  -9 103.969 50.0128  -2
   2   9   7 103.969 50.0128   1
  -2  -8  -9 1305.73 74.4158  -2
   2   9   8 1305.73 74.4158   1
  -2  -9  -9 292.276 41.3863  -2
   2   9   9 292.276 41.3863   1
  -2 -10  -9 81.1102 48.9871  -2
   2   9  10 81.1102 48.9871   1
  -2 -11  -9 512.637 80.6269  -2
   2   9  11 512.637 80.6269   1
   2  10  -2 91.3844 99.5299   1
   2  10  -1 379.824 103.730   1
   2  10   0-0.24798 89.8326   1
   2  10   1 422.459 99.0680   1
   2  10   2 620.303 99.2336   1
   2  10   3 29.1080 81.9435   1
   2  10   4 279.995 89.2962   1
   2  10   5 693.753 98.8485   1
  -2  -6 -10 435.447 113.846  -2
   2  10   6 435.447 113.846   1
  -2  -7 -10 1449.00 135.420  -2
   2  10   7 1449.00 135.420   1
  -2  -8 -10 486.056 110.105  -2
   2  10   8 486.056 110.105   1
  -2  -9 -10 148.228 105.045  -2
   2  10   9 148.228 105.045   1
  -2 -10 -10 201.872 81.2891  -2
   2  10  10 201.872 81.2891   1
  -2 -11 -10 99.2600 103.905  -2
   2  10  11 99.2600 103.905   1
   2  11   1 200.317 101.817   1
   2  11   2 167.363 96.4490   1
   2  11   3 404.861 99.1620   1
   2  11   4 605.127 109.420   1
   2  11   5-8.05402 84.7071   1
   2  11   6 248.701 91.0490   1
  -2  -7 -11 719.565 128.855  -2
   2  11   7 719.565 128.855   1
  -2  -8 -11 375.167 121.650  -2
   2  11   8 375.167 121.650   1
  -2  -9 -11 553.090 127.060  -2
   2  11   9 553.090 127.060   1
  -2 -10 -11 292.195 119.790  -2
   2  11  10 292.195 119.790   1
  -2 -11 -11 112.747 116.858  -2
   2  11  11 112.747 116.858   1
   2  12   5 460.392 105.703   1
   2  12   6 248.969 94.9518   1
   2  12   7 25.0195 93.6819   1
  -2  -8 -12 590.383 134.596  -2
   2  12   8 590.383 134.596   1
  -3  11   6 41.0853 51.6951   1
  -3  11   5 420.233 59.1630   1
  -3  11   4 336.412 90.1939   1
  -3  11   3 95.9808 82.8546   1
  -3  11   2 401.024 93.9990   1
  -3  11   1 458.601 93.0094   1
  -3  11   0-22.9554 88.6440   1
   3  -9 -10 43.0410 121.147  -2
  -3  10   9 43.0410 121.147   1
   3  -8 -10 763.852 135.056  -2
  -3  10   8 763.852 135.056   1
   3  -7 -10 484.987 121.062  -2
  -3  10   7 484.987 121.062   1
  -3  10   6 499.168 58.2230   1
  -3  10   5 733.391 59.5599   1
  -3  10   4 80.0502 44.5717   1
  -3  10   3 309.058 47.0706   1
  -3  10   2 279.413 82.7762   1
  -3  10   1 48.1083 76.9191   1
  -3  10   0 267.665 85.3839   1
  -3  10  -1-20.2792 76.4744   1
   3 -10  -9 93.9918 116.592  -2
  -3   9  10 93.9918 116.592   1
   3  -9  -9 1051.84 152.016  -2
  -3   9   9 1051.84 152.016   1
   3  -8  -9 164.773 106.876  -2
  -3   9   8 164.773 106.876   1
   3  -7  -9 392.182 109.793  -2
  -3   9   7 392.182 109.793   1
  -3   9   6 627.420 90.2226   1
  -3   9   5 145.674 44.4477   1
  -3   9   4 288.535 45.3191   1
  -3   9   3 485.426 47.8013   1
  -3   9   2 33.3414 36.4927   1
  -3   9   1 775.540 85.1616   1
  -3   9   0 165.453 68.6725   1
  -3   9  -1 113.479 73.5219   1
  -3   9  -2 361.556 77.7588   1
   3 -11  -8 182.423 79.7406  -2
  -3   8  11 182.423 79.7406   1
   3 -10  -8 878.300 132.432  -2
  -3   8  10 878.300 132.432   1
   3  -9  -8 25.3446 101.723  -2
  -3   8   9 25.3446 101.723   1
   3  -8  -8 817.354 130.542  -2
  -3   8   8 817.354 130.542   1
   3  -7  -8 1614.84 144.947  -2
  -3   8   7 1614.84 144.947   1
   3  -6  -8 297.699 101.760  -2
  -3   8   6 297.699 101.760   1
  -3   8   5 293.041 71.8773   1
  -3   8   4 342.119 44.4800   1
  -3   8   3 16.9495 35.3898   1
  -3   8   2 444.559 24.7852   1
  -3   8   1 1232.41 35.7836   1
  -3   8   0 10.0687 22.8656   1
  -3   8  -1 508.785 44.7928   1
  -3   8  -2 210.539 43.7688   1
  -3   8  -3-34.0036 43.1050   1
  -3   8  -4 278.143 75.6071   1
  -3   8  -5 389.046 85.4639   1
   3  -7 -12 17.5469 75.4642   1
   3  -7 -11 909.582 100.032   1
  -3  10   7 561.720 78.6222  -2
   3  -7 -10 561.720 78.6222   1
   3  -9  -7 140.118 98.8087  -2
  -3   7   9 140.118 98.8087   1
   3  -8  -7 1557.35 140.201  -2
  -3   7   8 1557.35 140.201   1
   3  -7  -7 191.562 78.5818  -2
  -3   7   7 191.562 78.5818   1
   3  -6  -7 279.848 98.6099  -2
  -3   7   6 279.848 98.6099   1
   3  -5  -7 1811.74 117.902  -2
  -3   7   5 1811.74 117.902   1
  -3   7   4 42.4151 57.2385   1
  -3   7   3 545.218 41.2928   1
  -3   7   2 130.090 19.8039   1
  -3   7   1 99.8823 21.4431   1
  -3   7   0 1359.94 33.5973   1
  -3   7  -1 1027.33 76.6450   1
  -3   7  -2 133.260 38.5033   1
  -3   7  -3 376.023 43.4479   1
  -3   7  -4 363.332 70.7652   1
  -3   7  -5 154.790 69.7958   1
  -3   7  -6 149.207 76.8105   1
   3  -6 -13-90.3969 79.3853   1
   3  -6 -12 276.227 84.0926   1
   3  -6 -11 342.162 78.0238   1
   3  -6 -10 26.3858 64.2365   1
   3  -6  -9 1210.44 51.3257   1
  -3   9   6 1657.76 85.2200  -2
   3  -6  -9 1657.76 85.2200   1
   3  -8  -6 244.422 33.5165  -2
  -3   6   8 244.422 33.5165   1
  -3   7   6 218.966 16.5213  -2
   3  -6  -7 218.966 16.5213   1
   3  -6  -6 2237.96 106.926  -2
  -3   6   6 2237.96 106.926   1
   3  -5  -6 817.633 101.456  -2
  -3   6   5 817.633 101.456   1
   3  -4  -6 1137.85 97.0252  -2
  -3   6   4 1137.85 97.0252   1
  -3   6   3 789.316 69.6854   1
   3  -6  -2 21.9356 17.8560   1
   3  -6  -1 79.7650 22.9951   1
  -3   6   0 1083.74 37.6468   1
  -3   6  -1 107.637 24.6337   1
   3  -6   2 672.587 38.3115   1
   3  -6   3 806.340 39.7491   1
  -3   6  -4 59.5505 36.5777   1
  -3   6  -5 449.368 75.3732   1
  -3   6  -6 82.1977 70.0113   1
   3  -5 -13 362.952 88.1741   1
   3  -5 -12 183.705 78.3537   1
   3  -5 -11 47.3971 39.4606   1
   3  -5 -10 587.353 46.4936   1
   3  -5  -9 739.674 45.5591   1
   3  -5  -8 106.648 34.3334   1
  -3   8   5 299.402 61.6303  -2
   3  -5  -8 299.402 61.6303   1
   3  -7  -5 1738.48 117.262  -2
  -3   5   7 1738.48 117.262   1
   3  -6  -5 795.541 36.7504  -2
  -3   5   6 795.541 36.7504   1
   3  -5  -5 137.627 20.3890  -2
  -3   5   5 137.627 20.3890   1
  -3   4   5 1141.25 68.1381  -2
   3  -5  -4 1141.25 68.1381   1
   3  -3  -5 848.368 55.2961  -2
  -3   5   3 848.368 55.2961   1
  -3   5   2 574.868 25.8914   1
  -3   2   5 587.060 69.2969  -2
   3  -5  -2 587.060 69.2969   1
  -3   5   1 925.549 30.7318   1
   3  -5   0 51.2804 23.1021   1
  -3   5  -1 1604.78 41.0839   1
   3  -5   2 464.937 30.2261   1
   3  -5   3-10.2322 25.6574   1
   3  -5   4 667.795 35.4462   1
  -3   5  -5 857.574 44.3269   1
  -3   5  -6 166.912 70.9058   1
  -3   5  -7 430.612 83.7548   1
   3  -4 -12 95.8340 46.9845   1
   3  -4 -11 302.392 47.5699   1
   3  -4 -10 411.961 47.2203   1
   3  -4  -9 57.6305 64.8711   1
   3  -4  -8 903.034 81.7214   1
  -3   7   4 84.8760 57.2097  -2
   3  -4  -7 84.8760 57.2097   1
   3  -6  -4 1105.50 91.2345  -2
  -3   4   6 1105.50 91.2345   1
   3  -5  -4 1420.00 38.5825  -2
  -3   4   5 1420.00 38.5825   1
  -3   4   4 584.621 23.5144  -2
   3  -4  -4 584.621 23.5144   1
  -3   3   4 1601.75 37.6370  -2
   3  -4  -3 1601.75 37.6370   1
  -3   2   4 3329.87 35.3075  -2
   3  -4  -2 3329.87 35.3075   1
  -3   4   1 775.985 24.3426   1
  -3   4   0 2381.77 48.8484   1
  -3   4  -1 2267.38 50.8686   1
  -3   4  -2 51.0697 21.6885   1
  -3   4  -3 140.797 29.5352   1
  -3   4  -4 192.769 29.4202   1
  -3   4  -5 4.98753 21.5989   1
  -3   4  -6 634.503 79.3427   1
  -3   4  -7 740.186 88.7219   1
  -3   4  -8-43.7289 73.2308   1
   3  -3 -12 346.358 53.9059   1
   3  -3 -11 366.811 49.6718   1
   3  -3 -10 8.39552 65.3725   1
   3  -3  -9 944.626 81.8737   1
   3  -3  -8 221.873 59.8520   1
   3  -3  -7 78.3822 55.5737   1
   3  -3  -6 625.928 43.9231   1
  -3   6   3 1018.97 89.5673  -2
   3  -3  -6 1018.97 89.5673   1
  -3   5   3 1231.04 41.8577  -2
   3  -3  -5 1231.04 41.8577   1
  -3   4   3 1341.35 47.6863  -2
   3  -3  -4 1341.35 47.6863   1
   3  -3  -3 5277.35 68.8999  -2
  -3   3   3 5277.35 68.8999   1
   3  -2  -3 3081.87 50.0010  -2
  -3   3   2 3081.87 50.0010   1
   3  -1  -3 203.304 19.8491  -2
  -3   3   1 203.304 19.8491   1
  -3   3   0 1645.89 32.3593   1
  -3   0   3 2113.46 71.3193  -2
   3  -3   0 2113.46 71.3193   1
  -3   3  -1 71.9810 17.2791   1
  -3   3  -2 1259.49 31.5267   1
   3  -3   3 338.699 22.6336   1
  -3   3  -4 28.6489 19.3119   1
   3  -3   5 194.993 18.6258   1
  -3   3  -6 1010.19 85.8372   1
  -3   3  -7 26.0945 62.8745   1
  -3   3  -8 535.853 87.8806   1
   3  -2 -12 511.392 60.6222   1
   3  -2 -11-13.7990 70.0285   1
   3  -2 -10 470.743 78.9641   1
   3  -2  -9 430.139 72.1688   1
   3  -2  -8-4.29207 60.2584   1
   3  -2  -7 871.264 74.6665   1
   3  -2  -6 228.927 38.0639   1
   3  -2  -5 3.71466 45.5495   1
  -3   5   2 298.139 70.7645  -2
   3  -2  -5 298.139 70.7645   1
  -3   4   2 3208.48 112.206  -2
   3  -2  -4 3208.48 112.206   1
  -3   3   2 3136.36 58.0882  -2
   3  -2  -3 3136.36 58.0882   1
  -3   2   2 2115.29 61.4989  -2
   3  -2  -2 2115.29 61.4989   1
  -3   1   2 1826.51 36.2419  -2
   3  -2  -1 1826.51 36.2419   1
   3   0  -2 877.889 27.3054  -2
  -3   2   0 877.889 27.3054   1
   3  -2   1 1046.72 18.1133   1
  -3  -1   2 1072.66 40.4397  -2
   3  -2   1 1072.66 40.4397   1
  -3   2  -2 1142.10 24.3634   1
  -3   2  -3 553.533 19.0338   1
  -3   2  -4 929.096 21.8783   1
   3  -2   5 894.690 30.1475   1
   3  -2   6-2.44240 14.7426   1
  -3   2  -7 257.124 65.3047   1
  -3   2  -8 367.931 77.0061   1
  -3   2  -9 16.8483 72.1029   1
   3  -1 -12 16.1999 76.7248   1
   3  -1 -11 168.371 78.0651   1
   3  -1 -10 407.294 73.2475   1
   3  -1  -9 115.309 64.9318   1
   3  -1  -8 1102.80 86.3394   1
   3  -1  -7 350.000 66.1502   1
   3  -1  -6-0.87043 34.5536   1
   3  -1  -5 1903.42 58.4632   1
  -3   4   1 2504.64 93.0750  -2
   3  -1  -4 2504.64 93.0750   1
  -3   3   1 204.795 60.5066  -2
   3  -1  -3 204.795 60.5066   1
  -3   2   1 1761.35 55.5921  -2
   3  -1  -2 1761.35 55.5921   1
  -3   1   1 77.6147 21.0898  -2
   3  -1  -1 77.6147 21.0898   1
  -3   0   1 470.808 26.2907  -2
   3  -1   0 470.808 26.2907   1
   3   1  -1 1969.67 32.7480  -2
  -3   1  -1 1969.67 32.7480   1
  -3   1  -2 494.643 32.1857   1
  -3  -2   1 1138.95 44.1630  -2
   3  -1   2 1138.95 44.1630   1
  -3   1  -3 704.611 15.2909   1
   3  -1   4 2286.60 23.5236   1
  -3   1  -5 61.5362 50.0967   1
  -3   1  -6 473.417 65.1726   1
  -3   1  -7 843.938 79.0774   1
  -3   1  -8 52.3682 61.9110   1
  -3   1  -9 573.324 88.3251   1
  -3   1 -10 245.951 85.9800   1
   3   0 -11 210.790 78.4876   1
   3   0 -10-23.5436 69.3267   1
   3   0  -9 265.893 68.8446   1
   3   0  -8 865.974 78.4524   1
   3   0  -7 142.786 60.1598   1
   3   0  -6 1592.79 57.9367   1
  -3   0   5 639.381 34.1010   1
   3   0  -4 1516.48 50.3374   1
  -3   3   0 1972.69 84.4369  -2
   3   0  -3 1972.69 84.4369   1
  -3   2   0 1199.02 46.0528  -2
   3   0  -2 1199.02 46.0528   1
  -3   1   0 341.815 32.8322  -2
   3   0  -1 341.815 32.8322   1
  -3   0   0 823.994 30.9353  -2
   3   0   0 823.994 30.9353   1
   3   1   0 1282.19 33.0714  -2
  -3   0  -1 1282.19 33.0714   1
  -3  -2   0 4573.29 44.1142  -2
   3   0   2 4573.29 44.1142   1
   3   0   3 3153.44 46.6264   1
  -3  -3   0 6092.51 55.0255  -2
   3   0   3 6092.51 55.0255   1
   3   0   4 461.963 26.7120   1
  -3   0  -5 597.948 25.9972   1
  -3   0  -6 1656.35 86.8091   1
  -3   0  -7 85.2695 55.5990   1
  -3   0  -8 401.971 75.7889   1
  -3   0  -9 576.654 87.0963   1
  -3   0 -10 24.2667 75.2086   1
   3   1 -11 14.6436 76.6096   1
   3   1 -10 111.588 74.2556   1
   3   1  -9 143.061 72.5295   1
   3   1  -8 26.9819 60.6574   1
   3   1  -7 1939.31 95.3482   1
   3   1  -6 963.036 76.4077   1
   3   1  -5 36.0507 33.1690   1
   3   1  -4 2474.72 62.6473   1
   3   1  -3 1024.42 64.7157   1
  -3   2  -1 701.104 67.6855  -2
   3   1  -2 701.104 67.6855   1
  -3   1  -1 2402.14 83.4795  -2
   3   1  -1 2402.14 83.4795   1
   3   0   1 1774.03 46.9809  -2
  -3  -1   0 1774.03 46.9809   1
  -3  -1  -1 374.768 30.5409  -2
   3   1   1 374.768 30.5409   1
   3   2   1 2395.88 43.2981  -2
  -3  -1  -2 2395.88 43.2981   1
   3   1   3 916.813 34.4912   1
   3   3   1 1452.81 76.4276  -2
  -3  -1  -3 1452.81 76.4276   1
   3   1   4 985.237 26.4625   1
   3   4   1 1151.78 73.0355  -2
  -3  -1  -4 1151.78 73.0355   1
   3   1   5 1573.07 45.6811   1
   3   1   6 68.6552 27.8766   1
  -3  -1  -7 97.4810 55.9154   1
  -3  -1  -8 1276.32 91.0224   1
  -3  -1  -9-7.42612 64.2793   1
  -3  -1 -10 653.380 89.3619   1
  -3  -1 -11 44.2026 81.4813   1
   3   2 -10 734.886 97.9149   1
   3   2  -9-11.5018 69.5655   1
   3   2  -8 806.369 86.7935   1
   3   2  -7 784.976 80.7467   1
   3   2  -6 92.6556 60.6797   1
   3   2  -5 415.752 64.1017   1
  -3  -2   4 1155.32 51.0044   1
   3   2  -3 10.3466 43.4617   1
   3   2  -2 588.680 54.5486   1
   3   2  -1 1076.76 59.5007   1
   3   0   2 3890.82 66.8257  -2
  -3  -2   0 3890.82 66.8257   1
  -3  -1  -2 2343.80 51.4767  -2
   3   2   1 2343.80 51.4767   1
   3   2   2 1200.26 42.7379  -2
  -3  -2  -2 1200.26 42.7379   1
   3   3   2 299.595 27.4292  -2
  -3  -2  -3 299.595 27.4292   1
   3   4   2 3414.36 48.1642  -2
  -3  -2  -4 3414.36 48.1642   1
   3   2   5 143.769 23.3381   1
   3   5   2 1511.98 82.3186  -2
  -3  -2  -5 1511.98 82.3186   1
   3   2   6 162.585 25.7586   1
   3   2   7 1021.75 46.7821   1
   3   2   8-4.10888 35.6539   1
  -3  -2  -9 800.648 85.5358   1
  -3  -2 -10 465.336 81.7808   1
  -3  -2 -11-7.46800 72.8061   1
   3   3 -10 148.925 83.9015   1
   3   3  -9 435.626 87.4747   1
   3   3  -8 436.725 81.2295   1
   3   3  -7 116.605 72.7446   1
   3   3  -6 261.377 71.8213   1
   3   3  -5 128.255 58.8444   1
   3   3  -4 71.2424 53.0431   1
   3   3  -3 713.473 44.3856   1
   3   3  -2 2211.43 86.2680   1
   3   3  -1 189.526 48.8339   1
   3   3   0 4378.62 102.587   1
   3   3   1 699.228 36.5384   1
  -3  -2  -3 468.069 36.0887  -2
   3   3   2 468.069 36.0887   1
   3   3   3 677.067 36.3229  -2
  -3  -3  -3 677.067 36.3229   1
   3   4   3 2657.00 49.8487  -2
  -3  -3  -4 2657.00 49.8487   1
   3   5   3 530.927 25.0222  -2
  -3  -3  -5 530.927 25.0222   1
  -3  -3  -6 621.686 23.5544   1
  -3  -6  -3 710.897 37.7197  -2
   3   3   6 710.897 37.7197   1
   3   3   7 112.472 18.8029   1
   3   3   8 693.031 48.8934   1
   3   3   9 813.342 53.9866   1
  -3  -3 -10 53.1189 64.5850   1
  -3  -3 -11 416.300 89.8100   1
   3   4  -9 421.660 94.3714   1
   3   4  -8 24.2336 71.5852   1
   3   4  -7 563.163 86.5873   1
   3   4  -6 439.783 76.8193   1
   3   4  -5 103.145 66.5249   1
   3   4  -4 714.955 80.2473   1
   3   4  -3 413.267 64.7961   1
   3   4  -2 29.2934 33.6632   1
   3   4  -1 1205.11 73.9310   1
   3   4   0 1848.64 78.7954   1
  -3  -4  -1 166.624 33.9749   1
   3   2   4 2902.20 67.8783  -2
  -3  -4  -2 2902.20 67.8783   1
   3   3   4 1749.81 51.7939  -2
  -3  -4  -3 1749.81 51.7939   1
  -3  -4  -4 1463.35 41.9183  -2
   3   4   4 1463.35 41.9183   1
   3   5   4 5140.87 67.1522  -2
  -3  -4  -5 5140.87 67.1522   1
  -3  -6  -4 238.215 26.8430  -2
   3   4   6 238.215 26.8430   1
  -3  -4  -7 41.6820 25.7698   1
  -3  -7  -4 168.408 37.8675  -2
   3   4   7 168.408 37.8675   1
   3   4   8 841.576 22.2568   1
   3   4   9 124.131 21.8812   1
  -3  -4 -10 411.939 50.1169   1
  -3  -4 -11 654.678 92.9602   1
  -3  -4 -12 107.433 81.4732   1
   3   5  -8 304.936 91.8909   1
   3   5  -7 200.857 82.7715   1
   3   5  -6 136.373 76.9052   1
   3   5  -5 488.156 81.1598   1
   3   5  -4 952.314 89.2125   1
   3   5  -3 242.682 68.3567   1
   3   5  -2 422.915 68.9438   1
   3   5  -1 1156.70 78.1293   1
   3   5   0 5.49807 26.2591   1
   3   5   1 1692.16 45.0696   1
  -3  -5  -2 2113.11 58.0226   1
  -3  -2  -5 2554.37 89.5460  -2
   3   5   2 2554.37 89.5460   1
  -3  -3  -5 520.187 32.4398  -2
   3   5   3 520.187 32.4398   1
   3   4   5 4453.75 67.6007  -2
  -3  -5  -4 4453.75 67.6007   1
  -3  -5  -5 831.618 40.1354  -2
   3   5   5 831.618 40.1354   1
  -3  -6  -5 436.139 34.0906  -2
   3   5   6 436.139 34.0906   1
   3   7   5 1139.03 42.9298  -2
  -3  -5  -7 1139.03 42.9298   1
  -3  -5  -8 178.476 36.0954   1
   3   8   5 730.414 44.4514  -2
  -3  -5  -8 730.414 44.4514   1
   3   5   9 15.9894 29.4979   1
  -3  -9  -5 52.0180 81.3588  -2
   3   5   9 52.0180 81.3588   1
  -3  -5 -10 519.928 54.4090   1
  -3  -5 -11 21.6096 47.5549   1
  -3  -5 -12 269.318 85.8406   1
   3   6  -7 169.402 89.5621   1
   3   6  -6 256.987 90.4019   1
   3   6  -5 530.903 94.2006   1
   3   6  -4 15.4920 70.6473   1
   3   6  -3 1107.42 98.7041   1
   3   6  -2 797.279 88.0650   1
   3   6  -1 45.4271 60.1565   1
   3   6   0 892.370 79.6547   1
   3   6   1 1194.63 55.0240   1
   3   6   2-2.89938 27.9772   1
   3   6   3 168.029 53.8289   1
   3   3   6 653.790 51.4684  -2
  -3  -6  -3 653.790 51.4684   1
  -3  -4  -6 335.821 33.4865  -2
   3   6   4 335.821 33.4865   1
  -3  -5  -6 515.915 37.9194  -2
   3   6   5 515.915 37.9194   1
  -3  -6  -6 2284.61 59.5848  -2
   3   6   6 2284.61 59.5848   1
   3   7   6 424.607 42.6422  -2
  -3  -6  -7 424.607 42.6422   1
   3   8   6 136.026 37.5511  -2
  -3  -6  -8 136.026 37.5511   1
   3   9   6 1621.53 58.4348  -2
  -3  -6  -9 1621.53 58.4348   1
   3   6  10 234.028 37.4181   1
  -3 -10  -6 343.889 96.4027  -2
   3   6  10 343.889 96.4027   1
  -3  -6 -11 346.250 55.9230   1
  -3  -6 -12 251.146 57.9103   1
   3   7  -6 236.448 96.3421   1
   3   7  -5 160.847 91.2896   1
   3   7  -4 201.555 88.0917   1
   3   7  -3 686.292 94.9404   1
   3   7  -2-10.2963 73.1421   1
   3   7  -1 519.993 90.5679   1
   3   7   0 1421.84 100.710   1
   3   7   1 118.646 69.7152   1
   3   7   2 471.686 45.8977   1
   3   7   3 57.9376 31.9447   1
   3   7   4 136.459 62.7599   1
  -3  -4  -7 65.4239 64.3262  -2
   3   7   4 65.4239 64.3262   1
  -3  -5  -7 1429.28 55.8836  -2
   3   7   5 1429.28 55.8836   1
  -3  -6  -7 725.493 43.5923  -2
   3   7   6 725.493 43.5923   1
   3   7   7 74.2678 37.1527  -2
  -3  -7  -7 74.2678 37.1527   1
   3   8   7 2380.91 71.6445  -2
  -3  -7  -8 2380.91 71.6445   1
  -3  -9  -7 397.628 50.6363  -2
   3   7   9 397.628 50.6363   1
  -3 -10  -7 207.816 49.0300  -2
   3   7  10 207.816 49.0300   1
  -3  -7 -11 338.258 78.0936   1
  -3 -11  -7 736.808 120.644  -2
   3   7  11 736.808 120.644   1
  -3  -7 -12 8.38717 54.6345   1
  -3  -7 -13 84.2448 81.8079   1
   3   8  -4 949.259 110.451   1
   3   8  -3 62.6936 84.8234   1
   3   8  -2 187.501 83.1721   1
   3   8  -1 591.827 94.4958   1
   3   8   0-19.3842 72.5199   1
   3   8   1 823.255 93.1659   1
   3   8   2 474.457 59.0232   1
   3   8   3 80.7443 74.9203   1
   3   8   4 250.393 44.5114   1
   3   8   5 745.288 63.8042   1
  -3  -5  -8 920.678 113.824  -2
   3   8   5 920.678 113.824   1
  -3  -6  -8 103.054 94.7128  -2
   3   8   6 103.054 94.7128   1
   3   7   8 2126.99 90.1554  -2
  -3  -8  -7 2126.99 90.1554   1
  -3  -8  -8 552.243 55.6032  -2
   3   8   8 552.243 55.6032   1
  -3  -9  -8 431.402 62.2823  -2
   3   8   9 431.402 62.2823   1
  -3 -10  -8 694.733 58.8662  -2
   3   8  10 694.733 58.8662   1
  -3 -11  -8 262.363 69.2291  -2
   3   8  11 262.363 69.2291   1
  -3  -8 -12 239.283 59.7088   1
  -3  -8 -13 513.246 94.4327   1
   3   9  -3 199.086 99.7393   1
   3   9  -2 432.029 72.3531   1
   3   9  -1-2.44481 62.4865   1
   3   9   0 345.577 65.9802   1
   3   9   1 477.237 94.7263   1
   3   9   2 25.3570 84.2294   1
   3   9   3 792.467 99.4195   1
   3   9   4 854.814 97.8665   1
   3   9   5-30.2205 76.4406   1
  -3  -6  -9 1645.12 133.817  -2
   3   9   6 1645.12 133.817   1
  -3  -7  -9 443.373 109.179  -2
   3   9   7 443.373 109.179   1
  -3  -8  -9 203.003 61.9700  -2
   3   9   8 203.003 61.9700   1
  -3  -9  -9 501.680 72.3272  -2
   3   9   9 501.680 72.3272   1
  -3 -10  -9 81.4969 52.8144  -2
   3   9  10 81.4969 52.8144   1
  -3 -11  -9 312.985 69.8466  -2
   3   9  11 312.985 69.8466   1
   3  10  -1 127.337 98.6319   1
   3  10   0 551.169 110.997   1
   3  10   1 12.8985 90.4327   1
   3  10   2 126.031 91.0851   1
   3  10   3 807.394 106.430   1
   3  10   4-14.0284 81.2532   1
   3  10   5 482.496 94.0227   1
   3  10   6 245.932 86.7300   1
  -3  -7 -10 86.5306 108.093  -2
   3  10   7 86.5306 108.093   1
  -3  -8 -10 450.020 118.059  -2
   3  10   8 450.020 118.059   1
  -3  -9 -10 153.531 100.584  -2
   3  10   9 153.531 100.584   1
  -3 -10 -10 64.6140 65.4743  -2
   3  10  10 64.6140 65.4743   1
   3  11   2 381.614 108.746   1
   3  11   3 71.7592 88.6251   1
   3  11   4 519.932 109.079   1
   3  11   5 283.990 98.2532   1
   3  11   6 56.7185 91.2849   1
  -3  -7 -11 823.612 136.178  -2
   3  11   7 823.612 136.178   1
  -3  -8 -11 379.372 121.836  -2
   3  11   8 379.372 121.836   1
  -3  -9 -11 230.824 115.436  -2
   3  11   9 230.824 115.436   1
  -3 -10 -11 319.583 125.873  -2
   3  11  10 319.583 125.873   1
   4  -7 -10 1653.91 152.132  -2
  -4  10   7 1653.91 152.132   1
  -4  10   6 213.772 88.4349   1
  -4  10   5 310.334 86.1448   1
  -4  10   4 162.709 81.3199   1
  -4  10   3 16.8910 74.9978   1
  -4  10   2 188.248 77.4193   1
  -4  10   1 134.025 76.3001   1
  -4  10   0 11.1695 71.1132   1
   4  -9  -9 121.777 94.7654  -2
  -4   9   9 121.777 94.7654   1
   4  -8  -9 794.048 138.736  -2
  -4   9   8 794.048 138.736   1
   4  -7  -9 440.653 118.825  -2
  -4   9   7 440.653 118.825   1
   4  -6  -9 207.638 111.557  -2
  -4   9   6 207.638 111.557   1
  -4   9   5 969.698 102.430   1
  -4   9   4 18.0042 69.0599   1
  -4   9   3 417.201 78.3515   1
  -4   9   2 265.526 76.6160   1
  -4   9   1 41.1505 70.8183   1
  -4   9   0 489.659 73.9358   1
  -4   9  -1 487.416 79.4203   1
   4  -9  -8 721.345 139.935  -2
  -4   8   9 721.345 139.935   1
   4  -8  -8 164.617 88.7720  -2
  -4   8   8 164.617 88.7720   1
   4  -7  -8 330.999 110.792  -2
  -4   8   7 330.999 110.792   1
   4  -6  -8 886.067 117.763  -2
  -4   8   6 886.067 117.763   1
  -4   8   5 219.280 76.0957   1
  -4   8   4 573.008 84.2737   1
  -4   8   3 1030.98 92.1092   1
  -4   8   2 20.6052 64.1593   1
  -4   8   1 244.586 70.4578   1
  -4   8   0 568.439 45.3397   1
  -4   8  -1 56.4771 37.8551   1
  -4   8  -2 292.737 45.9615   1
  -4   8  -3 140.445 66.5454   1
  -4   8  -4 0.09820 67.7493   1
   4  -7 -11 75.3800 80.3059   1
  -4  10   7 1449.76 138.630  -2
   4  -7 -10 1449.76 138.630   1
  -4   9   7 360.800 81.3045  -2
   4  -7  -9 360.800 81.3045   1
   4  -8  -7 224.608 106.322  -2
  -4   7   8 224.608 106.322   1
   4  -7  -7 1389.67 109.486  -2
  -4   7   7 1389.67 109.486   1
   4  -6  -7 200.409 95.4521  -2
  -4   7   6 200.409 95.4521   1
   4  -5  -7 236.790 95.8377  -2
  -4   7   5 236.790 95.8377   1
  -4   7   4 383.501 75.1548   1
  -4   7   3 24.2997 62.5118   1
  -4   7   2 209.146 27.3571   1
  -4   7   1 752.526 40.9637   1
  -4   7   0 103.616 33.9910   1
  -4   7  -1 1015.67 51.1814   1
  -4   7  -2 287.272 41.9733   1
  -4   7  -3 23.4122 38.8466   1
  -4   7  -4 162.297 71.5064   1
  -4   7  -5 163.742 77.0464   1
   4  -6 -11 481.493 91.0515   1
   4  -6 -10 467.074 91.7907   1
  -4   9   6 162.678 101.932  -2
   4  -6  -9 162.678 101.932   1
  -4   8   6 877.268 81.2081  -2
   4  -6  -8 877.268 81.2081   1
  -4   7   6 159.583 28.3523  -2
   4  -6  -7 159.583 28.3523   1
   4  -6  -6 636.501 86.0820  -2
  -4   6   6 636.501 86.0820   1
   4  -5  -6 757.576 104.241  -2
  -4   6   5 757.576 104.241   1
   4  -4  -6 65.2386 81.2055  -2
  -4   6   4 65.2386 81.2055   1
  -4   6   3 312.835 64.3184   1
  -4   6   2 872.147 76.5393   1
  -4   6   1 56.4832 28.9863   1
  -4   6   0 613.012 40.3602   1
  -4   6  -1 2258.99 53.0611   1
  -4   6  -2-14.3412 33.4413   1
  -4   6  -3 340.488 40.2989   1
  -4   6  -4 128.010 65.6232   1
  -4   6  -5 32.8382 67.2505   1
  -4   6  -6 225.583 80.3119   1
   4  -5 -11 233.348 85.3937   1
   4  -5 -10 77.5263 71.2934   1
   4  -5  -9 805.413 94.6431   1
  -4   8   5 615.014 104.876  -2
   4  -5  -8 615.014 104.876   1
  -4   7   5 307.740 35.0750  -2
   4  -5  -7 307.740 35.0750   1
   4  -6  -5 711.526 43.7970  -2
  -4   5   6 711.526 43.7970   1
   4  -5  -5 535.430 34.1688  -2
  -4   5   5 535.430 34.1688   1
   4  -4  -5 592.759 33.2832  -2
  -4   5   4 592.759 33.2832   1
   4  -3  -5 2506.55 51.7106  -2
  -4   5   3 2506.55 51.7106   1
  -4   5   2 112.952 18.7977   1
  -4   2   5 283.243 69.3425  -2
   4  -5  -2 283.243 69.3425   1
  -4   5   1 436.600 29.1215   1
  -4   5   0 670.019 33.8773   1
  -4   5  -1 145.055 27.5621   1
  -4   5  -2 1395.30 42.2307   1
   4  -5   3 414.468 32.8335   1
  -4   5  -4 4.30024 29.9230   1
  -4   5  -5 340.922 73.2636   1
  -4   5  -6 507.141 82.8300   1
  -4   5  -7 25.9952 78.8529   1
   4  -4 -12 491.435 92.4315   1
   4  -4 -11-11.5888 45.3608   1
   4  -4 -10 214.392 77.3705   1
   4  -4  -9 166.121 73.5961   1
   4  -4  -8 62.1388 65.4773   1
  -4   7   4 1278.95 104.943  -2
   4  -4  -7 1278.95 104.943   1
  -4   6   4 100.905 36.3710  -2
   4  -4  -6 100.905 36.3710   1
  -4   5   4 448.665 34.1628  -2
   4  -4  -5 448.665 34.1628   1
  -4   4   4 4360.27 64.6739  -2
   4  -4  -4 4360.27 64.6739   1
   4  -3  -4 3191.08 62.5365  -2
  -4   4   3 3191.08 62.5365   1
   4  -2  -4 1057.18 27.9660  -2
  -4   4   2 1057.18 27.9660   1
  -4   4   1 1237.45 32.8600   1
  -4   1   4 1836.26 87.1820  -2
   4  -4  -1 1836.26 87.1820   1
  -4   4   0 14.1411 18.4657   1
  -4   4  -1 390.822 27.7809   1
  -4   4  -2 652.693 38.9468   1
  -4   4  -3 36.1345 23.7184   1
  -4   4  -4 315.771 32.6111   1
  -4   4  -5 1109.30 88.1912   1
  -4   4  -6 19.1371 64.6402   1
  -4   4  -7 422.149 84.4466   1
   4  -3 -12-8.50729 52.2873   1
   4  -3 -11 473.389 91.8928   1
   4  -3 -10 169.014 73.3397   1
   4  -3  -9 23.0450 65.8656   1
   4  -3  -8 494.454 80.6670   1
   4  -3  -7 763.616 81.2079   1
  -4   6   3 440.874 86.3922  -2
   4  -3  -6 440.874 86.3922   1
  -4   5   3 2243.93 61.5111  -2
   4  -3  -5 2243.93 61.5111   1
  -4   4   3 3141.99 64.9993  -2
   4  -3  -4 3141.99 64.9993   1
  -4   3   3 280.861 28.9923  -2
   4  -3  -3 280.861 28.9923   1
  -4   2   3 3643.77 56.6380  -2
   4  -3  -2 3643.77 56.6380   1
  -4   1   3 576.057 23.9131  -2
   4  -3  -1 576.057 23.9131   1
  -4   3   0 128.577 21.7025   1
  -4   0   3 171.068 31.0907  -2
   4  -3   0 171.068 31.0907   1
  -4   3  -1 103.262 21.9952   1
  -4   3  -2-5.22412 18.6941   1
  -4   3  -3 736.384 26.6267   1
   4  -3   4 811.578 41.4825   1
  -4   3  -5 42.9597 32.0514   1
  -4   3  -6 492.128 76.7717   1
  -4   3  -7 783.616 91.2791   1
  -4   3  -8 47.6227 76.7999   1
   4  -2 -11 365.931 85.8131   1
   4  -2 -10 51.1506 75.1264   1
   4  -2  -9 287.509 77.4353   1
   4  -2  -8 675.968 83.2917   1
   4  -2  -7 177.927 60.8186   1
   4  -2  -6 621.260 72.4819   1
  -4   5   2 290.110 79.3263  -2
   4  -2  -5 290.110 79.3263   1
  -4   4   2 1032.35 41.9302  -2
   4  -2  -4 1032.35 41.9302   1
  -4   3   2 3210.63 66.3606  -2
   4  -2  -3 3210.63 66.3606   1
  -4   2   2 188.236 28.3105  -2
   4  -2  -2 188.236 28.3105   1
  -4   1   2 910.427 38.5707  -2
   4  -2  -1 910.427 38.5707   1
  -4   0   2 1373.51 38.9062  -2
   4  -2   0 1373.51 38.9062   1
  -4  -1   2 1187.40 37.7604  -2
   4  -2   1 1187.40 37.7604   1
  -4   2  -2 1245.16 34.5168   1
  -4   2  -3 1097.30 34.1984   1
   4  -2   4 1.97649 17.9193   1
   4  -2   5 359.651 17.2935   1
  -4   2  -6 772.010 82.2580   1
  -4   2  -7-3.48353 69.6742   1
  -4   2  -8 776.502 93.8026   1
   4  -1 -11-33.8146 79.0739   1
   4  -1 -10 156.244 78.6316   1
   4  -1  -9 303.545 79.3061   1
   4  -1  -8-36.5691 62.4874   1
   4  -1  -7 1431.32 96.3863   1
   4  -1  -6 775.814 76.1047   1
   4  -1  -5 169.098 53.5791   1
   4  -1  -4 1099.08 62.1580   1
  -4   4   1 1852.48 66.1661  -2
   4  -1  -4 1852.48 66.1661   1
  -4   3   1 834.031 47.9509  -2
   4  -1  -3 834.031 47.9509   1
  -4   2   1 806.019 41.3475  -2
   4  -1  -2 806.019 41.3475   1
  -4   1   1 2694.54 61.0554  -2
   4  -1  -1 2694.54 61.0554   1
  -4   0   1 629.562 36.3845  -2
   4  -1   0 629.562 36.3845   1
   4   1  -1 204.508 25.1980  -2
  -4   1  -1 204.508 25.1980   1
   4  -1   2 2434.08 64.6463   1
   4   2  -1 3157.86 49.6753  -2
  -4   1  -2 3157.86 49.6753   1
   4  -1   3 328.388 18.9110   1
   4  -1   4 609.026 20.1103   1
  -4   1  -5 830.938 76.4982   1
  -4   1  -6 63.3871 58.0843   1
  -4   1  -7 193.560 71.5613   1
  -4   1  -8 1015.97 94.9911   1
  -4   1  -9 33.5479 76.9885   1
   4   0 -11 140.618 87.5068   1
   4   0 -10 482.775 88.8706   1
   4   0  -9-43.9795 74.2206   1
   4   0  -8 1433.20 104.265   1
   4   0  -7 1443.72 95.1556   1
   4   0  -6 16.6452 59.0504   1
   4   0  -5 633.910 73.0464   1
   4   0  -4 541.025 43.0880   1
   4   0  -3-1.24475 42.8155   1
  -4   3   0 98.9588 66.3161  -2
   4   0  -3 98.9588 66.3161   1
  -4   2   0 1104.15 52.6741  -2
   4   0  -2 1104.15 52.6741   1
  -4   1   0 557.915 46.5768  -2
   4   0  -1 557.915 46.5768   1
  -4   0   0 1991.19 55.8700  -2
   4   0   0 1991.19 55.8700   1
  -4  -1   0 3902.44 56.1916  -2
   4   0   1 3902.44 56.1916   1
   4   2   0 1438.47 33.1148  -2
  -4   0  -2 1438.47 33.1148   1
   4   0   3 1274.98 43.8762   1
   4   3   0 1363.25 37.7559  -2
  -4   0  -3 1363.25 37.7559   1
   4   0   4 2762.75 30.0906   1
   4   0   5 678.938 32.7758   1
  -4   0  -6 80.0931 60.9491   1
  -4   0  -7 180.919 70.8505   1
  -4   0  -8 23.0324 67.8203   1
  -4   0  -9 562.693 89.7324   1
  -4   0 -10 250.081 90.8828   1
   4   1 -10 40.2487 76.8159   1
   4   1  -9 370.456 85.7296   1
   4   1  -8 836.790 93.9006   1
   4   1  -7 78.0332 66.6986   1
   4   1  -6 1298.78 90.2022   1
   4   1  -5 351.655 65.3507   1
   4   1  -4 75.0259 52.3717   1
  -4  -1   3 660.411 58.3176   1
  -4   3  -1 814.898 79.2473  -2
   4   1  -3 814.898 79.2473   1
   4   1  -2 1007.17 65.4843   1
  -4   2  -1 1330.13 80.6345  -2
   4   1  -2 1330.13 80.6345   1
  -4   1  -1 135.346 33.3099  -2
   4   1  -1 135.346 33.3099   1
  -4   0  -1 4035.64 62.0947  -2
   4   1   0 4035.64 62.0947   1
  -4  -1  -1 1030.40 38.4518  -2
   4   1   1 1030.40 38.4518   1
  -4  -2  -1 505.388 33.6096  -2
   4   1   2 505.388 33.6096   1
   4   3   1 2021.47 49.0973  -2
  -4  -1  -3 2021.47 49.0973   1
   4   1   4 724.683 34.1224   1
   4   4   1 2028.06 40.3969  -2
  -4  -1  -4 2028.06 40.3969   1
  -4  -1  -5 79.2944 18.1862   1
   4   1   6 1433.41 48.9592   1
  -4  -1  -7 80.7522 32.1311   1
  -4  -1  -8 361.634 72.1326   1
  -4  -1  -9 125.232 73.7219   1
  -4  -1 -10 68.4201 76.8430   1
   4   2 -10 183.576 90.8543   1
   4   2  -9 449.166 93.0654   1
   4   2  -8 14.8426 78.1680   1
   4   2  -7 282.592 74.9915   1
   4   2  -6 629.043 81.3800   1
   4   2  -5 5.06901 56.6749   1
   4   2  -4 645.207 71.0124   1
   4   2  -3 923.369 70.9517   1
   4   2  -2 385.480 32.2612   1
  -4  -2   1 961.955 64.8691   1
  -4   1  -2 2468.15 93.2835  -2
   4   2  -1 2468.15 93.2835   1
  -4   0  -2 1636.92 58.0474  -2
   4   2   0 1636.92 58.0474   1
  -4  -1  -2 356.026 35.9301  -2
   4   2   1 356.026 35.9301   1
  -4  -2  -2 520.406 36.0708  -2
   4   2   2 520.406 36.0708   1
  -4  -3  -2 856.958 37.8163  -2
   4   2   3 856.958 37.8163   1
   4   4   2 1162.43 30.7470  -2
  -4  -2  -4 1162.43 30.7470   1
   4   5   2 3909.37 124.987  -2
  -4  -2  -5 3909.37 124.987   1
  -4  -2  -6 5.84467 10.9539   1
   4   2   7 611.450 44.6035   1
  -4  -2  -8 1110.57 53.3659   1
  -4  -2  -9 86.6301 73.2520   1
  -4  -2 -10 277.600 82.3080   1
   4   3  -9 42.0940 83.5157   1
   4   3  -8 258.477 85.9476   1
   4   3  -7 40.4095 72.8634   1
   4   3  -6 57.3741 67.3870   1
   4   3  -5 461.791 77.5248   1
   4   3  -4 668.925 76.9074   1
   4   3  -3 274.209 61.7659   1
   4   3  -2 2824.16 72.3597   1
  -4  -3   1 964.756 46.9763   1
  -4   1  -3 1097.62 87.1981  -2
   4   3  -1 1097.62 87.1981   1
  -4  -3   0 27.4602 44.0854   1
  -4   0  -3 955.391 79.8660  -2
   4   3   0 955.391 79.8660   1
  -4  -1  -3 2351.59 66.0417  -2
   4   3   1 2351.59 66.0417   1
  -4  -2  -3 1226.69 47.1640  -2
   4   3   2 1226.69 47.1640   1
  -4  -3  -3 542.143 34.5812  -2
   4   3   3 542.143 34.5812   1
  -4  -4  -3 1672.73 43.1104  -2
   4   3   4 1672.73 43.1104   1
   4   5   3 525.019 39.4021  -2
  -4  -3  -5 525.019 39.4021   1
  -4  -3  -6 559.965 27.9436   1
   4   6   3 975.477 46.7230  -2
  -4  -3  -6 975.477 46.7230   1
   4   3   7 751.698 50.5978   1
  -4  -7  -3 1212.68 41.4651  -2
   4   3   7 1212.68 41.4651   1
   4   3   8 51.6996 39.7496   1
  -4  -3  -9 171.358 45.5338   1
  -4  -3 -10 982.953 97.9485   1
  -4  -3 -11 67.6054 83.1869   1
   4   4  -8 551.765 102.353   1
   4   4  -7 33.9415 83.4610   1
   4   4  -6 437.020 90.6065   1
   4   4  -5 696.587 88.8739   1
   4   4  -4 17.9845 69.6292   1
   4   4  -3 600.344 74.8758   1
   4   4  -2 982.290 81.0072   1
   4   4  -1 21.3132 54.5764   1
  -4  -4   0 2111.28 51.3541   1
  -4  -4  -1 2178.58 49.6548   1
  -4  -2  -4 833.489 41.7288  -2
   4   4   2 833.489 41.7288   1
  -4  -3  -4 1225.62 43.7943  -2
   4   4   3 1225.62 43.7943   1
  -4  -4  -4 127.213 29.6883  -2
   4   4   4 127.213 29.6883   1
   4   5   4 213.838 35.4116  -2
  -4  -4  -5 213.838 35.4116   1
   4   6   4 2249.55 50.5959  -2
  -4  -4  -6 2249.55 50.5959   1
  -4  -4  -7 4.68860 24.1377   1
   4   7   4 430.424 44.7546  -2
  -4  -4  -7 430.424 44.7546   1
  -4  -4  -8 116.190 64.9815   1
  -4  -8  -4 83.3975 34.3391  -2
   4   4   8 83.3975 34.3391   1
   4   4   9 793.870 57.3437   1
  -4  -4 -10 184.647 48.4563   1
  -4  -4 -11 632.983 94.3906   1
   4   5  -7 312.714 89.1664   1
   4   5  -6 473.233 86.6994   1
   4   5  -5 43.7719 75.0898   1
   4   5  -4 208.410 72.3547   1
   4   5  -3 750.919 89.9277   1
   4   5  -2 53.1302 63.0049   1
   4   5  -1 479.959 75.0577   1
   4   5   0 1775.29 92.9760   1
   4   5   1 121.521 39.4588   1
  -4  -5  -2 2064.70 86.1437   1
  -4  -2  -5 3602.87 83.9371  -2
   4   5   2 3602.87 83.9371   1
  -4  -3  -5 517.061 42.4267  -2
   4   5   3 517.061 42.4267   1
  -4  -4  -5 264.699 39.6264  -2
   4   5   4 264.699 39.6264   1
   4   5   5 642.372 46.3796  -2
  -4  -5  -5 642.372 46.3796   1
  -4  -6  -5 683.946 45.9132  -2
   4   5   6 683.946 45.9132   1
   4   7   5 116.020 34.1921  -2
  -4  -5  -7 116.020 34.1921   1
   4   8   5 947.738 55.5764  -2
  -4  -5  -8 947.738 55.5764   1
  -4  -5  -9 95.4795 49.2655   1
  -4  -5 -10 319.770 51.8232   1
  -4  -5 -11 460.701 61.1545   1
   4   6  -6 36.2726 84.5218   1
   4   6  -5 623.199 94.2358   1
   4   6  -4 1043.75 103.868   1
   4   6  -3 197.587 76.3762   1
   4   6  -2 454.849 80.8340   1
   4   6  -1 424.648 84.2581   1
   4   6   0 58.3232 69.8431   1
   4   6   1 376.042 75.6420   1
  -4  -2  -6 161.828 86.9092  -2
   4   6   2 161.828 86.9092   1
   4   6   3 645.963 70.8810   1
   4   3   6 1061.32 83.9223  -2
  -4  -6  -3 1061.32 83.9223   1
  -4  -4  -6 1821.06 60.3753  -2
   4   6   4 1821.06 60.3753   1
   4   5   6 633.837 51.1481  -2
  -4  -6  -5 633.837 51.1481   1
  -4  -6  -6 26.4476 38.3212  -2
   4   6   6 26.4476 38.3212   1
  -4  -7  -6 3549.46 81.4167  -2
   4   6   7 3549.46 81.4167   1
  -4  -8  -6 209.389 54.8113  -2
   4   6   8 209.389 54.8113   1
   4   9   6 156.328 43.9958  -2
  -4  -6  -9 156.328 43.9958   1
  -4  -6 -10 357.859 55.5512   1
   4   6  11 6.34821 51.5506   1
  -4  -6 -12 454.145 64.5568   1
   4   7  -5 382.539 106.512   1
   4   7  -4 123.903 85.1495   1
   4   7  -3 236.116 91.2422   1
   4   7  -2 769.802 97.6779   1
   4   7  -1 97.5835 78.8212   1
   4   7   0 279.194 80.3399   1
   4   7   1 645.687 94.7147   1
   4   7   2 42.0475 75.8270   1
   4   7   3 656.261 80.9761   1
  -4  -4  -7 571.018 90.0835  -2
   4   7   4 571.018 90.0835   1
  -4  -5  -7 143.156 92.7940  -2
   4   7   5 143.156 92.7940   1
  -4  -6  -7 3700.17 91.1694  -2
   4   7   6 3700.17 91.1694   1
  -4  -7  -7 1048.67 62.7044  -2
   4   7   7 1048.67 62.7044   1
  -4  -8  -7 171.125 57.7565  -2
   4   7   8 171.125 57.7565   1
  -4  -9  -7 813.828 69.6169  -2
   4   7   9 813.828 69.6169   1
  -4 -10  -7 191.047 67.9642  -2
   4   7  10 191.047 67.9642   1
  -4  -7 -11 168.904 80.9445   1
  -4 -11  -7 204.084 107.618  -2
   4   7  11 204.084 107.618   1
  -4  -7 -12 336.185 63.8138   1
   4   8  -3 710.076 112.660   1
   4   8  -2 2.19617 82.3431   1
   4   8  -1 892.288 108.615   1
   4   8   0 454.055 91.7686   1
   4   8   1 79.0801 80.3073   1
   4   8   2 230.684 75.8637   1
   4   8   3 1074.48 70.1551   1
   4   8   4 37.8954 73.4305   1
  -4  -5  -8 836.412 112.015  -2
   4   8   5 836.412 112.015   1
  -4  -6  -8 316.999 101.936  -2
   4   8   6 316.999 101.936   1
  -4  -7  -8 219.438 64.8278  -2
   4   8   7 219.438 64.8278   1
   4   8   8 1685.51 80.8905  -2
  -4  -8  -8 1685.51 80.8905   1
  -4  -9  -8 153.868 63.0201  -2
   4   8   9 153.868 63.0201   1
  -4 -10  -8 76.5116 69.0028  -2
   4   8  10 76.5116 69.0028   1
  -4 -11  -8 483.668 79.7347  -2
   4   8  11 483.668 79.7347   1
  -4  -8 -12 86.7647 85.2795   1
   4   9  -1 226.518 99.4131   1
   4   9   0 6.89742 85.6589   1
   4   9   1 229.622 89.4503   1
   4   9   2 964.913 75.0903   1
   4   9   3-16.9723 79.7649   1
   4   9   4 374.183 91.2298   1
   4   9   5 67.2975 77.1353   1
  -4  -6  -9 131.042 105.568  -2
   4   9   6 131.042 105.568   1
  -4  -7  -9 1176.65 130.918  -2
   4   9   7 1176.65 130.918   1
   4   8   9 114.552 64.0531  -2
  -4  -9  -8 114.552 64.0531   1
  -4  -9  -9 70.6194 62.2767  -2
   4   9   9 70.6194 62.2767   1
   4  10   9 819.272 114.444  -2
  -4  -9 -10 819.272 114.444   1
   4  11   9 215.500 100.939  -2
  -4  -9 -11 215.500 100.939   1
  -4  -9 -12 39.3998 75.7718   1
   4  10   1 657.591 116.222   1
   4  10   2-6.87185 89.4598   1
   4  10   3 601.310 108.626   1
   4  10   4 620.508 106.895   1
   4  10   5-9.23168 85.3109   1
  -4  -6 -10 472.182 127.693  -2
   4  10   6 472.182 127.693   1
  -4  -7 -10 199.485 117.362  -2
   4  10   7 199.485 117.362   1
  -4  -8 -10 139.771 110.208  -2
   4  10   8 139.771 110.208   1
  -4  -9 -10 854.565 137.065  -2
   4  10   9 854.565 137.065   1
  -4 -10 -10 91.8445 60.3867  -2
   4  10  10 91.8445 60.3867   1
   4  11   4-2.23311 95.2072   1
   4  11   5 233.281 98.5776   1
  -4  -6 -11 256.388 135.713  -2
   4  11   6 256.388 135.713   1
  -4  -7 -11 44.6126 127.929  -2
   4  11   7 44.6126 127.929   1
  -4  -8 -11 706.499 138.589  -2
   4  11   8 706.499 138.589   1
  -4  -9 -11 342.800 127.579  -2
   4  11   9 342.800 127.579   1
  -4 -10 -11 319.327 127.087  -2
   4  11  10 319.327 127.087   1
  -5  10   3 296.177 87.6820   1
  -5  10   2 24.3653 82.7933   1
  -5  10   1 534.830 91.8945   1
   5  -6  -9 376.500 118.626  -2
  -5   9   6 376.500 118.626   1
  -5   9   5 292.753 86.1819   1
  -5   9   4 497.478 91.2120   1
  -5   9   3 13.9968 80.7284   1
  -5   9   2 11.4619 75.7257   1
  -5   9   1 375.491 81.4345   1
  -5   9   0 10.5743 72.3180   1
   5  -8  -8 401.998 101.484  -2
  -5   8   8 401.998 101.484   1
   5  -7  -8 288.914 117.857  -2
  -5   8   7 288.914 117.857   1
   5  -6  -8 373.772 109.836  -2
  -5   8   6 373.772 109.836   1
   5  -5  -8 1255.48 128.438  -2
  -5   8   5 1255.48 128.438   1
  -5   8   4 65.5986 70.8968   1
  -5   8   3 234.814 79.4569   1
  -5   8   2 442.022 82.1772   1
  -5   8   1-40.3008 68.5358   1
  -5   8   0 272.366 69.6352   1
  -5   8  -1 371.915 75.6626   1
  -5   8   7 200.741 78.5286  -2
   5  -7  -8 200.741 78.5286   1
   5  -7  -7 166.873 87.0062  -2
  -5   7   7 166.873 87.0062   1
   5  -6  -7 353.919 109.226  -2
  -5   7   6 353.919 109.226   1
   5  -5  -7 664.064 111.527  -2
  -5   7   5 664.064 111.527   1
  -5   7   4 70.7729 67.4148   1
  -5   7   3 1370.62 99.2327   1
  -5   7   2 25.8134 67.3931   1
  -5   7   1 317.262 38.6296   1
  -5   7   0 413.615 42.3598   1
  -5   7  -1-27.8155 38.2014   1
  -5   7  -2 593.814 50.9679   1
  -5   7  -3 190.036 63.0272   1
  -5   7  -4 135.980 73.1751   1
  -5   9   6 483.353 122.673  -2
   5  -6  -9 483.353 122.673   1
  -5   8   6 225.855 107.889  -2
   5  -6  -8 225.855 107.889   1
  -5   7   6 310.714 77.7881  -2
   5  -6  -7 310.714 77.7881   1
   5  -6  -6-17.8330 98.0274  -2
  -5   6   6-17.8330 98.0274   1
   5  -5  -6 762.397 115.920  -2
  -5   6   5 762.397 115.920   1
   5  -4  -6 1740.58 123.700  -2
  -5   6   4 1740.58 123.700   1
   5  -6  -3 587.857 38.2766   1
   5  -3  -6 1436.83 110.515  -2
  -5   6   3 1436.83 110.515   1
  -5   6   2 368.761 35.5803   1
  -5   6   1 2080.94 59.4225   1
  -5   6   0 0.71276 34.9646   1
  -5   6  -1 306.648 42.0120   1
  -5   6  -2 328.632 43.0380   1
  -5   6  -3 25.7872 62.5612   1
  -5   6  -4 203.883 69.7696   1
  -5   6  -5 168.493 80.6805   1
   5  -5 -10 175.638 86.3491   1
   5  -5  -9 132.590 79.3208   1
  -5   8   5 1113.62 125.492  -2
   5  -5  -8 1113.62 125.492   1
  -5   7   5 658.152 110.799  -2
   5  -5  -7 658.152 110.799   1
  -5   6   5 551.451 114.303  -2
   5  -5  -6 551.451 114.303   1
  -5   5   5 1174.51 50.8283  -2
   5  -5  -5 1174.51 50.8283   1
  -5   4   5 624.489 41.7256  -2
   5  -5  -4 624.489 41.7256   1
  -5   3   5 459.519 36.2004  -2
   5  -5  -3 459.519 36.2004   1
  -5   5   2 1777.93 40.8416   1
  -5   5   1 109.672 25.4197   1
  -5   5   0 237.676 29.1233   1
  -5   5  -1 278.624 33.4169   1
  -5   5  -2 25.7134 29.4855   1
  -5   5  -3 836.544 47.3530   1
  -5   5  -4 252.072 68.0002   1
  -5   5  -5-9.12036 65.5012   1
  -5   5  -6 255.533 83.5747   1
   5  -4 -10 35.7972 82.7745   1
   5  -4  -9 362.168 90.1658   1
   5  -4  -8 514.939 86.1484   1
  -5   7   4 160.440 100.395  -2
   5  -4  -7 160.440 100.395   1
  -5   6   4 1594.07 62.7741  -2
   5  -4  -6 1594.07 62.7741   1
  -5   5   4 718.578 53.9005  -2
   5  -4  -5 718.578 53.9005   1
  -5   4   4 199.071 37.2893  -2
   5  -4  -4 199.071 37.2893   1
  -5   3   4 1623.83 49.5233  -2
   5  -4  -3 1623.83 49.5233   1
  -5   2   4 113.534 40.9096  -2
   5  -4  -2 113.534 40.9096   1
  -5   4   1 453.853 28.9055   1
  -5   1   4 688.193 51.0112  -2
   5  -4  -1 688.193 51.0112   1
  -5   4   0 732.131 30.1361   1
  -5   4  -1 72.8839 23.5552   1
   5  -4   2 364.676 31.2350   1
  -5   4  -3 1499.63 90.8505   1
  -5   4  -4-11.6904 62.4258   1
  -5   4  -5 164.052 67.9597   1
  -5   4  -6 131.343 73.9937   1
  -5   4  -7 6.15490 79.6033   1
   5  -3 -10 159.786 82.2567   1
   5  -3  -9 148.473 78.4217   1
   5  -3  -8 65.6967 77.4912   1
   5  -3  -7 898.915 54.5936   1
   5  -3  -6 1227.63 70.1363   1
  -5   6   3 1508.51 117.643  -2
   5  -3  -6 1508.51 117.643   1
  -5   5   3 536.387 50.6590  -2
   5  -3  -5 536.387 50.6590   1
  -5   4   3 1665.81 58.3080  -2
   5  -3  -4 1665.81 58.3080   1
  -5   3   3 727.863 41.0625  -2
   5  -3  -3 727.863 41.0625   1
  -5   2   3 98.8938 41.7380  -2
   5  -3  -2 98.8938 41.7380   1
  -5   1   3 1101.84 32.3969  -2
   5  -3  -1 1101.84 32.3969   1
   5  -3   0 48.6602 46.2972   1
  -5   0   3 136.637 24.8891  -2
   5  -3   0 136.637 24.8891   1
  -5   3  -1 306.023 25.5634   1
   5  -3   2 815.615 45.4205   1
   5  -3   3 326.755 28.4059   1
   5  -3   4 974.562 44.2694   1
  -5   3  -5 669.543 82.2689   1
  -5   3  -6-16.2170 68.5322   1
  -5   3  -7 382.479 88.4579   1
   5  -2 -10 339.110 91.9566   1
   5  -2  -9-42.0863 73.4480   1
   5  -2  -8 512.080 87.5144   1
   5  -2  -7 863.031 95.0035   1
   5  -2  -6 43.3512 38.6265   1
   5  -2  -5 1393.85 74.6050   1
  -5   5   2 2506.23 127.824  -2
   5  -2  -5 2506.23 127.824   1
  -5   4   2 128.908 44.4549  -2
   5  -2  -4 128.908 44.4549   1
  -5   3   2 117.507 42.5467  -2
   5  -2  -3 117.507 42.5467   1
  -5   2   2 2400.01 72.9314  -2
   5  -2  -2 2400.01 72.9314   1
  -5   1   2 853.583 39.4039  -2
   5  -2  -1 853.583 39.4039   1
  -5   0   2 412.444 32.0698  -2
   5  -2   0 412.444 32.0698   1
   5  -2   1 560.346 30.7955   1
   5   1  -2 1635.63 83.8245  -2
  -5   2  -1 1635.63 83.8245   1
  -5   2  -2-5.68055 24.8338   1
   5  -2   3 1132.75 34.5915   1
  -5   2  -4 1873.81 50.1067   1
   5  -2   5 279.794 25.4480   1
  -5   2  -6 206.100 72.1750   1
  -5   2  -7 503.101 87.4112   1
  -5   2  -8 6.46199 78.1175   1
   5  -1 -10 25.9507 83.6199   1
   5  -1  -9 455.824 93.7008   1
   5  -1  -8 467.913 85.3116   1
   5  -1  -7 5.28224 68.1778   1
   5  -1  -6 864.785 89.4208   1
   5  -1  -5 625.324 76.7727   1
   5  -1  -4 485.635 57.9830   1
  -5   4   1 637.849 87.5963  -2
   5  -1  -4 637.849 87.5963   1
  -5   3   1 1113.47 58.7150  -2
   5  -1  -3 1113.47 58.7150   1
  -5   2   1 1024.16 51.1720  -2
   5  -1  -2 1024.16 51.1720   1
  -5   1   1 115.802 36.3301  -2
   5  -1  -1 115.802 36.3301   1
  -5   0   1 5484.97 75.4765  -2
   5  -1   0 5484.97 75.4765   1
  -5  -1   1 900.078 42.8925  -2
   5  -1   1 900.078 42.8925   1
   5  -1   2 118.549 37.9957   1
   5   2  -1 129.075 45.4563  -2
  -5   1  -2 129.075 45.4563   1
   5  -1   3 420.061 26.3261   1
   5  -1   4 14.6126 11.6030   1
  -5   1  -5 181.414 16.4604   1
  -5   1  -6 744.981 86.9895   1
  -5   1  -7-19.5534 73.5025   1
  -5   1  -8 367.374 84.2516   1
   5   0  -9 1022.73 109.921   1
   5   0  -8 1.39929 75.1363   1
   5   0  -7 286.099 75.1568   1
   5   0  -6 630.045 81.7490   1
   5   0  -5 16.8989 59.3498   1
   5   0  -4 238.492 63.7295   1
   5   0  -3 147.116 52.0671   1
  -5   3   0 141.011 79.6946  -2
   5   0  -3 141.011 79.6946   1
   5   0  -2 111.165 48.6746   1
  -5   2   0 312.614 47.3795  -2
   5   0  -2 312.614 47.3795   1
  -5   1   0 4875.92 88.8161  -2
   5   0  -1 4875.92 88.8161   1
  -5   0   0 956.972 43.3109  -2
   5   0   0 956.972 43.3109   1
  -5  -1   0 289.865 37.1849  -2
   5   0   1 289.865 37.1849   1
  -5  -2   0 1701.06 49.0367  -2
   5   0   2 1701.06 49.0367   1
   5   0   3 506.124 42.2081   1
   5   3   0 842.659 45.5759  -2
  -5   0  -3 842.659 45.5759   1
   5   0   4 459.462 23.8354   1
   5   0   5 378.285 14.8181   1
  -5   0  -6 2.75559 67.5243   1
  -5   0  -7 804.744 89.3599   1
  -5   0  -8 439.057 86.3324   1
  -5   0  -9 43.8663 83.5538   1
   5   1  -9-51.0392 75.5364   1
   5   1  -8 435.547 88.3090   1
   5   1  -7 374.971 85.4557   1
   5   1  -6-19.0434 65.6639   1
   5   1  -5 226.786 67.2622   1
   5   1  -4 243.268 66.8909   1
  -5   3  -1 300.890 82.4445  -2
   5   1  -3 300.890 82.4445   1
   5   1  -2 1982.95 88.2109   1
  -5   2  -1 2367.64 109.713  -2
   5   1  -2 2367.64 109.713   1
  -5   1  -1 816.278 47.1110  -2
   5   1  -1 816.278 47.1110   1
  -5   0  -1 282.968 39.4538  -2
   5   1   0 282.968 39.4538   1
  -5  -1  -1 2486.80 69.2585  -2
   5   1   1 2486.80 69.2585   1
  -5  -2  -1 1048.02 48.4164  -2
   5   1   2 1048.02 48.4164   1
  -5  -3  -1 212.234 30.8509  -2
   5   1   3 212.234 30.8509   1
   5   1   4 1778.42 56.9786   1
   5   4   1 1891.40 54.6116  -2
  -5  -1  -4 1891.40 54.6116   1
   5   1   5 37.6852 22.4701   1
  -5  -5  -1 168.309 34.1457  -2
   5   1   5 168.309 34.1457   1
  -5  -1  -6 414.937 39.1574   1
  -5  -1  -7 349.238 37.3153   1
  -5  -1  -8 60.8565 74.4298   1
  -5  -1  -9 274.158 86.2625   1
   5   2  -8 299.828 88.4415   1
   5   2  -7 52.4412 73.9051   1
   5   2  -6 876.819 94.3474   1
   5   2  -5 1657.43 103.691   1
   5   2  -4-17.6167 59.1969   1
   5   2  -3 367.795 66.1116   1
  -5   2  -2 336.013 82.4990  -2
   5   2  -2 336.013 82.4990   1
  -5  -2   1-1.92563 53.7149   1
  -5   1  -2 91.7934 71.1712  -2
   5   2  -1 91.7934 71.1712   1
  -5   0  -2 1844.96 70.8381  -2
   5   2   0 1844.96 70.8381   1
  -5  -1  -2 1045.17 44.8385  -2
   5   2   1 1045.17 44.8385   1
  -5  -2  -2 961.182 43.3044  -2
   5   2   2 961.182 43.3044   1
  -5  -3  -2 2557.12 63.2515  -2
   5   2   3 2557.12 63.2515   1
  -5  -4  -2 332.706 45.6893  -2
   5   2   4 332.706 45.6893   1
   5   2   5 716.773 41.0040   1
   5   5   2 838.332 92.0722  -2
  -5  -2  -5 838.332 92.0722   1
  -5  -2  -6 1557.02 98.3748   1
  -5  -6  -2 2607.62 53.3568  -2
   5   2   6 2607.62 53.3568   1
   5   2   7 136.572 39.7304   1
  -5  -2  -8 152.302 38.9650   1
  -5  -2  -9 174.507 80.4187   1
  -5  -2 -10-19.2853 82.6238   1
   5   3  -7 164.186 92.9307   1
   5   3  -6 507.844 93.8715   1
   5   3  -5 16.7459 68.2499   1
   5   3  -4 1476.59 102.174   1
   5   3  -3 669.150 79.8166   1
   5   3  -2 18.4669 58.0545   1
  -5   1  -3 1283.85 101.425  -2
   5   3  -1 1283.85 101.425   1
  -5  -3   0 601.216 63.5702   1
  -5   0  -3 863.722 86.1251  -2
   5   3   0 863.722 86.1251   1
  -5  -1  -3 97.7292 48.4223  -2
   5   3   1 97.7292 48.4223   1
  -5  -2  -3 2613.16 70.6833  -2
   5   3   2 2613.16 70.6833   1
  -5  -3  -3 537.602 44.5453  -2
   5   3   3 537.602 44.5453   1
   5   4   3 643.321 43.7637  -2
  -5  -3  -4 643.321 43.7637   1
  -5  -5  -3 1131.55 42.9659  -2
   5   3   5 1131.55 42.9659   1
   5   6   3 1353.69 56.9938  -2
  -5  -3  -6 1353.69 56.9938   1
  -5  -3  -7 84.4706 62.8947   1
  -5  -7  -3 71.7515 34.9741  -2
   5   3   7 71.7515 34.9741   1
   5   3   8 714.360 53.5795   1
  -5  -3  -9 62.8580 42.1366   1
  -5  -3 -10 179.339 85.2377   1
   5   4  -7 298.066 95.7985   1
   5   4  -6 26.4008 78.2311   1
   5   4  -5 328.178 89.1245   1
   5   4  -4 1291.88 105.203   1
   5   4  -3 0.27676 68.9442   1
   5   4  -2 1301.74 94.5349   1
   5   4  -1 1413.34 96.6954   1
  -5   0  -4 260.411 88.1192  -2
   5   4   0 260.411 88.1192   1
  -5  -1  -4 1062.93 94.7978  -2
   5   4   1 1062.93 94.7978   1
  -5  -2  -4 307.299 53.3223  -2
   5   4   2 307.299 53.3223   1
  -5  -3  -4 632.663 48.8372  -2
   5   4   3 632.663 48.8372   1
  -5  -4  -4 555.976 47.0441  -2
   5   4   4 555.976 47.0441   1
  -5  -5  -4 164.205 37.0368  -2
   5   4   5 164.205 37.0368   1
  -5  -6  -4 108.641 34.7853  -2
   5   4   6 108.641 34.7853   1
   5   7   4 2843.86 74.5954  -2
  -5  -4  -7 2843.86 74.5954   1
  -5  -4  -8 188.324 74.9779   1
  -5  -4  -9 231.796 50.9536   1
  -5  -4 -10 406.005 57.0845   1
   5   5  -6 250.721 90.1807   1
   5   5  -5 421.567 96.0374   1
   5   5  -4 160.347 81.9000   1
   5   5  -3 108.768 73.8874   1
   5   5  -2 486.330 86.0709   1
   5   5  -1 228.621 75.1371   1
   5   5   0 1579.21 101.546   1
  -5  -1  -5 332.746 96.8361  -2
   5   5   1 332.746 96.8361   1
  -5  -2  -5 647.624 100.140  -2
   5   5   2 647.624 100.140   1
  -5  -3  -5 1137.81 71.4554  -2
   5   5   3 1137.81 71.4554   1
  -5  -4  -5 212.511 44.1095  -2
   5   5   4 212.511 44.1095   1
  -5  -5  -5 216.267 43.7055  -2
   5   5   5 216.267 43.7055   1
   5   6   5 1650.28 62.7056  -2
  -5  -5  -6 1650.28 62.7056   1
  -5  -7  -5 1020.33 70.6616  -2
   5   5   7 1020.33 70.6616   1
   5   8   5 433.545 96.5311  -2
  -5  -5  -8 433.545 96.5311   1
  -5  -5  -9 292.000 52.9685   1
   5   5  10 39.6314 51.7527   1
   5   6  -5 10.0086 87.0639   1
   5   6  -4 118.787 83.3007   1
   5   6  -3 567.434 94.1761   1
   5   6  -2 17.9571 75.2131   1
   5   6  -1 785.500 91.3501   1
   5   6   0 136.858 71.5116   1
   5   6   1 118.022 80.7696   1
   5   6   2 1874.06 107.168   1
  -5  -3  -6 2280.46 137.812  -2
   5   6   3 2280.46 137.812   1
  -5  -4  -6 307.042 104.373  -2
   5   6   4 307.042 104.373   1
  -5  -5  -6 1191.61 62.0851  -2
   5   6   5 1191.61 62.0851   1
   5   6   6 241.439 47.5196  -2
  -5  -6  -6 241.439 47.5196   1
  -5  -7  -6 101.822 59.2164  -2
   5   6   7 101.822 59.2164   1
  -5  -8  -6 1548.21 83.3982  -2
   5   6   8 1548.21 83.3982   1
   5   9   6 139.617 93.5088  -2
  -5  -6  -9 139.617 93.5088   1
   5   6  10 189.567 55.3689   1
   5   6  11 385.627 87.4910   1
   5   7  -3-7.46848 91.5388   1
   5   7  -2 157.938 87.0508   1
   5   7  -1 420.333 96.7388   1
   5   7   0 4.99713 82.7240   1
   5   7   1 284.728 80.1957   1
  -5  -2  -7 1204.34 120.107  -2
   5   7   2 1204.34 120.107   1
   5   7   3 21.5796 70.8017   1
  -5  -4  -7 2660.89 133.916  -2
   5   7   4 2660.89 133.916   1
  -5  -5  -7 906.041 120.846  -2
   5   7   5 906.041 120.846   1
  -5  -6  -7 35.4595 59.1887  -2
   5   7   6 35.4595 59.1887   1
  -5  -7  -7 771.200 81.8630  -2
   5   7   7 771.200 81.8630   1
   5   8   7 216.604 67.0107  -2
  -5  -7  -8 216.604 67.0107   1
   5   9   7 268.159 97.6420  -2
  -5  -7  -9 268.159 97.6420   1
  -5 -10  -7 549.868 79.4973  -2
   5   7  10 549.868 79.4973   1
  -5  -7 -11 106.414 90.2670   1
  -5 -11  -7 176.551 112.502  -2
   5   7  11 176.551 112.502   1
   5   8  -2 384.593 105.823   1
   5   8  -1 118.895 94.9169   1
   5   8   0 267.259 95.4454   1
   5   8   1 150.813 83.8763   1
   5   8   2 127.966 82.3713   1
   5   8   3 647.899 92.9970   1
   5   8   4 582.050 84.3471   1
  -5  -5  -8 234.611 108.995  -2
   5   8   5 234.611 108.995   1
  -5  -6  -8 1401.96 144.230  -2
   5   8   6 1401.96 144.230   1
  -5  -7  -8 193.908 68.8515  -2
   5   8   7 193.908 68.8515   1
  -5  -8  -8-37.0542 64.0887  -2
   5   8   8-37.0542 64.0887   1
   5   9   8 948.818 122.570  -2
  -5  -8  -9 948.818 122.570   1
   5  10   8 146.113 100.846  -2
  -5  -8 -10 146.113 100.846   1
   5  11   8 13.4023 107.509  -2
  -5  -8 -11 13.4023 107.509   1
   5   9   0 408.203 106.740   1
   5   9   1-19.3408 91.2641   1
   5   9   2 225.822 92.8904   1
   5   9   3 509.395 91.6493   1
  -5  -4  -9 111.519 122.496  -2
   5   9   4 111.519 122.496   1
  -5  -5  -9 589.776 131.585  -2
   5   9   5 589.776 131.585   1
  -5  -6  -9 65.3100 114.098  -2
   5   9   6 65.3100 114.098   1
  -5  -7  -9 237.607 107.830  -2
   5   9   7 237.607 107.830   1
  -5  -8  -9 1219.06 97.1101  -2
   5   9   8 1219.06 97.1101   1
   5   9   9 331.313 106.521  -2
  -5  -9  -9 331.313 106.521   1
   5  10   9 147.993 98.6807  -2
  -5  -9 -10 147.993 98.6807   1
   5  10   2 583.483 112.063   1
   5  10   3 10.2048 98.9461   1
   5  10   4 152.384 95.5560   1
   5  10   5 179.982 97.4234   1
   5  10   6 28.3777 83.0805   1
  -5  -7 -10 611.286 133.861  -2
   5  10   7 611.286 133.861   1
  -5  -8 -10 255.187 127.510  -2
   5  10   8 255.187 127.510   1
  -5  -9 -10 197.070 117.819  -2
   5  10   9 197.070 117.819   1
   5  10  10 645.525 127.678  -2
  -5 -10 -10 645.525 127.678   1
  -5  -7 -11 48.0625 136.355  -2
   5  11   7 48.0625 136.355   1
  -5  -8 -11 271.217 135.044  -2
   5  11   8 271.217 135.044   1
  -6   9   3 489.005 98.3759   1
  -6   9   2 46.3034 76.4967   1
  -6   9   1 159.438 78.7263   1
   6  -5  -8 441.919 119.223  -2
  -6   8   5 441.919 119.223   1
  -6   8   4 315.134 88.0872   1
  -6   8   3-34.2293 77.4915   1
  -6   8   2 286.789 79.2497   1
  -6   8   1 582.013 91.0319   1
  -6   8   0-13.5474 69.5954   1
  -6   7   7 342.262 126.187  -2
   6  -7  -7 342.262 126.187   1
  -6   6   7 278.549 83.0303  -2
   6  -7  -6 278.549 83.0303   1
   6  -5  -7 1167.81 128.105  -2
  -6   7   5 1167.81 128.105   1
  -6   7   4 106.586 73.6608   1
  -6   7   3 191.542 71.5191   1
  -6   7   2 817.125 90.5911   1
  -6   7   1 14.5119 64.5125   1
  -6   7   0 181.118 65.1430   1
  -6   7  -1 232.663 64.5343   1
  -6   7   6 248.252 119.534  -2
   6  -6  -7 248.252 119.534   1
  -6   6   6 1046.07 142.826  -2
   6  -6  -6 1046.07 142.826   1
  -6   5   6 1066.41 133.221  -2
   6  -6  -5 1066.41 133.221   1
  -6   4   6 185.949 70.0585  -2
   6  -6  -4 185.949 70.0585   1
  -6   6   3 1118.96 95.0996   1
  -6   6   2 53.9412 64.2070   1
  -6   6   1 317.979 42.6885   1
  -6   6   0 195.423 41.0102   1
  -6   6  -1 0.34872 38.6315   1
  -6   6  -2 318.241 68.9261   1
  -6   6  -3 329.659 73.6873   1
  -6   6  -4 9.89639 73.5538   1
  -6   8   5 199.381 114.125  -2
   6  -5  -8 199.381 114.125   1
  -6   7   5 1162.74 132.918  -2
   6  -5  -7 1162.74 132.918   1
  -6   6   5 791.070 126.093  -2
   6  -5  -6 791.070 126.093   1
  -6   5   5 240.896 82.3752  -2
   6  -5  -5 240.896 82.3752   1
  -6   4   5 1260.17 128.924  -2
   6  -5  -4 1260.17 128.924   1
  -6   3   5 623.332 94.8208  -2
   6  -5  -3 623.332 94.8208   1
   6  -5  -2 53.0849 64.5855   1
   6  -5  -1 937.191 52.4495   1
  -6   5   0-6.43864 50.8907   1
  -6   5  -1 211.613 59.5141   1
  -6   5  -2 143.338 64.4523   1
  -6   5  -3 5.01066 61.4937   1
  -6   5  -4 584.327 90.2013   1
  -6   5  -5 358.094 87.6069   1
   6  -4  -8 449.265 95.6860   1
  -6   7   4 781.379 116.956  -2
   6  -4  -7 781.379 116.956   1
  -6   6   4 165.478 95.0549  -2
   6  -4  -6 165.478 95.0549   1
  -6   5   4 950.424 128.282  -2
   6  -4  -5 950.424 128.282   1
  -6   4   4 17.9083 42.2326  -2
   6  -4  -4 17.9083 42.2326   1
  -6   3   4 603.119 47.4546  -2
   6  -4  -3 603.119 47.4546   1
  -6   2   4 1417.92 52.9873  -2
   6  -4  -2 1417.92 52.9873   1
   6  -4  -1 247.522 60.3795   1
  -6   1   4 661.252 37.7382  -2
   6  -4  -1 661.252 37.7382   1
   6  -4   0 187.082 40.0940   1
   6  -4   1 878.950 53.2881   1
  -6   4  -2 25.7999 37.9014   1
   6  -4   3 454.400 45.4965   1
  -6   4  -4 732.035 86.7902   1
  -6   4  -5 36.3519 73.7190   1
  -6   4  -6 306.319 87.0359   1
   6  -3  -8 388.649 91.6391   1
   6  -3  -7 68.8547 72.3564   1
  -6   6   3 1798.41 131.846  -2
   6  -3  -6 1798.41 131.846   1
  -6   5   3 658.379 112.506  -2
   6  -3  -5 658.379 112.506   1
  -6   4   3 573.160 62.4047  -2
   6  -3  -4 573.160 62.4047   1
  -6   3   3 484.908 48.4787  -2
   6  -3  -3 484.908 48.4787   1
  -6   2   3 8.34011 31.7964  -2
   6  -3  -2 8.34011 31.7964   1
  -6   1   3 277.624 41.1036  -2
   6  -3  -1 277.624 41.1036   1
   6  -3   0 1796.34 90.1374   1
  -6   0   3 2677.03 59.9773  -2
   6  -3   0 2677.03 59.9773   1
   6  -3   1 377.202 34.7846   1
  -6   3  -2 379.004 33.7682   1
   6  -3   3 586.423 45.2268   1
  -6   3  -4 99.3668 65.2994   1
  -6   3  -5 540.041 85.8218   1
  -6   3  -6 178.396 82.1998   1
   6  -2  -8 7.80827 83.0375   1
   6  -2  -7 658.104 97.6325   1
   6  -2  -6 694.047 90.9113   1
  -6   5   2 87.9979 97.2924  -2
   6  -2  -5 87.9979 97.2924   1
  -6   4   2 1173.00 120.129  -2
   6  -2  -4 1173.00 120.129   1
  -6   3   2 80.7696 49.8445  -2
   6  -2  -3 80.7696 49.8445   1
  -6   2   2 81.8974 50.7877  -2
   6  -2  -2 81.8974 50.7877   1
  -6   1   2 2411.33 87.7038  -2
   6  -2  -1 2411.33 87.7038   1
  -6   0   2 103.876 48.6115  -2
   6  -2   0 103.876 48.6115   1
  -6  -1   2 497.653 42.0966  -2
   6  -2   1 497.653 42.0966   1
   6  -2   2 925.180 39.5054   1
  -6   2  -3 401.852 40.0201   1
   6  -2   4 208.294 34.8868   1
  -6   2  -5 954.834 95.0209   1
  -6   2  -6-12.9626 72.1469   1
  -6   2  -7 212.402 85.5007   1
   6  -1  -8 300.468 91.2859   1
   6  -1  -7 211.840 82.3146   1
   6  -1  -6 8.76873 69.5418   1
   6  -1  -5 439.669 81.8850   1
  -6   4   1 920.468 107.559  -2
   6  -1  -4 920.468 107.559   1
  -6   3   1 319.778 88.6071  -2
   6  -1  -3 319.778 88.6071   1
  -6   2   1 2249.85 136.391  -2
   6  -1  -2 2249.85 136.391   1
  -6   1   1 984.962 108.650  -2
   6  -1  -1 984.962 108.650   1
  -6   0   1 107.120 51.0412  -2
   6  -1   0 107.120 51.0412   1
  -6  -1   1 1728.79 56.2958  -2
   6  -1   1 1728.79 56.2958   1
   6  -1   2 37.6798 43.8512   1
  -6  -2   1 345.636 49.5390  -2
   6  -1   2 345.636 49.5390   1
   6  -1   3 88.9480 34.6809   1
   6  -1   4 580.998 39.3995   1
  -6   1  -5 95.1130 68.6042   1
  -6   1  -6 750.106 92.8568   1
  -6   1  -7 275.981 82.4386   1
   6   0  -8 165.414 86.8442   1
   6   0  -7 72.8773 78.0019   1
   6   0  -6 263.863 79.6585   1
   6   0  -5 752.402 91.7848   1
   6   0  -4 35.7320 67.2114   1
  -6   3   0 2480.81 128.379  -2
   6   0  -3 2480.81 128.379   1
  -6   2   0 217.983 84.8412  -2
   6   0  -2 217.983 84.8412   1
  -6   1   0 136.584 81.6133  -2
   6   0  -1 136.584 81.6133   1
  -6   0   0 2613.23 95.3409  -2
   6   0   0 2613.23 95.3409   1
  -6  -1   0 708.305 49.8984  -2
   6   0   1 708.305 49.8984   1
  -6  -2   0 470.848 42.0260  -2
   6   0   2 470.848 42.0260   1
   6   0   3 291.150 45.6778   1
   6   3   0 1133.20 98.1214  -2
  -6   0  -3 1133.20 98.1214   1
  -6   0  -4 8.10917 22.2889   1
  -6   0  -5 1052.96 92.6697   1
  -6   0  -6 1128.85 100.190   1
  -6   0  -7 125.701 79.9832   1
  -6   0  -8 343.447 90.8319   1
   6   1  -7 150.939 83.3628   1
   6   1  -6 198.083 77.7700   1
   6   1  -5 12.8669 73.1107   1
   6   1  -4 994.382 90.0552   1
  -6   3  -1 802.469 99.8104  -2
   6   1  -3 802.469 99.8104   1
  -6   2  -1 556.869 94.4584  -2
   6   1  -2 556.869 94.4584   1
  -6   1  -1 2125.89 123.240  -2
   6   1  -1 2125.89 123.240   1
  -6   0  -1 957.962 99.6939  -2
   6   1   0 957.962 99.6939   1
  -6  -1  -1 54.8571 35.1830  -2
   6   1   1 54.8571 35.1830   1
  -6  -2  -1 2714.66 72.4485  -2
   6   1   2 2714.66 72.4485   1
  -6  -3  -1 313.802 38.3383  -2
   6   1   3 313.802 38.3383   1
   6   1   4 469.117 48.3165   1
   6   4   1 508.367 93.7769  -2
  -6  -1  -4 508.367 93.7769   1
   6   1   5 552.423 37.4623   1
   6   1   6 21.9075 33.6624   1
  -6  -1  -7 102.776 79.1285   1
  -6  -1  -8 618.594 93.9925   1
   6   2  -7 562.182 97.7605   1
   6   2  -6 22.1987 80.0096   1
   6   2  -5 228.819 82.5392   1
   6   2  -4 766.732 90.2761   1
   6   2  -3-25.8637 71.3076   1
  -6   2  -2 1632.01 112.410  -2
   6   2  -2 1632.01 112.410   1
  -6   1  -2 397.726 91.2230  -2
   6   2  -1 397.726 91.2230   1
  -6   0  -2 336.864 84.8387  -2
   6   2   0 336.864 84.8387   1
  -6  -2  -1 2080.53 96.8490   1
  -6  -1  -2 2588.69 134.082  -2
   6   2   1 2588.69 134.082   1
  -6  -2  -2 932.437 55.9141  -2
   6   2   2 932.437 55.9141   1
  -6  -3  -2 403.227 58.2762  -2
   6   2   3 403.227 58.2762   1
  -6  -4  -2 819.598 46.3206  -2
   6   2   4 819.598 46.3206   1
  -6  -5  -2 224.151 50.5549  -2
   6   2   5 224.151 50.5549   1
  -6  -2  -6 421.279 78.6755   1
  -6  -2  -7 424.973 47.6691   1
  -6  -2  -8 308.186 83.5658   1
   6   3  -6 709.095 103.497   1
   6   3  -5 885.013 103.048   1
   6   3  -4 126.066 73.9307   1
   6   3  -3 269.168 75.5189   1
   6   3  -2 144.333 67.2275   1
  -6   1  -3 53.1128 86.2683  -2
   6   3  -1 53.1128 86.2683   1
  -6   0  -3 1700.47 110.125  -2
   6   3   0 1700.47 110.125   1
  -6  -1  -3 235.168 85.7514  -2
   6   3   1 235.168 85.7514   1
  -6  -2  -3 349.371 49.7135  -2
   6   3   2 349.371 49.7135   1
  -6  -3  -3 1395.23 65.6557  -2
   6   3   3 1395.23 65.6557   1
  -6  -4  -3 530.073 50.3620  -2
   6   3   4 530.073 50.3620   1
  -6  -5  -3 54.7064 52.8610  -2
   6   3   5 54.7064 52.8610   1
   6   6   3 1084.17 112.040  -2
  -6  -3  -6 1084.17 112.040   1
  -6  -3  -7 252.024 78.6798   1
  -6  -3  -8 254.688 83.6228   1
  -6  -3  -9 320.072 94.5677   1
   6   4  -5 28.6717 84.0128   1
   6   4  -4 624.697 95.3798   1
   6   4  -3 1320.26 108.766   1
   6   4  -2 0.78755 70.9325   1
  -6   1  -4 669.938 107.848  -2
   6   4  -1 669.938 107.848   1
  -6   0  -4-20.8879 92.1820  -2
   6   4   0-20.8879 92.1820   1
  -6  -1  -4 370.301 99.2824  -2
   6   4   1 370.301 99.2824   1
  -6  -2  -4 980.410 116.203  -2
   6   4   2 980.410 116.203   1
  -6  -3  -4 570.547 72.2331  -2
   6   4   3 570.547 72.2331   1
  -6  -4  -4 235.731 47.5366  -2
   6   4   4 235.731 47.5366   1
  -6  -5  -4 1582.11 63.4249  -2
   6   4   5 1582.11 63.4249   1
   6   6   4 693.624 105.897  -2
  -6  -4  -6 693.624 105.897   1
   6   7   4 188.340 91.4706  -2
  -6  -4  -7 188.340 91.4706   1
  -6  -4  -8 637.502 93.7981   1
  -6  -4  -9 3.84135 85.7402   1
   6   5  -4 723.669 109.175   1
   6   5  -3 38.7347 81.2950   1
   6   5  -2 943.576 101.924   1
   6   5  -1 182.484 79.3936   1
  -6   0  -5 667.563 110.611  -2
   6   5   0 667.563 110.611   1
  -6  -1  -5 957.983 113.267  -2
   6   5   1 957.983 113.267   1
  -6  -2  -5 316.698 101.079  -2
   6   5   2 316.698 101.079   1
  -6  -3  -5 14.5095 90.6487  -2
   6   5   3 14.5095 90.6487   1
  -6  -4  -5 1573.99 89.8347  -2
   6   5   4 1573.99 89.8347   1
  -6  -5  -5 828.861 58.0163  -2
   6   5   5 828.861 58.0163   1
  -6  -6  -5 230.177 64.3647  -2
   6   5   6 230.177 64.3647   1
  -6  -7  -5 1110.71 78.5749  -2
   6   5   7 1110.71 78.5749   1
   6   8   5 382.982 111.355  -2
  -6  -5  -8 382.982 111.355   1
  -6  -5  -9 245.873 89.0939   1
  -6  -9  -5 142.333 92.9954  -2
   6   5   9 142.333 92.9954   1
   6   6  -3 490.731 101.288   1
   6   6  -2 558.282 97.3883   1
   6   6  -1 0.85632 86.0381   1
   6   6   0 1048.56 102.460   1
   6   6   1 523.331 84.8579   1
  -6  -2  -6 279.091 105.815  -2
   6   6   2 279.091 105.815   1
  -6  -3  -6 942.028 113.059  -2
   6   6   3 942.028 113.059   1
  -6  -4  -6 834.568 115.698  -2
   6   6   4 834.568 115.698   1
  -6  -5  -6 291.534 66.9049  -2
   6   6   5 291.534 66.9049   1
  -6  -6  -6 568.643 80.7678  -2
   6   6   6 568.643 80.7678   1
  -6  -7  -6 92.0299 62.8188  -2
   6   6   7 92.0299 62.8188   1
   6   8   6 162.149 103.672  -2
  -6  -6  -8 162.149 103.672   1
   6   9   6 1040.87 124.476  -2
  -6  -6  -9 1040.87 124.476   1
  -6 -10  -6 286.276 111.462  -2
   6   6  10 286.276 111.462   1
   6   7  -2 39.5296 93.1593   1
   6   7  -1 149.010 94.3405   1
   6   7   0 300.207 94.3477   1
   6   7   1 36.8278 86.8995   1
  -6  -2  -7 1053.36 136.149  -2
   6   7   2 1053.36 136.149   1
  -6  -3  -7 778.824 126.954  -2
   6   7   3 778.824 126.954   1
  -6  -4  -7 121.145 101.793  -2
   6   7   4 121.145 101.793   1
  -6  -5  -7 932.429 117.433  -2
   6   7   5 932.429 117.433   1
  -6  -6  -7 34.1813 69.1670  -2
   6   7   6 34.1813 69.1670   1
  -6  -7  -7 91.5523 59.6228  -2
   6   7   7 91.5523 59.6228   1
   6   8   7 658.387 119.094  -2
  -6  -7  -8 658.387 119.094   1
   6   9   7 386.113 112.172  -2
  -6  -7  -9 386.113 112.172   1
  -6 -10  -7 262.354 114.981  -2
   6   7  10 262.354 114.981   1
   6   8   0 38.8514 108.086   1
   6   8   1 1078.74 114.184   1
   6   8   2 477.369 90.9374   1
  -6  -3  -8 15.7255 116.224  -2
   6   8   3 15.7255 116.224   1
  -6  -4  -8 989.599 130.009  -2
   6   8   4 989.599 130.009   1
  -6  -5  -8 529.865 83.9014  -2
   6   8   5 529.865 83.9014   1
  -6  -6  -8 26.7257 117.468  -2
   6   8   6 26.7257 117.468   1
  -6  -7  -8 451.910 82.0377  -2
   6   8   7 451.910 82.0377   1
   6   8   8 53.6442 84.1921  -2
  -6  -8  -8 53.6442 84.1921   1
   6   9   8 135.165 108.569  -2
  -6  -8  -9 135.165 108.569   1
   6   9   2 135.184 96.5991   1
  -6  -3  -9 301.078 136.060  -2
   6   9   3 301.078 136.060   1
   6   9   4 449.983 109.034   1
  -6  -4  -9 510.907 129.908  -2
   6   9   4 510.907 129.908   1
  -6  -5  -9 220.901 135.566  -2
   6   9   5 220.901 135.566   1
  -6  -6  -9 1054.02 149.225  -2
   6   9   6 1054.02 149.225   1
  -6  -7  -9 324.005 121.844  -2
   6   9   7 324.005 121.844   1
  -6  -5 -10 929.523 153.470  -2
   6  10   5 929.523 153.470   1
  -6  -6 -10 731.759 151.857  -2
   6  10   6 731.759 151.857   1
  -6  -7 -10 216.971 129.450  -2
   6  10   7 216.971 129.450   1
  -6  -8 -10 592.976 141.816  -2
   6  10   8 592.976 141.816   1
  -7   8   2 44.3701 74.9503   1
  -7   4   7 591.674 125.466  -2
   7  -7  -4 591.674 125.466   1
   7  -7  -3 62.6125 76.7710   1
   7  -7  -2 356.561 86.6953   1
   7  -7  -1 368.194 85.4771   1
  -7   5   6 997.702 143.892  -2
   7  -6  -5 997.702 143.892   1
  -7   4   6 111.776 112.365  -2
   7  -6  -4 111.776 112.365   1
  -7   3   6 488.476 111.853  -2
   7  -6  -3 488.476 111.853   1
   7  -6  -2 278.114 79.2633   1
   7  -6  -1 10.6013 73.5151   1
   7  -6   0 312.663 74.0329   1
  -7   6   5 1261.61 160.087  -2
   7  -5  -6 1261.61 160.087   1
  -7   5   5 537.511 129.260  -2
   7  -5  -5 537.511 129.260   1
  -7   4   5 282.341 113.900  -2
   7  -5  -4 282.341 113.900   1
  -7   3   5 787.574 119.007  -2
   7  -5  -3 787.574 119.007   1
  -7   2   5 199.484 103.322  -2
   7  -5  -2 199.484 103.322   1
   7  -5  -1 115.165 43.0179   1
   7  -5   0 461.792 52.9443   1
   7  -5   1 44.9007 44.7693   1
  -7   5  -2 386.787 76.9915   1
  -7   5  -3 475.789 85.7581   1
  -7   5  -4 20.5860 76.3240   1
  -7   6   4 381.051 120.502  -2
   7  -4  -6 381.051 120.502   1
  -7   5   4 96.5159 114.075  -2
   7  -4  -5 96.5159 114.075   1
  -7   4   4 359.694 112.878  -2
   7  -4  -4 359.694 112.878   1
  -7   3   4 104.102 101.936  -2
   7  -4  -3 104.102 101.936   1
  -7   2   4 195.875 90.6926  -2
   7  -4  -2 195.875 90.6926   1
   7  -4  -1 926.841 90.5808   1
   7  -4   0 144.390 43.7049   1
   7  -4   1 465.962 51.3978   1
  -7   4  -2 368.100 78.6473   1
  -7   4  -3 53.6093 68.1149   1
  -7   4  -4 370.935 85.6296   1
  -7   4  -5 564.627 98.0652   1
  -7   6   3 429.469 117.586  -2
   7  -3  -6 429.469 117.586   1
  -7   5   3 776.720 125.976  -2
   7  -3  -5 776.720 125.976   1
  -7   4   3 303.576 109.522  -2
   7  -3  -4 303.576 109.522   1
  -7   3   3 202.663 98.4114  -2
   7  -3  -3 202.663 98.4114   1
  -7   2   3 1702.77 141.401  -2
   7  -3  -2 1702.77 141.401   1
  -7   1   3 670.247 104.095  -2
   7  -3  -1 670.247 104.095   1
  -7   0   3 157.259 56.7664  -2
   7  -3   0 157.259 56.7664   1
   7  -3   1 1104.65 60.2475   1
   7  -3   2 165.590 44.4990   1
  -7   3  -3 94.7260 74.5451   1
  -7   3  -4 55.3762 73.9678   1
  -7   3  -5-45.4140 78.9627   1
   7  -2  -6 312.735 94.5025   1
  -7   5   2 398.816 110.692  -2
   7  -2  -5 398.816 110.692   1
  -7   4   2 181.420 101.456  -2
   7  -2  -4 181.420 101.456   1
  -7   3   2 1464.83 142.424  -2
   7  -2  -3 1464.83 142.424   1
  -7   2   2 29.4652 69.0382  -2
   7  -2  -2 29.4652 69.0382   1
  -7   1   2 406.353 96.3052  -2
   7  -2  -1 406.353 96.3052   1
  -7   0   2 1466.66 76.4064  -2
   7  -2   0 1466.66 76.4064   1
  -7  -1   2 779.702 65.0038  -2
   7  -2   1 779.702 65.0038   1
   7  -2   2 207.404 44.2206   1
  -7   2  -3 397.826 77.6722   1
  -7   2  -4 30.1228 69.2533   1
  -7   2  -5 533.842 91.1301   1
  -7   2  -6 519.662 97.8403   1
   7  -1  -6 276.807 87.6264   1
   7  -1  -5 24.0712 76.1931   1
  -7   4   1 1201.07 124.145  -2
   7  -1  -4 1201.07 124.145   1
  -7   3   1 682.427 109.912  -2
   7  -1  -3 682.427 109.912   1
  -7   2   1 452.820 108.779  -2
   7  -1  -2 452.820 108.779   1
  -7   1   1 950.895 118.294  -2
   7  -1  -1 950.895 118.294   1
  -7   0   1 226.880 60.0973  -2
   7  -1   0 226.880 60.0973   1
  -7  -1   1 120.559 56.7725  -2
   7  -1   1 120.559 56.7725   1
  -7  -2   1 1366.59 69.6775  -2
   7  -1   2 1366.59 69.6775   1
   7  -1   3 91.8446 38.4348   1
  -7   1  -4 553.050 84.9294   1
  -7   1  -5 594.862 93.6746   1
  -7   1  -6-2.81785 81.8275   1
   7   0  -6 29.3760 80.2541   1
   7   0  -5 600.880 99.0835   1
   7   0  -4 847.294 96.0725   1
  -7   3   0 86.1630 97.6240  -2
   7   0  -3 86.1630 97.6240   1
  -7   2   0 1521.85 128.014  -2
   7   0  -2 1521.85 128.014   1
  -7   1   0 164.943 94.3744  -2
   7   0  -1 164.943 94.3744   1
  -7   0   0 114.970 58.2352  -2
   7   0   0 114.970 58.2352   1
  -7  -1   0 1797.27 88.7194  -2
   7   0   1 1797.27 88.7194   1
  -7  -2   0 275.623 57.9156  -2
   7   0   2 275.623 57.9156   1
  -7  -3   0 481.218 57.1603  -2
   7   0   3 481.218 57.1603   1
  -7   0  -4 281.372 77.0215   1
  -7   0  -5 105.231 76.9867   1
  -7   0  -6 354.773 88.9704   1
   7   1  -6 396.591 96.8827   1
   7   1  -5 409.453 88.9334   1
   7   1  -4 9.83526 71.9952   1
  -7   3  -1 1505.90 124.790  -2
   7   1  -3 1505.90 124.790   1
  -7   2  -1 767.295 106.975  -2
   7   1  -2 767.295 106.975   1
  -7   1  -1 59.2721 90.9907  -2
   7   1  -1 59.2721 90.9907   1
  -7   0  -1 1554.50 129.412  -2
   7   1   0 1554.50 129.412   1
  -7  -1  -1 546.261 71.2921  -2
   7   1   1 546.261 71.2921   1
  -7  -2  -1 523.146 65.4338  -2
   7   1   2 523.146 65.4338   1
  -7  -3  -1 1221.89 69.0765  -2
   7   1   3 1221.89 69.0765   1
  -7  -4  -1 333.213 54.3668  -2
   7   1   4 333.213 54.3668   1
  -7  -1  -5 4.12887 75.0596   1
  -7  -1  -6 627.670 100.616   1
  -7  -1  -7 299.237 87.6662   1
   7   2  -5 12.1188 84.8435   1
   7   2  -4 458.143 92.0357   1
   7   2  -3 906.695 97.2267   1
  -7   2  -2 220.445 101.477  -2
   7   2  -2 220.445 101.477   1
  -7   1  -2 1216.91 111.771  -2
   7   2  -1 1216.91 111.771   1
  -7   0  -2 229.621 91.3182  -2
   7   2   0 229.621 91.3182   1
  -7  -1  -2 351.170 95.3486  -2
   7   2   1 351.170 95.3486   1
  -7  -2  -2 982.562 66.1486  -2
   7   2   2 982.562 66.1486   1
  -7  -3  -2 424.139 65.8333  -2
   7   2   3 424.139 65.8333   1
  -7  -4  -2 413.577 59.9400  -2
   7   2   4 413.577 59.9400   1
   7   5   2 816.116 109.011  -2
  -7  -2  -5 816.116 109.011   1
  -7  -2  -6 328.708 86.2695   1
  -7  -2  -7 257.514 84.9218   1
   7   3  -4 255.741 92.8953   1
   7   3  -3-59.1169 74.8721   1
   7   3  -2 681.618 93.7865   1
  -7   1  -3 128.422 97.3182  -2
   7   3  -1 128.422 97.3182   1
  -7   0  -3 431.174 94.5895  -2
   7   3   0 431.174 94.5895   1
  -7  -1  -3 1394.89 122.256  -2
   7   3   1 1394.89 122.256   1
  -7  -2  -3 494.148 100.226  -2
   7   3   2 494.148 100.226   1
  -7  -3  -3 81.0120 48.9027  -2
   7   3   3 81.0120 48.9027   1
  -7  -4  -3 1364.98 83.8451  -2
   7   3   4 1364.98 83.8451   1
   7   5   3 502.286 111.063  -2
  -7  -3  -5 502.286 111.063   1
   7   6   3 202.204 104.471  -2
  -7  -3  -6 202.204 104.471   1
  -7  -3  -7 514.685 99.8307   1
   7   4  -3 544.946 102.031   1
   7   4  -2 342.217 89.1908   1
   7   4  -1 18.8993 73.8243   1
  -7   0  -4 933.776 119.234  -2
   7   4   0 933.776 119.234   1
  -7  -1  -4 471.689 110.704  -2
   7   4   1 471.689 110.704   1
  -7  -2  -4 212.363 99.4499  -2
   7   4   2 212.363 99.4499   1
  -7  -3  -4 1075.36 120.437  -2
   7   4   3 1075.36 120.437   1
  -7  -4  -4 1468.86 97.9713  -2
   7   4   4 1468.86 97.9713   1
  -7  -5  -4 111.982 63.2213  -2
   7   4   5 111.982 63.2213   1
   7   6   4 530.747 113.204  -2
  -7  -4  -6 530.747 113.204   1
   7   7   4 72.1518 102.096  -2
  -7  -4  -7 72.1518 102.096   1
   7   5  -2-28.0033 87.8863   1
   7   5  -1 346.603 97.0807   1
  -7   0  -5 100.287 115.436  -2
   7   5   0 100.287 115.436   1
  -7  -1  -5-9.58069 109.268  -2
   7   5   1-9.58069 109.268   1
  -7  -2  -5 1125.03 126.074  -2
   7   5   2 1125.03 126.074   1
  -7  -3  -5 681.115 116.504  -2
   7   5   3 681.115 116.504   1
  -7  -4  -5 77.8790 101.588  -2
   7   5   4 77.8790 101.588   1
  -7  -5  -5 1192.48 92.6720  -2
   7   5   5 1192.48 92.6720   1
   7   6   5 349.474 108.859  -2
  -7  -5  -6 349.474 108.859   1
   7   7   5 167.451 103.818  -2
  -7  -5  -7 167.451 103.818   1
   7   6  -1 380.447 106.544   1
  -7   0  -6 83.9363 133.598  -2
   7   6   0 83.9363 133.598   1
  -7  -1  -6 686.716 128.561  -2
   7   6   1 686.716 128.561   1
  -7  -2  -6 765.484 126.269  -2
   7   6   2 765.484 126.269   1
  -7  -3  -6 131.457 111.601  -2
   7   6   3 131.457 111.601   1
  -7  -4  -6 568.633 112.559  -2
   7   6   4 568.633 112.559   1
  -7  -5  -6 366.982 106.104  -2
   7   6   5 366.982 106.104   1
   7   6   6 151.899 108.447  -2
  -7  -6  -6 151.899 108.447   1
   7   7   6 563.999 119.536  -2
  -7  -6  -7 563.999 119.536   1
   7   7   0 459.848 121.029   1
   7   7   1 250.891 105.375   1
  -7  -2  -7 361.157 140.280  -2
   7   7   2 361.157 140.280   1
  -7  -3  -7 969.314 147.243  -2
   7   7   3 969.314 147.243   1
  -7  -4  -7 264.961 128.333  -2
   7   7   4 264.961 128.333   1
  -7  -5  -7 114.482 108.863  -2
   7   7   5 114.482 108.863   1
  -7  -6  -7 393.575 126.449  -2
   7   7   6 393.575 126.449   1
  -7  -2  -8 744.329 152.738  -2
   7   8   2 744.329 152.738   1
  -7  -3  -8 226.385 132.112  -2
   7   8   3 226.385 132.112   1
  -7  -4  -8 249.762 130.283  -2
   7   8   4 249.762 130.283   1
  -7  -5  -8 572.297 127.061  -2
   7   8   5 572.297 127.061   1
  -7  -6  -8 393.040 141.371  -2
   7   8   6 393.040 141.371   1
  -7  -4  -9 385.515 129.398  -2
   7   9   4 385.515 129.398   1
  -7  -5  -9 501.152 141.537  -2
   7   9   5 501.152 141.537   1
  -7  -6  -9 71.0643 126.297  -2
   7   9   6 71.0643 126.297   1
   8  -6  -2 259.612 86.4242   1
   8  -6  -1 319.215 91.1303   1
  -8   3   5 208.506 112.125  -2
   8  -5  -3 208.506 112.125   1
  -8   2   5 545.926 118.466  -2
   8  -5  -2 545.926 118.466   1
   8  -5  -1 56.6247 80.8246   1
  -8   4   4 291.770 128.036  -2
   8  -4  -4 291.770 128.036   1
  -8   3   4 922.654 140.817  -2
   8  -4  -3 922.654 140.817   1
  -8   2   4 415.643 121.852  -2
   8  -4  -2 415.643 121.852   1
  -8   1   4 282.713 107.471  -2
   8  -4  -1 282.713 107.471   1
   8  -4   0 309.198 79.3974   1
  -8   4  -1 137.254 72.9459   1
  -8   4  -2 202.975 79.9036   1
  -8   4  -3 290.597 91.4687   1
  -8   4   3 834.943 145.321  -2
   8  -3  -4 834.943 145.321   1
  -8   3   3 690.023 136.006  -2
   8  -3  -3 690.023 136.006   1
  -8   2   3 69.2255 97.5630  -2
   8  -3  -2 69.2255 97.5630   1
  -8   1   3 1288.84 127.548  -2
   8  -3  -1 1288.84 127.548   1
  -8   0   3 414.950 68.0418  -2
   8  -3   0 414.950 68.0418   1
   8  -3   1 116.484 48.9529   1
  -8   3  -2 258.570 81.6577   1
  -8   3  -3-68.5005 81.4833   1
  -8   3  -4 288.937 92.7039   1
  -8   4   2 633.753 125.135  -2
   8  -2  -4 633.753 125.135   1
  -8   3   2 121.997 110.134  -2
   8  -2  -3 121.997 110.134   1
  -8   2   2 451.192 119.435  -2
   8  -2  -2 451.192 119.435   1
  -8   1   2 338.358 106.894  -2
   8  -2  -1 338.358 106.894   1
  -8   0   2 349.542 100.839  -2
   8  -2   0 349.542 100.839   1
  -8  -1   2 969.926 75.5361  -2
   8  -2   1 969.926 75.5361   1
  -8   2  -2 148.955 79.5812   1
  -8   2  -3 312.591 88.0261   1
  -8   2  -4 345.498 93.1022   1
  -8   4   1 296.528 114.964  -2
   8  -1  -4 296.528 114.964   1
  -8   3   1 1028.31 136.977  -2
   8  -1  -3 1028.31 136.977   1
  -8   2   1 348.550 114.424  -2
   8  -1  -2 348.550 114.424   1
  -8   1   1 162.519 99.4787  -2
   8  -1  -1 162.519 99.4787   1
  -8   0   1 814.582 120.484  -2
   8  -1   0 814.582 120.484   1
  -8  -1   1 270.245 67.1362  -2
   8  -1   1 270.245 67.1362   1
  -8  -2   1 492.152 64.6386  -2
   8  -1   2 492.152 64.6386   1
  -8   1  -3 947.368 104.231   1
  -8   1  -4-19.0764 81.1865   1
   8   0  -4 454.077 91.1767   1
  -8   3   0 627.723 122.691  -2
   8   0  -3 627.723 122.691   1
  -8   2   0 179.941 105.867  -2
   8   0  -2 179.941 105.867   1
  -8   1   0 959.697 129.490  -2
   8   0  -1 959.697 129.490   1
  -8   0   0 44.4154 67.4722  -2
   8   0   0 44.4154 67.4722   1
  -8  -1   0 482.095 99.8713  -2
   8   0   1 482.095 99.8713   1
  -8  -2   0 848.395 73.6850  -2
   8   0   2 848.395 73.6850   1
   8   3   0 210.261 103.792  -2
  -8   0  -3 210.261 103.792   1
  -8   0  -4 310.455 87.0512   1
  -8   0  -5 479.251 96.3619   1
   8   1  -4 472.568 98.9820   1
  -8   3  -1 94.9910 107.792  -2
   8   1  -3 94.9910 107.792   1
  -8   2  -1 986.284 124.259  -2
   8   1  -2 986.284 124.259   1
  -8   1  -1 279.130 108.640  -2
   8   1  -1 279.130 108.640   1
  -8   0  -1 732.847 118.124  -2
   8   1   0 732.847 118.124   1
  -8  -1  -1 470.466 104.544  -2
   8   1   1 470.466 104.544   1
  -8  -2  -1 230.840 67.8245  -2
   8   1   2 230.840 67.8245   1
   8   3   1 103.241 99.5126  -2
  -8  -1  -3 103.241 99.5126   1
   8   4   1 611.581 115.160  -2
  -8  -1  -4 611.581 115.160   1
  -8  -1  -5 160.820 86.3007   1
   8   2  -3 406.083 89.1257   1
  -8   2  -2 583.490 118.741  -2
   8   2  -2 583.490 118.741   1
  -8   1  -2 243.734 110.118  -2
   8   2  -1 243.734 110.118   1
  -8   0  -2 956.855 127.667  -2
   8   2   0 956.855 127.667   1
  -8  -1  -2 263.200 99.5554  -2
   8   2   1 263.200 99.5554   1
  -8  -2  -2 79.2792 93.7758  -2
   8   2   2 79.2792 93.7758   1
  -8  -3  -2 1030.08 86.1692  -2
   8   2   3 1030.08 86.1692   1
   8   4   2 703.394 121.107  -2
  -8  -2  -4 703.394 121.107   1
   8   5   2 66.3806 106.243  -2
  -8  -2  -5 66.3806 106.243   1
  -8   2  -3 183.361 117.951  -2
   8   3  -2 183.361 117.951   1
  -8   1  -3 1160.60 137.447  -2
   8   3  -1 1160.60 137.447   1
  -8   0  -3 468.913 120.899  -2
   8   3   0 468.913 120.899   1
  -8  -1  -3 67.4761 107.333  -2
   8   3   1 67.4761 107.333   1
  -8  -2  -3 838.925 122.694  -2
   8   3   2 838.925 122.694   1
  -8  -3  -3 950.728 122.763  -2
   8   3   3 950.728 122.763   1
   8   4   3 161.187 110.872  -2
  -8  -3  -4 161.187 110.872   1
   8   5   3 856.936 132.489  -2
  -8  -3  -5 856.936 132.489   1
  -8   1  -4 518.253 133.109  -2
   8   4  -1 518.253 133.109   1
  -8   0  -4 134.599 122.051  -2
   8   4   0 134.599 122.051   1
  -8  -1  -4 766.988 137.365  -2
   8   4   1 766.988 137.365   1
  -8  -2  -4 811.693 131.870  -2
   8   4   2 811.693 131.870   1
  -8  -3  -4 226.536 117.849  -2
   8   4   3 226.536 117.849   1
   8   4   4 870.505 142.593  -2
  -8  -4  -4 870.505 142.593   1
  -8   0  -5 638.930 137.760  -2
   8   5   0 638.930 137.760   1
  -8  -1  -5 558.604 136.007  -2
   8   5   1 558.604 136.007   1
  -8  -2  -5 104.117 127.086  -2
   8   5   2 104.117 127.086   1
  -8  -3  -5 1178.62 154.429  -2
   8   5   3 1178.62 154.429   1
  -8  -1  -6 38.5529 139.634  -2
   8   6   1 38.5529 139.634   1
  -8  -2  -6 321.485 139.490  -2
   8   6   2 321.485 139.490   1
  -8  -3  -6 324.422 135.824  -2
   8   6   3 324.422 135.824   1
  -8  -4  -6 105.266 122.498  -2
   8   6   4 105.266 122.498   1
   8   7   2 92.1809 99.5390   1
  -8  -3  -7 87.4633 131.472  -2
   8   7   3 87.4633 131.472   1
  -8  -4  -7 404.685 130.315  -2
   8   7   4 404.685 130.315   1
  -9   1   3 222.078 116.795  -2
   9  -3  -1 222.078 116.795   1
  -9   2   2 165.441 116.547  -2
   9  -2  -2 165.441 116.547   1
  -9   1   2 690.672 137.144  -2
   9  -2  -1 690.672 137.144   1
  -9   1   1 397.685 123.512  -2
   9  -1  -1 397.685 123.512   1
  -9   0   1 421.683 117.328  -2
   9  -1   0 421.683 117.328   1
  -9   1   0 223.157 120.943  -2
   9   0  -1 223.157 120.943   1
  -9   0   0 529.062 127.760  -2
   9   0   0 529.062 127.760   1
  -9   1  -1 612.108 128.612  -2
   9   1  -1 612.108 128.612   1
  -9   0  -1 66.7845 92.2223  -2
   9   1   0 66.7845 92.2223   1
  -9  -1  -1 274.818 112.819  -2
   9   1   1 274.818 112.819   1
   9   2  -1 475.184 94.6796   1
  -9   0  -2 150.895 121.889  -2
   9   2   0 150.895 121.889   1
  -9  -1  -2 541.855 134.065  -2
   9   2   1 541.855 134.065   1
  -9   0  -3 677.570 133.242  -2
   9   3   0 677.570 133.242   1
  -9  -1  -3 693.105 134.591  -2
   9   3   1 693.105 134.591   1
  -9  -1  -4-4.23288 136.008  -2
   9   4   1-4.23288 136.008   1
  -9  -2  -4 965.181 151.970  -2
   9   4   2 965.181 151.970   1
   0   0   2 52.5436 21.0591   2
   0   0  -3 103.468 22.4335   2
   0   0  -4 380.197 51.5300   2
   0   0  -5 180.014 48.4964   2
   0   0   6 366.879 40.4332   2
   0   0  -7-7.37426 58.0947   2
   0   0  -8 514.553 83.6818   2
   0   0  -9 426.234 89.1146   2
   0   0 -10-1.64159 79.8282   2
   0   0 -11 333.838 102.809   2
   0   1 -11-29.0277 97.9766   2
   0   1 -10 252.719 92.0976   2
   0   1  -9 632.215 96.5564   2
   0   1  -8 23.6552 69.5401   2
   0   1  -7 317.707 68.3714   2
   0  -1   6 900.896 48.9535   2
   0   1  -5 16.0126 31.5592   2
   0   1  -4 1067.89 45.1774   2
   0  -1   3 1599.16 40.7170   2
   0   1  -2 52.2856 20.6758   2
   0  -1   1 2675.14 30.1533   2
   0  -1  -2 2521.47 56.7523   2
   0  -1  -3 523.605 50.7713   2
   0  -1  -4 237.996 51.0302   2
   0  -1  -5 167.499 54.1448   2
   0  -1  -6 45.4690 52.7803   2
   0   1   7 677.225 50.1973   2
   0  -1  -8 758.771 84.9355   2
   0  -1  -9-8.31416 75.9106   2
   0  -1 -10 445.281 92.0923   2
   0  -1 -11 352.298 99.6728   2
   0  -1 -12 0.53979 99.7273   2
   0   2 -11 2.26095 100.625   2
   0   2 -10 427.217 92.4912   2
   0   2  -9-7.26786 85.4465   2
   0   2  -8 413.572 82.0522   2
   0   2  -7 121.995 66.0831   2
   0   2  -6 49.5600 30.9381   2
   0  -2   5 593.129 40.4843   2
   0   2  -4 1871.21 72.1400   2
   0   2  -3 189.642 30.0394   2
   0   2  -2 1334.72 34.5764   2
   0   2  -1 87.1424 19.1205   2
   0   2   0 5.22248 11.2259   2
   0  -2  -4 3435.64 88.7857   2
   0  -2  -5 1103.54 68.4047   2
   0  -2  -6 977.469 71.8991   2
   0   2   7 389.342 45.2179   2
   0  -2  -8 66.1595 65.8694   2
   0  -2  -9 186.449 76.1591   2
   0  -2 -10 214.826 84.0582   2
   0  -2 -11-9.13509 83.7009   2
   0  -2 -12 469.946 109.081   2
   0   3 -10 72.6676 91.3188   2
   0   3  -9-36.1464 78.2116   2
   0   3  -8 303.959 79.6751   2
   0   3  -7 46.6066 61.0948   2
   0   3  -6 323.738 46.3414   2
   0   3  -5 1306.51 51.1478   2
   0   3  -4 78.5416 43.5903   2
   0   3  -3 1774.30 45.3540   2
   0   3  -2 604.220 29.4189   2
   0   3  -1 2.12687 19.6767   2
   0   3   0 2538.15 28.3132   2
   0  -3  -5 1985.36 80.3344   2
   0  -3  -6 2702.81 47.0289   2
   0   3   7 49.3058 21.7510   2
   0  -3  -8 291.045 30.4971   2
   0  -3  -9 452.137 84.6442   2
   0  -3 -10 30.2290 79.2267   2
   0  -3 -11 294.089 92.3722   2
   0  -3 -12 424.757 102.798   2
   0   4  -9 382.950 96.6089   2
   0   4  -8 146.152 72.9883   2
   0   4  -7 56.5539 70.2391   2
   0   4  -6 226.726 45.6389   2
   0   4  -5 48.0814 33.6474   2
   0   4  -4 1420.00 48.5892   2
   0   4  -3 764.489 53.5391   2
   0   4  -2 98.2710 23.2008   2
   0   4  -1 685.701 29.0361   2
   0   4   0 468.135 18.0861   2
   0   4   1 6.83269 16.7432   2
   0  -4  -7 791.158 31.7956   2
   0  -4  -8 1892.58 47.7194   2
   0  -4  -9 334.735 32.9068   2
   0  -4 -10 207.724 83.4368   2
   0  -4 -11-21.1653 88.1268   2
   0  -4 -12-2.58728 91.8688   2
   0   5  -8 217.631 91.0888   2
   0   5  -7 447.679 83.5014   2
   0   5  -6 11.0460 45.6380   2
   0   5  -5 319.625 64.5972   2
   0   5  -4 822.368 45.6884   2
   0   5  -3 38.5223 43.9426   2
   0   5  -2 949.730 37.0017   2
   0   5  -1 436.410 28.0372   2
   0   5   0 400.674 21.5353   2
   0   5   1 2795.43 35.3315   2
   0   5   2 549.609 39.3115   2
   0  -5  -8 180.130 26.7318   2
   0  -5  -9 472.297 31.8153   2
   0  -5 -10 310.127 83.6311   2
   0  -5 -11-14.5247 79.9995   2
   0  -5 -12 106.251 90.4825   2
   0   6  -7 27.9569 78.4246   2
   0   6  -6 255.885 53.4493   2
   0   6  -5 629.342 75.7146   2
   0   6  -4 188.963 38.7055   2
   0   6  -3 16.2686 30.7990   2
   0   6  -2 370.351 47.8768   2
   0   6  -1 24.1111 17.4360   2
   0   6   0 950.744 26.7067   2
   0   6   1 101.701 18.5251   2
   0   6   2 134.733 15.8727   2
   0   6   3 1598.61 63.6669   2
   0  -6  -9 448.476 31.5649   2
   0  -6 -10-22.4532 74.8797   2
   0  -6 -11 205.368 89.8098   2
   0  -6 -12 460.050 106.211   2
   0   7  -6 157.269 59.8274   2
   0   7  -5 44.2943 65.1167   2
   0   7  -4 152.259 62.7361   2
   0   7  -3 363.771 40.4960   2
   0   7  -2 80.7561 23.5109   2
   0   7  -1 502.614 26.7836   2
   0   7   0 113.120 21.1910   2
   0   7   1 103.927 20.3357   2
   0   7   2 1831.18 35.9918   2
   0   7   3 1123.73 29.1443   2
   0   7   4 11.8238 44.4431   2
   0  -7 -11 209.038 58.5106   2
   0  -7 -12 183.967 98.4281   2
   0  -7 -13 460.896 98.2053   2
   0   8  -4 427.196 58.0277   2
   0   8  -3 21.1481 44.2826   2
   0   8  -2 233.525 32.1717   2
   0   8  -1 709.009 35.6703   2
   0   8   0 111.932 26.2884   2
   0   8   1 384.189 28.7642   2
   0   8   2 135.150 25.9231   2
   0   8   3 44.2812 23.3358   2
   0  -8  -4 1370.71 41.1692   2
   0  -8 -12 21.1576 58.8684   2
   0   9  -3 261.737 81.4358   2
   0   9  -2 348.375 49.5493   2
   0   9  -1 9.10442 39.8919   2
   0   9   0 553.763 45.3672   2
   0   9   1 408.506 30.5390   2
   0   9   2 78.0227 26.6851   2
   0   9   3 444.281 31.1799   2
   0   9   4 699.921 30.8162   2
   0  -9  -5 174.841 29.2100   2
   0   9   6 211.209 40.3204   2
   0  10  -2 19.3400 77.2333   2
   0  10  -1 337.260 81.2532   2
   0  10   0 496.147 48.8107   2
   0  10   1 29.4188 34.3747   2
   0  10   2 346.236 39.8333   2
   0  10   3 266.881 30.7411   2
   0  10   4 58.4751 27.1291   2
   0  10   5 121.123 27.5603   2
   0 -10  -6 2.55704 31.1656   2
   0  10   7 80.3468 35.7174   2
   0  11   0 118.394 76.1942   2
   0  11   1 423.225 81.3621   2
   0  11   2 128.153 69.3664   2
   0  11   3 19.8902 35.7963   2
   0  11   4 176.303 38.9000   2
   0  11   5 420.966 41.3109   2
   0  11   6 5.20779 28.0811   2
   0 -11  -7 150.440 36.5248   2
   0  12   2-20.0210 74.5529   2
   0  12   3 255.544 80.4008   2
   0  12   4 273.895 72.7175   2
   0  12   5-13.4718 57.0235   2
   0  12   6 289.472 57.8768   2
   0  12   7 277.319 46.7944   2
   0 -12  -8 68.5319 66.5237   2
   0  13   4-16.9025 71.4272   2
   0  13   5 283.980 72.8633   2
  -1  13   4 99.1201 67.0816   2
  -1  12   8 480.604 60.6228   2
  -1  12   7 14.7372 46.5576   2
  -1  12   6 51.7613 55.5377   2
  -1  12   5 132.188 40.9651   2
  -1  12   4 18.1943 58.7703   2
  -1  12   3 238.946 68.8065   2
  -1  12   2 43.4915 69.6043   2
   1 -11  -7 140.696 47.4987   2
  -1  11   6 82.0876 31.7899   2
  -1  11   5 15.3618 35.3276   2
  -1  11   4 320.231 42.1163   2
  -1  11   3 471.130 45.7616   2
  -1  11   2 21.4594 40.3368   2
  -1  11   1 260.664 72.9866   2
  -1  11   0 153.443 76.2702   2
  -1  10   7 175.425 39.0121   2
   1 -10  -6-1.66308 32.7846   2
  -1  10   5 298.424 33.8987   2
  -1  10   4 686.576 46.9969   2
  -1  10   3 6.72317 32.5550   2
  -1  10   2 289.597 42.1775   2
  -1  10   1 330.361 45.3132   2
  -1  10   0 3.25855 42.5114   2
  -1  10  -1 390.319 54.7359   2
   1  -9 -12 131.155 92.8943   2
  -1   9   6 174.166 36.0243   2
  -1   9   5 215.556 29.4941   2
  -1   9   4 14.8823 31.1248   2
  -1   9   3 1278.93 43.5517   2
  -1   9   2 521.575 34.2135   2
  -1   9   1 59.6339 29.1560   2
  -1   9   0 217.660 59.3131   2
  -1   9  -1 481.262 70.1187   2
  -1   9  -2 13.0178 60.1421   2
  -1   9  -3 320.666 75.7435   2
   1  -8 -12 283.766 90.5748   2
  -1   8   4 267.743 25.6641   2
  -1   8   3 737.959 34.8060   2
  -1   8   2 53.4041 25.1231   2
  -1   8   1 223.521 35.2277   2
  -1   8   0 408.858 39.7262   2
  -1   8  -1 29.5457 33.3260   2
  -1   8  -2 407.457 66.9805   2
  -1   8  -3 103.395 64.5580   2
  -1   8  -4 15.0247 71.2216   2
  -1   8  -5 246.943 83.3601   2
   1  -7 -13 177.184 90.2167   2
   1  -7 -12 241.287 64.7786   2
   1  -7 -11 1.50618 54.6895   2
  -1   7   3 265.511 21.0240   2
  -1   7   2 608.359 26.8824   2
  -1   7   1 456.382 35.2894   2
  -1   7   0 75.9465 28.6581   2
  -1   7  -1 481.455 31.9528   2
  -1   7  -2 166.480 29.2116   2
  -1   7  -3 5.08233 57.9745   2
  -1   7  -4 455.891 76.4924   2
  -1   7  -5 455.317 84.3508   2
  -1   7  -6 16.5857 81.5755   2
  -1   7  -7 192.612 93.1348   2
   1  -6 -13 206.792 86.1327   2
   1  -6 -12 8.20567 58.8081   2
   1  -6 -11 133.301 55.7733   2
   1  -6 -10-31.4614 49.0689   2
   1  -6  -9-8.33745 72.8382   2
  -1   6   2 1359.70 45.1160   2
  -1   6   1 16.5449 20.7614   2
  -1   6   0 343.932 26.2562   2
  -1   6  -1 125.532 23.6842   2
  -1   6  -2 93.1184 33.3857   2
  -1   6  -3 900.993 50.5782   2
  -1   6  -4 519.467 71.0712   2
  -1   6  -5 20.8498 67.7962   2
  -1   6  -6 452.988 87.9662   2
  -1   6  -7 221.752 89.7950   2
  -1   6  -8-4.99384 93.7619   2
   1  -5 -13-6.12402 75.1835   2
   1  -5 -12 467.036 102.962   2
   1  -5 -11 635.939 101.253   2
   1  -5 -10 66.4323 75.6053   2
   1  -5  -9 305.035 76.1461   2
   1  -5  -8 104.448 42.1707   2
  -1   5   2 19.8191 32.7353   2
  -1   5   1 755.460 33.9798   2
  -1   5   0 1394.13 34.0411   2
  -1   5  -1 31.1507 36.6722   2
  -1   5  -2 560.263 37.7884   2
  -1   5  -3 836.907 45.2229   2
  -1   5  -4-9.97228 35.7795   2
  -1   5  -5 573.929 77.7851   2
  -1   5  -6 356.213 80.8911   2
  -1   5  -7 8.71011 77.3336   2
  -1   5  -8 148.056 65.1427   2
  -1   5  -9 137.619 104.557   2
   1  -4 -12 317.623 97.7240   2
   1  -4 -11-29.8386 80.2128   2
   1  -4 -10 743.685 32.7071   2
   1  -4  -9 302.603 22.7504   2
   1  -4  -8 27.9339 13.1420   2
   1  -4  -7 825.752 76.3672   2
  -1   4   1 2170.87 62.6264   2
  -1   4   0 586.197 25.4111   2
  -1   4  -1 63.6228 25.4594   2
  -1   4  -2 718.725 54.3970   2
  -1   4  -3 247.847 33.1594   2
  -1   4  -4 976.051 48.6900   2
  -1   4  -5 230.676 65.3421   2
  -1   4  -6 141.654 70.2928   2
  -1   4  -7 158.880 76.8230   2
  -1   4  -8 47.1491 57.5194   2
  -1   4  -9 56.7038 93.8967   2
  -1   4 -10 256.652 113.081   2
   1  -3 -12-6.88435 91.2505   2
   1  -3 -11 331.807 89.8135   2
   1  -3 -10 201.003 81.5619   2
   1  -3  -9 23.5182 23.9364   2
   1  -3  -8 1554.54 39.1944   2
   1  -3  -7 1153.57 28.6796   2
   1  -3  -6-1.95729 12.2593   2
  -1   3   1 18.6923 31.0742   2
  -1   3   0 659.455 24.7120   2
  -1   3  -1 3610.43 55.8099   2
  -1   3  -2 12.4232 25.8671   2
  -1   3  -3 900.927 58.5480   2
  -1   3  -4 971.823 45.9232   2
  -1   3  -5-6.85416 35.5430   2
  -1   3  -6 656.431 75.5809   2
  -1   3  -7 149.990 72.0787   2
  -1   3  -8-14.7465 55.5936   2
  -1   3  -9 279.680 97.5861   2
  -1   3 -10 152.960 100.868   2
   1  -2 -12 106.330 90.0722   2
   1  -2 -11 266.293 91.0044   2
   1  -2 -10-1.38097 74.4167   2
   1  -2  -9 177.902 73.9627   2
   1  -2  -8 351.160 73.2003   2
  -1   2   7 98.6434 37.6746   2
   1  -2  -6 1921.53 59.5658   2
   1  -2  -5 851.597 59.6439   2
  -1   2   0 8739.05 67.6242   2
  -1   2  -1 662.728 30.9776   2
  -1   2  -2 2743.47 50.6600   2
  -1   2  -3 859.025 39.1635   2
  -1   2  -4 251.126 49.3672   2
  -1   2  -5 246.169 37.6361   2
  -1   2  -6 502.915 68.1773   2
  -1   2  -7 26.3113 63.3177   2
  -1   2  -8 296.204 58.4968   2
  -1   2  -9 214.364 88.5067   2
  -1   2 -10 88.0159 90.9466   2
   1  -1 -12 151.660 97.1818   2
   1  -1 -11-2.25399 83.2723   2
   1  -1 -10 415.611 88.2554   2
   1  -1  -9 274.443 72.8293   2
   1  -1  -8-15.8887 59.8254   2
  -1   1   7 593.097 47.3652   2
  -1   1   6 200.021 35.7940   2
   1  -1  -5 38.6099 46.6190   2
   1  -1  -4 3494.80 61.9174   2
   1  -1  -3 2294.75 30.7415   2
  -1   1  -1 721.093 40.5947   2
  -1   1  -2 1096.38 34.0830   2
  -1   1  -3 0.46530 40.8467   2
  -1   1  -4 661.172 59.2252   2
  -1   1  -5 736.141 43.0483   2
   1  -1   6 82.5918 38.4445   2
  -1   1  -7 807.057 58.1918   2
  -1   1  -8 305.492 82.0624   2
  -1   1  -9 53.9988 80.0794   2
  -1   1 -10 545.524 107.734   2
  -1   1 -11 100.240 98.6644   2
   1   0 -12 57.8691 92.1437   2
   1   0 -11 184.243 89.1790   2
   1   0 -10 768.543 95.3243   2
   1   0  -9 4.54230 68.3638   2
   1   0  -8 239.490 72.5192   2
  -1   0   7 83.5362 45.6417   2
  -1   0   6 54.0209 34.9563   2
   1   0  -5 82.4635 45.3237   2
  -1   0   4 2651.42 44.5535   2
   1   0  -3 636.794 31.4713   2
   1   0  -2 9046.96 56.8353   2
  -1   0  -1 2977.14 51.8011   2
  -1   0  -2 26.3912 34.5142   2
  -1   0  -3-10.0122 39.6519   2
  -1   0  -4 287.541 50.9191   2
  -1   0  -5 208.616 53.1754   2
  -1   0  -6 1232.97 53.0465   2
  -1   0  -7 1034.82 60.8887   2
  -1   0  -8 68.8840 75.1104   2
  -1   0  -9 33.8268 83.8144   2
  -1   0 -10 314.313 94.8694   2
  -1   0 -11-49.1161 96.7804   2
   1   1 -11 232.743 58.3954   2
   1   1 -10 1.35591 81.5139   2
   1   1  -9 281.095 82.1082   2
   1   1  -8 383.750 76.5615   2
   1   1  -7 1.88153 58.6354   2
  -1  -1   6 491.768 43.1295   2
   1   1  -5 848.826 59.9301   2
   1   1  -4-19.4878 28.2690   2
  -1  -1   3 1961.17 41.7316   2
  -1  -1   2 1202.69 24.9551   2
   1   1  -1 240.062 15.8208   2
  -1  -1  -2 767.362 42.1829   2
  -1  -1  -3 23.7020 26.2940   2
  -1  -1  -4 131.282 45.0414   2
  -1  -1  -5 820.297 65.0271   2
  -1  -1  -6 1289.94 55.0574   2
  -1  -1  -7 28.8279 60.1569   2
  -1  -1  -8 720.980 88.3784   2
  -1  -1  -9 434.679 87.8935   2
  -1  -1 -10 57.0957 88.4849   2
  -1  -1 -11 439.878 113.527   2
   1   2 -11 37.7749 58.3789   2
   1   2 -10 204.476 56.3190   2
   1   2  -9 502.878 91.5909   2
   1   2  -8 178.369 72.3983   2
   1   2  -7 326.459 67.9732   2
  -1  -2   6 389.242 42.1255   2
   1   2  -5-7.80738 45.9914   2
  -1  -2   4 1027.91 39.2414   2
  -1  -2   3 367.894 30.4134   2
  -1  -2   2 642.086 21.6715   2
  -1  -2   1 1043.05 15.3670   2
   1   2   1 19.4963 14.4546   2
  -1  -2  -4 770.496 59.2223   2
  -1  -2  -5 579.733 32.9975   2
  -1  -2  -6 188.066 29.1831   2
   1   2   7 566.856 48.5621   2
  -1  -2  -8 553.467 40.5503   2
  -1  -2  -9 77.8975 35.9192   2
  -1  -2 -10 442.936 95.3592   2
  -1  -2 -11 215.141 100.352   2
  -1  -2 -12-10.4734 98.7608   2
   1   3 -10 46.9529 60.5999   2
   1   3  -9-27.1248 53.9306   2
   1   3  -8 270.595 74.1884   2
   1   3  -7 699.456 75.2966   2
   1   3  -6 106.466 39.0276   2
  -1  -3   5 983.805 46.0842   2
  -1  -3   4 1664.42 46.6353   2
   1   3  -3 167.356 19.9488   2
   1   3  -2 1024.49 26.2006   2
   1   3  -1 81.9080 12.4439   2
   1   3   0 480.955 13.2071   2
   1   3   1 2313.50 36.0069   2
  -1  -3  -6 433.203 32.0368   2
   1   3   7 894.542 36.6751   2
  -1  -3  -8 65.2883 69.5853   2
  -1  -3  -9 220.783 36.2774   2
  -1  -3 -10 161.647 39.3743   2
  -1  -3 -11 12.9238 89.7356   2
  -1  -3 -12 194.175 103.602   2
   1   4  -9 44.6190 59.5834   2
   1   4  -8 488.119 61.1470   2
   1   4  -7 13.1533 47.7720   2
  -1  -4   6 1303.38 56.6080   2
  -1  -4   5 558.051 40.9937   2
   1   4  -4 74.3670 41.7345   2
  -1  -4   3 414.336 24.9976   2
   1   4  -2 979.482 27.2610   2
   1   4  -1 54.1689 13.2909   2
   1   4   0 426.397 13.8968   2
  -1  -4  -1 50.8350 10.8372   2
  -1  -4  -7 403.154 34.8472   2
  -1  -4  -8 443.849 38.4224   2
  -1  -4  -9 225.400 80.4160   2
  -1  -4 -10-3.15734 35.7749   2
  -1  -4 -11 166.821 93.1632   2
  -1  -4 -12 97.7000 99.4420   2
   1   5  -8 165.094 87.3760   2
   1   5  -7 121.369 54.0397   2
   1   5  -6 324.738 51.0556   2
   1   5  -5 54.8332 30.3377   2
   1   5  -4 211.132 30.0922   2
   1   5  -3 847.733 31.9810   2
   1   5  -2 7.34490 16.2560   2
   1   5  -1 1502.58 21.4969   2
   1   5   0 221.480 13.9378   2
   1   5   1-1.44974 14.2791   2
   1   5   2 1812.34 39.3954   2
  -1  -5  -8 692.658 47.5788   2
  -1  -5  -9 17.9763 74.1379   2
  -1  -5 -10 448.642 88.7167   2
  -1  -5 -11 210.329 90.8697   2
  -1  -5 -12 48.2366 95.1441   2
   1   6  -7 483.588 98.5941   2
   1   6  -6 40.6324 49.4575   2
   1   6  -5 37.7903 42.8711   2
   1   6  -4 214.571 30.9304   2
   1   6  -3 9.51571 25.6486   2
   1   6  -2 815.937 26.7930   2
   1   6  -1 587.104 18.3418   2
   1   6   0 3.25038 13.8716   2
   1   6   1 1142.12 25.8510   2
   1   6   2 518.438 17.8237   2
   1   6   3 101.520 32.5751   2
  -1  -6  -9 406.578 41.8650   2
  -1  -6 -10 528.785 92.2125   2
  -1  -6 -11 129.459 84.6110   2
  -1  -6 -12 63.7335 94.6052   2
   1   7  -6 113.811 86.7350   2
   1   7  -5 158.683 78.6879   2
   1   7  -4 45.7334 41.1771   2
   1   7  -3 243.742 23.9629   2
   1   7  -2 461.746 21.1014   2
   1   7  -1 5.62304 24.4200   2
   1   7   0 1431.93 28.3751   2
   1   7   1 382.506 21.6505   2
   1   7   2 32.3666 25.5315   2
  -1  -7  -3 1827.38 34.7972   2
   1   7   4 1250.13 63.9150   2
  -1  -7 -11 240.841 89.3911   2
  -1  -7 -12 255.994 96.9072   2
   1   8  -4 58.8664 78.3619   2
   1   8  -3 531.790 48.8772   2
   1   8  -2 36.5517 63.9433   2
   1   8  -1 276.592 25.2460   2
   1   8   0 481.614 23.4824   2
   1   8   1 21.0294 19.9186   2
   1   8   2 867.809 30.9086   2
   1   8   3 458.355 23.0366   2
  -1  -8  -4 43.5901 22.0278   2
   1   9  -3 9.46037 78.1071   2
   1   9  -2 168.664 74.0064   2
   1   9  -1 453.170 75.3336   2
   1   9   0 211.998 33.5048   2
   1   9   1 594.101 28.3799   2
   1   9   2 130.222 24.1993   2
   1   9   3 74.7196 24.5850   2
   1   9   4 316.763 24.5158   2
  -1  -9  -5 352.963 28.9261   2
   1  10  -1 63.8638 74.6034   2
   1  10   0 126.951 70.2753   2
   1  10   1 207.638 71.4819   2
   1  10   2 22.6295 30.5385   2
   1  10   3 232.590 68.4762   2
   1  10   4 82.7284 34.0086   2
   1  10   5 19.9232 24.0571   2
  -1 -10  -6 701.892 41.0251   2
   1  11   0 265.880 84.4364   2
   1  11   1 7.74058 71.7556   2
   1  11   2 234.995 77.6519   2
   1  11   3 76.1666 69.6028   2
   1  11   4 22.4988 63.0069   2
   1  11   5 347.867 66.6716   2
   1  11   6 840.451 40.5950   2
   1  11   7 3.93126 35.2599   2
   1  12   2 258.349 85.5567   2
   1  12   3 8.52573 75.1764   2
   1  12   4 42.8696 66.2687   2
   1  12   5 265.955 72.7787   2
   1  12   6 12.0328 60.2416   2
   1  12   7 272.538 62.3797   2
   1  13   4 152.100 80.0768   2
   1  13   5-29.9214 78.4343   2
   1  13   6 140.446 78.2324   2
  -2  12   8 18.6122 58.7511   2
  -2  12   7 108.070 73.1036   2
  -2  12   6-19.1832 67.7831   2
  -2  12   5 225.446 72.9307   2
  -2  12   4 91.8058 44.8560   2
  -2  12   3 18.6256 43.5600   2
  -2  12   2 394.570 73.2436   2
  -2  11   7 2.85831 50.8181   2
  -2  11   6 88.1891 70.2037   2
  -2  11   5 345.556 46.2604   2
  -2  11   4 26.1247 41.1608   2
  -2  11   3 539.448 51.3801   2
  -2  11   2 202.652 45.2081   2
  -2  11   1 9.73147 46.4397   2
  -2  11   0 219.702 54.8593   2
  -2  10   6 488.592 37.3594   2
  -2  10   5 72.1375 38.0401   2
  -2  10   4 217.273 41.7528   2
  -2  10   3 549.228 48.2345   2
  -2  10   2 9.69503 38.0302   2
  -2  10   1 310.387 49.3388   2
  -2  10   0 62.8814 71.2223   2
  -2  10  -1-12.2038 73.4504   2
  -2  10  -2 246.823 83.0648   2
  -2   9   6 16.0660 33.3358   2
   2  -9  -5 532.076 36.8319   2
  -2   9   4 201.803 36.7576   2
  -2   9   3 149.785 37.8298   2
  -2   9   2 526.615 72.5526   2
  -2   9   1 631.464 74.0162   2
  -2   9   0 30.5773 63.8212   2
  -2   9  -1 169.176 71.8111   2
  -2   9  -2 86.8716 71.4342   2
  -2   9  -3 71.8078 71.5076   2
  -2   9  -4 225.251 89.3376   2
   2  -8 -12 24.6149 87.2913   2
  -2   8   5 573.802 44.4453   2
  -2   8   4 23.6643 27.2486   2
  -2   8   3 145.176 58.8485   2
  -2   8   2 536.775 68.2649   2
  -2   8   1 11.9595 59.0610   2
  -2   8   0 231.716 64.2777   2
  -2   8  -1 160.593 66.9736   2
  -2   8  -2 38.1597 70.7808   2
  -2   8  -3 439.934 81.6689   2
  -2   8  -4 179.940 77.1396   2
  -2   8  -5 21.9281 87.3390   2
  -2   8  -6 292.380 99.9140   2
   2  -7 -13-42.5153 81.0540   2
   2  -7 -12 116.187 79.5234   2
   2  -7 -11 268.051 61.5224   2
  -2   7   4 419.378 40.4091   2
  -2   7   3 169.274 37.4222   2
  -2   7   2-5.42856 35.7049   2
  -2   7   1 1248.57 53.4347   2
  -2   7   0 129.231 37.6716   2
  -2   7  -1 12.7391 61.1435   2
  -2   7  -2 661.820 80.4706   2
  -2   7  -3 945.185 91.2109   2
  -2   7  -4 16.9998 71.0508   2
  -2   7  -5 295.031 83.6683   2
  -2   7  -6 188.284 90.2582   2
  -2   7  -7-2.08443 102.968   2
   2  -6 -13 5.36124 77.0972   2
   2  -6 -12 84.8945 56.2594   2
   2  -6 -11 76.5591 53.7256   2
   2  -6 -10 769.166 63.9515   2
  -2   6   3 114.569 32.8122   2
  -2   6   2 838.465 35.7898   2
  -2   6   1 1116.89 40.1067   2
  -2   6   0-3.40622 31.6553   2
  -2   6  -1 176.779 29.5212   2
  -2   6  -2 416.938 68.2500   2
  -2   6  -3 148.581 65.3941   2
  -2   6  -4 589.024 77.6026   2
  -2   6  -5 440.229 87.4995   2
  -2   6  -6 37.5820 86.9121   2
  -2   6  -7 158.400 89.8992   2
   2  -5 -12-20.0404 51.4407   2
   2  -5 -11 338.276 54.4952   2
   2  -5 -10 250.680 53.2079   2
   2  -5  -9 38.0536 44.7640   2
   2  -5  -8 479.285 78.5112   2
  -2   5   1 67.7500 28.8710   2
  -2   5   0 1023.62 45.2275   2
  -2   5  -1 869.544 44.9560   2
  -2   5  -2 38.4344 35.2088   2
  -2   5  -3 464.129 67.0742   2
  -2   5  -4 419.703 71.6977   2
  -2   5  -5 51.0538 67.5777   2
  -2   5  -6 225.437 84.1079   2
  -2   5  -7 410.509 94.1782   2
  -2   5  -8-12.1305 88.0367   2
   2  -4 -12 188.939 54.5103   2
   2  -4 -11 424.977 56.9947   2
   2  -4 -10 2.01034 44.7467   2
   2  -4  -9 471.129 49.6697   2
   2  -4  -8-3.32572 37.4418   2
   2  -4  -7 11.7346 34.5224   2
  -2   4   1 256.431 42.6488   2
  -2   4   0 1676.51 48.3877   2
  -2   4  -1 367.222 52.5858   2
  -2   4  -2 1500.16 51.7735   2
  -2   4  -3 461.126 42.4233   2
  -2   4  -4 28.8920 53.3425   2
  -2   4  -5 173.198 65.9235   2
  -2   4  -6 163.896 74.8951   2
  -2   4  -7 1.12798 84.4465   2
  -2   4  -8 411.107 103.166   2
  -2   4  -9 110.671 73.9888   2
   2  -3 -12 184.161 95.1729   2
   2  -3 -11 26.2105 44.2472   2
   2  -3 -10 815.030 55.8714   2
   2  -3  -9 598.523 19.8422   2
   2  -3  -8 5.97807 15.1775   2
   2  -3  -7 529.014 41.0281   2
   2  -3  -6 80.6980 31.5881   2
  -2   3   0 417.436 48.7072   2
  -2   3  -1 911.041 56.6513   2
  -2   3  -2 1174.70 65.8904   2
  -2   3  -3 9.05714 30.4882   2
  -2   3  -4 516.662 42.5327   2
  -2   3  -5 493.980 67.0470   2
  -2   3  -6 17.1808 64.6163   2
  -2   3  -7 311.250 84.6921   2
  -2   3  -8 287.398 95.6296   2
  -2   3  -9-9.20313 64.7582   2
   2  -2 -12 18.0009 88.8761   2
   2  -2 -11 190.706 82.1207   2
   2  -2 -10 668.534 94.9073   2
   2  -2  -9 9.22759 28.0376   2
   2  -2  -8 648.380 35.5229   2
   2  -2  -7 38.5427 20.5137   2
   2  -2  -6 204.470 17.6209   2
   2  -2  -5 524.946 18.1072   2
  -2   2  -1 2447.65 73.2596   2
  -2   2  -2 933.403 60.2125   2
  -2   2  -3 125.119 46.6359   2
  -2   2  -4 135.004 32.4354   2
  -2   2  -5 20.5383 34.3435   2
  -2   2  -6 615.681 74.7264   2
  -2   2  -7 713.434 90.5001   2
  -2   2  -8 33.1791 72.2914   2
  -2   2  -9 101.265 91.5716   2
  -2   2 -10 119.474 103.370   2
   2  -1 -12 97.5060 92.2201   2
   2  -1 -11 114.542 82.2172   2
   2  -1 -10-7.37185 35.8475   2
   2  -1  -9 545.472 41.9537   2
   2  -1  -8 182.987 33.0565   2
  -2   1   7 24.1023 21.7027   2
   2  -1  -6 1768.12 38.7094   2
   2  -1  -5 1171.58 27.2104   2
   2  -1  -4 51.1670 15.7787   2
  -2   1  -2 729.539 51.6762   2
  -2   1  -3 645.654 57.8109   2
  -2   1  -4 20.7816 45.3763   2
  -2   1  -5 295.861 38.3175   2
  -2   1  -6 1170.84 88.0723   2
  -2   1  -7 16.2303 69.0236   2
  -2   1  -8 727.429 92.6673   2
  -2   1  -9 111.120 62.6463   2
  -2   1 -10-13.5391 94.5876   2
   2   0 -12 254.209 97.4036   2
   2   0 -11 70.8097 86.5536   2
   2   0 -10 104.911 41.3555   2
   2   0  -9 195.232 40.2853   2
   2   0  -8 32.0426 34.0995   2
   2   0  -7 279.169 33.8904   2
  -2   0   6 711.930 31.8119   2
   2   0  -5-0.27819 23.7805   2
   2   0  -4 1579.22 24.8638   2
   2   0  -3 1403.29 23.2636   2
  -2   0  -2 2326.34 46.8393   2
  -2   0  -3 472.490 51.4916   2
  -2   0  -4 1035.79 68.9628   2
  -2   0  -5 1154.48 73.0593   2
  -2   0  -6 111.727 37.4421   2
  -2   0  -7 251.776 68.7106   2
  -2   0  -8 722.770 91.9121   2
  -2   0  -9 29.9427 56.7550   2
  -2   0 -10 354.768 101.098   2
  -2   0 -11 232.535 105.263   2
   2   1 -11 83.5355 87.7568   2
   2   1 -10 118.278 46.7927   2
   2   1  -9-21.3678 40.5855   2
   2   1  -8 236.737 41.3727   2
   2   1  -7 62.1470 34.3039   2
  -2  -1   6 20.1238 26.8697   2
   2   1  -5 1512.03 43.9392   2
  -2  -1   4 1546.75 30.1081   2
   2   1  -3 161.668 20.3406   2
   2   1  -2 3170.61 32.0038   2
  -2  -1  -3 932.687 38.2313   2
  -2  -1  -4 1024.24 67.6594   2
  -2  -1  -5-33.3966 55.7301   2
  -2  -1  -6 594.936 33.2390   2
  -2  -1  -7 1230.68 89.4963   2
  -2  -1  -8 59.4296 50.7249   2
  -2  -1  -9 494.895 97.3857   2
  -2  -1 -10 303.903 102.699   2
  -2  -1 -11 25.3449 98.4031   2
   2   2 -10 7.75905 51.5068   2
   2   2  -9 179.146 47.7372   2
   2   2  -8 488.712 48.8178   2
   2   2  -7 64.5321 39.1966   2
  -2  -2   6 970.420 39.7004   2
   2   2  -5 83.1266 29.8127   2
  -2  -2   4 106.596 21.0065   2
  -2  -2   3 534.979 24.0799   2
  -2  -2   2 2206.48 25.8514   2
  -2  -2   1 4.24694 9.24925   2
  -2  -2   0 1521.00 27.5398   2
   2   2   4 272.396 45.4995   2
  -2  -2  -5 79.4908 34.9082   2
  -2  -2  -6 1178.44 51.9899   2
  -2  -2  -7 245.271 32.1144   2
  -2  -2  -8 364.724 42.9448   2
  -2  -2  -9 441.981 89.9831   2
  -2  -2 -10 26.8920 89.0816   2
  -2  -2 -11 187.576 103.039   2
   2   3 -10 255.500 85.2995   2
   2   3  -9 373.110 56.1328   2
   2   3  -8 51.5097 45.1679   2
   2   3  -7 647.321 50.1260   2
  -2  -3   6 709.546 39.6492   2
   2   3  -5 21.6035 31.4129   2
  -2  -3   4 171.949 23.1660   2
  -2  -3   3 490.714 16.3610   2
  -2  -3   2 45.8167 15.4293   2
  -2  -3   1 1583.54 28.8144   2
   2   3   0 1334.31 59.7142   2
   2   3   1 188.470 15.3485   2
  -2  -3  -5 238.138 36.0711   2
   2   3   6 371.708 40.5454   2
   2   3   7 61.9424 27.0590   2
  -2  -3  -8 495.469 44.4972   2
  -2  -3  -9 54.0582 39.8687   2
  -2  -3 -10 509.031 100.580   2
  -2  -3 -11 131.468 100.162   2
  -2  -3 -12-35.8919 106.517   2
   2   4  -9 19.8201 78.8459   2
   2   4  -8 430.280 56.0644   2
   2   4  -7 509.812 51.4140   2
  -2  -4   6 193.121 32.6801   2
  -2  -4   5 317.681 30.4025   2
  -2  -4   4 199.440 18.7648   2
   2   4  -3 34.7722 14.2166   2
  -2  -4   2 343.456 13.7368   2
  -2  -4   1 130.331 14.2628   2
   2   4   0 225.081 25.4739   2
   2   4   2 797.788 27.4636   2
  -2  -4  -7 786.366 77.1013   2
  -2  -4  -8 3.66270 36.9209   2
  -2  -4  -9 490.825 48.8416   2
  -2  -4 -10 371.770 94.5954   2
  -2  -4 -11 67.6054 97.5538   2
  -2  -4 -12 140.012 105.982   2
   2   5  -8 154.121 85.8935   2
   2   5  -7 41.5659 73.5549   2
   2   5  -6 200.469 43.8495   2
   2   5  -5 242.362 23.2465   2
   2   5  -4 56.7009 18.5336   2
   2   5  -3 386.385 19.0311   2
  -2  -5   2 1217.32 19.8206   2
  -2  -5   1 92.7510 14.8441   2
   2   5   0 1246.25 69.0716   2
  -2  -5  -1 106.766 26.2977   2
   2   5   2 4.00179 14.6374   2
  -2  -5  -8 332.591 51.1408   2
  -2  -5  -9 579.175 51.4043   2
  -2  -5 -10 175.563 45.4353   2
  -2  -5 -11 83.6045 91.0697   2
  -2  -5 -12 374.926 113.460   2
   2   6  -7 228.282 85.3060   2
   2   6  -6 396.843 86.1193   2
   2   6  -5 30.7470 68.0753   2
   2   6  -4 487.834 28.8084   2
  -2  -6   3 451.413 20.4676   2
   2   6  -2 8.43564 7.98917   2
   2   6  -1 891.928 70.1967   2
   2   6   0 892.999 70.9775   2
   2   6   1 17.6271 47.5428   2
  -2  -6  -2 333.865 11.2158   2
   2   6   3 442.567 24.6433   2
  -2  -6  -9 157.640 47.7116   2
  -2  -6 -11 454.516 101.161   2
  -2  -6 -12 75.8484 103.567   2
   2   7  -6 249.633 91.2636   2
   2   7  -5 148.053 83.5804   2
   2   7  -4 308.784 77.4909   2
   2   7  -3 5.75669 65.0333   2
   2   7  -2 371.860 65.8840   2
   2   7  -1 688.567 72.3367   2
   2   7   0-2.37803 55.6385   2
   2   7   1 1416.51 82.5727   2
   2   7   2 578.820 15.1048   2
  -2  -7  -3 10.3331 13.7743   2
   2   7   4 448.029 31.0275   2
  -2  -7 -12 234.296 103.028   2
   2   8  -4 69.3981 73.8914   2
   2   8  -3 181.747 74.8260   2
   2   8  -2 652.394 82.0323   2
   2   8  -1 75.9549 62.8005   2
   2   8   0 461.896 75.9931   2
   2   8   1 544.981 70.4215   2
   2   8   2-0.55715 14.8757   2
   2   8   3 219.534 15.7373   2
   2   8   4 111.986 20.5626   2
   2   8   5 131.590 39.7491   2
   2   9  -3 196.444 81.6848   2
   2   9  -2-24.3982 77.3814   2
   2   9  -1 277.977 76.6322   2
   2   9   0 280.863 75.1780   2
   2   9   1-16.7130 62.7294   2
   2   9   2 352.935 10.8198   2
   2   9   3 51.5389 23.2346   2
   2   9   4 117.988 17.6632   2
  -2  -9  -5 799.581 31.3183   2
   2  10  -1 226.247 83.4047   2
   2  10   0 28.6185 78.9954   2
   2  10   1 371.661 77.7145   2
   2  10   2 403.698 76.6928   2
   2  10   3-31.1375 63.3135   2
   2  10   4 239.056 67.7082   2
   2  10   5 471.918 27.9680   2
  -2 -10  -6 15.4840 31.1410   2
   2  11   1 119.605 76.7564   2
   2  11   2 82.5180 77.0603   2
   2  11   3 263.642 76.8022   2
   2  11   4 323.653 74.9731   2
   2  11   5 1.63747 66.6499   2
   2  11   6 260.370 53.1381   2
   2  11   7 257.262 62.1004   2
   2  12   3 250.550 82.8608   2
   2  12   4 4.35007 75.9737   2
   2  12   5 359.510 80.9451   2
   2  12   6 179.799 74.3284   2
   2  12   7-10.0437 49.6941   2
   2  13   5 176.412 86.8178   2
   2  13   6-23.9339 75.4482   2
  -3  12   6 227.002 84.7579   2
  -3  12   5 45.9825 83.0468   2
  -3  12   4 237.627 88.8044   2
  -3  12   3 114.773 79.5797   2
  -3  12   2 42.3647 60.8967   2
  -3  11   7 471.789 91.1605   2
  -3  11   6-5.43158 81.4634   2
  -3  11   5 185.337 80.0320   2
  -3  11   4 226.407 47.4040   2
  -3  11   3 18.6376 43.3310   2
  -3  11   2 272.137 49.5299   2
  -3  11   1 385.355 91.2159   2
  -3  11   0 1.61118 86.5745   2
  -3  10   6 292.343 80.1040   2
  -3  10   5 445.334 45.1335   2
  -3  10   4 61.0829 40.4386   2
  -3  10   3 166.822 76.9960   2
  -3  10   2 200.143 79.9624   2
  -3  10   1 3.61810 75.0466   2
  -3  10   0 186.726 82.9261   2
  -3  10  -1 55.7275 83.8770   2
  -3  10  -2-47.1042 86.4600   2
  -3   9   5 75.5629 35.0884   2
  -3   9   4 150.704 73.7505   2
  -3   9   3 287.525 74.5978   2
  -3   9   2-10.0403 69.2436   2
  -3   9   1 548.096 84.5979   2
  -3   9   0 54.6594 73.4458   2
  -3   9  -1 65.1604 81.0411   2
  -3   9  -2 270.007 93.1184   2
  -3   9  -3 277.728 93.9012   2
  -3   9  -4-22.5949 95.6662   2
  -3   8   5 226.681 38.5419   2
  -3   8   4 262.058 69.5756   2
  -3   8   3 26.0089 59.0087   2
  -3   8   2 283.851 71.7162   2
  -3   8   1 765.570 82.6141   2
  -3   8   0 11.3832 67.1028   2
  -3   8  -1 418.941 85.6366   2
  -3   8  -2 199.889 83.3470   2
  -3   8  -3 36.0545 81.5621   2
  -3   8  -4 288.669 93.5579   2
  -3   8  -5 291.729 102.455   2
   3  -7 -12 60.7864 72.8234   2
   3  -7 -11 535.341 68.8150   2
  -3   7   3 268.704 59.6002   2
  -3   7   2 135.290 59.1590   2
  -3   7   1 86.9231 60.4704   2
  -3   7   0 927.246 89.8878   2
  -3   7  -1 851.155 88.0368   2
  -3   7  -2 120.973 70.7631   2
  -3   7  -3 261.893 80.6676   2
  -3   7  -4 300.737 92.3814   2
  -3   7  -5 91.5399 86.9575   2
  -3   7  -6 154.840 100.902   2
   3  -6 -12 136.933 76.8438   2
   3  -6 -11 277.156 55.3279   2
   3  -6 -10 12.5691 49.3743   2
   3  -6  -9 840.883 100.588   2
  -3   6   2 11.4450 54.9307   2
  -3   6   1 68.6463 59.0884   2
  -3   6   0 846.707 77.2796   2
  -3   6  -1 111.697 61.7466   2
  -3   6  -2 461.932 78.4932   2
  -3   6  -3 595.867 84.7558   2
  -3   6  -4 21.4577 74.0694   2
  -3   6  -5 251.875 82.8185   2
  -3   6  -6 36.9884 86.7207   2
   3  -5 -11 9.82204 51.5258   2
   3  -5 -10 339.264 55.8736   2
   3  -5  -9 497.086 51.8280   2
   3  -5  -8 47.4156 71.6945   2
  -3   5   2 384.467 38.4633   2
  -3   5   1 630.542 43.7230   2
  -3   5   0 58.2075 34.2037   2
  -3   5  -1 1117.65 53.9676   2
  -3   5  -2 310.457 67.5292   2
  -3   5  -3-8.02842 69.5778   2
  -3   5  -4 438.824 83.6539   2
  -3   5  -5 554.379 86.0823   2
  -3   5  -6 89.8881 78.8668   2
  -3   5  -7 166.426 98.2065   2
   3  -4 -11 217.301 52.3188   2
   3  -4 -10 268.920 48.8263   2
   3  -4  -9 40.1910 42.8755   2
   3  -4  -8 552.745 49.2319   2
   3  -4  -7-13.0632 61.1455   2
  -3   4   0 1668.24 44.7612   2
  -3   4  -1 1697.77 57.4873   2
  -3   4  -2 30.6335 33.7771   2
  -3   4  -3 98.0555 60.5376   2
  -3   4  -4 112.410 69.3520   2
  -3   4  -5-13.7779 67.5620   2
  -3   4  -6 443.002 89.3487   2
  -3   4  -7 514.830 95.5865   2
  -3   4  -8-33.1577 91.9552   2
   3  -3 -11 244.927 84.5410   2
   3  -3 -10 11.8594 40.3758   2
   3  -3  -9 576.105 47.4069   2
   3  -3  -8 114.226 37.3370   2
   3  -3  -7 42.3973 33.8312   2
   3  -3  -6 457.745 46.7219   2
  -3   3  -1 47.7951 46.3728   2
  -3   3  -2 806.712 44.8035   2
  -3   3  -3 256.553 39.3897   2
  -3   3  -4 25.6181 59.3608   2
  -3   3  -5 130.284 63.1581   2
  -3   3  -6 807.368 93.5691   2
  -3   3  -7-14.7777 77.3738   2
  -3   3  -8 450.340 97.7979   2
  -3   3  -9 410.173 111.495   2
   3  -2 -12 251.243 97.9444   2
   3  -2 -11 20.8418 78.8017   2
   3  -2 -10 286.946 42.9345   2
   3  -2  -9 275.326 26.7224   2
   3  -2  -8 1.31861 20.6320   2
   3  -2  -7 552.188 24.7854   2
  -3   2   6 163.515 17.7997   2
   3  -2  -5 3.62603 17.2164   2
  -3   2  -2 702.383 58.2043   2
  -3   2  -3 357.772 56.8449   2
  -3   2  -4 664.772 46.1876   2
  -3   2  -5 551.580 72.6552   2
  -3   2  -6 13.3546 69.3132   2
  -3   2  -7 136.165 81.6861   2
  -3   2  -8 254.270 94.1172   2
  -3   2  -9-47.2478 91.5970   2
   3  -1 -11 82.4255 79.8013   2
   3  -1 -10 345.420 81.2487   2
   3  -1  -9 35.0123 24.7446   2
   3  -1  -8 706.203 31.2636   2
   3  -1  -7 213.676 22.9127   2
  -3   1   6 19.5296 17.1199   2
   3  -1  -5 1337.31 34.3263   2
   3  -1  -4 1278.20 28.1724   2
  -3   1  -2 331.488 49.8183   2
  -3   1  -3 445.675 55.1283   2
  -3   1  -4 1495.31 79.8374   2
  -3   1  -5 58.8947 55.4929   2
  -3   1  -6 277.783 73.2720   2
  -3   1  -7 764.703 101.014   2
  -3   1  -8-6.55579 79.7626   2
  -3   1  -9 489.610 102.358   2
  -3   1 -10 150.859 72.8672   2
   3   0 -11 98.0625 81.8177   2
   3   0 -10-3.20028 74.4230   2
   3   0  -9 172.225 39.3699   2
   3   0  -8 615.644 29.3679   2
   3   0  -7 74.8876 19.2428   2
   3   0  -6 1026.03 25.5961   2
   3   0  -5 385.756 31.8949   2
   3   0  -4 1124.27 38.9054   2
   3   0  -3 576.225 24.3613   2
  -3   0  -3 2147.08 80.2275   2
  -3   0  -4 249.693 52.5599   2
  -3   0  -5 454.567 32.9759   2
  -3   0  -6 1219.76 89.3800   2
  -3   0  -7 39.5720 71.8784   2
  -3   0  -8 310.444 81.9924   2
  -3   0  -9 362.425 92.0264   2
  -3   0 -10-1.09344 67.4527   2
   3   1 -11-53.8308 78.7270   2
   3   1 -10 76.0159 74.6947   2
   3   1  -9 55.0678 42.7015   2
   3   1  -8 3.31734 36.9455   2
   3   1  -7 1252.94 31.0330   2
  -3  -1   6 681.769 34.4376   2
   3   1  -5 30.1440 27.7481   2
   3   1  -4 1552.70 36.7465   2
   3   1  -3 632.353 22.6931   2
   3   1  -2 73.7248 23.7439   2
  -3  -1  -3 625.926 36.2836   2
  -3  -1  -4 652.124 39.7035   2
  -3  -1  -5 1062.27 38.9344   2
  -3  -1  -6 48.7490 35.7990   2
  -3  -1  -7 85.9555 72.9986   2
  -3  -1  -8 765.350 95.7900   2
  -3  -1  -9 8.54587 59.3583   2
  -3  -1 -10 423.927 109.106   2
  -3  -1 -11-14.0073 101.726   2
   3   2  -9 40.1991 42.8197   2
   3   2  -8 567.092 51.4060   2
   3   2  -7 441.815 43.7316   2
  -3  -2   6 67.9823 28.6094   2
   3   2  -5 214.311 32.4232   2
   3   2  -4 762.492 25.7900   2
   3   2  -3-1.28230 18.8450   2
   3   2  -2 409.261 18.7801   2
  -3  -2   1 740.241 24.9927   2
  -3  -2  -5 98.5426 34.0470   2
  -3  -2  -6 106.151 29.6481   2
  -3  -2  -7 711.582 50.8099   2
  -3  -2  -8-16.3845 73.8755   2
  -3  -2  -9 509.318 69.0203   2
  -3  -2 -10 389.965 102.254   2
  -3  -2 -11 72.8035 102.774   2
   3   3  -9 330.025 78.3490   2
   3   3  -8 304.757 47.4777   2
   3   3  -7 62.6268 38.8937   2
  -3  -3   6 173.326 32.4698   2
   3   3  -5 69.4452 30.9650   2
   3   3  -4 65.7485 22.7036   2
  -3  -3   3 412.733 22.9756   2
  -3  -3   2 1446.83 20.8451   2
  -3  -3   1 157.891 10.6030   2
  -3  -3   0 2815.09 39.7988   2
  -3  -3  -1 417.726 28.8201   2
  -3  -3  -6 348.640 59.1815   2
  -3  -3  -7 57.0242 35.9693   2
  -3  -3  -8 530.108 61.1042   2
  -3  -3  -9 561.413 98.1794   2
  -3  -3 -10 39.6144 91.5687   2
  -3  -3 -11 252.263 105.802   2
   3   4  -9 269.868 80.4133   2
   3   4  -8 37.3599 68.0782   2
   3   4  -7 311.361 45.6954   2
   3   4  -6 305.512 39.1354   2
   3   4  -5 76.7714 31.0299   2
  -3  -4   4 416.405 26.5013   2
  -3  -4   3 291.742 20.2979   2
  -3  -4   2 0.10674 19.7193   2
   3   4  -1 836.139 43.4560   2
  -3  -4   0 1251.26 35.2742   2
  -3  -4  -1 131.201 20.3239   2
  -3  -4  -7 47.4998 63.9514   2
  -3  -4  -8 616.640 86.5641   2
  -3  -4  -9 116.995 83.5887   2
  -3  -4 -10 268.330 97.0029   2
  -3  -4 -11 412.542 107.911   2
   3   5  -8 225.824 89.3626   2
   3   5  -7 110.657 74.3403   2
   3   5  -6 86.4662 68.7659   2
   3   5  -5 272.051 33.8581   2
  -3  -5   4 652.997 26.2972   2
   3   5  -3 131.652 11.6358   2
  -3  -5   2 232.022 18.1518   2
   3   5  -1 719.656 65.2156   2
   3   5   0 1.34221 20.6018   2
  -3  -5  -1 1073.78 40.1871   2
   3   5   2 1465.50 20.4270   2
  -3  -5  -8 144.397 54.6861   2
  -3  -5  -9 15.5392 76.3187   2
  -3  -5 -10 561.185 105.492   2
  -3  -5 -11 14.2641 98.0315   2
   3   6  -7 27.8089 85.2347   2
   3   6  -6 150.326 79.6361   2
   3   6  -5 301.805 77.7482   2
   3   6  -4 6.85027 64.0202   2
  -3  -6   3 611.493 29.7119   2
   3   6  -2 593.790 72.1586   2
   3   6  -1 59.2793 57.7282   2
   3   6   0 619.543 68.6679   2
   3   6   1 702.759 39.9337   2
   3   6   2-0.41705 12.1393   2
   3   6   3 133.260 19.6484   2
  -3  -6 -10 123.460 88.5953   2
  -3  -6 -11 193.576 99.0774   2
  -3  -6 -12 88.7202 106.237   2
   3   7  -5 138.548 79.2304   2
   3   7  -4 190.278 78.3861   2
   3   7  -3 453.320 80.4344   2
   3   7  -2-27.8832 66.8885   2
   3   7  -1 332.984 67.0169   2
   3   7   0 890.071 79.7422   2
   3   7   1 5.72698 53.7671   2
  -3  -7  -2 310.793 39.1103   2
   3   7   3 20.5529 19.3851   2
   3   7   4 78.3091 29.1122   2
  -3  -7 -12-20.2206 101.425   2
   3   8  -4 660.608 101.686   2
   3   8  -3 92.0853 77.6962   2
   3   8  -2 244.134 72.7677   2
   3   8  -1 339.663 73.0378   2
   3   8   0 79.5890 68.4223   2
   3   8   1 546.424 75.3673   2
   3   8   2 312.858 43.1384   2
  -3  -8  -3 73.3814 38.1692   2
  -3  -8  -4 173.095 18.9440   2
   3   8   5 430.033 41.9316   2
  -3  -8 -12 65.9815 94.2856   2
   3   9  -2 281.196 84.7982   2
   3   9  -1 62.1129 75.5708   2
   3   9   0 288.441 79.1525   2
   3   9   1 208.162 75.2035   2
   3   9   2 17.4797 65.1243   2
   3   9   3 513.094 52.2202   2
   3   9   4 392.680 14.8808   2
   3   9   5-8.85264 31.5131   2
   3  10  -1 112.507 84.0696   2
   3  10   0 408.915 84.8265   2
   3  10   1 17.2132 75.2786   2
   3  10   2 45.2964 68.7295   2
   3  10   3 530.740 87.3878   2
   3  10   4-14.1547 47.9912   2
   3  10   5 331.154 52.1999   2
   3  10   6 164.182 67.3306   2
   3  11   2 222.120 83.9786   2
   3  11   3 18.3087 79.0623   2
   3  11   4 252.217 82.7743   2
   3  11   5 148.353 51.9868   2
   3  11   6 63.2878 50.1256   2
   3  11   7 340.514 71.4465   2
   3  12   4 480.945 95.0696   2
   3  12   5 22.1402 75.0728   2
   3  12   6 143.329 77.1633   2
   3  12   7 92.1432 54.1733   2
   3  12   8-9.15251 68.2583   2
   3  13   7-13.9533 74.4738   2
  -4  11   5-38.4052 85.0740   2
  -4  11   4 86.0834 84.6210   2
  -4  11   3 246.603 87.2336   2
  -4  10   6 99.8024 77.7057   2
  -4  10   5 182.976 81.6252   2
  -4  10   4 147.896 79.8149   2
  -4  10   3 55.8671 77.3262   2
  -4  10   2 122.148 82.3409   2
  -4  10   1 32.6238 80.3106   2
  -4  10   0 46.7108 90.8443   2
  -4   9   5 565.461 90.5246   2
  -4   9   4 5.84875 74.5460   2
  -4   9   3 194.530 81.8177   2
  -4   9   2 175.921 72.0038   2
  -4   9   1 83.1504 82.8970   2
  -4   9   0 345.775 88.7399   2
  -4   9  -1 478.408 103.078   2
  -4   9  -2-3.47257 96.4674   2
  -4   8   4 492.125 80.4940   2
  -4   8   3 704.077 90.7827   2
  -4   8   2 12.8622 70.2551   2
  -4   8   1 217.377 71.0085   2
  -4   8   0 404.860 87.8291   2
  -4   8  -1 23.3999 82.0579   2
  -4   8  -2 214.354 87.7641   2
  -4   8  -3 135.136 94.9571   2
  -4   7   4 265.532 38.5014   2
  -4   7   3 11.5764 63.9387   2
  -4   7   2 164.009 69.2582   2
  -4   7   1 500.330 83.5320   2
  -4   7   0 124.328 74.7183   2
  -4   7  -1 794.588 94.6469   2
  -4   7  -2 205.443 83.7148   2
  -4   7  -3 24.2732 80.5237   2
  -4   7  -4 124.417 91.1873   2
   4  -6 -10 302.386 94.8177   2
  -4   6   3 229.410 39.9150   2
  -4   6   2 608.183 74.3998   2
  -4   6   1 50.7147 65.3958   2
  -4   6   0 365.068 70.9786   2
  -4   6  -1 1511.26 102.489   2
  -4   6  -2-3.69143 72.2441   2
  -4   6  -3 204.991 79.1201   2
  -4   6  -4 93.3757 86.7909   2
  -4   6  -5 79.0710 89.0057   2
   4  -5 -11 194.146 92.9293   2
   4  -5 -10 62.1799 80.9389   2
   4  -5  -9 500.571 89.1642   2
   4  -5  -8 339.563 82.3554   2
  -4   5   2 98.2652 38.6330   2
  -4   5   1 251.195 62.5661   2
  -4   5   0 505.717 69.9820   2
  -4   5  -1 106.826 58.3085   2
  -4   5  -2 908.696 87.7369   2
  -4   5  -3 360.967 83.0108   2
  -4   5  -4-21.1535 74.6473   2
  -4   5  -5 316.347 85.8899   2
  -4   5  -6 308.923 95.0423   2
   4  -4 -11 89.1503 83.8909   2
   4  -4 -10 94.3123 81.1458   2
   4  -4  -9 142.339 80.7746   2
   4  -4  -8 8.91722 72.6303   2
   4  -4  -7 725.261 83.0989   2
  -4   4   1 803.228 52.7977   2
  -4   4   0 22.1817 53.0994   2
  -4   4  -1 228.847 59.4535   2
  -4   4  -2 503.756 72.5738   2
  -4   4  -3 71.8228 64.4351   2
  -4   4  -4 144.939 75.0388   2
  -4   4  -5 746.907 95.1986   2
  -4   4  -6 6.36154 80.6791   2
  -4   4  -7 360.395 108.731   2
   4  -3 -11 185.370 83.1173   2
   4  -3 -10 142.132 79.2722   2
   4  -3  -9-9.12425 68.7939   2
   4  -3  -8 377.660 78.3042   2
   4  -3  -7 476.831 74.8589   2
   4  -3  -6 165.360 60.5597   2
  -4   3   0 89.1925 27.9167   2
   4  -3   1 108.144 44.3219   2
  -4   3  -2-13.9483 54.3247   2
  -4   3  -3 348.404 70.6568   2
  -4   3  -4 575.673 79.6802   2
  -4   3  -5 10.8978 67.8670   2
  -4   3  -6 243.894 82.0054   2
  -4   3  -7 643.612 105.583   2
  -4   3  -8 76.9568 108.188   2
   4  -2 -11 247.130 87.0563   2
   4  -2 -10 25.1818 75.2499   2
   4  -2  -9 150.576 71.3251   2
   4  -2  -8 371.536 30.5700   2
   4  -2  -7 127.019 25.6757   2
   4  -2  -6 535.711 68.7021   2
   4  -2  -5 113.698 18.2519   2
   4  -2   1 436.722 36.4173   2
  -4   2  -2 861.678 37.8500   2
  -4   2  -3 720.274 73.2628   2
  -4   2  -4-31.6573 59.8735   2
  -4   2  -5 274.863 75.5291   2
  -4   2  -6 574.899 87.7067   2
  -4   2  -7 50.2504 81.8512   2
  -4   2  -8 468.306 101.090   2
   4  -1 -11-29.7260 77.7784   2
   4  -1 -10 162.915 75.7976   2
   4  -1  -9 161.226 70.8460   2
   4  -1  -8 31.6237 31.5309   2
   4  -1  -7 965.164 44.1482   2
   4  -1  -6 536.863 31.7428   2
   4  -1  -5 146.012 19.6538   2
   4  -1  -4 651.457 26.6037   2
   4  -1   2 1562.37 76.2551   2
   4  -1   3 214.241 35.9258   2
  -4   1  -4 320.760 62.4856   2
  -4   1  -5 516.403 75.6727   2
  -4   1  -6 184.276 77.9485   2
  -4   1  -7 126.281 85.0435   2
  -4   1  -8 605.628 106.687   2
  -4   1  -9-16.2928 95.0605   2
   4   0 -11 151.619 86.7465   2
   4   0 -10 259.872 80.1431   2
   4   0  -9 37.1081 67.6791   2
   4   0  -8 844.224 49.6555   2
   4   0  -7 894.882 46.6672   2
  -4   0   6 20.4277 28.3828   2
   4   0  -5 387.006 30.1407   2
   4   0  -4 324.339 25.3328   2
   4   0  -3-5.17148 20.9224   2
   4   0   3 898.201 62.5825   2
  -4   0  -4 1827.31 48.6905   2
  -4   0  -5 604.206 73.4747   2
  -4   0  -6 24.4880 71.6958   2
  -4   0  -7 133.541 80.4792   2
  -4   0  -8 31.8965 74.6721   2
  -4   0  -9 344.731 101.240   2
  -4   0 -10 144.382 109.587   2
   4   1 -10 12.7120 71.6382   2
   4   1  -9 336.238 75.6548   2
   4   1  -8 463.232 46.5138   2
   4   1  -7 30.5525 35.0826   2
   4   1  -6 832.577 38.8370   2
   4   1  -5 222.057 28.5736   2
   4   1  -4 71.7228 23.5688   2
   4   1  -3 385.836 22.7605   2
  -4  -1   2 556.854 46.6369   2
  -4  -1  -4 479.519 31.7529   2
  -4  -1  -5 50.6660 39.3581   2
  -4  -1  -6 936.699 94.3683   2
  -4  -1  -7 271.297 98.4588   2
  -4  -1  -8 214.709 80.2909   2
  -4  -1  -9 77.2566 89.8817   2
  -4  -1 -10-5.88431 98.0740   2
   4   2  -9 151.871 61.9174   2
   4   2  -8 19.5998 39.5915   2
   4   2  -7 165.236 40.7754   2
   4   2  -6 432.585 34.6895   2
  -4  -2   5-4.16798 25.2130   2
   4   2  -4 418.153 28.1129   2
   4   2  -3 610.465 24.9649   2
   4   2  -2 259.199 24.0251   2
  -4  -2   1 553.476 40.4901   2
   4   2   5 1703.88 78.9721   2
  -4  -2  -7 417.652 89.9155   2
  -4  -2  -8 634.792 95.5582   2
  -4  -2  -9 57.2575 88.4226   2
  -4  -2 -10 149.962 67.4493   2
   4   3  -9-2.79307 66.8612   2
   4   3  -8 153.285 61.9006   2
   4   3  -7 14.2986 38.1149   2
   4   3  -6 32.2238 29.9483   2
  -4  -3   5 260.544 30.4462   2
  -4  -3   4 439.333 27.7135   2
  -4  -3   3 217.432 20.2018   2
  -4  -3   2 1819.44 31.5206   2
  -4  -3   1 583.082 20.8623   2
  -4  -3   0 15.3682 24.4554   2
  -4  -3  -6 354.703 68.6288   2
  -4  -3  -7 472.979 78.6786   2
  -4  -3  -8 56.0724 75.4017   2
  -4  -3  -9 102.549 61.7349   2
  -4  -3 -10 524.213 111.390   2
  -4  -3 -11 83.2488 109.256   2
   4   4  -8 376.875 81.6880   2
   4   4  -7-0.90857 67.7803   2
   4   4  -6 298.464 68.3470   2
   4   4  -5 475.324 35.7446   2
   4   4  -4 6.40724 22.2910   2
  -4  -4   3 328.499 34.8709   2
  -4  -4   2 664.131 28.8301   2
  -4  -4   1 15.0207 10.9402   2
  -4  -4   0 1282.97 20.2099   2
  -4  -4  -1 1304.08 36.6046   2
  -4  -4  -8 57.6105 52.3270   2
  -4  -4  -9 668.472 103.943   2
  -4  -4 -10 173.558 103.270   2
  -4  -4 -11 257.645 109.674   2
   4   5  -8 89.4467 80.6065   2
   4   5  -7 231.926 79.6555   2
   4   5  -6 290.095 71.2159   2
   4   5  -5 23.3267 65.9019   2
   4   5  -4 120.211 64.6276   2
  -4  -5   3 430.133 27.1646   2
   4   5  -2 36.0080 56.2069   2
   4   5  -1 280.363 58.9876   2
  -4  -5   0 1064.06 39.0652   2
  -4  -5  -1 87.2967 15.3312   2
  -4  -5  -2 1319.14 46.6488   2
  -4  -5  -9 80.4287 82.5433   2
  -4  -5 -10 244.152 95.4274   2
  -4  -5 -11 310.892 115.877   2
   4   6  -6 3.09513 74.9203   2
   4   6  -5 353.201 82.7501   2
   4   6  -4 735.837 85.0063   2
   4   6  -3 78.6568 63.6912   2
   4   6  -2 280.027 69.5582   2
   4   6  -1 353.053 68.9270   2
   4   6   0 68.8561 61.2904   2
  -4  -6  -1 267.684 34.6624   2
   4   6   2 187.819 17.8083   2
   4   6   3 477.924 29.2539   2
   4   7  -5 271.560 85.0433   2
   4   7  -4 113.372 76.9492   2
   4   7  -3 200.097 73.2864   2
   4   7  -2 465.195 80.0284   2
   4   7  -1 130.615 65.0749   2
   4   7   0 145.440 66.5031   2
   4   7   1 293.283 38.1103   2
  -4  -7  -2 26.0823 33.8877   2
  -4  -7  -3 370.674 43.0329   2
   4   7   4 420.534 32.3185   2
   4   8  -3 567.248 90.2691   2
   4   8  -2 5.20375 74.3276   2
   4   8  -1 460.058 82.8636   2
   4   8   0 345.017 73.5599   2
   4   8   1 92.4710 69.8205   2
   4   8   2 225.657 43.0277   2
  -4  -8  -3 705.015 50.2793   2
   4   8   4-8.23029 62.4047   2
   4   9  -1 226.340 81.5312   2
   4   9   0 4.50696 78.1139   2
   4   9   1 215.343 80.8835   2
   4   9   2 616.600 86.3235   2
   4   9   3 2.81680 40.8422   2
  -4  -9  -4 207.010 45.7519   2
   4   9   5 124.534 44.3070   2
   4  10   1 452.976 89.2785   2
   4  10   2 7.37572 77.2428   2
   4  10   3 413.615 86.9476   2
   4  10   4 436.289 54.7011   2
   4  10   5-12.4739 47.0692   2
   4  10   6 143.102 47.9981   2
   4  11   3 430.191 92.2838   2
   4  11   4 6.02247 77.9796   2
   4  11   5 186.422 56.4745   2
   4  11   6 44.6924 53.3874   2
   4  11   7 17.0209 64.8506   2
   4  12   6-4.29462 54.8425   2
   4  12   7 353.976 64.0651   2
   4  12   8 76.7840 70.7933   2
  -5   9   5 226.792 88.8765   2
  -5   9   4 327.393 90.0615   2
  -5   9   3-7.52741 80.3216   2
  -5   9   2 88.5382 89.5589   2
  -5   9   1 303.652 96.5368   2
  -5   8   4 87.7761 71.0485   2
  -5   8   3 97.1910 79.1075   2
  -5   8   2 306.344 88.0630   2
  -5   8   1-11.7360 81.6156   2
  -5   8   0 177.205 89.3835   2
  -5   8  -1 219.800 95.6365   2
  -5   7   3 855.621 91.5531   2
  -5   7   2 14.1622 71.9822   2
  -5   7   1 174.405 82.9040   2
  -5   7   0 342.140 86.8774   2
  -5   7  -1-32.4348 79.1359   2
  -5   7  -2 375.314 90.8758   2
  -5   7  -3 184.634 95.6025   2
  -5   6   3 330.715 43.6122   2
  -5   6   2 241.908 74.7672   2
  -5   6   1 1358.74 101.755   2
  -5   6   0 4.58261 71.3645   2
  -5   6  -1 230.283 77.8641   2
  -5   6  -2 220.229 80.0253   2
  -5   6  -3 51.0382 86.0767   2
  -5   6  -4 126.969 88.0283   2
   5  -5 -10 66.9820 93.5738   2
   5  -5  -9 95.3766 86.4116   2
  -5   5   2 1010.69 61.4198   2
  -5   5   1 48.7220 59.8789   2
  -5   5   0 127.293 65.0371   2
  -5   5  -1 242.683 74.5464   2
  -5   5  -2 10.3727 76.1240   2
  -5   5  -3 601.752 94.0139   2
  -5   5  -4 143.635 87.3710   2
  -5   5  -5-11.8026 93.1983   2
   5  -4 -10 73.8205 86.1520   2
   5  -4  -9 264.009 84.9770   2
   5  -4  -8 386.238 82.3818   2
   5  -4  -7-33.7029 70.0620   2
  -5   4   6 704.675 37.1406   2
  -5   4   1 309.388 47.9454   2
  -5   4   0 539.318 72.2976   2
  -5   4  -1 75.1141 63.4204   2
  -5   4  -2 228.373 68.0119   2
  -5   4  -3 1118.36 101.115   2
  -5   4  -4 40.5435 73.9576   2
  -5   4  -5 127.209 84.9827   2
  -5   4  -6 178.656 94.6130   2
   5  -3 -10 101.424 77.4338   2
   5  -3  -9 101.756 74.9121   2
   5  -3  -8 17.7919 70.4861   2
   5  -3  -7 606.669 81.8824   2
  -5   3   6 794.613 42.0828   2
  -5   3   0 7.94879 41.3504   2
  -5   3  -2 527.197 73.8942   2
  -5   3  -3 235.637 71.6660   2
  -5   3  -4 757.775 90.9468   2
  -5   3  -5 385.455 86.5525   2
  -5   3  -6-37.7295 80.1097   2
  -5   3  -7 188.357 101.751   2
   5  -2 -11 46.0057 82.0847   2
   5  -2 -10 178.028 77.3660   2
   5  -2  -9-7.39057 72.8647   2
   5  -2  -8 323.390 80.1955   2
   5  -2  -7 440.831 33.4468   2
   5  -2  -6 39.5377 26.6306   2
   5  -2  -5 872.325 32.3692   2
  -5   2  -1 297.556 50.4311   2
  -5   2  -3 803.665 79.8431   2
  -5   2  -4 1255.03 99.1192   2
  -5   2  -5 194.302 77.7978   2
  -5   2  -6 224.408 77.0857   2
  -5   2  -7 401.831 102.524   2
  -5   2  -8 27.0372 107.598   2
   5  -1 -10-10.7931 77.3542   2
   5  -1  -9 278.599 79.5196   2
   5  -1  -8 333.823 73.5643   2
   5  -1  -7 4.56120 29.9823   2
   5  -1  -6 526.754 38.7456   2
   5  -1  -5 361.156 28.5404   2
   5  -1  -4 265.272 26.4728   2
  -5   1  -4 5.99665 63.3436   2
  -5   1  -5 87.0428 72.7235   2
  -5   1  -6 530.390 84.7045   2
  -5   1  -7-0.11304 89.1878   2
  -5   1  -8 243.014 98.4201   2
   5   0 -10 524.715 88.1734   2
   5   0  -9 643.451 85.2334   2
   5   0  -8 48.1786 59.7355   2
   5   0  -7 168.394 38.5355   2
   5   0  -6 369.002 39.5430   2
   5   0  -5-0.53492 23.0913   2
   5   0  -4 173.306 24.2816   2
  -5   0   3 99.7159 46.7712   2
  -5   0  -5 191.735 70.8117   2
  -5   0  -6 31.0032 77.8808   2
  -5   0  -7 531.286 98.7071   2
  -5   0  -8 299.687 100.992   2
  -5   0  -9 35.1679 111.923   2
   5   1  -8 248.185 43.9302   2
   5   1  -7 184.673 39.7197   2
   5   1  -6-9.18450 29.5811   2
   5   1  -5 173.769 29.9476   2
   5   1  -4 186.113 23.9255   2
   5   1  -3 76.9432 21.8333   2
  -5  -1   2 1245.74 47.6954   2
  -5  -1  -6 132.119 87.9056   2
  -5  -1  -7 291.653 90.3278   2
  -5  -1  -8 49.0478 91.2728   2
  -5  -1  -9 139.343 98.2318   2
   5   2  -8 190.177 63.8712   2
   5   2  -7 30.4894 38.0256   2
   5   2  -6 576.044 45.3400   2
   5   2  -5 1010.23 40.2645   2
   5   2  -4 18.4500 32.3715   2
  -5  -2   3 253.092 35.0311   2
   5   2  -2 224.178 23.1567   2
  -5  -2   1 15.6226 25.7802   2
  -5  -2  -6 1233.01 112.181   2
  -5  -2  -8 97.6048 90.3045   2
  -5  -2  -9 93.5823 96.3564   2
  -5  -2 -10 32.3025 102.092   2
   5   3  -8-16.8225 65.7834   2
   5   3  -7 51.4736 64.4690   2
   5   3  -6 227.396 67.4179   2
   5   3  -5-2.70326 30.5873   2
   5   3  -4 927.351 46.2697   2
  -5  -3   3 493.104 29.5478   2
  -5  -3   2 3.15410 20.6637   2
  -5  -3   1 676.457 27.4283   2
  -5  -3   0 376.388 37.8005   2
  -5  -3  -7-9.06418 72.5419   2
  -5  -3  -8 459.423 95.1355   2
  -5  -3  -9 40.1503 88.6792   2
  -5  -3 -10 142.575 72.0617   2
   5   4  -8 19.8432 72.7488   2
   5   4  -7 163.768 74.0457   2
   5   4  -6 8.88731 62.8549   2
   5   4  -5 254.796 67.2517   2
   5   4  -4 799.513 79.5148   2
  -5  -4   3 4.66426 22.2402   2
   5   4  -2 924.966 36.6207   2
  -5  -4   1 795.226 18.7172   2
  -5  -4   0 27.4425 17.9494   2
  -5  -4  -1 117.119 33.4427   2
  -5  -4  -8 74.2585 72.0310   2
  -5  -4  -9 106.504 76.9266   2
  -5  -4 -10 340.210 112.266   2
   5   5  -7 33.7971 70.6490   2
   5   5  -6 162.704 78.4818   2
   5   5  -5 265.365 71.4245   2
   5   5  -4 77.3889 65.6959   2
   5   5  -3 137.592 65.1951   2
   5   5  -2 342.626 67.4980   2
   5   5  -1 73.1923 61.6553   2
  -5  -5   0 986.955 38.3178   2
  -5  -5  -1 217.931 20.1219   2
  -5  -5  -2 70.9972 32.3195   2
  -5  -5 -10 39.9020 95.0369   2
   5   6  -5 75.3254 70.3924   2
   5   6  -4 123.577 72.2914   2
   5   6  -3 328.174 78.2315   2
   5   6  -2-0.44977 66.2471   2
   5   6  -1 490.334 77.4047   2
   5   6   0 102.845 29.8418   2
   5   6   1 55.5973 30.4997   2
   5   6   2 960.222 81.5113   2
  -5  -6 -10 164.080 94.4726   2
  -5  -6 -11 283.873 107.884   2
   5   7  -4 417.310 85.9625   2
   5   7  -3 32.3083 74.6959   2
   5   7  -2 89.3837 73.8197   2
   5   7  -1 160.361 69.1832   2
   5   7   0 23.3426 63.9497   2
   5   7   1 187.338 36.8447   2
  -5  -7  -2 633.286 45.5364   2
   5   7   3 78.2466 64.4099   2
   5   8  -2 306.495 89.3354   2
   5   8  -1-9.42144 74.5017   2
   5   8   0 108.577 76.4300   2
   5   8   1 183.000 77.6468   2
   5   8   2 59.7533 38.4829   2
  -5  -8  -3 378.726 47.7193   2
   5   8   4 396.423 74.4600   2
   5   9   0 190.444 83.5921   2
   5   9   1-1.77574 77.2737   2
   5   9   2 173.548 83.5443   2
   5   9   3 376.535 50.4344   2
   5   9   4 12.4934 42.3936   2
   5   9   5 226.947 50.7976   2
   5  10   2 356.466 95.1024   2
   5  10   3 55.0192 78.2318   2
   5  10   4 105.903 48.8504   2
   5  10   5 119.667 50.5677   2
  -5 -10  -6 15.2403 48.6143   2
  -5 -11  -5 67.3391 70.2400   2
  -5 -11  -6 215.715 77.9322   2
   5  11   7 61.5118 74.7367   2
  -6   8   4 240.200 85.6867   2
  -6   8   3 0.74837 83.0799   2
  -6   8   2 281.794 93.0766   2
  -6   7   3 111.092 77.9069   2
  -6   7   2 610.958 97.4527   2
  -6   7   1 4.87877 78.2644   2
  -6   7   0 180.888 87.8754   2
  -6   7  -1 206.182 87.3489   2
  -6   6   2 53.2111 77.9033   2
  -6   6   1 255.131 82.9348   2
  -6   6   0 121.701 78.3825   2
  -6   6  -1 64.1351 76.7794   2
  -6   6  -2 324.118 95.5335   2
  -6   5   1 659.703 86.0623   2
  -6   5   0-2.34385 72.1765   2
  -6   5  -1 156.974 77.2995   2
  -6   5  -2 110.007 78.0223   2
  -6   5  -3 21.7838 80.6581   2
  -6   5  -4 379.594 102.258   2
   6  -4  -9-23.2271 81.9333   2
   6  -4  -8 337.462 92.1126   2
   6  -4  -7 506.250 88.8229   2
  -6   4   0 130.412 71.6354   2
  -6   4  -1 617.845 82.9454   2
  -6   4  -2 0.30742 69.3409   2
  -6   4  -3 273.941 80.4866   2
  -6   4  -4 486.911 99.8865   2
  -6   4  -5 89.4300 84.8270   2
   6  -3  -9 428.890 89.6741   2
   6  -3  -8 228.176 78.5480   2
   6  -3  -7 48.1506 68.6701   2
   6  -3  -6 698.708 89.6960   2
  -6   3  -2 255.691 74.3453   2
  -6   3  -3 413.399 84.9893   2
  -6   3  -4 139.048 79.1361   2
  -6   3  -5 365.230 93.9223   2
  -6   3  -6 46.8291 90.5717   2
   6  -2 -10 221.163 88.4238   2
   6  -2  -9 579.633 87.5212   2
   6  -2  -8-6.17941 69.9392   2
   6  -2  -7 441.062 79.6121   2
   6  -2  -6 458.524 39.4272   2
  -6   2   5-1.68225 35.4386   2
  -6   2  -3 221.993 74.5268   2
  -6   2  -4 107.941 73.8693   2
  -6   2  -5 554.968 94.1000   2
  -6   2  -6 28.5477 84.2528   2
   6  -1  -9 3.43227 74.2147   2
   6  -1  -8 219.365 70.5395   2
   6  -1  -7 141.077 70.5779   2
   6  -1  -6 35.5218 34.3549   2
  -6   1   5 235.913 34.0361   2
  -6   1   4 413.675 65.7873   2
  -6   1  -5 95.4190 76.1745   2
  -6   1  -6 456.245 95.2164   2
  -6   1  -7 236.030 104.926   2
   6   0  -8 39.0100 63.9645   2
   6   0  -7 25.4623 57.5631   2
   6   0  -6 259.800 39.5861   2
   6   0  -5 374.947 53.9665   2
  -6   0   4-3.39899 28.0910   2
  -6   0   3 850.757 76.3379   2
  -6   0   2 91.6992 56.6340   2
  -6   0  -6 733.884 95.6984   2
  -6   0  -7 91.7440 89.7867   2
  -6   0  -8 84.1243 120.423   2
   6   1  -7 44.6276 40.4197   2
   6   1  -6 122.683 40.0001   2
   6   1  -5 18.9704 48.3553   2
  -6  -1   4 584.439 36.7663   2
  -6  -1   3 280.275 32.2030   2
  -6  -1  -6 58.5360 74.7168   2
  -6  -1  -7 36.9506 94.8729   2
  -6  -1  -8 331.773 107.309   2
   6   2  -7 305.171 72.2786   2
   6   2  -6 16.8169 56.1697   2
   6   2  -5 203.131 60.6195   2
   6   2  -4 449.853 45.0311   2
   6   2  -3 2.69672 26.9602   2
  -6  -2   2 599.955 34.9288   2
  -6  -2   1 349.607 49.7262   2
  -6  -2  -8 169.382 97.1313   2
  -6  -2  -9 236.231 114.450   2
   6   3  -7-36.3522 67.3416   2
   6   3  -6 276.499 69.6384   2
   6   3  -5 461.196 78.9674   2
   6   3  -4 38.3902 36.2941   2
  -6  -3   3 174.936 35.9459   2
   6   3  -2 99.9371 33.6746   2
  -6  -3   1-0.18908 30.9155   2
  -6  -3   0 963.849 56.1283   2
   6   4  -7 146.067 80.0501   2
   6   4  -6 425.748 82.7870   2
   6   4  -5-36.1402 63.7516   2
   6   4  -4 363.599 75.7680   2
   6   4  -3 771.847 84.4172   2
   6   4  -2 17.4535 27.3025   2
  -6  -4   1 188.198 18.1117   2
   6   4   0 15.1147 20.9012   2
  -6  -4  -1 127.370 42.0080   2
  -6  -4 -10 202.474 101.705   2
   6   5  -6 5.62842 75.9514   2
   6   5  -5 104.466 73.6508   2
   6   5  -4 336.077 82.6723   2
   6   5  -3-42.8518 67.8432   2
   6   5  -2 659.148 84.9177   2
   6   5  -1 139.260 67.8492   2
  -6  -5   0 10.4994 25.4863   2
  -6  -5  -1 483.489 35.1944   2
   6   6  -4-19.4470 76.4405   2
   6   6  -3 327.843 82.0104   2
   6   6  -2 483.066 84.4273   2
   6   6  -1 11.7170 73.5694   2
   6   6   0 587.936 86.5489   2
   6   6   1 314.815 36.0980   2
   6   6   2 46.6918 66.7615   2
   6   7  -2 7.24211 75.2882   2
   6   7  -1 115.912 75.4817   2
   6   7   0 219.948 76.4664   2
   6   7   1 16.0112 71.9849   2
   6   7   2 415.246 43.1068   2
   6   7   3 530.124 83.2124   2
   6   8   0 74.9412 76.0982   2
   6   8   1 669.370 92.6018   2
   6   8   2 418.787 90.9129   2
   6   8   3 11.9896 40.9278   2
   6   8   4 403.505 81.4429   2
   6   9   3 144.796 83.4797   2
   6   9   4 293.780 84.2432   2
   6   9   5 60.7792 73.9382   2
  -7   6   2 137.256 89.5842   2
  -7   6   1-18.1160 87.5246   2
  -7   5   1 115.541 83.6185   2
  -7   5   0 383.591 87.5736   2
  -7   5  -1 6.44467 80.7276   2
  -7   4   0 100.748 79.8388   2
  -7   4  -1 291.850 81.3871   2
  -7   4  -2 330.648 92.5216   2
  -7   4  -3-21.9998 83.5192   2
   7  -3  -8 424.222 95.0186   2
  -7   3   7 71.6704 78.2800   2
  -7   3  -2 61.0790 75.7604   2
  -7   3  -3 112.432 88.1481   2
  -7   3  -4 41.2519 88.3303   2
   7  -2  -9 214.340 90.3474   2
   7  -2  -8 250.772 86.9485   2
  -7   2   7-54.3821 74.3915   2
  -7   2   6 210.862 82.1244   2
  -7   2  -3 362.026 89.4465   2
  -7   2  -4 0.35515 82.1726   2
  -7   2  -5 337.268 95.8928   2
   7  -1  -8-1.04620 71.9639   2
  -7   1   7 289.335 83.4229   2
  -7   1   6 166.302 75.8236   2
  -7   1   5 1.93443 38.1702   2
  -7   1   4 338.747 79.3199   2
  -7   1  -4 417.331 90.4599   2
  -7   1  -5 480.263 100.412   2
  -7   1  -6 1.74365 99.9751   2
  -7   0   6 25.0577 68.2686   2
  -7   0   5 354.776 46.3992   2
  -7   0   4 525.266 47.4986   2
  -7   0  -7 354.443 115.377   2
  -7  -1   5 286.973 46.4759   2
  -7  -1   4 7.86114 39.1349   2
  -7  -1   3 434.480 46.9318   2
  -7  -1  -7 176.150 111.712   2
   7   2  -6 168.846 65.3279   2
   7   2  -5 56.9382 61.2440   2
  -7  -2   4 252.714 44.8740   2
  -7  -2   3 584.358 49.5556   2
  -7  -2   2 10.7519 37.0886   2
   7   3  -6 35.1989 72.6579   2
   7   3  -5 59.6878 67.0946   2
   7   3  -4 136.289 65.7269   2
   7   3  -3 6.58479 62.3215   2
   7   3  -2 283.370 66.5389   2
  -7  -3   1 33.3334 33.9843   2
   7   4  -5 179.857 80.2811   2
   7   4  -4 10.0714 69.0424   2
   7   4  -3 330.146 78.9646   2
   7   4  -2 234.529 76.0115   2
   7   4  -1 13.4639 63.5125   2
   7   4   0 374.643 72.9997   2
   7   5  -4 198.879 80.8035   2
   7   5  -3 238.508 80.2903   2
   7   5  -2 36.0642 72.3237   2
   7   5  -1 319.071 79.9804   2
   7   5   0 109.323 70.2846   2
   7   5   1 10.7241 66.4365   2
   7   6  -2 152.432 78.9349   2
   7   6  -1 175.332 79.1113   2
   7   6   0-17.7980 75.8141   2
   7   6   1 306.690 78.5324   2
   7   6   2 337.514 77.9721   2
   7   7   1 221.388 78.8907   2
   7   7   2 63.9142 75.1219   2
   7   7   3 259.004 78.6652   2
  -8   3   6 41.7819 91.3407   2
  -8   2   7 100.085 90.9535   2
  -8   2   6 29.1487 82.7222   2
  -8   1   6 211.334 84.8010   2
  -8   1   5 63.7071 79.7168   2
  -8   0   5 0.89119 70.5055   2
  -8   0   4 243.946 50.7030   2
   8   1  -4 235.166 64.5085   2
  -8  -1   3 19.1230 42.9564   2
   8   2  -4 21.0495 65.5613   2
   8   2  -3 259.896 73.3361   2
   8   2  -2 245.267 68.6865   2
   8   3  -4 108.663 74.7867   2
   8   3  -3 137.858 74.5195   2
   8   3  -2 8.18171 68.6770   2
   8   3  -1 303.731 75.9819   2
   8   4  -3-5.17151 75.3161   2
   8   4  -2 105.325 71.6608   2
   8   4  -1 258.900 78.5132   2
   8   4   0 27.1260 69.3933   2
   8   5   0 142.456 76.5662   2
   8   5   1 136.693 76.7570   2
   9   1  -3 65.5360 73.3369   2
   9   2  -2 229.274 80.6542   2
;
_shelx_hkl_checksum              86493
_olex2_submission_special_instructions 'No special instructions were received'
_oxdiff_exptl_absorpt_empirical_details
;
Empirical correction (ABSPACK) includes:
- Absorption correction using spherical harmonics
- Frame scaling
;
_oxdiff_exptl_absorpt_empirical_full_max 1.209
_oxdiff_exptl_absorpt_empirical_full_min 0.672
_oxdiff_twin_integration_method  simultaneous
_oxdiff_twin_items               2
loop_
_space_group_symop_operation_xyz
'x, y, z'
'-x, -y, -z'
loop_
_atom_site_label
_atom_site_type_symbol
_atom_site_fract_x
_atom_site_fract_y
_atom_site_fract_z
_atom_site_U_iso_or_equiv
_atom_site_adp_type
_atom_site_occupancy
_atom_site_site_symmetry_order
_atom_site_calc_flag
_atom_site_refinement_flags_posn
_atom_site_refinement_flags_adp
_atom_site_refinement_flags_occupancy
_atom_site_disorder_assembly
_atom_site_disorder_group
Mo1 Mo 0.33092(6) 0.65555(5) 0.17640(4) 0.00945(11) Uani 1 1 d . . . . .
N1 N 0.1204(6) 0.8639(4) 0.0709(4) 0.0100(9) Uani 1 1 d . . . . .
O1 O 0.5743(4) 0.8308(4) 0.3034(3) 0.0202(7) Uani 1 1 d . . . . .
N3 N 0.1263(6) 0.5635(4) 0.3760(4) 0.0101(9) Uani 1 1 d . . . . .
N4 N 0.1306(5) 0.5532(4) 0.0711(4) 0.0093(8) Uani 1 1 d . . . . .
O2 O 0.5941(5) 0.7658(4) -0.1065(3) 0.0213(8) Uani 1 1 d . . . . .
C1 C 0.4831(6) 0.7625(5) 0.2579(5) 0.0152(10) Uani 1 1 d . . . . .
C2 C 0.4956(8) 0.7261(5) -0.0002(5) 0.0133(12) Uani 1 1 d . . . . .
O3 O 0.6410(6) 0.3838(4) 0.3230(4) 0.0290(9) Uani 1 1 d . . . . .
C3 C 0.5194(8) 0.4825(6) 0.2677(5) 0.0149(11) Uani 1 1 d . . . . .
C4 C 0.0447(8) 0.4193(5) 0.1419(5) 0.0149(11) Uani 1 1 d . . . . .
H4 H 0.072492 0.359460 0.241496 0.018 Uiso 1 1 calc R U . . .
C5 C 0.0828(7) 0.6329(5) -0.0729(5) 0.0134(11) Uani 1 1 d . . . . .
H5 H 0.137721 0.726461 -0.127636 0.016 Uiso 1 1 calc R U . . .
C6 C -0.0723(6) 0.8627(5) 0.0551(4) 0.0115(10) Uani 1 1 d . . . . .
H6 H -0.129709 0.768875 0.092394 0.014 Uiso 1 1 calc R U . . .
C8 C 0.1381(7) 0.4132(5) 0.4731(4) 0.0128(10) Uani 1 1 d . . . . .
H8 H 0.233334 0.348516 0.458510 0.015 Uiso 1 1 calc R U . . .
C7 C 0.1903(7) 1.0046(5) 0.0146(4) 0.0108(10) Uani 1 1 d . . . . .
H7 H 0.323158 1.013192 0.022915 0.013 Uiso 1 1 calc R U . . .
C9 C -0.0126(7) 0.6473(5) 0.4066(4) 0.0134(11) Uani 1 1 d . . . . .
H9 H -0.026407 0.751567 0.344358 0.016 Uiso 1 1 calc R U . . .
N5 N 0.0208(7) 0.9805(5) -0.3547(4) 0.0265(11) Uani 1 1 d . . . . .
C10 C -0.1518(8) 1.0024(6) -0.4180(6) 0.0257(12) Uani 1 1 d . . . . .
C11 C 0.1720(7) 0.9786(5) -0.4387(5) 0.0264(12) Uani 1 1 d . . . . .
H11 H 0.296963 0.963960 -0.399714 0.032 Uiso 1 1 calc R U . . .
H10 H -0.263(8) 0.997(6) -0.357(6) 0.038(16) Uiso 1 1 d . . . . .
loop_
_atom_site_aniso_label
_atom_site_aniso_U_11
_atom_site_aniso_U_22
_atom_site_aniso_U_33
_atom_site_aniso_U_23
_atom_site_aniso_U_13
_atom_site_aniso_U_12
Mo1 0.00751(19) 0.01017(19) 0.01027(19) -0.00412(14) 0.00040(14) -0.00044(14)
N1 0.008(3) 0.013(2) 0.0075(18) -0.0031(17) 0.0016(16) -0.0009(17)
O1 0.0157(17) 0.026(2) 0.0236(18) -0.0146(16) -0.0049(15) -0.0020(15)
N3 0.011(2) 0.0097(19) 0.0085(19) -0.0026(17) -0.0022(16) -0.0029(17)
N4 0.0080(18) 0.0090(19) 0.0119(19) -0.0059(16) 0.0023(15) 0.0024(16)
O2 0.020(2) 0.028(2) 0.0199(18) -0.0133(16) 0.0083(16) -0.0089(16)
C1 0.010(2) 0.018(3) 0.010(2) 0.0002(19) 0.001(2) 0.006(2)
C2 0.008(3) 0.015(2) 0.020(3) -0.011(2) -0.006(2) -0.002(2)
O3 0.025(2) 0.027(2) 0.029(2) -0.0085(18) -0.0022(17) 0.0112(18)
C3 0.012(3) 0.020(3) 0.015(2) -0.009(2) 0.004(2) -0.004(2)
C4 0.013(3) 0.017(3) 0.014(2) -0.007(2) -0.002(2) 0.004(2)
C5 0.015(3) 0.012(2) 0.015(2) -0.007(2) 0.003(2) -0.005(2)
C6 0.005(3) 0.012(2) 0.018(2) -0.006(2) 0.0030(19) -0.0065(19)
C8 0.016(3) 0.013(2) 0.011(2) -0.007(2) -0.001(2) 0.007(2)
C7 0.011(3) 0.012(2) 0.010(2) -0.005(2) -0.0001(19) -0.0029(19)
C9 0.013(3) 0.012(2) 0.011(2) -0.001(2) -0.002(2) 0.001(2)
N5 0.030(3) 0.028(2) 0.021(2) -0.010(2) 0.003(2) -0.001(2)
C10 0.024(3) 0.023(3) 0.030(3) -0.012(2) 0.008(3) -0.003(2)
C11 0.021(3) 0.021(3) 0.033(3) -0.008(2) -0.005(3) -0.002(2)
loop_
_atom_type_symbol
_atom_type_description
_atom_type_scat_dispersion_real
_atom_type_scat_dispersion_imag
_atom_type_scat_source
C C 0.0033 0.0016 'International Tables Vol C Tables 4.2.6.8 and 6.1.1.4'
H H 0.0000 0.0000 'International Tables Vol C Tables 4.2.6.8 and 6.1.1.4'
Mo Mo -1.6832 0.6857 'International Tables Vol C Tables 4.2.6.8 and 6.1.1.4'
N N 0.0061 0.0033 'International Tables Vol C Tables 4.2.6.8 and 6.1.1.4'
O O 0.0106 0.0060 'International Tables Vol C Tables 4.2.6.8 and 6.1.1.4'
loop_
_geom_angle_atom_site_label_1
_geom_angle_atom_site_label_2
_geom_angle_atom_site_label_3
_geom_angle
_geom_angle_site_symmetry_1
_geom_angle_site_symmetry_3
_geom_angle_publ_flag
N1 Mo1 N3 88.55(12) . . ?
N1 Mo1 N4 83.07(13) . . ?
N4 Mo1 N3 85.90(13) . . ?
C1 Mo1 N1 90.78(16) . . ?
C1 Mo1 N3 93.73(16) . . ?
C1 Mo1 N4 173.85(15) . . ?
C1 Mo1 C2 90.42(19) . . ?
C1 Mo1 C3 86.93(19) . . ?
C2 Mo1 N1 91.56(18) . . ?
C2 Mo1 N3 175.84(17) . . ?
C2 Mo1 N4 89.98(16) . . ?
C3 Mo1 N1 177.59(19) . . ?
C3 Mo1 N3 92.35(18) . . ?
C3 Mo1 N4 99.22(17) . . ?
C3 Mo1 C2 87.70(18) . . ?
C6 N1 Mo1 126.3(3) . . ?
C6 N1 C7 114.5(4) . . ?
C7 N1 Mo1 119.2(3) . . ?
C8 N3 Mo1 120.7(3) . . ?
C9 N3 Mo1 124.6(3) . . ?
C9 N3 C8 114.7(4) . . ?
C4 N4 Mo1 125.7(3) . . ?
C4 N4 C5 114.9(4) . . ?
C5 N4 Mo1 119.3(3) . . ?
O1 C1 Mo1 178.1(4) . . ?
O2 C2 Mo1 178.6(4) . . ?
O3 C3 Mo1 176.0(5) . . ?
N4 C4 H4 118.6 . . ?
N4 C4 C5 122.7(4) . 2_565 ?
C5 C4 H4 118.6 2_565 . ?
N4 C5 C4 122.3(4) . 2_565 ?
N4 C5 H5 118.8 . . ?
C4 C5 H5 118.8 2_565 . ?
N1 C6 H6 118.6 . . ?
N1 C6 C7 122.8(4) . 2_575 ?
C7 C6 H6 118.6 2_575 . ?
N3 C8 H8 118.9 . . ?
N3 C8 C9 122.2(4) . 2_566 ?
C9 C8 H8 118.9 2_566 . ?
N1 C7 C6 122.7(4) . 2_575 ?
N1 C7 H7 118.6 . . ?
C6 C7 H7 118.6 2_575 . ?
N3 C9 C8 123.2(4) . 2_566 ?
N3 C9 H9 118.4 . . ?
C8 C9 H9 118.4 2_566 . ?
C11 N5 C10 115.2(4) . . ?
N5 C10 C11 122.3(5) . 2_574 ?
N5 C10 H10 116(3) . . ?
C11 C10 H10 121(3) 2_574 . ?
N5 C11 C10 122.5(5) . 2_574 ?
N5 C11 H11 118.7 . . ?
C10 C11 H11 118.7 2_574 . ?
loop_
_geom_bond_atom_site_label_1
_geom_bond_atom_site_label_2
_geom_bond_distance
_geom_bond_site_symmetry_2
_geom_bond_publ_flag
Mo1 N1 2.271(4) . ?
Mo1 N3 2.281(4) . ?
Mo1 N4 2.276(3) . ?
Mo1 C1 1.943(5) . ?
Mo1 C2 1.949(5) . ?
Mo1 C3 1.948(5) . ?
N1 C6 1.337(6) . ?
N1 C7 1.346(6) . ?
O1 C1 1.173(5) . ?
N3 C8 1.356(5) . ?
N3 C9 1.330(6) . ?
N4 C4 1.345(6) . ?
N4 C5 1.349(5) . ?
O2 C2 1.172(6) . ?
O3 C3 1.177(6) . ?
C4 H4 0.9300 . ?
C4 C5 1.380(6) 2_565 ?
C5 H5 0.9300 . ?
C6 H6 0.9300 . ?
C6 C7 1.387(6) 2_575 ?
C8 H8 0.9300 . ?
C8 C9 1.387(6) 2_566 ?
C7 H7 0.9300 . ?
C9 H9 0.9300 . ?
N5 C10 1.321(6) . ?
N5 C11 1.320(6) . ?
C10 C11 1.379(7) 2_574 ?
C10 H10 0.95(6) . ?
C11 H11 0.9300 . ?
loop_
_geom_torsion_atom_site_label_1
_geom_torsion_atom_site_label_2
_geom_torsion_atom_site_label_3
_geom_torsion_atom_site_label_4
_geom_torsion
_geom_torsion_site_symmetry_1
_geom_torsion_site_symmetry_2
_geom_torsion_site_symmetry_3
_geom_torsion_site_symmetry_4
_geom_torsion_publ_flag
Mo1 N1 C6 C7 -178.1(3) . . . 2_575 ?
Mo1 N1 C7 C6 178.2(3) . . . 2_575 ?
Mo1 N3 C8 C9 -178.3(3) . . . 2_566 ?
Mo1 N3 C9 C8 178.3(3) . . . 2_566 ?
Mo1 N4 C4 C5 176.9(3) . . . 2_565 ?
Mo1 N4 C5 C4 -177.1(3) . . . 2_565 ?
C4 N4 C5 C4 0.1(7) . . . 2_565 ?
C5 N4 C4 C5 -0.1(7) . . . 2_565 ?
C6 N1 C7 C6 -0.6(7) . . . 2_575 ?
C8 N3 C9 C8 -0.8(7) . . . 2_566 ?
C7 N1 C6 C7 0.6(7) . . . 2_575 ?
C9 N3 C8 C9 0.8(7) . . . 2_566 ?
C10 N5 C11 C10 -0.2(8) . . . 2_574 ?
C11 N5 C10 C11 0.2(8) . . . 2_574 ?
loop_
_twin_individual_id
_twin_individual_mass_fraction_refined
_oxdiff_twin_reflns_isolated
_oxdiff_twin_reflns_overlapped
_twin_individual_twin_lattice_type
_twin_individual_twin_matrix_11
_twin_individual_twin_matrix_12
_twin_individual_twin_matrix_13
_twin_individual_twin_matrix_21
_twin_individual_twin_matrix_22
_twin_individual_twin_matrix_23
_twin_individual_twin_matrix_31
_twin_individual_twin_matrix_32
_twin_individual_twin_matrix_33
1 0.6022(9) 2924 2079 ref 1.0000 0.0000 0.0000 0.0000 1.0000 0.0000 0.0000
0.0000 1.0000
2 0.3978(9) 2942 2079 nmt -1.0004 0.0354 -0.0355 -0.0011 -0.0567 -0.9446 0.0020
-1.0575 0.0582
