#------------------------------------------------------------------------------
#$Date: 2021-05-05 11:02:42 +0300 (Wed, 05 May 2021) $
#$Revision: 264865 $
#$URL: file:///home/coder/svn-repositories/cod/cif/7/12/80/7128079.cif $
#------------------------------------------------------------------------------
#
# This file is available in the Crystallography Open Database (COD),
# http://www.crystallography.net/
#
# All data on this site have been placed in the public domain by the
# contributors.
#
data_7128079
loop_
_publ_author_name
'Voigt, Laura'
'Wugt Larsen, Ren\'e'
'Kubus, Mariusz'
'Pedersen, Kasper S.'
_publ_section_title
;
 Zero-valent metals in metal-organic frameworks:
 fac-M(CO)<sub>3</sub>(pyrazine)<sub>3/2</sub>.
;
_journal_issue                   32
_journal_name_full
'Chemical communications (Cambridge, England)'
_journal_page_first              3861
_journal_page_last               3864
_journal_paper_doi               10.1039/d1cc00864a
_journal_volume                  57
_journal_year                    2021
_chemical_formula_moiety         'C9 H6 N3 O3 W'
_chemical_formula_sum            'C9 H6 N3 O3 W'
_chemical_formula_weight         388.02
_space_group_crystal_system      monoclinic
_space_group_IT_number           12
_space_group_name_Hall           '-C 2y'
_space_group_name_H-M_alt        'C 1 2/m 1'
_atom_sites_solution_hydrogens   mixed
_atom_sites_solution_primary     iterative
_audit_creation_date             2021-01-26
_audit_creation_method
;
Olex2 1.3
(compiled 2020.11.12 svn.r5f609507 for OlexSys, GUI svn.r6226)
;
_audit_update_record
;
2021-02-15 deposited with the CCDC.	2021-03-25 downloaded from the CCDC.
;
_cell_angle_alpha                90
_cell_angle_beta                 90.482(4)
_cell_angle_gamma                90
_cell_formula_units_Z            4
_cell_length_a                   17.8974(7)
_cell_length_b                   9.9861(5)
_cell_length_c                   6.7067(3)
_cell_measurement_reflns_used    3812
_cell_measurement_temperature    120.00(10)
_cell_measurement_theta_max      28.7990
_cell_measurement_theta_min      4.5440
_cell_volume                     1198.61(9)
_computing_cell_refinement       'CrysAlisPro 1.171.39.46 (Rigaku OD, 2018)'
_computing_data_collection       'CrysAlisPro 1.171.39.46 (Rigaku OD, 2018)'
_computing_data_reduction        'CrysAlisPro 1.171.39.46 (Rigaku OD, 2018)'
_computing_molecular_graphics    'Olex2 1.3 (Dolomanov et al., 2009)'
_computing_publication_material  'Olex2 1.3 (Dolomanov et al., 2009)'
_computing_structure_refinement  'SHELXL 2018/3 (Sheldrick, 2015)'
_computing_structure_solution    'olex2.solve 1.3 (Bourhis et al., 2015)'
_diffrn_ambient_environment      N~2~
_diffrn_ambient_temperature      120.00(10)
_diffrn_detector                 'CCD plate'
_diffrn_detector_area_resol_mean 5.3073
_diffrn_detector_type            Atlas
_diffrn_measured_fraction_theta_full 0.997
_diffrn_measured_fraction_theta_max 0.991
_diffrn_measurement_details
;
List of Runs (angles in degrees, time in seconds):

  # Type    Start    End  Width  t~exp~   \w     \q     \k     \f   Frames
#--------------------------------------------------------------------------
  1  \w    -14.00  82.00   1.00   20.00    --   10.87  38.00 150.00   96
  2  \w    -69.00  31.00   1.00   20.00    --   10.87 -19.00 -30.00  100
  3  \w      3.00  52.00   1.00   20.00    --   10.87 -99.00-120.00   49
  4  \w      3.00  30.00   1.00   20.00    --   10.87 -38.00-120.00   27
  5  \w    -20.00  28.00   1.00   20.00    --  -11.58 -99.00 -60.00   48
;
_diffrn_measurement_device       'four-circle diffractometer'
_diffrn_measurement_device_type  'SuperNova, Dual, Cu at home/near, Atlas'
_diffrn_measurement_method       '\w scans'
_diffrn_orient_matrix_type
'CrysAlisPro convention (1999,Acta A55,543-557)'
_diffrn_orient_matrix_UB_11      0.0022860000
_diffrn_orient_matrix_UB_12      0.0643413000
_diffrn_orient_matrix_UB_13      -0.0444418000
_diffrn_orient_matrix_UB_21      0.0070011000
_diffrn_orient_matrix_UB_22      0.0288264000
_diffrn_orient_matrix_UB_23      0.0950104000
_diffrn_orient_matrix_UB_31      0.0389378000
_diffrn_orient_matrix_UB_32      -0.0090077000
_diffrn_orient_matrix_UB_33      -0.0135394000
_diffrn_radiation_monochromator  mirror
_diffrn_radiation_probe          x-ray
_diffrn_radiation_type           'Mo K\a'
_diffrn_radiation_wavelength     0.71073
_diffrn_reflns_av_R_equivalents  0.0384
_diffrn_reflns_av_unetI/netI     0.0383
_diffrn_reflns_Laue_measured_fraction_full 0.997
_diffrn_reflns_Laue_measured_fraction_max 0.991
_diffrn_reflns_limit_h_max       21
_diffrn_reflns_limit_h_min       -22
_diffrn_reflns_limit_k_max       12
_diffrn_reflns_limit_k_min       -11
_diffrn_reflns_limit_l_max       6
_diffrn_reflns_limit_l_min       -8
_diffrn_reflns_number            5042
_diffrn_reflns_point_group_measured_fraction_full 0.997
_diffrn_reflns_point_group_measured_fraction_max 0.991
_diffrn_reflns_theta_full        25.242
_diffrn_reflns_theta_max         27.101
_diffrn_reflns_theta_min         3.781
_diffrn_source                   'micro-focus sealed X-ray tube'
_diffrn_source_type              'SuperNova (Mo) X-ray Source'
_exptl_absorpt_coefficient_mu    9.632
_exptl_absorpt_correction_T_max  1.00000
_exptl_absorpt_correction_T_min  0.88662
_exptl_absorpt_correction_type   multi-scan
_exptl_absorpt_process_details
;
CrysAlisPro 1.171.39.46 (Rigaku Oxford Diffraction, 2018)
Empirical absorption correction using spherical harmonics,
 implemented in SCALE3 ABSPACK scaling algorithm.
;
_exptl_crystal_colour            'metallic dark yellow'
_exptl_crystal_colour_lustre     metallic
_exptl_crystal_colour_modifier   dark
_exptl_crystal_colour_primary    yellow
_exptl_crystal_density_diffrn    2.150
_exptl_crystal_description       needle
_exptl_crystal_F_000             716
_exptl_crystal_size_max          0.2
_exptl_crystal_size_mid          0.05
_exptl_crystal_size_min          0.05
_refine_diff_density_max         1.287
_refine_diff_density_min         -0.830
_refine_diff_density_rms         0.146
_refine_ls_extinction_method     none
_refine_ls_goodness_of_fit_ref   1.012
_refine_ls_hydrogen_treatment    mixed
_refine_ls_matrix_type           full
_refine_ls_number_parameters     125
_refine_ls_number_reflns         1392
_refine_ls_number_restraints     47
_refine_ls_restrained_S_all      1.008
_refine_ls_R_factor_all          0.0216
_refine_ls_R_factor_gt           0.0215
_refine_ls_shift/su_max          0.001
_refine_ls_shift/su_mean         0.000
_refine_ls_structure_factor_coef Fsqd
_refine_ls_weighting_details
'w=1/[\s^2^(Fo^2^)+(0.0199P)^2^] where P=(Fo^2^+2Fc^2^)/3'
_refine_ls_weighting_scheme      calc
_refine_ls_wR_factor_gt          0.0421
_refine_ls_wR_factor_ref         0.0422
_reflns_Friedel_coverage         0.000
_reflns_number_gt                1385
_reflns_number_total             1392
_reflns_threshold_expression     'I > 2\s(I)'
_cod_data_source_file            d1cc00864a2.cif
_cod_data_source_block           lv_wco3pyz_aferrevacat150degrees_120k
_cod_depositor_comments
'Adding full bibliography for 7128075--7128079.cif.'
_cod_database_code               7128079
_shelx_shelxl_version_number     2018/3
_chemical_oxdiff_formula         'W C9 N3 H6 O3'
_shelx_space_group_comment
;
The symmetry employed for this shelxl refinement is uniquely defined
by the following loop, which should always be used as a source of
symmetry information in preference to the above space-group names.
They are only intended as comments.
;
_shelx_estimated_absorpt_t_max   0.644
_shelx_estimated_absorpt_t_min   0.249
_reflns_odcompleteness_completeness 99.77
_reflns_odcompleteness_iscentric 1
_reflns_odcompleteness_theta     26.32
_olex2_refinement_description
;
1. Fixed Uiso
 At 1.2 times of:
  All C(H) groups
2. Restrained distances
 N1-C4
 1.345 with sigma of 0.02
 N2-C8
 1.345 with sigma of 0.02
 N2-C10
 1.345 with sigma of 0.02
 N1-C3
 1.345 with sigma of 0.02
 C7-N2 \\sim N2-C9
 with sigma of 0.02
 C9-N2 \\sim N2-C7
 with sigma of 0.02
3. Uiso/Uaniso restraints and constraints
N2 \\sim C8 \\sim C10: within 2A with sigma of 0.01 and sigma for terminal
atoms of 0.02 within 2A
N2 \\sim C7 \\sim C9: within 2A with sigma of 0.01 and sigma for terminal atoms
of 0.02 within 2A
Uanis(C8) \\sim Ueq: with sigma of 0.01 and sigma for terminal atoms of 0.02
Uanis(C3A) \\sim Ueq, Uanis(C4A) \\sim Ueq: with sigma of 0.01 and sigma for
terminal atoms of 0.02
Uanis(C4A) \\sim Ueq, Uanis(C3A) \\sim Ueq: with sigma of 0.005 and sigma for
terminal atoms of 0.01
4. Others
 Sof(C4A)=Sof(H4A)=Sof(C3A)=Sof(H3A)=1-FVAR(1)
 Sof(C3)=Sof(H3)=Sof(C4)=Sof(H4)=FVAR(1)
 Fixed Sof: C7(0.16667) H7(0.16667) C8(0.33333) C9(0.16667) H9(0.16667)
 C10(0.33333) H8(0.33333) H10(0.33333)
 Fixed Uiso: H8(0.024) H10(0.024)
5.a Aromatic/amide H refined with riding coordinates:
 C3(H3), C4(H4), C7(H7), C9(H9), C4A(H4A), C3A(H3A)
;
_smtbx_masks_special_details
;
A solvent mask was calculated and 78 electrons were 
found in a volume of 216 A^3^ in 1 void per unit cell. 
This is consistent with the presence of 
0.25[C4H4N2] per Asymmetric Unit 
which account for 84 electrons 
per unit cell.
;
_smtbx_masks_void_probe_radius   1.2
_smtbx_masks_void_truncation_radius 1.2
_shelx_res_file
;
TITL
    lv_wco3pyz_aferrevacat150degrees_120k.res
    created by SHELXL-2018/3 at 14:09:27 on 26-Jan-2021
CELL 0.71073 17.897399 9.986059 6.706729 90 90.4821 90
ZERR 4 0.000719 0.000524 0.000267 0 0.0037 0
LATT 7
SYMM -X,+Y,-Z
SFAC C H N O W
UNIT 36 24 12 12 4
EQIV $1 1-X,2-Y,2-Z
EQIV $2 +X,2-Y,+Z
EQIV $3 1-X,+Y,2-Z
DFIX 1.345 N1 C4
DFIX 1.345 N2 C8
ISOR 0.01 0.02 C8
SADI C7 N2 N2 C9
SIMU 0.01 0.02 2 N2 C8 C10
SADI C9 N2 N2 C7
SIMU 0.01 0.02 2 N2 C7 C9
DFIX 1.345 N2 C10
DFIX 1.345 N1 C3
ISOR 0.01 0.02 C3A C4A
ISOR 0.005 0.01 C4A C3A

L.S. 33
PLAN  3
SIZE 0.05 0.05 0.2
CONF
FREE C8 C8_$3
BIND C10 C8_$1
FREE C10 C8_$2
FREE C10 C10_$3
MORE -1
BOND $H
ABIN
fmap 2
acta
SHEL 999 0.78
REM <olex2.extras>
REM <HklSrc "%.\\LV_WCO3pyz_aferrevacAt150degrees_120K.hkl">
REM </olex2.extras>

WGHT    0.019900
FVAR       0.69014   0.65989
W1    5    0.334854    1.000000    0.672547    10.50000    0.01318    0.02647 =
         0.00546    0.00000   -0.00014    0.00000
O1    4    0.405919    1.221260    0.407000    11.00000    0.03381    0.03579 =
         0.05344    0.02147    0.00319   -0.00469
C1    1    0.379426    1.137343    0.504781    11.00000    0.01701    0.02294 =
         0.02163   -0.00168   -0.00412    0.00193
C2    1    0.247000    1.000000    0.499478    10.50000    0.02174    0.03567 =
         0.02390    0.00000   -0.00085    0.00000
O2    4    0.194151    1.000000    0.395890    10.50000    0.03225    0.09181 =
         0.05718    0.00000   -0.03137    0.00000
N1    3    0.283639    1.152703    0.876884    11.00000    0.01986    0.03561 =
         0.01032   -0.00273    0.00136    0.00349
PART 1
C3    1    0.320768    1.253031    0.956950    21.00000    0.01325    0.06103 =
         0.06612   -0.03767    0.01624   -0.01348
AFIX  43
H3    2    0.371349    1.261299    0.928779    21.00000   -1.20000
AFIX   0
C4    1    0.211396    1.153424    0.919526    21.00000    0.01809    0.06668 =
         0.06788   -0.04841    0.01541   -0.01763
AFIX  43
H4    2    0.181023    1.087675    0.863386    21.00000   -1.20000
AFIX   0
PART 0
N2    3    0.434844    1.000000    0.878835    10.50000    0.01956    0.02896 =
         0.01031    0.00000   -0.00226    0.00000
PART 1
C7    1    0.503750    1.000000    0.803532    10.16667    0.01674    0.03815 =
         0.00480    0.00000    0.00192    0.00000
AFIX  43
H7    2    0.509037    1.000000    0.665704    10.16667   -1.20000
AFIX   0
PART 2
C8    1    0.483181    1.105443    0.886983    10.33333    0.02573    0.02985 =
         0.01312    0.01441   -0.00618   -0.01358
PART 1
C9    1    0.433664    1.000000    1.080872    10.16667    0.01744    0.03220 =
         0.01022    0.00000    0.00467    0.00000
AFIX  43
H9    2    0.387517    1.000000    1.143593    10.16667   -1.20000
AFIX   0
PART 2
C10   1    0.454402    0.896614    0.993878    10.33333    0.02200    0.03466 =
         0.01331    0.00369   -0.00221   -0.01165
C4A   1    0.282474    1.143861    1.077925   -21.00000    0.02725    0.03269 =
         0.01720   -0.00076    0.00070    0.00919
AFIX  43
H4A   2    0.305911    1.071301    1.138823   -21.00000   -1.20000
AFIX   0
C3A   1    0.251839    1.262573    0.803773   -21.00000    0.03246    0.02974 =
         0.01721    0.00229   -0.00204    0.01109
AFIX  43
H3A   2    0.252836    1.276782    0.666778   -21.00000   -1.20000
AFIX   0
PART 0
H8    2    0.478991    1.179876    0.808707    10.33333   10.02400
H10   2    0.419475    0.816833    1.003310    10.33333   10.02400
HKLF 4




REM
REM wR2 = 0.0422, GooF = S = 1.012, Restrained GooF = 1.008 for all data
REM R1 = 0.0215 for 1385 Fo > 4sig(Fo) and 0.0216 for all 1392 data
REM 125 parameters refined using 47 restraints

END

WGHT      0.0200      0.0000

REM Highest difference peak  1.287,  deepest hole -0.830,  1-sigma level  0.146
Q1    1   0.3285  1.0893  0.6830  11.00000  0.05    1.29
Q2    1   0.3763  1.0639  0.6631  11.00000  0.05    1.26
Q3    1   0.2190  1.0000  0.3168  10.50000  0.05    0.67
;
_shelx_res_checksum              92889
_shelx_hkl_file
;
   0 -12  -3 2001.18 259.487   1
   0 -12  -4 253.131 107.539   1
   0 -10  -4 474.625 130.443   1
   0 -10  -5 856.404 161.519   1
   0 -10  -6 2545.47 297.379   3
   0  -8  -3 4893.12 322.107   1
   0  -8  -4 499.766 107.748   1
   0  -8  -5 3170.61 288.759   3
   0  -8  -5 2947.85 260.791   1
   0  -8  -6 4327.73 345.505   3
   0  -8  -6 4111.40 330.098   1
   0  -6   0 9079.04 419.798   2
   0  -6   1 3490.21 243.573   2
   0  -6  -1 3486.51 246.698   2
   0  -6   2 4160.34 271.245   2
   0  -6  -2 4244.44 281.732   2
   0  -6   2 3718.34 128.324   5
   0  -6   2 3829.77 262.729   1
   0  -6   3 8008.90 404.217   4
   0  -6  -3 9025.46 446.108   2
   0  -6  -3 7418.56 369.025   1
   0  -6  -4 2281.17 197.968   1
   0  -6  -5 6919.32 388.931   3
   0  -6  -5 7336.17 394.418   1
   0  -6  -6 7108.47 411.492   1
   0  -6  -6 6471.54 377.940   3
   0  -6  -7 818.063 155.606   1
   0  -4   0 29704.2 860.248   2
   0  -4  -1 9618.35 384.312   2
   0  -4  -2 9551.71 388.988   2
   0  -4   2 8584.42 255.595   5
   0  -4  -3 18097.9 596.141   1
   0  -4   4 2757.16 217.524   4
   0  -4  -4 3179.72 206.970   1
   0  -4  -4 3588.09 247.903   2
   0  -4   4 3395.65 248.511   1
   0  -4  -5 2854.08 202.862   3
   0  -4  -5 2995.17 227.769   1
   0  -4  -6 8991.50 453.335   1
   0  -4  -6 8693.66 391.720   3
   0  -4  -7 374.029 117.762   1
   0  -4  -8 5018.56 387.737   1
   0  -2   1 6214.92 174.064   5
   0  -2  -1 6156.47 237.889   2
   0  -2   2 11618.7 396.874   4
   0  -2  -2 12135.9 408.554   2
   0  -2  -2 12442.7 387.229   1
   0  -2  -3 18468.6 576.238   1
   0  -2  -3 18608.9 549.642   3
   0  -2   4 2841.20 207.512   1
   0  -2  -4 2638.15 154.621   3
   0  -2  -4 2741.21 186.523   1
   0  -2   5 8928.82 428.936   1
   0  -2   5 8139.33 311.775   3
   0  -2  -5 8024.07 316.672   3
   0  -2  -5 7821.00 383.903   1
   0  -2  -6 14558.7 619.260   1
   0  -2   6 15563.7 501.468   3
   0  -2  -7 565.816 121.318   1
   0  -2  -8 3343.82 319.003   1
   0  -2  -8 3354.89 344.110   4
   0  -2  -9 5352.26 433.749   1
   0   0   2 679.600 69.1974   1
   0   0  -2 739.557 71.5825   1
   0   0   2 632.919 47.8094   3
   0   0   3 15860.9 513.388   1
   0   0   3 15670.9 440.393   3
   0   0  -3 15794.6 511.761   1
   0   0  -4 6272.35 308.603   1
   0   0   4 6474.09 239.944   3
   0   0   4 6930.21 320.954   1
   0   0  -5 8586.88 426.422   4
   0   0  -5 9430.03 444.611   5
   0   0  -5 8776.10 417.988   1
   0   0   5 9074.08 422.148   1
   0   0  -6 15125.8 642.525   1
   0   0  -6 15915.5 669.950   4
   0   0  -7 440.507 117.936   1
   0   0  -7 525.344 129.792   4
   0   0  -8 2748.97 296.910   1
   0   0  -8 3363.07 334.087   4
   0   0  -9 6057.95 479.567   1
   0   2   0 36227.2 924.698   2
   0   2   1 6226.82 234.728   2
   0   2  -1 6561.38 242.012   2
   0   2  -2 12784.1 414.524   1
   0   2  -2 11724.9 353.168   5
   0   2   2 11993.5 389.639   1
   0   2  -3 18793.9 585.917   5
   0   2  -3 20106.3 630.386   4
   0   2  -3 21074.2 650.529   1
   0   2   3 19888.7 612.719   1
   0   2  -4 2805.28 186.453   5
   0   2   4 2935.65 195.795   1
   0   2  -4 2740.64 200.663   4
   0   2  -4 2652.65 206.311   1
   0   2  -5 8135.09 410.475   4
   0   2   5 8503.74 400.534   1
   0   2  -5 7766.12 407.684   1
   0   2  -5 8561.93 396.473   5
   0   2  -6 15902.6 674.192   4
   0   2  -6 15618.4 640.366   5
   0   2  -6 16357.1 686.155   1
   0   2  -7 676.112 144.473   1
   0   2  -7 597.069 135.188   4
   0   2  -8 3948.85 359.412   1
   0   2  -8 3582.15 341.710   4
   0   4   0 28772.3 843.468   2
   0   4   1 9606.05 382.283   2
   0   4  -1 9849.79 393.690   2
   0   4   2 8824.76 374.246   2
   0   4  -2 9583.79 397.509   2
   0   4  -3 19613.6 555.301   5
   0   4  -3 19065.8 677.496   2
   0   4  -4 3466.77 254.912   1
   0   4  -4 3148.40 243.516   2
   0   4  -4 3206.23 183.949   5
   0   4  -5 2818.43 248.677   2
   0   4  -5 2765.13 193.664   5
   0   4  -5 2743.06 244.747   1
   0   4  -6 9041.81 508.597   1
   0   4  -6 10074.9 538.549   2
   0   4  -6 8754.30 427.720   5
   0   4  -7 371.322 123.652   1
   0   4  -7 438.564 137.119   2
   0   4  -8 5104.67 439.906   2
   0   6   0 20280.2 721.667   2
   0   6  -1 3246.21 241.839   2
   0   6   1 3066.86 230.066   2
   0   6  -2 4347.15 289.924   2
   0   6   2 3974.68 268.370   2
   0   6  -3 8674.29 453.413   2
   0   6  -4 2520.78 245.868   2
   0   6  -5 6710.67 432.922   2
   0   6  -6 7706.29 500.497   2
   0   6  -7 769.996 172.468   2
   0   8   0 14731.2 648.856   2
   0   8  -1 2072.42 223.103   2
   0   8   1 1969.50 214.586   2
   0   8  -2 1226.82 186.146   2
   0   8   2 1376.93 180.408   2
   0   8  -3 6104.14 420.257   2
   0   8   3 5391.34 370.786   2
   0   8  -4 888.968 178.796   2
   0   8  -5 4020.18 368.202   2
   0   8  -6 5424.09 457.974   2
   0  10   0 3734.87 335.247   2
   0  10  -1 1377.11 210.897   2
   0  10   1 1517.52 218.173   2
   0  10   2 1899.07 237.588   2
   0  10  -2 2539.55 295.652   2
   0  10  -3 5786.40 455.730   2
   0  10   3 4640.80 389.940   2
   0  10  -4 806.841 188.388   2
   0  10  -5 1218.80 236.918   2
   0  12   0 4301.34 418.166   2
   0  12  -1 412.599 159.109   2
   0  12   1 444.989 147.404   2
   0  12   2 956.800 200.536   2
   0  12  -2 1349.94 241.553   2
   0  12   3 1688.08 251.334   2
  -1 -13  -3 204.212 103.978   1
   1 -11  -5 1814.38 268.652   3
   1 -11  -4 434.057 128.399   1
  -1 -11  -4 1949.05 249.832   1
  -1 -11  -5 274.472 125.509   1
   1  -9  -6 492.633 134.883   3
   1  -9  -5 3270.98 283.828   1
   1  -9  -5 4019.23 349.923   3
   1  -9  -4 1580.57 189.809   1
   1  -9  -3 445.570 109.650   1
  -1  -9   2 4998.36 184.190   5
   1  -9   1 4779.78 188.995   5
  -1  -9  -3 2283.08 235.861   1
  -1  -9  -4 4939.74 358.063   1
  -1  -9  -5 318.234 113.731   1
  -1  -9  -6 1573.98 214.673   1
  -1  -9  -6 1350.22 203.535   3
   1  -7  -7 1686.04 210.628   1
   1  -7  -6 601.405 121.289   1
   1  -7  -6 402.458 108.319   3
   1  -7  -5 8964.88 483.688   3
   1  -7  -5 9127.26 456.613   1
   1  -7  -4 2898.31 227.515   1
   1  -7  -3 1601.44 191.796   2
   1  -7  -3 1147.01 141.025   1
   1  -7  -2 8061.00 428.519   2
  -1  -7   2 7982.10 265.404   5
   1  -7  -1 6874.84 381.719   2
  -1  -7   1 6725.86 382.037   2
  -1  -7   0 4131.31 290.648   2
   1  -7   0 4001.98 276.242   2
  -1  -7  -1 12031.3 554.303   2
   1  -7   1 12559.9 534.624   2
   1  -7   2 1138.21 148.296   2
   1  -7   2 1408.76 164.504   1
  -1  -7  -2 1299.16 168.383   2
  -1  -7  -3 1214.49 155.396   1
  -1  -7  -4 6742.01 379.304   1
  -1  -7  -5 346.400 99.7346   1
  -1  -7  -5 301.994 89.3583   3
  -1  -7  -6 4028.81 320.795   1
  -1  -7  -6 3755.64 296.980   3
  -1  -7  -7 4284.69 355.842   1
   1  -5  -8 5414.14 398.726   1
   1  -5  -7 3404.72 288.991   1
   1  -5  -7 3520.02 259.286   3
   1  -5  -6 280.652 86.3547   3
   1  -5  -6 270.266 88.2710   1
   1  -5  -5 10275.6 467.514   3
   1  -5  -5 10454.1 464.187   1
   1  -5  -4 4633.61 305.384   2
   1  -5  -4 4116.94 250.629   1
   1  -5  -4 4472.49 279.209   3
  -1  -5   4 4110.57 289.609   4
  -1  -5   3 1998.18 180.205   4
   1  -5  -3 2415.60 202.083   2
   1  -5  -3 1757.12 150.905   1
  -1  -5   2 13187.7 384.420   5
   1  -5  -1 3818.49 234.256   2
   1  -5   0 7479.17 339.757   2
  -1  -5  -3 7068.02 348.580   1
   1  -5   3 7346.35 358.149   4
   1  -5   3 8035.69 395.376   1
  -1  -5  -3 8365.83 413.072   2
   1  -5   4 15539.0 613.256   4
  -1  -5  -4 15287.3 595.752   1
  -1  -5  -4 17287.3 677.917   2
  -1  -5  -5 1529.62 171.797   1
  -1  -5  -5 1735.43 167.453   3
  -1  -5  -6 4560.12 322.362   1
  -1  -5  -6 4137.83 267.002   3
  -1  -5  -7 6288.67 415.497   1
  -1  -5  -8 334.582 113.162   1
   1  -3  -8 7148.02 460.124   1
   1  -3  -7 5115.54 352.110   1
   1  -3  -6 1223.41 153.100   1
   1  -3  -6 1325.85 133.450   3
   1  -3  -5 11163.5 453.186   3
   1  -3  -5 14164.7 523.930   1
  -1  -3   4 6343.01 345.061   1
   1  -3  -4 7301.27 357.658   2
   1  -3  -4 6125.06 298.581   1
   1  -3  -4 6497.03 298.853   3
   1  -3  -3 2934.42 192.876   2
   1  -3  -3 2289.98 151.099   1
   1  -3  -3 2503.79 164.507   3
  -1  -3   2 35386.0 890.945   5
   1  -3  -2 36433.8 975.194   2
   1  -3  -2 33997.0 928.453   1
  -1  -3   2 34722.4 971.890   4
   1  -3  -1 9649.10 345.855   2
   1  -3   0 2472.38 141.027   2
   1  -3   1 14449.0 469.322   2
  -1  -3  -1 14943.2 490.501   2
   1  -3   1 15267.3 473.543   1
  -1  -3  -2 5303.51 242.265   1
   1  -3   2 5406.12 239.955   4
   1  -3   3 12413.2 456.758   4
  -1  -3  -3 12435.0 452.931   1
  -1  -3  -4 20418.7 708.079   2
   1  -3   4 19878.1 694.890   1
  -1  -3  -4 18208.4 643.324   1
  -1  -3  -4 18596.6 593.025   3
  -1  -3  -5 840.102 92.9616   3
  -1  -3  -5 788.409 122.716   1
  -1  -3  -6 3535.98 199.771   3
   1  -3   6 3561.58 190.522   3
  -1  -3  -6 3756.58 282.054   1
  -1  -3  -7 9132.50 507.023   1
  -1  -3  -8 192.280 87.7976   1
  -1  -3  -9 5040.85 428.140   1
   1  -1  -9 598.053 148.361   1
   1  -1  -8 6782.63 455.589   1
   1  -1  -8 7224.41 504.931   4
   1  -1  -7 4360.04 327.336   1
   1  -1  -7 4462.10 358.644   4
  -1  -1   6 454.310 69.2313   3
   1  -1  -6 452.713 101.692   1
  -1  -1   5 22450.7 678.890   3
   1  -1  -5 22103.4 764.492   1
   1  -1  -5 24098.3 840.764   5
  -1  -1   5 24472.2 803.465   1
  -1  -1   4 8693.39 373.876   1
  -1  -1   4 8209.94 307.410   3
   1  -1  -4 8024.72 350.566   1
   1  -1  -4 8335.36 307.900   3
   1  -1  -4 8563.68 395.994   5
   1  -1  -3 3594.88 185.988   1
  -1  -1   3 3419.65 158.926   3
  -1  -1   3 3282.64 190.047   1
   1  -1  -3 3387.98 164.917   3
   1  -1  -2 14880.0 430.621   3
   1  -1  -2 14681.6 429.987   1
  -1  -1   2 15467.7 460.102   1
  -1  -1   1 10270.2 285.077   5
   1  -1  -1 10083.5 271.387   1
  -1  -1   1 10227.9 300.358   1
   1  -1  -1 9382.60 292.864   3
  -1  -1  -1 45145.9 1066.46   1
   1  -1   1 42065.7 1046.48   4
  -1  -1  -2 3015.78 154.693   1
  -1  -1  -2 3130.50 121.206   3
  -1  -1  -3 7469.41 238.228   3
  -1  -1  -3 7240.97 302.304   1
   1  -1   3 7362.19 231.074   3
  -1  -1  -4 24936.2 786.809   1
   1  -1   4 24564.5 660.641   3
  -1  -1  -4 25434.9 668.278   3
   1  -1   4 26382.6 810.422   1
   1  -1   5 943.504 74.0390   3
   1  -1   5 1009.79 137.434   1
  -1  -1  -5 847.988 122.111   1
  -1  -1  -6 6922.06 398.348   1
  -1  -1  -7 11078.9 570.658   1
  -1  -1  -7 11364.2 589.124   4
  -1  -1  -8 938.521 180.434   4
  -1  -1  -8 794.000 165.030   1
  -1  -1  -9 3044.72 336.979   1
   1   1  -9 769.372 178.238   1
   1   1  -8 6925.23 484.321   4
   1   1  -8 6456.11 459.820   1
   1   1  -7 4794.50 365.131   4
   1   1  -7 4170.91 331.277   1
   1   1  -6 434.076 102.551   1
   1   1  -6 366.609 100.919   4
  -1   1   5 24486.4 797.624   1
   1   1  -5 24334.7 840.006   4
   1   1  -5 23441.4 815.554   5
   1   1  -5 23951.6 817.105   1
   1   1  -4 8657.45 388.537   4
  -1   1   4 8739.41 363.010   1
   1   1  -4 8637.40 377.379   5
   1   1  -4 8562.88 376.739   1
   1   1  -3 3559.62 193.696   5
   1   1  -3 3450.70 195.142   1
  -1   1   3 3713.85 187.728   1
   1   1  -3 3758.77 210.728   4
   1   1  -2 15277.8 465.211   1
   1   1  -2 15601.5 454.722   5
  -1   1   2 14976.1 439.714   1
   1   1  -2 15446.8 473.916   4
  -1   1   1 10033.9 279.607   1
   1   1  -1 10547.7 309.478   2
   1   1  -1 10486.3 293.296   5
  -1   1  -1 42602.8 1032.92   4
  -1   1  -1 41410.8 1052.17   1
   1   1   1 44034.4 1054.03   1
  -1   1  -2 3172.51 165.306   1
  -1   1  -2 3188.22 156.125   4
   1   1   2 3345.43 162.024   1
   1   1   3 7300.49 305.353   1
  -1   1  -3 6901.31 312.592   1
  -1   1  -3 7948.67 312.115   4
  -1   1  -4 25148.4 795.307   4
  -1   1  -4 24101.7 799.496   1
   1   1   4 26477.4 803.807   1
  -1   1  -5 1022.38 134.545   4
   1   1   5 1013.69 130.684   1
  -1   1  -5 822.742 126.832   1
  -1   1  -5 930.195 129.173   5
  -1   1  -6 7425.79 421.071   1
  -1   1  -6 6931.95 404.078   4
  -1   1  -7 10624.8 568.605   1
  -1   1  -7 11076.4 576.315   4
  -1   1  -8 781.311 171.508   4
  -1   1  -8 1036.47 187.735   1
   1   3  -8 7352.59 510.231   1
   1   3  -7 5711.80 412.369   1
   1   3  -6 1207.52 174.434   1
   1   3  -6 1008.05 142.633   5
  -1   3   5 15266.7 584.531   1
   1   3  -5 15021.8 620.064   1
   1   3  -5 14553.6 560.527   5
  -1   3   4 6670.35 319.829   1
   1   3  -4 7046.80 311.074   5
   1   3  -4 6584.18 347.712   1
   1   3  -3 2192.94 138.790   5
   1   3  -3 2947.04 200.382   2
   1   3  -2 36181.8 1012.97   2
   1   3  -1 9894.32 361.830   2
  -1   3   1 9284.04 334.048   2
  -1   3   0 2614.80 150.450   2
   1   3   0 2665.64 159.206   2
   1   3   1 15542.6 503.658   2
  -1   3  -1 15849.8 499.200   2
  -1   3  -2 5861.44 260.791   1
  -1   3  -2 5632.38 255.889   2
  -1   3  -2 4324.03 153.514   5
  -1   3  -3 12212.1 390.709   5
  -1   3  -3 13208.5 488.253   1
   1   3   4 19383.5 666.947   1
  -1   3  -4 18922.0 679.894   1
  -1   3  -4 18128.3 587.497   5
  -1   3  -5 857.386 111.550   5
  -1   3  -5 892.555 140.389   1
   1   3   5 840.226 124.040   1
  -1   3  -6 3506.17 256.066   5
  -1   3  -6 4020.92 316.049   1
  -1   3  -7 9842.11 562.758   1
  -1   3  -8 297.191 113.582   1
   1   5  -7 3798.49 358.194   2
   1   5  -6 235.312 66.5443   5
   1   5  -6 287.208 106.081   2
   1   5  -5 11288.6 555.427   2
   1   5  -5 10566.3 433.062   5
   1   5  -4 4718.40 317.734   2
   1   5  -3 2189.03 205.317   2
   1   5  -2 14936.2 569.471   2
  -1   5   2 13871.5 527.552   2
   1   5  -1 3975.19 247.155   2
  -1   5   1 3579.27 227.399   2
  -1   5   0 6860.43 330.567   2
   1   5   0 7531.87 355.894   2
  -1   5  -1 17314.6 601.765   2
   1   5   1 16149.1 596.608   2
  -1   5  -2 1503.45 154.796   2
   1   5   2 1475.41 153.262   2
  -1   5  -3 7628.21 393.427   2
  -1   5  -4 16204.4 663.671   2
  -1   5  -5 1765.52 207.522   2
  -1   5  -5 1685.29 138.847   5
  -1   5  -6 4705.90 373.146   2
  -1   5  -7 6311.22 467.208   2
   1   7  -6 539.499 150.580   2
   1   7  -5 10985.5 608.977   2
   1   7  -4 3565.87 314.172   2
   1   7  -3 1425.20 187.124   2
  -1   7   3 1234.75 160.742   2
   1   7  -2 9628.92 488.996   2
  -1   7   2 8056.71 425.172   2
   1   7  -1 5915.38 364.857   2
  -1   7   1 5881.48 347.550   2
   1   7   0 3639.59 280.541   2
  -1   7   0 3842.81 275.968   2
   1   7   1 10268.4 503.596   2
  -1   7  -1 11778.0 528.284   2
   1   7   2 1310.38 167.105   2
  -1   7  -2 1376.62 177.116   2
  -1   7  -3 1346.99 183.057   2
   1   7   3 973.568 153.208   2
  -1   7  -4 7550.72 463.922   2
  -1   7  -5 443.547 131.959   2
  -1   7  -6 4330.64 386.912   2
   1   9  -5 4226.33 402.568   2
   1   9  -4 1855.80 255.090   2
  -1   9   3 491.517 129.200   2
   1   9  -3 752.246 180.486   2
  -1   9   2 4276.13 337.491   2
   1   9  -2 5391.46 400.506   2
  -1   9   1 1494.06 196.977   2
   1   9  -1 1299.74 196.199   2
  -1   9   0 3264.70 292.352   2
   1   9   0 3639.08 312.986   2
  -1   9  -1 5447.58 390.505   2
   1   9   1 5236.96 384.540   2
   1   9   2 1524.95 205.798   2
  -1   9  -2 1582.51 212.552   2
  -1   9  -3 2956.05 301.688   2
   1   9   3 2273.07 263.245   2
  -1   9  -4 6555.36 478.448   2
  -1   9  -5 793.689 180.400   2
   1  11  -4 569.477 179.255   2
  -1  11   3 563.286 150.890   2
   1  11  -3 906.454 203.403   2
  -1  11   2 4252.42 369.777   2
   1  11  -2 4408.53 407.628   2
  -1  11   1 2279.88 282.670   2
   1  11  -1 2135.71 286.110   2
   1  11   0 962.584 199.113   2
  -1  11   0 985.258 198.375   2
   1  11   1 2704.01 307.582   2
  -1  11  -1 3296.82 338.254   2
  -1  11  -2 543.379 155.113   2
   1  11   2 521.367 159.702   2
   1  11   3 1167.29 232.180   2
  -1  11  -3 1306.57 236.199   2
  -1  11  -4 3627.07 399.903   2
  -1  13   1 419.256 148.476   2
  -1  13   0 1143.09 230.648   2
   2 -12  -3 487.590 133.973   1
  -2 -12  -3 214.670 101.174   1
  -2 -12  -4 658.833 174.168   1
   2 -10  -6 1790.31 258.919   3
   2 -10  -5 750.674 171.920   3
   2 -10  -4 2150.81 225.784   1
  -2 -10  -3 733.311 156.848   1
  -2 -10  -4 1953.35 238.907   1
  -2 -10  -5 2038.38 248.957   1
  -2 -10  -6 208.248 105.147   1
   2  -8  -6 2522.20 238.860   1
   2  -8  -6 2379.26 261.840   3
   2  -8  -5 707.369 124.070   1
   2  -8  -5 880.015 169.094   3
   2  -8  -4 5835.87 341.756   1
   2  -8  -3 1880.70 189.999   1
  -2  -8   3 2176.97 118.899   5
  -2  -8   2 1529.26 111.664   5
   2  -8  -1 9724.59 486.581   2
   2  -8   0 3238.21 261.076   2
   2  -8   1 2531.56 108.146   5
  -2  -8  -3 996.557 156.051   1
  -2  -8  -4 3203.56 276.020   1
  -2  -8  -5 4670.54 351.566   1
  -2  -8  -6 448.863 106.831   3
  -2  -8  -6 332.455 109.544   1
  -2  -8  -7 1468.29 220.638   1
   2  -6  -7 4792.87 334.958   3
   2  -6  -7 4377.96 326.624   1
   2  -6  -6 3824.03 280.398   1
   2  -6  -6 3862.84 296.733   3
   2  -6  -5 692.957 126.420   3
   2  -6  -5 691.894 112.783   1
   2  -6  -4 9895.06 430.900   1
   2  -6  -4 10306.2 506.450   2
   2  -6  -4 10202.2 490.065   3
   2  -6  -3 2742.71 194.915   1
   2  -6  -3 2622.50 222.841   2
  -2  -6   3 2518.06 143.647   5
   2  -6  -2 4631.08 285.835   2
  -2  -6   2 4594.75 202.765   5
   2  -6   1 4642.16 269.173   1
  -2  -6  -1 5574.77 323.462   2
   2  -6   1 4762.66 147.550   5
   2  -6   1 4794.31 277.765   2
  -2  -6  -2 13292.2 572.154   2
   2  -6   2 12859.1 530.629   1
  -2  -6  -3 1792.22 180.552   1
   2  -6   3 2023.12 183.774   4
  -2  -6  -3 2365.85 226.157   2
  -2  -6  -4 2229.50 207.307   1
   2  -6   4 2358.43 210.284   4
  -2  -6  -5 9879.14 499.952   1
  -2  -6  -5 10421.7 476.385   3
  -2  -6  -6 319.947 86.7041   3
  -2  -6  -6 405.769 111.047   1
  -2  -6  -7 2789.54 284.637   1
  -2  -6  -8 2936.77 315.465   1
   2  -4  -8 393.158 113.428   1
   2  -4  -7 8266.07 456.243   1
   2  -4  -7 8331.28 407.915   3
   2  -4  -6 4807.89 296.548   3
   2  -4  -6 5177.90 319.355   1
  -2  -4   6 5235.69 295.124   3
   2  -4  -5 2427.21 189.750   1
   2  -4  -5 2201.59 189.088   3
  -2  -4   4 13106.3 545.846   4
   2  -4  -4 13218.1 532.432   2
   2  -4  -4 12173.5 492.070   3
  -2  -4   4 12720.8 539.409   1
   2  -4  -4 12084.1 459.987   1
   2  -4  -3 9197.57 394.093   3
  -2  -4   3 9442.45 336.840   5
   2  -4  -3 8718.97 344.081   1
  -2  -4   3 9386.92 413.327   4
  -2  -4   2 3872.73 173.277   5
   2  -4  -2 3747.37 217.370   2
   2  -4  -1 28433.8 822.197   2
   2  -4   0 4289.10 215.488   2
   2  -4   1 3269.97 187.856   2
   2  -4   1 3248.49 186.289   1
  -2  -4  -2 13868.6 499.700   1
  -2  -4  -3 3804.80 231.237   1
  -2  -4  -4 12373.6 511.329   1
   2  -4   4 12486.0 504.274   4
   2  -4   4 12920.4 547.851   1
  -2  -4  -4 13817.3 571.428   2
  -2  -4  -5 11167.3 424.149   3
  -2  -4  -5 9917.69 477.305   1
  -2  -4  -6 1562.65 137.365   3
   2  -4   6 1514.26 123.787   3
  -2  -4  -6 1551.08 190.060   1
  -2  -4  -7 3030.63 284.211   1
  -2  -4  -8 5488.10 421.974   1
   2  -2  -8 443.453 133.568   4
   2  -2  -8 289.276 102.133   1
   2  -2  -7 8414.61 464.502   1
   2  -2  -6 5073.66 313.346   1
  -2  -2   5 2609.09 214.581   1
   2  -2  -5 2677.17 180.841   3
   2  -2  -5 2371.31 186.381   1
  -2  -2   5 2329.59 165.651   3
  -2  -2   4 13097.2 454.099   3
   2  -2  -4 13266.3 464.488   3
  -2  -2   4 13614.4 514.066   1
   2  -2  -4 12680.5 461.268   1
   2  -2  -4 13061.0 542.056   5
   2  -2  -3 7225.08 278.971   1
  -2  -2   3 7669.10 325.611   1
   2  -2  -3 7440.61 340.533   5
   2  -2  -3 7142.72 296.224   3
  -2  -2   2 17203.9 528.454   1
   2  -2  -2 16703.3 468.551   1
  -2  -2   2 17332.9 496.175   5
   2  -2  -2 16512.6 504.496   2
   2  -2  -2 16462.0 513.846   3
  -2  -2   1 81942.7 1965.66   2
   2  -2  -1 80414.3 1929.66   2
   2  -2  -1 80135.4 1949.55   5
   2  -2   0 2148.79 89.0975   5
   2  -2   0 2214.12 105.932   2
   2  -2   1 1463.16 99.4889   1
   2  -2   2 32100.2 863.721   4
  -2  -2  -2 33535.4 897.394   1
  -2  -2  -3 10210.2 393.902   1
  -2  -2  -4 7325.66 260.727   3
  -2  -2  -4 7129.75 343.910   1
   2  -2   5 15511.8 453.816   3
  -2  -2  -5 16236.5 470.554   3
  -2  -2  -5 16013.1 618.440   1
   2  -2   6 582.037 54.7786   3
  -2  -2  -6 576.847 115.867   1
  -2  -2  -7 4129.12 331.225   1
  -2  -2  -8 6099.28 457.775   4
  -2  -2  -8 6498.02 458.704   1
   2   0  -9 2389.39 289.992   1
   2   0  -8 730.783 147.934   1
   2   0  -8 693.874 164.400   4
   2   0  -7 12489.7 636.151   4
   2   0  -7 12114.8 587.443   1
  -2   0   6 6008.97 293.015   3
   2   0  -6 6212.92 391.532   4
   2   0  -6 6210.52 360.668   1
   2   0  -5 1193.17 152.140   5
   2   0  -5 1054.42 144.414   4
  -2   0   5 1104.23 108.687   3
  -2   0   5 1216.20 136.146   1
   2   0  -5 1308.66 142.962   1
   2   0  -4 26282.8 829.137   4
   2   0  -4 26380.4 789.829   1
   2   0  -4 26095.9 833.954   5
  -2   0   4 25982.0 784.475   1
  -2   0   4 24550.1 738.348   3
  -2   0   3 8013.68 310.298   1
   2   0  -3 8119.12 309.156   1
  -2   0   3 7838.58 290.460   3
   2   0  -3 7993.07 340.055   5
   2   0  -2 4089.17 193.912   5
   2   0  -2 3989.47 168.484   1
  -2   0   2 4161.02 169.847   1
  -2   0   2 4245.45 175.704   3
   2   0  -1 40419.8 1016.03   5
   2   0  -1 40215.0 973.218   1
  -2   0   1 41004.9 972.958   1
   2   0  -1 41160.1 1005.84   4
  -2   0   1 40907.5 1001.00   3
   2   0  -1 40827.6 1000.55   3
  -2   0  -1 11110.5 326.403   1
  -2   0  -2 16302.0 494.007   1
  -2   0  -3 2792.07 176.869   1
  -2   0  -4 8572.30 383.916   1
   2   0   4 8670.71 387.348   1
  -2   0  -5 24556.5 854.092   1
   2   0   5 26019.3 865.964   1
  -2   0  -6 312.061 99.8413   1
  -2   0  -6 245.185 82.3458   4
  -2   0  -7 3716.52 316.650   1
  -2   0  -7 3266.13 295.422   4
  -2   0  -8 7495.14 499.276   4
  -2   0  -8 7844.44 515.053   1
   2   2  -8 403.269 129.792   4
   2   2  -8 403.928 123.093   1
   2   2  -7 9486.90 526.952   1
   2   2  -7 9404.66 538.050   4
   2   2  -6 5737.98 362.984   1
   2   2  -6 5646.37 369.239   4
  -2   2   6 5444.32 328.644   1
   2   2  -5 2451.58 201.966   5
   2   2  -5 2275.26 211.319   4
  -2   2   5 2092.81 175.984   1
   2   2  -5 2628.80 217.169   1
   2   2  -4 13509.6 527.286   4
  -2   2   4 13207.4 470.915   1
   2   2  -4 12968.4 510.253   1
   2   2  -4 13447.1 497.616   5
   2   2  -3 7776.45 311.517   5
   2   2  -3 7491.36 333.015   4
  -2   2   3 7659.96 290.307   1
   2   2  -3 7568.38 327.296   1
   2   2  -2 17620.6 511.629   5
   2   2  -2 18024.8 546.255   2
  -2   2   2 16799.9 484.828   1
  -2   2   1 83387.1 2007.73   2
   2   2  -1 84561.2 2052.48   2
   2   2   0 2404.52 135.342   2
  -2   2   0 2221.02 108.945   2
  -2   2  -1 1787.12 108.369   2
   2   2   1 1842.70 121.277   2
  -2   2  -1 1674.46 107.804   1
  -2   2  -2 33337.7 935.831   1
   2   2   2 35052.1 941.149   1
   2   2   3 9919.90 398.729   1
  -2   2  -3 10487.5 410.470   1
  -2   2  -3 9974.51 373.394   4
  -2   2  -4 7151.30 337.239   4
   2   2   4 7388.40 353.341   1
  -2   2  -4 7458.20 367.628   1
  -2   2  -5 15411.0 577.136   5
  -2   2  -5 15989.1 634.853   1
   2   2   5 17311.0 631.316   1
  -2   2  -6 614.258 119.135   4
  -2   2  -6 462.567 118.787   1
  -2   2  -6 459.186 99.6943   5
  -2   2  -7 4157.06 326.576   4
  -2   2  -7 3530.98 322.743   1
  -2   2  -8 6654.94 460.076   4
  -2   2  -8 6252.33 474.169   1
   2   4  -8 354.434 135.311   2
   2   4  -7 9236.75 560.699   2
   2   4  -6 5345.25 329.052   5
   2   4  -6 5472.06 387.303   2
   2   4  -5 2646.81 200.619   5
   2   4  -5 2623.80 242.548   2
   2   4  -4 13053.4 556.043   2
   2   4  -4 13275.8 481.934   5
   2   4  -3 9822.75 433.292   2
   2   4  -2 4267.90 248.760   2
  -2   4   2 3977.78 219.463   2
  -2   4   1 26913.0 808.643   2
   2   4  -1 29823.0 859.356   2
   2   4   0 4448.17 240.382   2
  -2   4   0 4038.70 215.411   2
   2   4   1 3301.11 209.225   2
  -2   4  -1 3478.02 202.648   2
   2   4   2 14776.6 541.701   2
  -2   4  -2 15079.7 532.496   2
  -2   4  -3 4077.87 159.636   5
  -2   4  -3 4382.96 265.327   2
  -2   4  -3 4182.57 259.195   1
  -2   4  -4 13060.4 554.628   1
  -2   4  -4 13054.9 427.898   5
  -2   4  -4 13204.0 556.341   2
  -2   4  -5 10815.6 530.565   1
  -2   4  -5 10670.7 417.256   5
  -2   4  -6 1710.55 218.917   1
  -2   4  -6 1625.23 160.266   5
  -2   4  -7 4007.90 362.247   1
  -2   4  -8 5675.12 467.090   1
   2   6  -7 4483.32 401.579   2
   2   6  -6 4020.43 356.913   2
   2   6  -5 907.239 163.595   2
   2   6  -4 11350.7 563.039   2
   2   6  -3 3311.77 272.521   2
  -2   6   2 4440.74 274.939   2
   2   6  -2 5122.60 325.334   2
  -2   6   1 15470.6 601.519   2
   2   6  -1 18110.3 666.437   2
   2   6   0 6390.60 352.487   2
  -2   6   0 6454.17 338.500   2
  -2   6  -1 5095.62 300.042   2
   2   6   1 5227.76 320.107   2
   2   6   2 10807.4 499.215   2
  -2   6  -2 12439.5 520.501   2
  -2   6  -3 2376.82 221.082   2
  -2   6  -4 2641.63 247.518   2
  -2   6  -5 10907.5 572.990   2
  -2   6  -6 346.305 128.479   2
  -2   6  -7 3103.69 337.057   2
   2   8  -6 2917.78 335.448   2
   2   8  -5 1033.55 189.711   2
   2   8  -4 6928.95 470.823   2
   2   8  -3 2369.15 257.777   2
  -2   8   3 2285.19 227.926   2
  -2   8   2 1555.19 183.512   2
   2   8  -2 1827.25 217.851   2
  -2   8   1 7598.96 442.124   2
   2   8  -1 10771.0 535.468   2
   2   8   0 2705.01 256.528   2
  -2   8   0 2519.38 235.930   2
   2   8   1 2783.65 262.330   2
  -2   8  -1 2797.42 256.038   2
   2   8   2 6935.55 425.049   2
  -2   8  -2 7003.32 431.690   2
   2   8   3 1096.57 175.252   2
  -2   8  -3 1361.52 193.576   2
  -2   8  -4 4039.22 349.151   2
  -2   8  -5 6154.95 461.297   2
  -2   8  -6 432.135 147.895   2
   2  10  -5 710.974 176.183   2
   2  10  -4 3083.43 345.581   2
   2  10  -3 1768.12 261.263   2
  -2  10   3 1460.23 208.974   2
  -2  10   2 741.355 159.281   2
   2  10  -2 1158.02 215.351   2
   2  10  -1 7406.58 500.567   2
  -2  10   1 6883.30 454.080   2
  -2  10   0 670.322 149.621   2
   2  10   0 522.848 141.199   2
   2  10   1 822.426 167.489   2
  -2  10  -1 524.815 137.437   2
   2  10   2 4717.57 384.365   2
  -2  10  -2 5322.92 420.315   2
   2  10   3 751.098 161.711   2
  -2  10  -3 862.495 181.912   2
  -2  10  -4 2200.74 293.581   2
  -2  10  -5 3312.55 372.685   2
  -2  12   3 288.131 116.861   2
  -2  12   2 600.985 170.395   2
   2  12  -2 712.235 210.629   2
  -2  12   1 3221.16 356.429   2
   2  12  -1 3722.57 407.599   2
   2  12   0 1120.70 238.822   2
  -2  12   0 1003.28 211.874   2
  -2  12  -1 638.117 180.189   2
   2  12   1 964.215 205.920   2
  -2  12  -2 2934.13 345.342   2
   2  12   2 2675.06 321.797   2
  -2  12  -3 552.094 165.105   2
   2  12   3 183.261 115.119   2
   3 -11  -3 2601.19 257.611   1
  -3 -11  -3 4531.55 395.045   1
  -3 -11  -4 267.932 117.884   1
  -3 -11  -5 709.318 187.074   1
   3  -9  -6 3788.63 356.528   3
   3  -9  -5 1139.01 155.907   1
   3  -9  -5 969.605 174.392   3
   3  -9  -4 566.044 113.986   1
   3  -9  -3 4733.23 321.864   1
  -3  -9   3 5975.98 240.016   5
  -3  -9   2 2758.44 172.665   5
   3  -9  -2 3069.08 240.565   5
   3  -9  -1 2301.37 181.939   5
   3  -9   0 4942.37 234.251   5
  -3  -9  -3 5059.74 370.874   1
  -3  -9  -4 147.837 81.6645   1
  -3  -9  -5 2295.18 262.030   1
  -3  -9  -6 2430.52 283.550   1
  -3  -9  -6 2387.34 262.411   3
   3  -7  -7 453.394 121.874   3
   3  -7  -6 5799.15 401.274   3
   3  -7  -6 5902.17 354.050   1
   3  -7  -5 3108.42 284.604   3
   3  -7  -5 3684.09 257.048   1
   3  -7  -4 528.660 121.371   3
   3  -7  -4 777.481 112.045   1
   3  -7  -3 7323.57 398.290   5
  -3  -7   3 7204.81 289.399   5
   3  -7  -3 6357.59 334.552   1
   3  -7  -3 7519.50 413.083   2
   3  -7  -2 1591.42 158.029   5
  -3  -7   2 1122.51 105.617   5
   3  -7  -2 1103.65 147.082   2
   3  -7  -1 3150.83 200.318   5
  -3  -7   1 3515.42 270.335   2
   3  -7  -1 3350.89 247.596   2
  -3  -7   0 12329.9 557.966   2
   3  -7   0 12775.8 523.362   2
   3  -7   0 11621.7 394.458   5
  -3  -7  -1 1657.96 189.746   2
   3  -7   1 1552.05 159.319   1
   3  -7   1 1690.66 169.077   2
   3  -7   2 5028.32 317.227   1
  -3  -7  -3 7718.83 426.413   1
  -3  -7  -4 846.645 143.903   1
  -3  -7  -5 3394.89 293.231   1
  -3  -7  -6 5418.47 392.517   1
  -3  -7  -6 5323.61 345.450   3
  -3  -7  -7 268.148 107.626   1
   3  -5  -7 499.200 109.695   3
   3  -5  -7 483.280 107.228   1
   3  -5  -6 8974.63 458.329   3
   3  -5  -6 8804.56 426.947   1
   3  -5  -5 3203.49 221.418   1
   3  -5  -5 3496.03 260.708   3
   3  -5  -4 1866.46 152.604   1
   3  -5  -4 1978.50 188.887   2
   3  -5  -4 1423.07 161.862   3
   3  -5  -3 18988.4 680.652   3
  -3  -5   3 19591.0 701.411   1
  -3  -5   3 18304.0 574.069   5
   3  -5  -3 17089.1 577.137   1
   3  -5  -3 18802.3 679.945   5
  -3  -5   3 18795.9 688.350   4
  -3  -5   2 7076.05 283.630   5
   3  -5  -2 7434.95 343.063   2
   3  -5  -2 7119.02 334.628   5
   3  -5  -1 3506.32 211.781   2
   3  -5  -1 3307.54 188.022   5
   3  -5   0 16217.0 468.071   5
   3  -5   0 16070.6 548.640   2
   3  -5   1 2637.68 182.123   2
   3  -5   1 2771.80 184.370   1
   3  -5   2 3888.91 242.646   1
  -3  -5  -3 14762.3 606.351   2
  -3  -5  -3 13113.5 540.692   1
   3  -5   3 13739.6 561.509   1
  -3  -5  -4 1258.92 155.228   1
   3  -5   4 1194.62 139.397   4
  -3  -5  -5 4789.72 327.741   1
  -3  -5  -5 4557.71 269.743   3
  -3  -5  -6 8300.58 376.476   3
  -3  -5  -6 7996.12 462.018   1
  -3  -5  -7 330.720 111.128   1
  -3  -5  -8 3037.67 322.485   1
   3  -3  -8 4662.28 421.683   4
   3  -3  -8 4526.57 349.037   1
   3  -3  -7 308.361 89.4660   1
   3  -3  -6 12323.1 508.545   3
  -3  -3   6 12565.4 507.975   3
   3  -3  -6 12482.4 527.850   1
   3  -3  -5 3711.58 233.721   1
   3  -3  -5 3658.87 237.027   3
  -3  -3   4 2033.57 181.353   4
   3  -3  -4 2176.29 198.995   5
  -3  -3   4 2140.07 182.174   1
   3  -3  -4 2019.73 162.747   3
   3  -3  -4 1877.59 138.725   1
  -3  -3   3 15218.4 546.313   1
   3  -3  -3 14904.8 514.518   2
   3  -3  -3 14711.5 460.924   1
  -3  -3   3 14488.5 493.923   5
   3  -3  -3 15011.0 528.756   3
   3  -3  -3 15689.3 570.294   5
   3  -3  -2 11942.6 399.140   2
  -3  -3   2 11398.5 384.644   5
   3  -3  -2 11750.9 429.265   3
   3  -3  -2 11786.0 428.676   5
   3  -3  -2 11288.9 349.383   1
   3  -3  -1 9189.08 324.673   5
   3  -3  -1 8993.36 314.462   2
  -3  -3   1 9553.20 359.321   2
   3  -3   0 17688.3 515.406   2
   3  -3   0 18250.7 482.987   5
   3  -3   0 17612.2 502.778   1
   3  -3   1 411.606 60.1030   1
   3  -3   2 9240.74 331.397   4
  -3  -3  -2 10370.7 388.004   1
  -3  -3  -3 30089.1 891.677   1
   3  -3   3 28821.4 840.349   4
  -3  -3  -4 2313.28 203.488   2
   3  -3   4 2048.74 186.937   1
  -3  -3  -4 2019.30 179.425   1
  -3  -3  -5 7452.81 286.190   3
  -3  -3  -5 7301.60 392.845   1
  -3  -3  -6 8402.48 465.485   1
  -3  -3  -6 9010.04 311.339   3
   3  -3   6 8866.48 287.254   3
  -3  -3  -7 904.318 165.406   1
  -3  -3  -8 3795.60 355.488   1
   3  -1  -8 3817.62 371.874   4
   3  -1  -8 4078.33 334.844   1
   3  -1  -7 753.342 159.951   4
   3  -1  -7 800.150 139.184   1
   3  -1  -6 15667.4 617.568   1
   3  -1  -6 14593.2 666.489   4
  -3  -1   5 8202.82 384.756   1
   3  -1  -5 7076.66 348.055   1
   3  -1  -4 2581.88 168.171   1
  -3  -1   4 2471.20 178.444   1
  -3  -1   4 2433.30 162.752   3
   3  -1  -4 2338.16 159.904   3
   3  -1  -4 2612.57 209.099   5
  -3  -1   3 19874.6 601.901   1
  -3  -1   3 19646.0 619.322   5
   3  -1  -3 19062.9 640.405   5
   3  -1  -3 18997.7 586.645   3
   3  -1  -3 19171.7 561.798   1
  -3  -1   3 19170.1 587.683   3
   3  -1  -2 8377.35 306.245   3
  -3  -1   2 8385.92 297.665   1
   3  -1  -2 7939.08 255.766   1
   3  -1  -2 8928.60 329.767   5
  -3  -1   2 8715.59 314.900   5
  -3  -1   1 7617.63 247.038   2
  -3  -1   1 7340.86 259.406   4
  -3  -1   1 7493.21 261.320   5
   3  -1  -1 7472.69 263.298   3
   3  -1  -1 7209.88 259.974   5
   3  -1   0 38660.2 918.286   1
  -3  -1   0 38130.2 962.051   2
   3  -1   0 38993.4 964.029   3
   3  -1   1 6035.47 186.705   3
  -3  -1  -1 5943.43 227.151   2
  -3  -1  -1 5813.59 222.634   1
   3  -1   1 5576.05 210.774   1
  -3  -1  -2 12437.6 415.190   1
  -3  -1  -3 19186.8 481.918   3
  -3  -1  -3 20341.2 634.774   1
  -3  -1  -4 1896.67 167.262   1
  -3  -1  -5 7647.35 399.943   1
  -3  -1  -6 15944.8 677.017   1
  -3  -1  -7 505.238 120.836   4
  -3  -1  -7 451.027 122.377   1
  -3  -1  -8 4210.52 371.362   4
  -3  -1  -8 4691.33 393.668   1
   3   1  -9 4962.35 418.911   1
   3   1  -8 4259.75 381.364   4
   3   1  -8 3265.53 315.417   1
   3   1  -7 1148.03 184.999   4
   3   1  -7 879.164 151.520   1
   3   1  -6 15871.5 645.492   1
  -3   1   6 15458.5 614.295   1
   3   1  -6 15469.1 681.491   4
   3   1  -5 7759.62 382.876   1
  -3   1   5 7805.76 365.803   1
   3   1  -5 8187.55 410.759   5
   3   1  -5 8019.64 419.959   4
   3   1  -4 2422.25 178.188   1
   3   1  -4 2619.01 204.521   4
  -3   1   4 2664.00 171.605   1
   3   1  -4 2699.92 197.815   5
  -3   1   4 2217.51 159.769   3
   3   1  -3 19989.0 612.193   1
  -3   1   3 19465.1 608.893   3
   3   1  -3 20204.4 636.665   5
  -3   1   3 20233.7 579.770   1
   3   1  -3 19962.4 653.702   4
   3   1  -2 9160.23 327.368   4
  -3   1   2 8184.94 256.401   1
   3   1  -2 9162.71 321.467   5
  -3   1   2 7826.29 301.678   3
   3   1  -1 7638.67 254.120   2
  -3   1   0 40769.4 936.554   1
  -3   1   0 38492.0 979.245   3
  -3   1   0 39687.1 964.911   5
   3   1   0 39524.8 976.705   2
  -3   1  -1 5711.08 210.078   1
  -3   1  -2 11969.5 403.742   1
  -3   1  -2 11908.6 363.365   4
  -3   1  -3 19095.7 587.585   4
  -3   1  -3 19935.9 635.475   1
  -3   1  -4 2109.79 163.036   4
  -3   1  -4 2104.08 177.920   1
   3   1   4 1948.14 171.613   1
   3   1   5 8231.67 416.062   1
  -3   1  -5 8184.27 418.207   1
  -3   1  -5 7266.89 373.587   4
  -3   1  -6 14876.2 661.957   1
  -3   1  -6 15338.0 639.101   4
  -3   1  -7 655.726 135.930   4
  -3   1  -7 421.811 122.074   1
  -3   1  -8 4705.33 380.608   4
  -3   1  -8 4660.02 401.038   1
   3   3  -8 5116.85 426.202   2
   3   3  -7 281.691 106.756   2
  -3   3   6 13163.5 555.531   1
   3   3  -6 14227.1 644.011   2
  -3   3   5 3564.58 232.932   1
   3   3  -5 3792.45 257.743   5
   3   3  -5 4016.54 287.292   2
   3   3  -4 2232.18 171.719   5
   3   3  -4 2273.14 194.259   2
  -3   3   4 2034.30 152.693   1
   3   3  -3 15743.2 565.561   2
   3   3  -3 15716.3 523.154   5
   3   3  -2 12183.6 451.963   2
  -3   3   1 9794.72 326.957   2
   3   3  -1 9991.59 375.819   2
   3   3   0 18136.8 563.398   2
  -3   3   0 17044.5 509.984   2
   3   3   1 380.610 70.7836   2
  -3   3  -1 581.244 72.0340   1
  -3   3  -1 413.667 62.8297   2
  -3   3  -2 9970.91 388.685   1
  -3   3  -2 10267.9 382.091   2
  -3   3  -3 31090.1 943.030   1
  -3   3  -4 1957.34 186.074   1
   3   3   4 2246.57 193.326   1
  -3   3  -4 2003.46 143.284   5
  -3   3  -5 7564.81 417.093   1
  -3   3  -5 7395.28 343.829   5
  -3   3  -6 9354.11 513.531   1
  -3   3  -6 8942.86 432.203   5
  -3   3  -7 1083.19 188.495   1
  -3   3  -8 4935.95 426.219   1
   3   5  -7 417.044 120.523   2
   3   5  -6 10287.7 570.317   2
   3   5  -5 4101.78 322.339   2
   3   5  -4 2106.47 214.751   2
   3   5  -3 20442.2 750.811   2
  -3   5   2 6976.84 324.272   2
   3   5  -2 7460.63 375.469   2
  -3   5   1 3012.07 199.863   2
   3   5  -1 3909.64 253.587   2
   3   5   0 15223.1 573.638   2
  -3   5   0 14715.3 527.195   2
  -3   5  -1 2736.77 194.761   2
   3   5   1 2836.94 211.101   2
  -3   5  -2 4156.58 258.348   2
   3   5   2 3744.51 256.447   2
  -3   5  -3 13677.0 559.414   2
  -3   5  -4 1221.96 164.400   2
  -3   5  -4 1267.67 167.122   1
  -3   5  -4 1333.64 88.9397   5
  -3   5  -5 4636.98 346.371   1
  -3   5  -5 4995.89 236.646   5
  -3   5  -5 4925.51 350.634   2
  -3   5  -6 8624.64 511.420   2
  -3   5  -6 7450.08 483.460   1
  -3   5  -7 175.203 115.408   2
  -3   5  -7 271.138 104.412   1
   3   7  -6 6475.39 484.433   2
   3   7  -5 4604.87 384.845   2
   3   7  -4 676.057 150.210   2
   3   7  -3 7863.77 461.428   2
   3   7  -2 1394.79 186.974   2
  -3   7   2 1197.70 147.229   2
  -3   7   1 2914.72 233.634   2
   3   7  -1 3393.86 277.074   2
   3   7   0 12038.8 548.370   2
  -3   7   0 10697.0 493.178   2
   3   7   1 1783.99 197.441   2
  -3   7  -1 2002.01 198.820   2
  -3   7  -2 4460.86 313.555   2
   3   7   2 4379.47 318.418   2
  -3   7  -3 9519.43 493.522   2
   3   7   3 8353.88 469.359   2
  -3   7  -4 1213.73 186.009   2
  -3   7  -5 4510.84 369.485   2
  -3   7  -6 6239.46 467.380   2
   3   9  -5 1371.02 242.394   2
   3   9  -4 848.374 174.323   2
  -3   9   3 6072.19 399.621   2
   3   9  -3 6822.84 481.751   2
   3   9  -2 3747.50 340.334   2
  -3   9   2 3110.78 278.204   2
  -3   9   1 2469.49 247.101   2
   3   9  -1 2872.51 287.601   2
  -3   9   0 5382.48 378.182   2
   3   9   0 5724.66 408.918   2
   3   9   1 1225.16 195.115   2
  -3   9  -1 1502.15 201.204   2
   3   9   2 952.999 173.170   2
  -3   9  -2 1005.29 178.285   2
   3   9   3 6069.18 433.771   2
  -3   9  -3 6119.93 436.182   2
  -3   9  -4 277.871 117.782   2
  -3   9  -5 2600.70 310.511   2
  -3  11   3 2870.55 307.298   2
   3  11  -3 3995.75 404.395   2
   3  11  -2 1393.12 250.653   2
  -3  11   2 1478.21 232.101   2
   3  11  -1 1148.79 239.826   2
  -3  11   1 985.548 182.861   2
   3  11   0 2575.90 308.921   2
  -3  11   0 2840.22 303.022   2
  -3  11  -1 568.163 156.864   2
   3  11   1 229.436 117.975   2
  -3  11  -2 1548.17 235.861   2
   3  11   2 1745.71 247.658   2
   3  11   3 4125.95 403.463   2
  -3  11  -3 4919.38 435.364   2
  -3  11  -4 495.012 163.406   2
  -3  13   2 203.119 107.537   2
  -3  13   1 369.623 136.174   2
  -3  13   0 2086.54 296.354   2
  -3  13  -1 466.232 160.063   2
  -4 -12  -3 1342.76 230.704   1
   4 -10  -6 187.355 115.795   3
   4 -10  -5 2889.29 326.064   3
   4 -10  -4 654.764 169.737   3
   4 -10  -3 704.004 131.055   1
  -4 -10  -3 1633.51 229.176   1
  -4 -10  -4 3916.45 356.402   1
  -4 -10  -5 204.358 116.787   1
  -4 -10  -6 687.997 175.315   1
   4  -8  -7 2170.57 262.341   3
   4  -8  -6 554.020 141.804   3
   4  -8  -5 5417.49 403.850   3
   4  -8  -5 5217.53 314.348   1
   4  -8  -4 1953.37 231.028   3
  -4  -8   4 1896.32 148.182   5
   4  -8  -4 1996.07 179.330   1
   4  -8  -3 772.394 115.321   1
  -4  -8   3 984.461 105.911   5
  -4  -8   2 7031.61 323.522   5
   4  -8  -2 7591.07 387.946   5
   4  -8  -2 8180.08 429.787   2
   4  -8  -1 1563.29 144.022   5
   4  -8  -1 1809.88 189.758   2
   4  -8   0 2321.29 196.923   1
   4  -8   0 2559.33 222.184   2
   4  -8   0 2107.65 138.822   5
   4  -8   1 9919.92 468.031   1
   4  -8   1 9633.79 473.220   2
  -4  -8  -3 2282.98 237.391   1
  -4  -8  -4 5213.40 371.863   1
  -4  -8  -5 324.065 111.849   1
  -4  -8  -6 1999.13 223.948   3
  -4  -8  -6 2024.79 253.304   1
  -4  -8  -7 3087.89 328.546   1
   4  -6  -7 2388.61 250.719   3
   4  -6  -6 1000.76 160.065   3
   4  -6  -6 906.334 128.975   1
   4  -6  -5 9113.97 487.640   3
   4  -6  -5 9392.52 409.466   1
   4  -6  -4 3831.40 291.040   3
   4  -6  -4 3892.67 283.679   2
   4  -6  -4 3437.30 216.024   1
   4  -6  -3 1738.08 141.454   1
  -4  -6   3 1687.26 137.510   5
   4  -6  -3 1732.76 190.255   3
   4  -6  -3 1728.66 173.768   2
   4  -6  -3 1862.73 188.278   5
  -4  -6   2 14742.4 510.594   5
  -4  -6   2 15345.4 618.751   2
   4  -6  -2 15651.8 572.532   5
   4  -6  -1 3577.68 205.285   5
   4  -6   0 2463.99 136.824   5
   4  -6   0 2431.04 171.814   1
  -4  -6  -2 1672.15 191.747   2
   4  -6   2 1731.29 169.602   1
  -4  -6  -3 4475.20 307.940   1
   4  -6   3 5126.34 284.392   4
   4  -6   4 7400.95 388.235   4
  -4  -6  -4 8315.48 436.542   1
  -4  -6  -5 1249.49 176.048   1
  -4  -6  -6 4073.84 268.413   3
  -4  -6  -6 3738.80 322.609   1
  -4  -6  -7 5231.98 410.172   1
  -4  -6  -8 178.766 110.803   1
   4  -4  -7 5363.21 341.391   1
   4  -4  -7 5546.01 346.030   3
  -4  -4   6 732.788 120.013   3
   4  -4  -6 647.724 106.892   1
   4  -4  -6 823.722 132.021   3
   4  -4  -5 8726.63 373.491   1
   4  -4  -5 8557.25 435.254   2
   4  -4  -5 8727.25 426.799   3
   4  -4  -4 2618.60 211.369   3
   4  -4  -4 2817.18 237.827   5
  -4  -4   4 2929.51 232.707   1
   4  -4  -4 2570.59 201.437   2
  -4  -4   4 2854.38 237.804   4
   4  -4  -4 2489.04 161.128   1
   4  -4  -3 8347.59 307.325   1
  -4  -4   3 8412.22 397.437   1
   4  -4  -3 8806.66 368.399   2
  -4  -4   3 8421.02 346.389   5
   4  -4  -3 8801.94 396.735   3
   4  -4  -3 8282.06 400.468   5
   4  -4  -2 22302.7 645.470   1
   4  -4  -2 25462.5 774.311   3
   4  -4  -2 24023.0 706.744   2
   4  -4  -2 24144.8 745.618   5
  -4  -4   2 23085.8 696.185   5
   4  -4  -1 13681.7 447.812   5
   4  -4  -1 13059.1 439.901   2
   4  -4   0 7691.18 261.351   5
   4  -4   0 7549.75 281.857   1
   4  -4   0 7466.13 290.408   2
   4  -4   1 14872.4 493.860   1
  -4  -4  -2 6091.95 311.364   1
  -4  -4  -3 7551.66 369.780   1
   4  -4   3 7935.44 333.476   4
   4  -4   3 8526.67 393.211   1
  -4  -4  -4 19852.4 721.506   1
  -4  -4  -5 553.293 79.3879   3
  -4  -4  -5 381.479 99.1811   1
  -4  -4  -6 1759.43 129.053   3
  -4  -4  -6 1807.11 211.861   1
  -4  -4  -7 5878.97 419.949   1
  -4  -4  -8 233.993 114.758   1
   4  -2  -8 7477.50 453.540   1
   4  -2  -8 6779.96 510.637   4
   4  -2  -7 4445.27 310.893   1
   4  -2  -7 4527.65 380.331   4
   4  -2  -6 1460.19 156.144   1
  -4  -2   6 1086.17 133.808   3
   4  -2  -5 15241.2 547.276   3
  -4  -2   5 16251.9 594.635   1
   4  -2  -5 15831.3 534.814   1
   4  -2  -4 6778.24 366.654   5
   4  -2  -4 6440.84 314.321   3
   4  -2  -4 6686.89 282.934   1
  -4  -2   4 6978.88 337.591   1
  -4  -2   3 3310.06 197.139   5
  -4  -2   3 3209.27 195.534   1
   4  -2  -3 2993.91 190.718   3
   4  -2  -3 3040.93 149.835   1
   4  -2  -3 2942.79 207.896   5
  -4  -2   2 38659.4 1012.99   1
   4  -2  -2 37137.9 903.465   1
   4  -2  -2 37246.3 958.172   2
   4  -2  -2 36591.9 1030.48   5
   4  -2  -2 37459.4 1021.63   3
  -4  -2   2 36221.8 1003.88   5
   4  -2  -1 10072.1 362.596   3
   4  -2  -1 10280.0 293.330   2
   4  -2  -1 9882.46 344.650   5
  -4  -2   1 10146.8 351.310   2
   4  -2   0 2326.01 98.7396   2
   4  -2   0 2537.17 141.833   3
  -4  -2   0 2468.68 146.125   2
   4  -2   0 2478.77 106.508   1
   4  -2   1 15650.4 472.094   1
  -4  -2  -1 16303.4 513.983   2
  -4  -2  -2 4279.72 223.271   1
  -4  -2  -3 13764.8 505.025   1
  -4  -2  -4 19135.1 511.846   3
  -4  -2  -4 18452.9 670.567   1
  -4  -2  -5 588.972 109.916   1
  -4  -2  -6 4607.23 332.368   1
  -4  -2  -7 9390.11 535.409   1
  -4  -2  -8 300.303 113.551   4
  -4  -2  -8 427.040 133.225   1
   4   0  -8 7896.57 538.929   4
   4   0  -8 6946.12 453.101   1
   4   0  -7 4140.19 350.702   4
   4   0  -7 3786.63 296.932   1
  -4   0   6 1224.93 139.643   3
  -4   0   6 1246.97 150.942   1
   4   0  -6 1370.22 158.242   1
   4   0  -6 1613.53 199.196   4
   4   0  -5 14840.8 562.921   1
  -4   0   5 15413.7 563.526   1
   4   0  -5 15582.2 634.488   5
   4   0  -5 15030.6 623.597   4
   4   0  -4 7654.44 380.175   4
   4   0  -4 7903.29 386.188   5
   4   0  -4 8189.45 339.144   1
  -4   0   4 8284.80 346.699   3
  -4   0   4 7693.24 329.070   1
   4   0  -3 12970.3 474.435   5
  -4   0   3 12682.7 406.675   1
   4   0  -3 12155.5 404.107   1
  -4   0   3 12281.3 433.943   3
   4   0  -3 11798.6 456.601   4
  -4   0   2 32505.8 907.479   5
  -4   0   2 32463.4 887.540   3
   4   0  -2 32139.5 907.614   5
  -4   0   2 32718.3 831.598   1
   4   0  -2 33312.4 897.099   4
   4   0  -1 1242.42 100.303   5
   4   0  -1 1390.18 69.0887   2
   4   0  -1 1364.41 88.4757   4
   4   0  -1 1317.20 97.1401   3
  -4   0   0 3122.95 135.718   3
   4   0   0 2871.44 132.288   3
   4   0   0 3035.47 107.139   2
  -4   0   0 2930.48 108.586   2
  -4   0   0 3029.34 119.958   1
  -4   0   0 3088.89 106.797   4
   4   0   1 78240.4 1889.67   1
  -4   0  -1 78215.0 1838.97   3
  -4   0  -1 78050.7 1888.28   1
  -4   0  -2 17331.6 538.219   1
  -4   0  -3 8527.05 359.349   1
  -4   0  -4 12466.5 503.052   1
  -4   0  -5 1312.20 162.511   1
  -4   0  -6 5032.31 331.833   4
  -4   0  -6 5094.68 351.353   1
  -4   0  -7 9012.42 531.760   1
  -4   0  -7 9589.79 515.966   4
  -4   0  -8 32.8878 102.781   1
  -4   0  -8 243.180 106.233   4
   4   2  -8 7057.29 510.958   4
   4   2  -7 4444.93 365.693   4
   4   2  -6 1268.74 180.208   4
  -4   2   6 1436.23 153.840   1
   4   2  -6 1369.98 172.290   1
  -4   2   5 15150.5 549.838   1
   4   2  -5 16634.5 636.512   5
   4   2  -5 15384.6 641.080   4
   4   2  -4 7112.08 367.273   4
   4   2  -4 7412.25 355.040   5
  -4   2   4 6958.72 290.734   1
  -4   2   3 3202.63 153.241   1
   4   2  -3 3139.94 197.572   5
   4   2  -3 2930.27 203.585   4
   4   2  -3 3245.90 201.912   2
   4   2  -2 39478.8 1066.67   2
  -4   2   1 9812.08 344.755   5
   4   2  -1 10563.3 359.183   2
  -4   2   0 2456.17 106.774   1
   4   2   0 2405.87 145.318   2
  -4   2   0 2572.05 107.676   2
  -4   2   0 2424.11 118.667   5
   4   2   1 15920.4 500.231   2
  -4   2  -1 15907.9 474.609   1
  -4   2  -2 4422.35 224.938   1
  -4   2  -3 14010.4 507.104   1
  -4   2  -3 13023.5 441.197   4
   4   2   4 20454.5 701.401   1
  -4   2  -4 17864.9 614.960   4
  -4   2  -4 18982.8 687.919   1
  -4   2  -5 839.306 114.708   4
  -4   2  -5 699.970 126.143   1
  -4   2  -6 4598.43 344.668   1
  -4   2  -6 4413.32 302.539   4
  -4   2  -7 9400.51 550.135   1
  -4   2  -7 9092.98 500.320   4
  -4   2  -8 301.619 122.261   4
  -4   2  -8 374.667 137.373   1
   4   4  -8 5601.70 459.758   2
   4   4  -7 6605.99 470.332   2
   4   4  -6 988.242 162.885   2
   4   4  -5 8710.05 423.840   5
   4   4  -5 9027.21 472.853   2
   4   4  -4 2393.85 215.522   2
   4   4  -3 9495.57 434.819   2
   4   4  -2 27546.0 866.921   2
  -4   4   1 13043.7 442.637   2
   4   4  -1 14740.2 526.562   2
   4   4   0 7626.40 347.651   2
  -4   4   0 7787.91 305.207   2
   4   4   1 14638.6 547.370   2
  -4   4  -1 15794.9 515.468   2
   4   4   2 6622.00 336.940   2
  -4   4  -2 6997.18 328.668   1
  -4   4  -2 8246.48 347.588   2
  -4   4  -3 7707.75 370.459   2
  -4   4  -3 7916.69 249.735   5
  -4   4  -3 7797.55 378.897   1
  -4   4  -4 21084.1 764.154   1
  -4   4  -4 20216.0 598.845   5
  -4   4  -5 578.498 127.460   1
  -4   4  -5 559.263 84.2366   5
  -4   4  -6 1512.19 151.837   5
  -4   4  -6 1657.18 221.757   1
  -4   4  -7 6296.88 462.513   1
   4   6  -7 2258.70 292.953   2
   4   6  -6 990.210 186.762   2
   4   6  -5 10748.1 582.592   2
   4   6  -4 3810.55 309.649   2
   4   6  -3 1914.02 214.235   2
  -4   6   2 14163.3 550.013   2
   4   6  -2 16977.2 658.727   2
  -4   6   1 1178.02 141.690   2
   4   6  -1 3967.02 269.520   2
   4   6   0 2572.32 220.845   2
  -4   6   0 2089.39 183.409   2
  -4   6  -1 15973.0 592.781   2
   4   6   1 15330.3 625.802   2
  -4   6  -2 1690.31 174.751   2
   4   6   2 1350.99 167.611   2
  -4   6  -3 5382.70 338.390   2
  -4   6  -4 7953.32 448.795   2
  -4   6  -5 1505.76 205.893   2
  -4   6  -6 4031.98 353.162   2
  -4   6  -7 5262.97 436.699   2
   4   8  -6 663.030 177.007   2
   4   8  -5 6272.59 474.709   2
   4   8  -4 2116.57 260.630   2
   4   8  -3 1530.03 217.906   2
  -4   8   3 965.474 145.883   2
  -4   8   2 7355.59 409.282   2
   4   8  -2 8661.27 502.914   2
  -4   8   1 1773.36 192.897   2
   4   8  -1 1947.43 231.501   2
  -4   8   0 2524.09 231.897   2
   4   8   0 2441.06 250.864   2
   4   8   1 10515.8 550.906   2
  -4   8  -1 10533.1 520.434   2
   4   8   2 1464.41 196.712   2
  -4   8  -2 1752.88 205.967   2
   4   8   3 1818.69 226.962   2
  -4   8  -3 2277.98 244.922   2
  -4   8  -4 6129.04 434.107   2
  -4   8  -5 363.133 121.513   2
  -4   8  -6 2849.94 328.121   2
   4  10  -4 933.163 211.023   2
  -4  10   3 875.762 162.776   2
   4  10  -3 731.706 185.638   2
  -4  10   2 5932.65 414.890   2
   4  10  -2 7611.03 527.815   2
  -4  10   1 1662.61 221.058   2
   4  10  -1 2291.05 281.133   2
   4  10   0 1612.34 243.307   2
  -4  10   0 1126.36 180.225   2
   4  10   1 3717.74 344.119   2
  -4  10  -1 3563.83 332.552   2
  -4  10  -2 717.139 164.084   2
   4  10   2 906.008 183.791   2
   4  10   3 1823.82 262.431   2
  -4  10  -3 2575.77 297.373   2
  -4  10  -4 5062.69 432.762   2
  -4  10  -5 446.229 164.910   2
  -4  12   3 781.178 185.054   2
  -4  12   2 2499.80 302.839   2
   4  12  -1 1472.91 258.583   2
  -4  12   1 1046.86 204.996   2
  -4  12   0 454.828 165.527   2
   4  12   0 422.794 149.427   2
   4  12   1 2050.55 293.971   2
  -4  12  -1 2134.76 291.062   2
  -4  12  -2 145.299 106.256   2
   4  12   2 75.8222 102.666   2
  -4  12  -3 1316.53 250.892   2
   5 -11  -4 2583.06 317.452   3
  -5 -11  -3 252.569 109.218   1
  -5 -11  -4 1618.97 250.033   1
   5  -9  -6 1599.70 239.434   3
   5  -9  -5 601.660 164.105   3
   5  -9  -4 4222.00 370.503   3
   5  -9  -4 3556.33 253.470   1
   5  -9  -3 1588.75 171.764   1
   5  -9  -2 1135.12 148.696   5
   5  -9  -1 5154.03 283.515   5
   5  -9   0 664.860 78.7929   5
  -5  -9  -3 533.513 135.111   1
  -5  -9  -4 2090.08 252.879   1
  -5  -9  -5 3286.50 325.392   1
  -5  -9  -6 551.456 146.215   1
   5  -7  -7 4221.30 356.643   3
   5  -7  -6 1213.58 187.438   3
   5  -7  -5 877.380 113.137   1
   5  -7  -5 916.247 162.520   3
   5  -7  -4 11612.4 580.903   3
   5  -7  -4 11761.4 550.110   2
   5  -7  -4 11458.6 450.197   1
   5  -7  -3 2996.60 267.698   3
   5  -7  -3 2621.63 188.560   1
   5  -7  -3 3006.99 243.605   2
   5  -7  -2 2087.72 184.039   5
   5  -7  -2 2113.35 189.094   2
   5  -7  -1 4412.15 286.292   2
   5  -7  -1 7905.37 325.553   5
   5  -7   0 2669.94 154.235   5
   5  -7   0 2648.13 205.262   2
   5  -7   1 2472.08 201.583   2
   5  -7   1 2347.37 196.583   1
   5  -7   2 12862.1 555.255   1
  -5  -7  -3 448.403 115.349   1
   5  -7   3 743.203 109.821   4
   5  -7   4 2303.79 206.575   4
  -5  -7  -4 2251.90 235.668   1
  -5  -7  -5 4836.44 366.189   1
  -5  -7  -6 247.845 103.605   1
  -5  -7  -7 2788.00 311.709   1
   5  -5  -7 6777.19 418.876   3
   5  -5  -6 4215.06 258.623   1
   5  -5  -6 3389.67 285.130   3
   5  -5  -5 1168.44 154.878   2
   5  -5  -5 944.737 145.794   3
   5  -5  -5 953.541 111.078   1
   5  -5  -4 8592.12 445.674   3
   5  -5  -4 9167.14 349.030   1
   5  -5  -4 9575.75 437.160   2
   5  -5  -3 4357.26 280.868   5
   5  -5  -3 3478.28 259.474   3
  -5  -5   3 3951.51 274.256   1
   5  -5  -3 3694.94 182.554   1
  -5  -5   3 4136.84 283.681   4
  -5  -5   2 3635.49 215.393   5
   5  -5  -2 3729.79 256.985   3
   5  -5  -2 3756.91 218.020   2
   5  -5  -2 3705.88 236.619   5
  -5  -5   2 3925.59 259.628   2
   5  -5  -1 13793.7 477.379   5
   5  -5  -1 14208.5 480.770   2
   5  -5   0 1136.56 102.265   1
   5  -5   0 981.840 84.2164   5
   5  -5   0 1001.63 100.206   2
   5  -5   1 5493.01 271.398   1
   5  -5   2 19053.1 660.775   1
  -5  -5  -3 1350.46 158.692   1
  -5  -5  -3 1529.98 179.101   2
   5  -5   3 1274.64 122.574   4
   5  -5   3 1113.45 140.504   1
  -5  -5  -4 7666.71 414.077   1
   5  -5   4 7392.96 352.775   4
  -5  -5  -5 8988.33 481.142   1
  -5  -5  -6 1486.25 135.898   3
  -5  -5  -6 1165.91 181.076   1
  -5  -5  -7 3358.10 325.337   1
  -5  -5  -8 4245.00 393.026   1
   5  -3  -7 9136.93 453.405   1
   5  -3  -6 5177.08 321.409   3
  -5  -3   6 4691.72 306.903   3
   5  -3  -6 4968.16 288.597   1
   5  -3  -5 2519.66 211.059   3
  -5  -3   5 2526.00 206.887   3
  -5  -3   5 2402.26 218.922   1
   5  -3  -5 2501.32 175.558   1
   5  -3  -4 12451.8 537.872   5
   5  -3  -4 11411.7 394.542   1
   5  -3  -4 9813.86 457.948   3
  -5  -3   4 11789.4 476.558   5
  -5  -3   4 11986.1 494.227   1
  -5  -3   4 12483.4 529.419   4
  -5  -3   3 8046.92 359.643   1
   5  -3  -3 7267.80 349.824   3
   5  -3  -3 7401.94 368.361   5
   5  -3  -3 7309.05 307.351   2
   5  -3  -3 7375.10 252.685   1
   5  -3  -2 5992.27 287.404   5
   5  -3  -2 5911.23 290.782   3
  -5  -3   2 5929.52 275.043   5
   5  -3  -2 5775.67 235.690   2
   5  -3  -2 5704.08 180.281   1
  -5  -3   2 5783.96 281.764   2
   5  -3  -1 32863.0 906.043   3
   5  -3  -1 30659.4 854.696   5
   5  -3  -1 30839.4 753.463   1
   5  -3  -1 29778.9 790.740   2
  -5  -3   1 30173.8 884.602   2
  -5  -3   0 4445.55 237.060   2
   5  -3   0 4172.90 184.049   5
   5  -3   0 4286.00 174.321   1
   5  -3   0 4571.55 173.635   2
   5  -3   1 3867.09 189.887   1
  -5  -3  -2 15708.9 550.264   1
   5  -3   2 15214.3 452.450   4
   5  -3   2 15464.0 527.199   1
  -5  -3  -3 3753.37 241.015   1
   5  -3   4 12359.8 531.736   1
  -5  -3  -4 13280.6 565.867   2
  -5  -3  -4 12129.5 522.172   1
  -5  -3  -5 11589.4 363.482   3
  -5  -3  -5 11060.7 527.106   1
  -5  -3  -6 1131.10 174.709   1
  -5  -3  -7 3145.23 305.119   1
  -5  -3  -8 6692.13 493.409   1
   5  -1  -8 926.648 154.786   1
   5  -1  -8 549.759 151.531   4
   5  -1  -7 9551.01 483.350   1
   5  -1  -7 9543.85 564.693   4
  -5  -1   6 3812.77 262.025   3
   5  -1  -6 3654.27 311.218   4
   5  -1  -6 4118.59 267.413   1
  -5  -1   5 1451.21 150.331   1
  -5  -1   5 1784.69 164.829   3
   5  -1  -5 1569.35 142.456   1
   5  -1  -5 1232.48 164.247   4
  -5  -1   4 19053.3 623.336   1
   5  -1  -4 18926.7 583.098   1
   5  -1  -4 17664.3 626.448   3
   5  -1  -4 19033.1 693.970   5
   5  -1  -3 9721.30 393.626   3
  -5  -1   3 10209.0 395.043   3
  -5  -1   3 10574.3 374.574   1
   5  -1  -3 9807.63 326.680   1
   5  -1  -3 10005.5 424.640   5
  -5  -1   2 6744.35 259.988   1
   5  -1  -2 7010.18 293.317   3
   5  -1  -2 7004.22 308.333   5
  -5  -1   2 7085.62 292.807   3
  -5  -1   2 6841.44 297.422   5
  -5  -1   1 17791.1 494.412   2
   5  -1  -1 16933.7 535.402   5
  -5  -1   1 17320.5 544.079   5
  -5  -1   1 17954.6 521.828   4
   5  -1  -1 17401.9 538.056   3
   5  -1   0 1946.56 119.701   3
  -5  -1   0 1789.49 108.733   2
   5  -1   0 1924.61 90.0294   1
  -5  -1  -1 12751.2 420.606   1
  -5  -1  -1 13715.8 423.586   2
   5  -1   1 13363.3 409.899   1
   5  -1   1 13105.2 387.885   3
   5  -1   2 36384.9 889.495   3
  -5  -1  -2 35969.9 1002.23   1
  -5  -1  -3 2134.28 169.756   1
  -5  -1  -4 8538.49 402.330   1
  -5  -1  -5 13886.6 596.272   1
  -5  -1  -6 540.616 117.990   1
  -5  -1  -7 6053.13 431.666   1
  -5  -1  -7 6236.46 411.141   4
  -5  -1  -8 6564.18 485.467   1
  -5  -1  -8 6649.77 465.700   4
   5   1  -8 732.175 164.312   4
   5   1  -7 9467.29 500.398   1
   5   1  -7 9886.34 572.302   4
  -5   1   6 3446.63 252.659   3
   5   1  -6 4146.09 285.160   1
  -5   1   6 3796.72 255.596   1
   5   1  -6 3826.32 314.838   4
  -5   1   5 1271.15 128.410   1
   5   1  -5 1442.51 170.171   5
  -5   1   5 1305.71 144.835   3
   5   1  -5 1758.89 162.784   1
   5   1  -5 1567.65 178.472   4
  -5   1   4 18219.3 567.999   1
   5   1  -4 18250.4 679.683   4
   5   1  -4 18769.3 673.141   5
   5   1  -3 10278.8 414.954   4
  -5   1   3 10366.8 327.513   1
  -5   1   3 9622.91 392.190   3
   5   1  -3 10038.6 417.988   5
  -5   1   2 6771.93 204.287   1
  -5   1   2 6881.84 292.677   3
   5   1  -2 6974.18 302.121   5
   5   1  -2 7142.04 269.689   2
   5   1  -2 6842.75 288.769   4
  -5   1   1 17197.9 534.111   5
   5   1  -1 17708.3 499.161   2
  -5   1   0 2083.80 124.533   3
   5   1   0 1824.40 109.506   2
  -5   1   0 2015.97 91.4182   1
  -5   1  -1 13561.0 414.067   1
  -5   1  -1 13486.6 399.240   3
  -5   1  -2 35024.4 886.628   4
  -5   1  -2 36738.1 981.104   1
  -5   1  -3 2153.21 136.264   4
  -5   1  -3 2477.28 178.071   1
  -5   1  -4 8406.54 404.178   1
   5   1   4 9150.43 417.966   1
  -5   1  -4 8228.36 352.536   4
  -5   1  -5 14449.0 550.858   4
  -5   1  -5 13766.1 600.177   1
  -5   1  -6 699.099 138.280   1
  -5   1  -6 1002.61 141.812   4
  -5   1  -7 6073.75 397.443   4
  -5   1  -7 6524.73 451.784   1
  -5   1  -8 6573.66 446.193   4
  -5   1  -8 6845.90 504.380   1
  -5   1  -9 312.332 124.419   4
   5   3  -8 393.114 124.253   2
   5   3  -7 10039.6 568.385   2
  -5   3   6 5433.62 306.081   1
   5   3  -6 5517.43 375.055   2
  -5   3   5 2577.82 180.413   1
   5   3  -5 2531.91 225.032   5
   5   3  -5 2559.95 231.011   2
   5   3  -4 12667.6 509.573   5
   5   3  -4 12137.5 515.585   2
   5   3  -3 8535.77 385.720   2
   5   3  -2 5793.64 286.241   2
   5   3  -1 33543.7 930.437   2
  -5   3   1 31425.3 816.337   2
  -5   3   1 31732.2 883.730   5
   5   3   0 4598.32 240.749   2
  -5   3   0 4645.04 189.208   5
  -5   3   0 4325.95 182.447   2
   5   3   1 3939.30 220.632   2
  -5   3  -1 4015.63 154.127   5
  -5   3  -1 3926.29 187.811   2
  -5   3  -1 3901.44 193.347   1
  -5   3  -2 15757.0 537.526   1
  -5   3  -3 3829.76 245.075   1
  -5   3  -4 12337.9 542.859   1
   5   3   4 14043.7 574.729   1
  -5   3  -5 12107.0 565.497   1
  -5   3  -6 928.414 132.249   5
  -5   3  -6 1074.03 179.542   1
  -5   3  -7 3481.31 335.890   1
  -5   3  -8 6868.29 514.832   1
   5   5  -7 6867.15 493.342   2
   5   5  -6 4036.21 349.724   2
   5   5  -5 1309.89 189.680   2
   5   5  -4 9966.16 505.276   2
   5   5  -3 3923.95 282.982   2
   5   5  -2 4412.98 288.588   2
  -5   5   2 4162.85 224.739   2
  -5   5   1 13413.9 477.621   2
   5   5  -1 14936.1 573.393   2
   5   5   0 1311.66 146.900   2
  -5   5   0 1205.23 120.842   2
   5   5   1 5376.46 317.433   2
  -5   5  -1 6005.04 292.676   2
   5   5   2 19045.9 708.167   2
  -5   5  -2 20243.6 680.096   2
  -5   5  -3 1263.66 152.205   1
  -5   5  -3 1158.28 144.436   2
  -5   5  -4 8452.81 442.005   2
  -5   5  -4 8551.18 453.062   1
  -5   5  -4 8417.34 273.087   5
  -5   5  -5 9145.18 502.893   1
  -5   5  -5 8507.73 328.214   5
  -5   5  -5 9218.14 495.629   2
  -5   5  -6 1477.27 213.208   2
  -5   5  -6 1157.52 193.659   1
  -5   5  -7 3857.00 367.254   1
  -5   5  -7 3460.81 347.968   2
   5   7  -6 1909.58 267.296   2
   5   7  -5 780.846 170.219   2
   5   7  -4 13564.2 673.516   2
   5   7  -3 3381.35 296.527   2
  -5   7   2 1991.77 181.718   2
   5   7  -2 2759.79 259.840   2
  -5   7   1 8061.98 395.467   2
   5   7  -1 8506.22 466.992   2
  -5   7   0 2660.85 216.146   2
   5   7   0 2680.70 249.876   2
  -5   7  -1 2369.08 213.730   2
   5   7   1 2784.87 252.742   2
   5   7   2 12957.7 597.303   2
  -5   7  -2 13028.1 571.992   2
  -5   7  -3 668.858 137.844   2
   5   7   3 715.571 145.982   2
  -5   7  -4 2404.70 251.003   2
  -5   7  -5 5709.97 417.671   2
  -5   7  -6 280.922 112.869   2
   5   9  -5 384.194 143.369   2
   5   9  -4 4504.46 406.292   2
   5   9  -3 1847.49 251.864   2
  -5   9   3 1848.91 208.650   2
   5   9  -2 1505.30 218.429   2
  -5   9   2 1160.62 165.966   2
  -5   9   1 4985.28 348.934   2
   5   9  -1 6339.46 448.600   2
   5   9   0 516.789 138.935   2
  -5   9   0 482.423 125.311   2
   5   9   1 2337.18 265.948   2
  -5   9  -1 2427.70 247.245   2
  -5   9  -2 7343.83 463.058   2
   5   9   2 7498.46 480.172   2
   5   9   3 606.466 144.428   2
  -5   9  -3 560.735 142.973   2
  -5   9  -4 2699.09 299.335   2
  -5   9  -5 4535.50 406.141   2
  -5  11   3 617.613 142.074   2
   5  11  -3 880.250 198.390   2
  -5  11   2 1061.56 185.535   2
   5  11  -2 856.873 205.514   2
  -5  11   1 3862.41 341.862   2
   5  11  -1 4349.50 413.524   2
  -5  11   0 1289.96 205.167   2
   5  11   0 1150.59 228.413   2
  -5  11  -1 796.154 170.133   2
   5  11   1 403.574 145.039   2
   5  11   2 2939.11 334.434   2
  -5  11  -2 3287.65 350.448   2
   5  11   3 307.897 140.309   2
  -5  11  -3 421.148 153.513   2
  -5  11  -4 2067.02 296.469   2
  -5  13   2 527.392 156.404   2
  -5  13   1 1710.68 260.406   2
  -5  13   0 511.675 160.216   2
  -5  13  -1 539.295 162.696   2
   6 -10  -5 1102.45 213.108   3
   6 -10  -4 392.750 137.376   3
   6 -10  -3 3781.90 366.025   3
  -6 -10   2 1331.22 149.233   5
  -6 -10  -3 3435.31 342.338   1
  -6 -10  -4 305.055 134.230   1
  -6 -10  -5 1330.95 226.730   1
   6  -8  -7 767.990 186.085   3
   6  -8  -6 3895.52 358.508   3
   6  -8  -5 1593.54 229.340   3
   6  -8  -4 854.999 111.057   1
  -6  -8   4 788.750 110.539   5
   6  -8  -4 787.985 155.585   3
   6  -8  -3 10857.0 510.348   2
   6  -8  -3 10075.3 557.561   3
   6  -8  -3 9480.50 407.500   1
   6  -8  -2 1830.99 186.341   2
   6  -8  -2 1851.27 183.859   5
   6  -8  -1 1752.80 176.612   2
   6  -8  -1 1718.71 153.556   5
   6  -8  -1 1722.91 158.595   1
   6  -8   0 7142.46 359.203   1
   6  -8   0 6697.43 283.038   5
   6  -8   0 6862.94 369.888   2
   6  -8   1 1239.75 151.975   1
  -6  -8  -3 7542.14 470.135   1
  -6  -8  -4 457.412 124.239   1
  -6  -8  -5 1593.78 224.916   1
  -6  -8  -6 3768.68 361.824   1
   6  -6  -7 844.744 159.555   3
   6  -6  -6 5604.45 398.497   3
  -6  -6   5 2247.67 198.542   5
   6  -6  -5 2183.46 235.627   3
   6  -6  -5 2065.82 159.250   1
   6  -6  -4 1223.55 173.398   3
   6  -6  -4 1318.74 112.513   1
   6  -6  -4 1240.39 151.626   2
  -6  -6   4 1301.29 143.466   5
   6  -6  -3 13543.0 594.764   3
   6  -6  -3 13185.9 566.078   5
   6  -6  -3 12360.2 423.703   1
   6  -6  -2 3815.64 278.989   3
   6  -6  -2 3633.90 239.945   5
   6  -6  -2 3726.00 227.078   2
  -6  -6   2 3262.51 260.987   2
  -6  -6   1 4602.93 308.263   2
   6  -6  -1 4181.85 211.573   1
   6  -6  -1 4388.47 237.861   5
   6  -6  -1 4497.68 244.160   2
  -6  -6   0 11460.5 525.411   2
   6  -6   0 11649.1 426.186   1
   6  -6   0 11030.0 382.660   5
   6  -6   0 10906.8 427.500   2
  -6  -6  -1 3658.20 281.816   2
   6  -6   2 5564.62 315.525   1
  -6  -6  -3 11464.4 541.345   1
   6  -6   4 819.734 114.194   4
  -6  -6  -4 694.221 135.041   1
  -6  -6  -5 1379.14 192.259   1
  -6  -6  -6 6270.90 441.927   1
  -6  -6  -7 175.833 96.0917   1
   6  -4  -7 672.927 129.357   3
   6  -4  -6 9689.49 497.734   3
   6  -4  -6 10283.4 425.111   1
   6  -4  -5 3201.52 258.832   3
   6  -4  -5 2708.60 175.934   1
   6  -4  -5 3204.88 241.412   2
   6  -4  -4 1408.20 163.381   3
  -6  -4   4 1830.71 170.881   5
  -6  -4   4 1918.98 190.014   1
   6  -4  -4 1787.70 118.161   1
   6  -4  -3 21297.9 576.005   1
  -6  -4   3 21963.4 751.114   1
   6  -4  -3 21087.6 671.139   2
   6  -4  -3 21914.9 754.031   3
  -6  -4   3 22252.6 773.927   4
   6  -4  -3 21465.6 756.810   5
   6  -4  -2 7078.07 224.551   1
   6  -4  -2 7534.14 364.928   3
   6  -4  -2 7027.81 284.962   2
  -6  -4   2 7368.83 334.247   5
   6  -4  -2 7256.08 342.806   5
  -6  -4   2 7622.00 359.018   2
   6  -4  -1 3242.38 218.100   3
   6  -4  -1 2893.01 129.179   1
  -6  -4   1 2754.55 203.679   2
   6  -4  -1 2802.79 176.617   5
   6  -4  -1 2958.22 152.045   2
   6  -4   0 15298.6 464.469   1
   6  -4   0 14673.1 458.532   2
  -6  -4   0 15946.0 576.357   2
   6  -4   0 15364.9 474.566   5
   6  -4   1 2250.75 151.999   1
  -6  -4  -2 4859.48 283.443   1
   6  -4   2 4110.67 190.043   4
   6  -4   3 14270.6 569.225   1
  -6  -4  -3 15215.3 592.470   1
  -6  -4  -3 16294.8 635.732   2
   6  -4   3 14878.2 490.247   4
  -6  -4  -4 1053.80 147.882   1
  -6  -4  -5 6182.67 387.472   1
  -6  -4  -6 7643.96 470.516   1
  -6  -4  -7 475.252 140.070   1
  -6  -4  -8 3318.35 354.106   1
   6  -2  -8 4703.74 430.026   4
   6  -2  -7 831.478 172.399   4
   6  -2  -7 860.433 128.980   1
   6  -2  -6 8949.14 406.690   1
  -6  -2   6 9594.16 463.517   3
   6  -2  -6 8849.46 511.541   4
  -6  -2   5 3396.83 243.731   3
   6  -2  -5 2965.33 191.147   1
   6  -2  -5 3190.48 236.592   3
  -6  -2   5 3383.74 241.507   1
   6  -2  -4 4754.46 310.523   5
   6  -2  -4 4837.78 282.473   3
  -6  -2   4 4949.39 284.618   3
   6  -2  -4 4854.15 215.365   1
  -6  -2   4 4550.47 284.533   5
  -6  -2   4 5008.77 275.720   1
  -6  -2   3 19250.2 617.582   1
   6  -2  -3 18443.6 503.238   1
   6  -2  -3 18933.2 668.172   5
   6  -2  -3 18854.9 642.230   3
   6  -2  -2 9633.82 384.671   3
   6  -2  -2 9007.86 287.775   2
   6  -2  -2 9287.03 383.037   5
  -6  -2   2 8900.88 372.582   5
   6  -2  -1 13704.1 461.160   3
  -6  -2   1 12602.5 428.921   2
   6  -2  -1 12632.9 444.950   5
   6  -2   0 31314.1 791.867   1
   6  -2   0 31748.1 876.210   3
  -6  -2   0 31220.5 873.922   2
   6  -2   1 10187.5 348.892   3
   6  -2   1 9714.21 338.683   1
  -6  -2  -1 10309.5 384.589   2
  -6  -2  -1 9674.94 379.026   1
   6  -2   2 12154.4 442.457   1
  -6  -2  -2 13310.4 478.408   2
   6  -2   2 12162.8 383.527   3
  -6  -2  -2 12257.6 457.704   1
  -6  -2  -3 17489.7 620.688   1
   6  -2   3 17138.4 472.811   3
   6  -2   4 3081.90 236.280   1
  -6  -2  -4 3443.34 261.731   2
  -6  -2  -4 3283.85 242.935   1
  -6  -2  -5 3598.37 278.926   1
  -6  -2  -6 9877.91 528.775   1
  -6  -2  -7 162.424 98.6378   1
  -6  -2  -8 4333.71 375.248   4
  -6  -2  -8 5753.89 457.617   1
   6   0  -8 3723.97 372.910   4
   6   0  -7 1094.87 154.249   1
   6   0  -7 1245.01 199.894   4
  -6   0   6 9711.95 473.225   3
   6   0  -6 10256.1 464.137   1
  -6   0   6 10593.1 465.800   1
   6   0  -6 11150.2 566.755   4
  -6   0   5 6679.03 352.169   3
   6   0  -5 6500.59 320.738   1
  -6   0   5 6448.94 317.221   1
   6   0  -5 6514.09 385.506   4
  -6   0   4 4086.46 210.012   1
   6   0  -4 4079.96 264.893   4
   6   0  -4 4272.96 276.345   5
   6   0  -3 31190.3 947.972   5
  -6   0   3 29848.5 828.384   1
   6   0  -3 32262.0 931.518   4
   6   0  -2 10059.0 398.093   5
  -6   0   2 9721.92 304.231   1
   6   0  -2 9877.42 369.767   4
   6   0  -2 9864.74 316.690   2
   6   0  -1 832.581 57.2258   2
   6   0  -1 799.075 73.6934   4
  -6   0   0 17012.4 481.859   1
  -6   0   0 16731.6 463.529   2
  -6   0   0 17787.4 457.116   4
  -6   0   0 17644.1 518.619   3
  -6   0  -1 5989.01 224.494   3
   6   0   1 6188.39 249.979   1
  -6   0  -1 6080.31 244.068   1
  -6   0  -2 13718.1 380.216   3
  -6   0  -2 13466.0 471.360   1
  -6   0  -3 17507.4 608.296   1
   6   0   4 924.665 125.135   1
  -6   0  -4 922.975 125.663   1
  -6   0  -5 4363.99 304.280   1
  -6   0  -6 13567.8 634.813   1
  -6   0  -6 13052.0 569.539   4
  -6   0  -7 106.390 87.3048   1
  -6   0  -7 89.0875 64.9617   4
  -6   0  -8 5308.32 400.704   4
  -6   0  -8 5917.66 463.406   1
  -6   0  -9 4083.06 376.575   4
   6   2  -8 4919.75 426.077   4
   6   2  -8 4489.65 389.361   2
   6   2  -7 692.797 142.668   2
   6   2  -7 953.321 176.479   4
   6   2  -6 10171.4 543.275   4
  -6   2   6 9268.88 417.392   1
   6   2  -6 9735.48 503.640   2
   6   2  -5 3552.14 277.291   4
  -6   2   5 3268.53 198.319   1
   6   2  -5 3056.45 242.018   2
  -6   2   4 4531.00 282.558   3
   6   2  -4 5598.33 316.654   5
  -6   2   4 4945.03 216.795   1
   6   2  -4 5344.60 313.833   4
   6   2  -4 4751.98 281.957   2
  -6   2   3 18832.5 514.374   1
   6   2  -3 20298.7 671.776   5
   6   2  -3 19117.9 632.577   2
   6   2  -2 10298.0 386.982   2
   6   2  -1 12711.7 435.176   2
  -6   2   1 13178.8 445.494   5
  -6   2   0 31718.9 777.473   2
   6   2   0 32296.8 881.887   2
  -6   2   0 31969.8 804.390   1
  -6   2   0 31359.2 858.085   5
  -6   2  -1 10101.2 348.050   1
   6   2   1 10098.9 373.701   2
  -6   2  -2 12344.3 448.620   1
  -6   2  -3 16660.3 608.802   1
  -6   2  -3 17840.5 522.219   4
   6   2   4 3275.09 250.709   1
  -6   2  -4 2992.60 234.451   1
  -6   2  -4 3325.07 195.729   4
  -6   2  -5 3404.16 230.723   4
  -6   2  -5 3707.29 285.995   1
  -6   2  -6 9636.13 459.453   4
  -6   2  -6 9389.98 526.440   1
  -6   2  -7 297.714 95.1265   4
  -6   2  -7 37.3494 85.8352   1
  -6   2  -8 5698.30 468.949   1
  -6   2  -8 5422.72 400.687   4
   6   4  -8 3350.95 354.342   2
   6   4  -7 991.746 184.646   2
   6   4  -6 10534.1 562.989   2
   6   4  -5 3222.61 275.104   2
   6   4  -4 2263.76 214.422   2
   6   4  -3 24100.9 822.016   2
   6   4  -2 7941.12 379.908   2
  -6   4   1 2974.23 154.217   2
   6   4  -1 3163.88 220.336   2
   6   4   0 15539.7 563.753   2
  -6   4   0 14582.1 475.857   2
  -6   4   0 15689.3 475.054   5
  -6   4  -1 2279.86 151.563   2
  -6   4  -1 2105.86 149.370   1
   6   4   1 2075.93 175.894   2
  -6   4  -1 2304.03 112.901   5
   6   4   2 5015.23 291.756   2
  -6   4  -2 4553.75 261.645   1
  -6   4  -2 5459.40 271.730   2
  -6   4  -3 15059.2 584.628   1
  -6   4  -4 1131.08 152.636   1
  -6   4  -5 6486.07 409.863   1
  -6   4  -6 8165.70 504.906   1
  -6   4  -7 589.756 158.015   1
   6   6  -7 771.012 188.685   2
   6   6  -6 5774.31 448.557   2
   6   6  -5 2337.51 258.349   2
   6   6  -4 1625.16 206.475   2
   6   6  -3 14718.0 650.301   2
  -6   6   2 3834.60 229.074   2
   6   6  -2 4121.70 301.515   2
  -6   6   1 4227.82 245.559   2
   6   6  -1 4898.58 321.505   2
   6   6   0 11955.2 531.961   2
  -6   6   0 10473.3 437.931   2
   6   6   1 3236.21 258.881   2
  -6   6  -1 3650.80 239.727   2
   6   6   2 5066.91 337.067   2
  -6   6  -2 5440.95 317.687   2
  -6   6  -3 10956.6 510.544   2
  -6   6  -4 632.743 127.825   1
  -6   6  -4 714.462 134.439   2
  -6   6  -5 1556.53 207.904   2
  -6   6  -5 1625.06 212.818   1
  -6   6  -6 6320.65 463.999   1
  -6   6  -6 6521.35 459.780   2
  -6   6  -7 179.566 104.268   2
   6   8  -6 4798.74 444.188   2
   6   8  -5 1466.95 242.046   2
   6   8  -4 1559.57 232.368   2
   6   8  -3 10367.6 591.961   2
  -6   8   2 1717.38 178.862   2
   6   8  -2 1960.04 235.372   2
   6   8  -1 1833.35 237.132   2
  -6   8   1 1448.13 161.578   2
   6   8   0 8082.92 482.159   2
  -6   8   0 7071.36 398.130   2
   6   8   1 1016.41 172.648   2
  -6   8  -1 1141.60 167.134   2
   6   8   2 2959.47 284.380   2
  -6   8  -2 2842.98 258.452   2
  -6   8  -3 8131.35 481.541   2
   6   8   3 8693.57 516.065   2
  -6   8  -4 739.311 156.682   2
  -6   8  -5 1843.35 242.740   2
  -6   8  -6 5008.28 438.774   2
   6  10  -4 561.137 170.225   2
   6  10  -3 3726.86 383.810   2
  -6  10   2 1312.84 180.586   2
   6  10  -2 1646.22 246.307   2
  -6  10   1 1126.51 170.895   2
   6  10  -1 1231.46 216.331   2
   6  10   0 4004.18 386.519   2
  -6  10   0 4481.55 348.365   2
   6  10   1 816.032 176.721   2
  -6  10  -1 931.241 171.844   2
   6  10   2 1608.20 234.915   2
  -6  10  -2 1683.46 226.825   2
   6  10   3 3523.24 349.875   2
  -6  10  -3 3399.70 337.354   2
  -6  10  -4 603.597 164.951   2
  -6  10  -5 2225.45 304.039   2
  -6  12   2 379.470 127.289   2
  -6  12   1 694.427 178.599   2
  -6  12   0 2529.92 294.498   2
   6  12   0 2980.34 365.048   2
   6  12   1 583.676 173.665   2
  -6  12  -1 387.947 143.721   2
  -6  12  -2 874.332 205.548   2
  -6  12  -3 2081.76 300.705   2
   7 -11  -3 627.052 176.378   3
  -7 -11  -3 1283.95 224.728   1
   7  -9  -6 525.153 145.224   3
   7  -9  -5 4290.18 392.086   3
   7  -9  -4 941.706 185.971   3
   7  -9  -3 959.280 116.372   1
   7  -9  -3 887.885 182.864   3
  -7  -9   3 895.319 127.332   5
   7  -9  -2 6697.99 391.840   2
   7  -9  -1 1853.74 193.606   2
   7  -9  -1 1816.59 169.810   1
   7  -9  -1 1708.53 161.484   5
   7  -9   0 1764.86 180.119   1
  -7  -9  -3 1468.72 221.498   1
  -7  -9  -4 3348.61 329.661   1
  -7  -9  -5 298.631 109.992   1
   7  -7  -7 1006.17 191.428   3
   7  -7  -6 807.877 161.054   3
   7  -7  -5 5420.98 399.759   3
  -7  -7   5 5173.33 325.794   5
   7  -7  -4 3539.27 192.875   1
   7  -7  -4 3676.58 317.962   3
   7  -7  -4 3719.34 275.608   2
  -7  -7   4 3535.35 250.893   5
   7  -7  -3 1319.27 112.042   1
   7  -7  -3 1559.73 200.352   3
   7  -7  -3 1211.69 143.898   2
  -7  -7   3 1137.76 138.741   5
   7  -7  -2 6581.78 410.018   3
   7  -7  -2 6627.67 354.714   5
   7  -7  -1 487.525 83.1588   5
   7  -7  -1 466.620 75.6670   1
   7  -7   0 2633.15 164.495   5
   7  -7   1 13205.7 532.127   1
   7  -7   2 536.574 108.909   1
   7  -7   3 3701.65 238.954   4
  -7  -7  -3 3756.12 308.110   1
   7  -7   4 6286.68 342.305   4
  -7  -7  -4 6774.78 430.322   1
  -7  -7  -5 975.638 175.044   1
  -7  -7  -6 3424.90 337.008   1
   7  -5  -7 2141.13 243.581   3
   7  -5  -6 1208.35 180.583   3
   7  -5  -5 8570.34 432.202   2
  -7  -5   5 8774.06 445.365   5
   7  -5  -5 8672.11 333.879   1
   7  -5  -5 8810.30 486.671   3
   7  -5  -4 3556.68 283.175   3
  -7  -5   4 3390.05 244.170   5
   7  -5  -4 3282.07 157.406   1
  -7  -5   3 2946.47 218.300   5
   7  -5  -3 3010.78 250.312   3
  -7  -5   3 3213.50 250.370   1
   7  -5  -3 3044.65 134.092   1
   7  -5  -3 3170.65 202.607   2
   7  -5  -3 3352.64 254.199   5
   7  -5  -2 17400.3 659.549   3
   7  -5  -2 16404.9 457.796   1
   7  -5  -2 16268.1 464.348   1
   7  -5  -2 16780.3 611.612   5
   7  -5  -2 16682.6 538.071   2
  -7  -5   2 16277.3 633.314   2
   7  -5  -1 4067.78 270.344   3
   7  -5  -1 3890.00 174.198   1
   7  -5  -1 3902.63 194.681   2
  -7  -5   1 3860.19 266.842   2
   7  -5  -1 3933.02 226.062   5
  -7  -5   0 3274.72 246.134   2
   7  -5   0 3035.08 173.076   2
   7  -5   0 3508.51 183.907   1
  -7  -5  -1 17916.9 687.920   2
   7  -5   1 17293.3 582.140   1
  -7  -5  -2 1540.95 181.100   2
  -7  -5  -2 1595.18 175.465   1
   7  -5   2 1702.71 158.037   1
   7  -5   3 5324.61 255.683   4
  -7  -5  -3 5238.45 334.321   1
   7  -5   3 6011.52 338.187   1
  -7  -5  -4 8448.66 456.083   1
  -7  -5  -5 908.876 156.519   1
  -7  -5  -6 4470.40 367.134   1
  -7  -5  -7 6218.26 466.778   1
   7  -3  -7 4040.08 373.151   4
   7  -3  -6 694.599 129.333   3
   7  -3  -6 936.786 112.410   1
   7  -3  -5 9932.76 489.270   3
   7  -3  -5 10251.8 458.062   2
   7  -3  -5 10338.1 378.936   1
  -7  -3   5 10685.1 492.724   1
  -7  -3   5 10516.0 503.266   5
   7  -3  -4 4436.14 289.826   3
   7  -3  -4 4167.05 233.671   2
   7  -3  -4 3986.88 175.047   1
  -7  -3   4 4221.81 269.908   1
  -7  -3   4 3883.63 265.921   5
   7  -3  -3 3228.14 234.338   3
   7  -3  -3 3472.46 183.319   2
   7  -3  -3 3350.66 114.998   1
  -7  -3   3 3647.98 232.641   1
  -7  -3   3 3757.97 254.121   4
   7  -3  -3 3583.29 249.239   5
   7  -3  -2 16202.9 586.314   5
   7  -3  -2 16585.6 594.614   3
  -7  -3   2 17099.4 596.950   4
   7  -3  -2 16069.6 466.629   2
  -7  -3   2 16017.7 563.346   2
   7  -3  -1 3334.84 123.211   2
   7  -3  -1 3810.17 226.244   3
   7  -3  -1 3412.85 109.013   1
  -7  -3   1 3408.93 210.496   2
   7  -3  -1 3340.84 200.426   5
   7  -3   0 9690.39 382.576   3
   7  -3   0 9093.07 298.766   1
  -7  -3   0 9564.18 391.475   2
   7  -3   1 18260.7 562.251   1
   7  -3   1 18070.2 586.422   3
  -7  -3  -1 18906.3 640.181   2
   7  -3   2 1387.63 115.590   3
  -7  -3  -2 1285.86 139.542   1
  -7  -3  -2 1260.50 141.999   2
   7  -3   3 10594.0 362.658   3
   7  -3   3 10195.9 447.692   1
  -7  -3  -3 11551.0 500.174   2
  -7  -3  -3 10085.9 455.540   1
   7  -3   4 16780.5 484.539   3
  -7  -3  -4 17364.9 674.843   1
  -7  -3  -5 1421.05 85.5258   3
  -7  -3  -5 1559.89 192.230   1
  -7  -3  -6 5167.73 377.203   1
  -7  -3  -7 7179.65 487.596   1
   7  -1  -7 3330.14 329.984   4
  -7  -1   6 1383.57 160.769   1
   7  -1  -6 1587.98 156.203   1
   7  -1  -6 1397.41 197.481   4
  -7  -1   5 12836.2 537.863   3
   7  -1  -5 12043.3 449.854   1
   7  -1  -5 11517.1 556.258   4
  -7  -1   5 12439.0 493.700   1
   7  -1  -4 9560.28 423.695   3
  -7  -1   4 9297.73 428.319   3
  -7  -1   4 8938.40 373.829   1
   7  -1  -4 9263.27 456.900   5
  -7  -1   4 9402.39 445.988   5
   7  -1  -4 8721.54 429.588   4
   7  -1  -3 5696.62 295.415   3
   7  -1  -3 5732.63 316.301   5
  -7  -1   3 5318.05 296.357   5
  -7  -1   3 5540.78 250.040   1
   7  -1  -3 5362.58 288.252   4
   7  -1  -2 16943.0 592.730   3
  -7  -1   2 17972.1 584.729   4
   7  -1  -2 18816.1 626.056   5
   7  -1  -2 17776.8 570.923   4
   7  -1  -1 2340.90 161.731   3
  -7  -1   1 2385.64 145.535   4
  -7  -1   1 2496.69 130.615   2
   7  -1  -1 2311.32 130.144   4
   7  -1   0 7317.13 288.815   3
   7  -1   0 6867.16 208.153   4
   7  -1   0 7001.26 242.590   1
  -7  -1   0 6975.72 262.679   2
   7  -1   1 34004.1 896.748   3
  -7  -1  -1 33083.3 922.451   2
   7  -1   1 32585.6 900.553   1
  -7  -1  -1 34675.3 932.751   1
  -7  -1  -2 3009.26 142.817   3
   7  -1   2 2909.95 138.958   3
  -7  -1  -2 3435.08 203.256   2
   7  -1   2 3253.15 194.221   1
  -7  -1  -2 3103.57 197.311   1
  -7  -1  -3 10951.2 312.571   3
  -7  -1  -3 10927.0 452.734   1
  -7  -1  -4 12555.8 536.340   1
   7  -1   4 13216.6 545.848   1
  -7  -1  -5 1626.12 191.424   1
  -7  -1  -6 6761.81 431.769   1
  -7  -1  -7 9145.67 551.405   1
  -7  -1  -7 8386.06 482.340   4
  -7  -1  -8 274.186 114.330   1
  -7  -1  -8 218.801 114.599   4
   7   1  -8 7308.05 493.452   2
   7   1  -7 3144.01 326.049   4
  -7   1   6 1891.67 169.890   1
   7   1  -6 1755.93 214.944   4
  -7   1   5 12512.5 545.443   3
  -7   1   5 12770.5 462.606   1
   7   1  -5 13015.3 589.084   4
   7   1  -4 9750.40 457.383   5
  -7   1   4 9237.93 331.354   1
  -7   1   4 8997.63 421.063   3
   7   1  -4 9103.88 439.583   4
   7   1  -4 8664.27 388.387   2
  -7   1   3 5623.03 204.843   1
   7   1  -3 5803.82 315.846   5
   7   1  -3 6046.32 306.952   4
   7   1  -3 5732.84 266.902   2
   7   1  -2 18264.1 549.533   2
  -7   1   2 17993.3 453.172   1
   7   1  -1 2397.64 133.288   2
  -7   1   1 2440.84 89.7312   1
  -7   1   0 6978.56 239.140   1
  -7   1   0 7372.02 209.513   2
   7   1   0 6930.51 259.324   2
  -7   1   0 7334.93 296.080   3
  -7   1  -1 33094.8 899.385   3
  -7   1  -1 33931.0 904.249   1
  -7   1  -2 3151.82 192.363   1
  -7   1  -2 3105.75 117.703   4
  -7   1  -3 10841.8 443.690   1
  -7   1  -3 10534.4 350.493   4
   7   1   4 13975.6 567.611   1
  -7   1  -4 12454.6 535.866   1
  -7   1  -4 12645.6 453.576   4
  -7   1  -5 1789.10 197.850   1
  -7   1  -5 1427.61 142.755   4
  -7   1  -6 6120.76 352.587   4
  -7   1  -6 6522.21 429.351   1
  -7   1  -7 9662.56 576.008   1
  -7   1  -7 9402.76 495.384   4
  -7   1  -8 99.9319 95.9908   1
  -7   1  -8 130.284 79.4397   4
   7   3  -8 6367.66 478.690   2
   7   3  -7 4568.39 371.645   2
   7   3  -6 1139.86 174.206   2
  -7   3   6 935.150 115.018   1
   7   3  -5 11390.4 531.713   2
   7   3  -4 4172.36 276.796   2
   7   3  -3 3576.14 238.410   2
  -7   3   2 16268.9 593.029   5
   7   3  -2 17715.8 599.412   2
   7   3  -1 3740.68 219.217   2
  -7   3   1 3121.64 194.572   5
  -7   3   0 9607.62 307.323   1
   7   3   0 9368.68 384.015   2
  -7   3   0 8962.81 290.573   2
  -7   3   0 9787.10 348.958   5
  -7   3  -1 17958.5 534.739   2
   7   3   1 17986.2 608.674   2
  -7   3  -1 17885.7 556.392   1
  -7   3  -1 17864.3 534.164   5
  -7   3  -2 1358.92 134.129   1
  -7   3  -3 10917.1 466.487   1
  -7   3  -4 16996.5 669.360   1
  -7   3  -5 1375.41 183.573   1
  -7   3  -6 6087.43 422.345   1
  -7   3  -7 6838.25 487.883   1
   7   5  -7 3412.39 348.651   2
   7   5  -6 1663.75 228.053   2
   7   5  -5 9587.07 529.309   2
   7   5  -4 3868.15 303.716   2
   7   5  -3 3746.60 281.867   2
   7   5  -2 18297.6 697.954   2
  -7   5   1 4100.05 205.946   2
   7   5  -1 4208.74 280.150   2
   7   5   0 3306.76 243.097   2
  -7   5   0 3082.95 186.878   2
  -7   5  -1 17852.5 504.098   5
   7   5   1 17797.5 670.195   2
  -7   5  -1 17515.6 596.126   2
   7   5   2 1648.17 179.353   2
  -7   5  -2 1883.43 167.673   1
  -7   5  -2 1709.07 82.9762   5
  -7   5  -2 1516.56 149.223   2
  -7   5  -3 5553.59 328.818   1
  -7   5  -3 4633.46 293.015   2
  -7   5  -4 8114.25 447.755   1
  -7   5  -4 8076.89 433.742   2
  -7   5  -5 1237.58 108.708   5
  -7   5  -5 1350.23 193.766   1
  -7   5  -5 1344.87 185.215   2
  -7   5  -6 4470.26 363.498   2
  -7   5  -6 3767.08 347.764   1
  -7   5  -7 6264.89 488.339   1
  -7   5  -7 7002.14 501.251   2
   7   7  -6 957.075 198.565   2
   7   7  -5 6439.80 466.633   2
   7   7  -4 3720.56 335.290   2
   7   7  -3 1645.65 212.849   2
  -7   7   2 6534.46 330.224   2
   7   7  -2 7480.48 445.065   2
   7   7  -1 604.398 134.390   2
  -7   7   1 528.575 94.0126   2
   7   7   0 3088.85 272.401   2
  -7   7   0 2714.44 214.385   2
   7   7   1 13685.8 630.246   2
  -7   7  -1 13597.5 566.098   2
  -7   7  -2 665.858 121.604   2
   7   7   2 642.415 130.839   2
   7   7   3 4146.87 338.009   2
  -7   7  -3 4564.62 325.624   2
  -7   7  -4 6806.65 428.731   2
  -7   7  -5 790.747 157.105   2
  -7   7  -6 3471.37 340.869   2
   7   9  -5 4613.27 438.663   2
   7   9  -4 1001.21 205.712   2
   7   9  -3 1285.87 224.603   2
  -7   9   2 6113.94 365.340   2
   7   9  -2 6123.54 455.025   2
  -7   9   1 1878.27 205.839   2
   7   9  -1 2162.87 263.302   2
   7   9   0 1758.25 235.225   2
  -7   9   0 1489.97 189.059   2
   7   9   1 6681.57 460.095   2
  -7   9  -1 6165.51 399.556   2
   7   9   2 594.879 142.753   2
  -7   9  -2 513.999 127.651   2
   7   9   3 1875.15 246.986   2
  -7   9  -3 1803.78 234.317   2
  -7   9  -4 4560.51 387.034   2
  -7   9  -5 54.9463 91.3519   2
   7  11  -3 948.487 220.525   2
  -7  11   2 2942.63 282.020   2
   7  11  -2 2678.32 343.815   2
  -7  11   1 809.122 159.334   2
   7  11  -1 809.063 196.185   2
  -7  11   0 936.947 180.139   2
   7  11   0 1223.81 244.643   2
   7  11   1 4084.14 403.487   2
  -7  11  -1 3395.70 336.593   2
   7  11   2 171.993 97.9855   2
  -7  11  -2 75.3890 95.6182   2
   7  11   3 1302.72 238.665   2
  -7  11  -3 1446.08 236.012   2
  -7  11  -4 3998.83 403.815   2
  -7  13   0 204.141 118.050   2
  -7  13  -1 2224.18 297.814   2
   8 -10  -4 3332.15 361.701   3
   8 -10  -3 730.280 168.201   3
   8 -10  -2 1312.99 216.888   3
  -8 -10   2 998.058 147.794   5
  -8 -10  -3 142.418 90.6360   1
  -8 -10  -4 1469.72 237.839   1
   8  -8  -6 1263.73 213.605   3
   8  -8  -5 401.303 130.744   3
   8  -8  -4 8045.35 512.271   3
  -8  -8   4 7130.78 394.276   5
   8  -8  -3 1868.66 137.584   1
   8  -8  -3 1978.78 241.256   3
   8  -8  -3 1716.04 178.926   2
  -8  -8   3 1633.90 175.596   5
   8  -8  -2 1396.61 150.424   2
   8  -8  -2 1122.03 184.079   3
   8  -8  -2 1384.80 123.911   1
   8  -8  -2 975.356 142.473   5
   8  -8  -1 4781.33 364.405   3
   8  -8  -1 5705.48 302.244   5
   8  -8  -1 4762.11 288.863   2
   8  -8   0 923.166 121.217   2
   8  -8   0 891.934 115.795   1
   8  -8   1 3340.89 247.675   1
  -8  -8  -3 1067.95 180.695   1
   8  -8   3 994.897 129.281   4
  -8  -8  -4 1513.18 213.576   1
  -8  -8  -5 2653.24 295.606   1
  -8  -8  -6 102.166 103.015   1
   8  -6  -7 4452.68 375.599   3
   8  -6  -6 950.179 178.894   3
   8  -6  -5 685.905 148.267   3
  -8  -6   5 561.175 116.558   5
   8  -6  -4 14423.7 662.551   3
   8  -6  -4 14130.8 558.350   2
  -8  -6   4 13404.6 575.020   5
   8  -6  -4 14033.1 408.833   1
   8  -6  -3 3327.93 282.345   3
   8  -6  -3 3143.50 136.509   1
   8  -6  -3 3106.33 210.691   2
  -8  -6   3 2836.04 228.804   5
   8  -6  -2 1956.89 209.880   3
   8  -6  -2 2122.15 192.306   5
   8  -6  -2 1953.85 114.111   1
   8  -6  -2 1938.89 150.894   2
   8  -6  -1 8082.06 327.040   2
   8  -6  -1 8333.65 438.575   3
   8  -6  -1 7985.57 302.657   1
   8  -6  -1 8372.63 372.259   5
  -8  -6   1 8407.35 445.367   2
   8  -6   0 2401.14 219.616   3
  -8  -6   0 2441.86 231.072   2
   8  -6   0 2456.04 165.201   1
   8  -6   2 14244.2 564.045   1
  -8  -6  -3 515.485 118.624   1
   8  -6   3 398.601 69.9341   4
  -8  -6  -4 2392.19 246.191   1
  -8  -6  -5 5741.00 412.696   1
  -8  -6  -6 166.247 93.3783   1
  -8  -6  -7 3189.90 340.396   1
   8  -4  -7 5410.40 391.246   3
   8  -4  -6 3335.55 287.408   3
   8  -4  -5 1034.09 132.893   2
   8  -4  -5 761.331 135.664   3
   8  -4  -5 1229.12 95.9459   1
  -8  -4   5 1183.22 165.556   5
   8  -4  -4 10823.4 432.412   2
   8  -4  -4 10903.2 311.952   1
  -8  -4   4 10766.1 499.985   1
  -8  -4   4 11127.3 501.638   5
   8  -4  -4 11040.5 527.617   3
   8  -4  -3 3110.89 243.968   3
  -8  -4   3 2687.64 217.938   1
   8  -4  -3 2706.64 166.196   2
   8  -4  -3 2936.54 236.212   5
  -8  -4   3 2517.86 207.834   5
  -8  -4   3 3128.24 246.989   4
   8  -4  -2 7804.97 387.865   3
   8  -4  -2 6903.06 258.391   2
   8  -4  -2 7281.70 359.793   5
  -8  -4   2 7103.32 366.097   4
  -8  -4   2 6949.70 354.199   2
  -8  -4   2 7275.76 362.052   5
   8  -4  -1 17507.4 461.966   1
   8  -4  -1 18530.7 651.009   3
   8  -4  -1 16966.4 595.816   5
  -8  -4   1 17057.4 631.413   2
   8  -4  -1 17375.0 477.186   2
   8  -4   0 6032.14 239.046   1
   8  -4   0 6117.42 317.696   3
  -8  -4   0 6054.82 330.264   2
   8  -4   1 6292.50 281.849   1
   8  -4   1 6720.07 321.742   3
  -8  -4  -1 6851.82 360.716   2
   8  -4   2 13559.4 426.228   3
  -8  -4  -2 13607.4 499.101   1
  -8  -4  -2 14333.8 531.888   2
   8  -4   2 12767.2 305.826   4
   8  -4   3 2138.59 189.799   1
   8  -4   3 1812.08 143.666   3
  -8  -4  -3 2555.47 235.171   2
  -8  -4  -3 1963.89 193.892   1
   8  -4   4 3452.18 191.227   3
  -8  -4  -4 3747.42 289.180   1
   8  -4   5 10883.2 348.495   3
  -8  -4  -5 10717.8 556.427   1
  -8  -4  -6 204.659 92.8203   1
  -8  -4  -7 3903.48 366.301   1
   8  -2  -7 7267.15 501.679   4
   8  -2  -6 4203.26 343.910   4
   8  -2  -5 2768.75 237.830   3
   8  -2  -5 2904.77 257.514   4
  -8  -2   5 2983.19 258.196   5
  -8  -2   5 2693.47 217.371   1
   8  -2  -4 19085.9 704.831   3
  -8  -2   4 19174.6 706.623   3
  -8  -2   4 19279.8 657.514   1
  -8  -2   4 18148.9 705.860   5
  -8  -2   3 7537.79 376.208   3
   8  -2  -3 7101.30 367.183   3
  -8  -2   3 7988.35 344.197   1
  -8  -2   3 7588.77 379.142   5
   8  -2  -3 7898.63 396.757   5
  -8  -2   3 8079.87 386.728   4
   8  -2  -2 2227.43 181.784   3
   8  -2  -2 2113.49 94.3808   2
   8  -2  -2 2131.04 181.285   5
  -8  -2   2 2308.96 177.541   4
  -8  -2   2 2179.53 151.892   2
   8  -2  -1 18208.2 614.564   3
  -8  -2   1 17945.7 568.977   2
  -8  -2   1 18203.2 583.608   4
   8  -2   0 6523.53 291.220   3
  -8  -2   0 5756.65 271.888   2
   8  -2   0 5986.15 219.089   1
  -8  -2  -1 5750.56 284.070   1
  -8  -2  -1 6418.66 295.126   2
   8  -2   1 5662.86 248.795   1
   8  -2   1 5727.24 259.514   3
   8  -2   2 14339.3 467.476   3
  -8  -2  -2 16068.2 562.696   2
  -8  -2  -2 14521.4 540.228   1
   8  -2   3 910.567 75.7286   3
  -8  -2  -3 1234.21 146.951   2
  -8  -2  -3 1054.85 134.150   1
   8  -2   3 855.367 113.311   1
  -8  -2  -4 6061.31 201.005   3
  -8  -2  -4 6139.25 364.031   1
  -8  -2  -5 10790.2 539.840   1
  -8  -2  -6 177.380 94.1413   1
  -8  -2  -7 5685.87 437.269   1
  -8  -2  -8 5213.50 399.968   4
   8   0  -7 7339.56 503.038   4
  -8   0   6 1902.62 173.119   1
   8   0  -6 1522.01 208.883   4
  -8   0   5 1478.16 169.688   3
  -8   0   5 1508.37 139.693   1
   8   0  -5 1555.78 188.516   4
  -8   0   4 21511.2 760.979   3
   8   0  -4 22376.0 805.427   5
  -8   0   4 20617.7 776.186   5
   8   0  -4 21502.5 769.743   4
  -8   0   4 21513.5 646.817   1
  -8   0   3 7445.60 363.449   3
  -8   0   3 7197.42 271.193   1
   8   0  -3 7314.46 290.751   2
   8   0  -3 7164.96 347.974   4
   8   0  -3 7248.89 374.281   5
   8   0  -2 8988.69 358.087   4
   8   0  -2 8922.95 299.566   2
   8   0  -1 15151.1 414.673   2
  -8   0   1 15006.0 407.226   2
  -8   0   0 6486.71 277.930   3
  -8   0   0 5792.79 214.424   2
  -8   0   0 6010.50 209.465   4
  -8   0   0 6158.16 238.031   1
  -8   0  -1 20019.0 599.674   3
  -8   0  -1 21525.2 597.062   2
   8   0   1 19800.2 620.022   1
  -8   0  -1 19270.7 608.056   1
  -8   0  -2 24400.3 677.485   3
  -8   0  -2 25300.3 764.030   1
  -8   0  -3 8134.04 381.840   1
   8   0   3 8479.58 392.128   1
  -8   0  -4 4579.81 298.346   1
  -8   0  -5 7708.16 434.227   1
  -8   0  -6 250.181 84.4836   4
  -8   0  -6 311.221 114.089   1
  -8   0  -7 7267.70 496.655   1
  -8   0  -7 7236.77 424.150   4
  -8   0  -8 5038.02 381.870   4
   8   2  -8 419.362 135.751   2
   8   2  -7 7260.99 460.490   2
   8   2  -6 4335.70 325.000   2
  -8   2   6 4215.54 240.534   1
   8   2  -6 3976.10 334.973   4
   8   2  -5 3066.44 244.878   2
  -8   2   5 2698.40 165.645   1
  -8   2   4 18639.9 710.208   3
   8   2  -4 19371.1 676.414   2
  -8   2   4 18743.7 530.154   1
  -8   2   3 8010.08 393.510   3
   8   2  -3 8274.45 363.834   2
  -8   2   3 7778.99 394.176   5
   8   2  -2 2458.28 166.007   2
  -8   2   2 2111.08 178.601   5
   8   2  -1 17573.4 570.420   2
  -8   2   1 18551.5 606.749   5
  -8   2   0 6585.21 299.976   3
  -8   2   0 6573.25 288.008   5
   8   2   0 6338.96 276.594   2
  -8   2   0 6289.66 227.079   1
  -8   2   0 6210.33 186.188   2
   8   2   1 5794.74 272.708   2
  -8   2  -1 6064.66 255.694   1
  -8   2  -2 15606.5 543.608   1
  -8   2  -3 1097.76 129.788   1
  -8   2  -4 5706.49 346.245   1
  -8   2  -4 5765.52 257.421   4
  -8   2  -5 11698.3 566.373   1
  -8   2  -5 11719.8 460.036   4
  -8   2  -6 288.607 106.580   1
  -8   2  -6 245.983 77.2547   4
  -8   2  -7 5573.79 435.877   1
  -8   2  -7 4765.75 330.441   4
   8   4  -8 774.344 186.799   2
   8   4  -7 6286.23 460.365   2
   8   4  -6 3592.93 319.054   2
   8   4  -5 1317.61 180.583   2
   8   4  -4 12293.2 559.222   2
   8   4  -3 3159.41 241.148   2
   8   4  -2 7150.50 368.813   2
  -8   4   2 6990.32 351.584   5
  -8   4   1 18268.5 499.910   2
  -8   4   1 17612.7 604.421   5
   8   4  -1 17839.1 649.708   2
   8   4   0 6029.05 321.447   2
  -8   4   0 5717.09 234.580   2
  -8   4   0 6524.17 275.549   5
   8   4   1 6622.02 344.315   2
  -8   4  -1 6876.97 301.818   1
  -8   4  -1 6927.43 286.726   2
  -8   4  -1 6847.04 272.102   5
   8   4   2 13089.7 548.406   2
  -8   4  -2 13031.6 509.344   1
  -8   4  -2 14261.1 502.555   2
  -8   4  -3 1986.03 187.432   1
  -8   4  -4 4027.21 296.223   1
  -8   4  -5 11235.8 575.172   1
  -8   4  -6 80.6815 81.0728   1
  -8   4  -7 3583.88 359.111   1
   8   6  -7 4979.78 445.680   2
   8   6  -6 1552.90 232.915   2
   8   6  -5 945.021 175.797   2
   8   6  -4 15572.2 711.716   2
   8   6  -3 3157.87 281.517   2
   8   6  -2 1897.76 217.736   2
  -8   6   1 8081.62 342.934   2
   8   6  -1 9032.45 464.143   2
   8   6   0 2484.83 226.572   2
  -8   6   0 2151.52 168.966   2
  -8   6  -1 3331.41 225.646   2
   8   6   1 3382.93 271.688   2
   8   6   2 14655.1 635.359   2
  -8   6  -2 14332.1 575.383   2
  -8   6  -3 397.499 97.7287   1
  -8   6  -3 365.220 96.2099   2
  -8   6  -4 2721.73 254.985   1
  -8   6  -4 1969.54 215.234   2
  -8   6  -5 6016.13 422.424   1
  -8   6  -5 6826.42 440.294   2
  -8   6  -6 195.224 103.952   2
  -8   6  -6 77.8156 83.5298   1
   8   8  -6 1181.30 231.261   2
   8   8  -5 769.071 182.284   2
   8   8  -4 8910.58 565.758   2
   8   8  -3 1985.37 249.353   2
   8   8  -2 1582.08 219.408   2
  -8   8   2 1181.75 145.640   2
  -8   8   1 5143.98 311.041   2
   8   8  -1 5343.58 392.557   2
   8   8   0 999.571 180.905   2
  -8   8   0 1145.91 152.141   2
   8   8   1 3456.53 320.075   2
  -8   8  -1 2910.17 250.089   2
   8   8   2 8145.77 499.854   2
  -8   8  -2 8739.50 468.110   2
   8   8   3 1050.72 189.581   2
  -8   8  -3 1653.91 207.139   2
  -8   8  -4 2161.57 249.565   2
  -8   8  -5 3876.48 357.773   2
  -8   8  -6 4.75742 98.3741   2
   8  10  -4 3133.54 373.518   2
   8  10  -3 1102.48 218.700   2
  -8  10   2 1117.50 161.204   2
   8  10  -2 1472.21 248.416   2
  -8  10   1 4723.20 346.169   2
   8  10  -1 5468.55 452.590   2
   8  10   0 1042.16 206.606   2
  -8  10   0 741.324 149.895   2
   8  10   1 1786.87 258.994   2
  -8  10  -1 1450.97 203.226   2
   8  10   2 4393.30 409.284   2
  -8  10  -2 4222.65 363.307   2
   8  10   3 256.789 125.328   2
  -8  10  -3 554.394 151.007   2
  -8  10  -4 1616.99 246.864   2
  -8  10  -5 3494.51 378.213   2
  -8  12   1 2222.59 264.871   2
  -8  12   0 620.152 158.455   2
  -8  12  -1 865.782 191.013   2
  -8  12  -2 1607.13 256.366   2
  -8  12  -3 248.162 144.852   2
   9 -11  -2 510.994 158.967   3
   9 -11  -1 1139.19 218.334   3
   9  -9  -5 1216.10 218.549   3
   9  -9  -4 917.690 190.388   3
   9  -9  -3 3711.35 353.625   3
  -9  -9   3 3323.69 271.774   5
   9  -9  -2 673.470 160.796   3
   9  -9  -1 1192.61 199.823   3
   9  -9  -1 1450.47 159.081   2
   9  -9   0 5768.70 328.128   1
  -9  -9  -3 5507.80 432.487   1
  -9  -9  -4 494.372 143.584   1
  -9  -9  -5 2022.65 274.799   1
   9  -7  -7 448.406 142.753   3
   9  -7  -6 3981.40 367.190   3
  -9  -7   5 1556.72 190.493   5
   9  -7  -5 1448.23 217.161   3
   9  -7  -4 1386.35 207.611   3
  -9  -7   4 1475.70 178.392   5
   9  -7  -3 10990.0 587.002   3
  -9  -7   3 9740.46 493.319   5
   9  -7  -3 11384.2 334.202   1
   9  -7  -3 11174.8 333.479   1
   9  -7  -2 2007.14 231.343   3
   9  -7  -2 2063.49 197.857   5
   9  -7  -2 2078.57 125.727   1
   9  -7  -2 2079.62 163.527   2
   9  -7  -1 2084.68 227.627   3
   9  -7  -1 2112.33 145.747   1
   9  -7  -1 1924.66 175.020   5
   9  -7  -1 2106.59 159.334   2
   9  -7   0 8324.53 460.515   3
   9  -7   1 1201.33 136.112   1
  -9  -7  -3 7999.41 481.062   1
  -9  -7  -4 848.937 163.624   1
  -9  -7  -5 2537.40 283.529   1
  -9  -7  -6 3732.14 364.836   1
   9  -5  -7 1034.38 187.802   3
   9  -5  -6 5266.56 392.903   3
   9  -5  -5 3990.10 330.265   3
  -9  -5   5 4137.78 314.421   5
   9  -5  -5 4337.32 281.715   2
   9  -5  -4 1642.69 202.207   3
  -9  -5   4 1713.71 192.685   5
   9  -5  -3 9060.39 474.507   3
   9  -5  -3 8796.96 346.269   2
  -9  -5   3 8165.94 427.114   5
   9  -5  -2 1525.24 181.898   3
  -9  -5   2 1512.50 170.585   5
   9  -5  -2 1550.65 166.697   5
   9  -5  -2 1582.45 109.831   2
  -9  -5   2 1243.25 157.031   2
   9  -5  -1 4167.65 254.165   5
   9  -5  -1 4087.61 284.364   3
  -9  -5   1 4431.72 294.284   2
   9  -5  -1 4023.34 177.645   2
   9  -5  -1 4032.38 165.089   1
   9  -5   0 13748.4 563.236   3
  -9  -5   0 14051.7 591.299   2
   9  -5   0 13409.5 444.095   1
  -9  -5  -1 1206.62 163.502   2
   9  -5   1 1104.31 138.536   3
   9  -5   2 6537.60 334.469   1
   9  -5   2 6494.42 336.138   3
  -9  -5  -2 6706.83 384.339   1
   9  -5   2 6139.52 240.019   4
  -9  -5  -3 10515.2 517.543   1
   9  -5   3 10254.8 432.882   3
   9  -5   4 1098.22 119.053   3
  -9  -5  -4 1182.67 171.364   1
   9  -5   5 5180.15 246.570   3
  -9  -5  -5 5229.01 386.262   1
  -9  -5  -6 6888.87 474.888   1
  -9  -5  -7 186.395 107.228   1
   9  -3  -7 689.586 165.406   4
   9  -3  -6 8198.23 474.300   3
   9  -3  -6 8486.75 513.441   4
   9  -3  -5 4187.92 319.417   3
   9  -3  -5 5491.60 297.378   2
  -9  -3   5 5514.96 365.767   5
   9  -3  -4 3801.02 282.475   3
   9  -3  -4 3897.98 214.423   2
  -9  -3   4 3934.92 262.101   1
  -9  -3   4 3651.73 275.990   5
   9  -3  -3 10956.9 499.247   3
  -9  -3   3 10394.0 447.079   1
   9  -3  -3 10479.0 355.219   2
  -9  -3   3 11968.5 511.390   4
   9  -3  -3 11065.4 506.362   5
  -9  -3   3 10248.7 477.256   5
   9  -3  -2 3602.07 249.075   3
   9  -3  -2 3327.56 119.859   2
  -9  -3   2 3087.80 232.921   5
   9  -3  -2 3621.59 246.897   5
  -9  -3   2 3902.69 249.827   4
  -9  -3   2 3481.76 219.686   2
   9  -3  -1 6508.73 333.006   3
  -9  -3   1 6205.74 305.996   2
   9  -3   0 27625.6 832.458   3
  -9  -3   0 26107.2 826.039   2
   9  -3   0 25644.0 706.829   1
   9  -3   1 3256.10 205.723   3
   9  -3   1 3019.03 176.113   1
  -9  -3  -1 2711.38 211.475   2
  -9  -3  -1 2908.24 215.928   1
  -9  -3  -2 4890.73 296.273   1
   9  -3   2 4844.07 247.419   3
  -9  -3  -2 5383.87 315.599   2
   9  -3   3 11625.4 484.884   1
  -9  -3  -3 11355.6 514.207   2
  -9  -3  -3 10111.9 478.015   1
   9  -3   3 10497.8 382.085   3
   9  -3   4 2052.08 120.586   3
  -9  -3  -4 1997.42 211.114   1
  -9  -3  -5 8603.64 256.694   3
  -9  -3  -5 8249.92 482.602   1
  -9  -3  -6 7494.57 483.338   1
  -9  -3  -7 194.542 98.5648   1
   9  -1  -7 795.796 165.763   4
  -9  -1   6 9082.79 429.092   1
   9  -1  -6 8648.98 514.710   4
   9  -1  -5 4151.22 313.377   4
  -9  -1   5 4505.93 330.515   5
  -9  -1   5 3953.50 247.569   1
  -9  -1   4 2995.74 237.973   3
  -9  -1   4 2650.35 179.087   1
  -9  -1   4 2338.25 221.509   5
   9  -1  -4 2575.27 220.689   4
   9  -1  -3 18585.3 677.650   3
  -9  -1   3 19267.1 689.423   3
   9  -1  -3 18951.3 709.143   5
  -9  -1   3 18344.0 585.895   1
  -9  -1   3 18664.9 691.597   5
   9  -1  -3 19412.1 661.779   4
   9  -1  -3 18414.0 547.943   2
   9  -1  -2 2651.14 200.428   3
   9  -1  -2 2667.68 113.160   2
   9  -1  -2 2792.84 177.186   4
  -9  -1   2 2806.16 190.173   4
   9  -1  -1 4891.43 265.024   3
  -9  -1   1 4810.77 210.670   2
   9  -1  -1 4839.43 213.632   4
  -9  -1   1 5347.80 242.554   4
  -9  -1   0 18686.1 599.189   3
   9  -1   0 18375.5 593.483   3
  -9  -1   0 17807.5 568.620   1
  -9  -1   0 17692.2 551.349   2
   9  -1   1 2182.58 148.070   3
  -9  -1  -1 2325.91 152.588   3
   9  -1   1 2114.14 147.273   1
  -9  -1  -1 2219.09 156.828   2
  -9  -1  -1 2269.63 161.956   1
  -9  -1  -2 12492.6 409.872   3
  -9  -1  -2 12563.4 476.395   2
  -9  -1  -2 11803.8 473.650   1
  -9  -1  -3 20610.6 591.732   3
  -9  -1  -3 23190.5 761.354   2
  -9  -1  -3 21108.3 744.305   1
   9  -1   3 22626.5 750.991   1
  -9  -1  -4 1288.81 158.418   1
  -9  -1  -5 5335.99 364.523   1
  -9  -1  -6 9306.86 530.244   1
  -9  -1  -7 168.394 77.4707   4
  -9  -1  -7 211.044 109.426   1
  -9  -1  -8 3933.50 337.946   4
   9   1  -8 2957.93 303.877   2
   9   1  -7 759.185 145.585   2
   9   1  -7 746.231 170.707   4
   9   1  -6 9407.27 539.490   4
   9   1  -6 9535.19 486.843   2
   9   1  -5 3986.14 307.744   4
  -9   1   5 4189.22 216.384   1
   9   1  -5 3970.68 269.360   2
  -9   1   4 2633.90 225.195   3
  -9   1   4 2793.36 145.563   1
  -9   1   4 2569.49 235.565   5
   9   1  -4 2673.56 226.472   4
   9   1  -4 2268.93 181.789   2
  -9   1   3 18716.6 499.841   1
  -9   1   3 18475.2 688.693   3
   9   1  -3 18831.6 604.942   2
   9   1  -3 19093.3 669.045   4
   9   1  -2 2641.65 158.644   2
  -9   1   2 2680.54 99.9600   1
   9   1  -1 5087.50 217.811   2
  -9   1   1 5166.26 177.115   1
  -9   1   0 18236.7 598.796   3
   9   1   0 17194.6 529.597   2
  -9   1   0 18793.8 520.384   1
  -9   1   0 17447.1 468.577   2
  -9   1  -1 2093.33 147.664   3
  -9   1  -1 2322.62 149.998   1
  -9   1  -2 12030.7 371.945   1
  -9   1  -2 12092.9 306.142   3
  -9   1  -3 20816.3 728.832   1
   9   1   3 23450.1 777.874   1
  -9   1  -3 21012.7 583.940   4
  -9   1  -4 1247.70 157.613   1
  -9   1  -4 1330.19 111.578   4
  -9   1  -5 4814.66 344.447   1
  -9   1  -5 5186.17 273.361   4
  -9   1  -6 9385.54 538.223   1
  -9   1  -6 9220.90 435.341   4
  -9   1  -7 334.314 130.926   1
  -9   1  -7 86.3872 58.2885   4
   9   3  -8 1633.26 243.744   2
   9   3  -7 1177.13 196.286   2
   9   3  -6 8006.62 471.448   2
   9   3  -5 6017.98 371.776   2
   9   3  -4 4257.67 286.031   2
   9   3  -3 10353.1 458.787   2
  -9   3   3 10926.2 498.578   5
   9   3  -2 3493.23 228.950   2
  -9   3   2 3436.49 237.772   5
   9   3  -1 5901.18 301.503   2
  -9   3   1 6167.52 306.623   5
   9   3   0 26282.1 809.298   2
  -9   3   0 25801.7 703.893   1
  -9   3   0 26909.1 788.474   5
  -9   3   0 25297.3 657.788   2
   9   3   1 3228.74 215.448   2
  -9   3  -1 3119.94 186.931   5
  -9   3  -1 2953.19 177.683   1
  -9   3  -1 3083.93 159.598   2
  -9   3  -2 5033.75 272.829   1
  -9   3  -3 10545.6 468.527   1
  -9   3  -4 1842.56 196.879   1
  -9   3  -5 8795.79 494.637   1
  -9   3  -6 8660.16 531.069   1
  -9   3  -7 307.261 134.645   1
   9   5  -7 843.146 186.682   2
   9   5  -6 6057.83 441.065   2
   9   5  -5 5017.24 375.359   2
   9   5  -4 1720.09 204.451   2
   9   5  -3 9503.77 484.422   2
   9   5  -2 1724.49 186.744   2
  -9   5   1 4083.95 186.903   2
   9   5  -1 4126.93 288.321   2
  -9   5   1 4388.83 253.813   5
   9   5   0 14325.3 586.207   2
  -9   5   0 12996.6 451.943   2
  -9   5   0 14313.5 490.311   5
   9   5   1 1362.04 164.446   2
  -9   5  -1 1208.94 104.022   5
  -9   5  -1 1419.27 130.498   2
  -9   5  -2 6781.43 256.983   5
  -9   5  -2 6432.01 327.052   2
   9   5   2 6640.54 383.225   2
  -9   5  -2 6489.69 337.443   1
  -9   5  -3 10367.3 488.653   1
  -9   5  -3 10422.8 471.794   2
  -9   5  -4 1182.55 158.730   2
  -9   5  -4 1191.41 169.617   1
  -9   5  -5 5546.84 398.484   1
  -9   5  -5 5453.79 379.590   2
  -9   5  -6 7752.03 511.956   1
  -9   5  -7 248.867 119.004   2
   9   7  -6 3851.77 385.718   2
   9   7  -5 1531.39 230.191   2
   9   7  -4 1840.18 240.070   2
   9   7  -3 12179.8 633.570   2
   9   7  -2 2129.39 243.589   2
  -9   7   1 2185.18 171.731   2
   9   7  -1 2528.93 253.462   2
   9   7   0 8917.88 501.762   2
  -9   7   0 8929.94 402.451   2
   9   7   1 1178.73 174.675   2
  -9   7  -1 960.805 130.153   2
  -9   7  -2 2771.59 236.843   2
   9   7   2 3078.78 282.523   2
  -9   7  -3 8335.70 456.779   2
  -9   7  -4 810.342 151.480   2
  -9   7  -5 2759.40 289.435   2
  -9   7  -6 3852.37 367.327   2
   9   9  -5 1678.63 276.994   2
   9   9  -4 833.470 192.834   2
   9   9  -3 4720.15 419.026   2
  -9   9   2 1183.25 152.663   2
   9   9  -2 855.678 179.660   2
   9   9  -1 1616.83 239.328   2
  -9   9   1 1346.91 168.171   2
   9   9   0 5600.78 433.823   2
  -9   9   0 6072.67 368.082   2
   9   9   1 240.957 113.216   2
  -9   9  -1 337.356 107.703   2
  -9   9  -2 1802.97 220.616   2
   9   9   2 2149.28 273.378   2
  -9   9  -3 6022.87 422.056   2
   9   9   3 5609.48 458.823   2
  -9   9  -4 269.274 102.770   2
  -9   9  -5 2658.22 312.305   2
   9  11  -2 589.864 181.588   2
  -9  11   1 1191.17 186.111   2
   9  11  -1 1551.52 262.965   2
   9  11   0 4494.60 442.882   2
  -9  11   0 4186.83 351.595   2
   9  11   1 797.776 198.155   2
  -9  11  -1 652.904 146.264   2
   9  11   2 837.117 186.899   2
  -9  11  -2 732.616 169.982   2
  -9  11  -3 1636.66 255.265   2
  -9  11  -4 216.523 131.526   2
  10 -10  -3 583.027 174.166   3
  10 -10  -2 2700.00 318.628   3
 -10 -10   2 2387.32 243.778   5
  10 -10  -1 1063.45 203.268   3
  10 -10   0 1505.33 232.756   3
  10 -10   1 3714.23 349.378   3
 -10 -10  -3 1360.88 234.913   1
  10  -8  -6 1037.70 221.525   3
  10  -8  -5 5562.33 449.405   3
 -10  -8   5 4462.80 341.487   5
  10  -8  -4 1217.35 207.599   3
 -10  -8   4 922.281 150.399   5
  10  -8  -3 1160.92 195.489   3
 -10  -8   3 1121.36 170.154   5
  10  -8  -2 6141.94 438.531   3
  10  -8  -1 1693.26 222.117   3
  10  -8  -1 1824.17 176.712   5
  10  -8  -1 2007.23 151.442   1
  10  -8   0 2547.77 259.713   3
  10  -8   0 2173.14 180.669   1
  10  -8   1 6595.66 422.615   3
  10  -8   1 6593.19 358.010   1
  10  -8   2 398.385 106.913   3
  10  -8   3 1918.89 216.377   3
 -10  -8  -3 1679.93 235.349   1
 -10  -8  -4 5021.66 405.096   1
  10  -8   4 4355.70 317.004   3
 -10  -8  -5 309.640 124.567   1
  10  -6  -7 1571.24 233.897   3
  10  -6  -6 839.379 178.203   3
 -10  -6   6 875.607 160.387   5
  10  -6  -5 7231.08 481.083   3
 -10  -6   5 6183.45 404.241   5
  10  -6  -4 2037.70 242.547   3
 -10  -6   4 1635.37 194.076   5
  10  -6  -3 1699.74 211.312   3
 -10  -6   3 1470.81 179.605   5
  10  -6  -3 1260.73 117.874   2
  10  -6  -2 8874.82 491.597   3
  10  -6  -2 9360.54 456.999   5
  10  -6  -2 9027.74 331.167   2
  10  -6  -1 1497.17 191.388   3
  10  -6  -1 1412.08 99.3787   1
  10  -6   0 2780.90 245.043   3
  10  -6   0 2711.21 170.253   1
  10  -6   1 10084.4 427.588   1
  10  -6   1 12525.7 537.607   3
  10  -6   2 1129.73 146.548   3
  10  -6   2 976.150 128.291   1
 -10  -6  -2 1060.99 168.156   1
  10  -6   2 1061.42 94.1925   4
 -10  -6  -3 2458.79 256.148   1
  10  -6   3 2834.83 224.462   3
  10  -6   3 2946.83 166.717   4
  10  -6   4 6052.20 329.862   3
 -10  -6  -4 6135.83 421.567   1
 -10  -6  -5 183.486 95.7476   1
 -10  -6  -6 2841.43 319.582   1
  10  -4  -7 1544.33 241.153   4
  10  -4  -6 910.565 165.990   3
 -10  -4   6 944.555 166.069   5
  10  -4  -5 13649.7 634.577   3
 -10  -4   5 12281.4 601.953   5
  10  -4  -4 3430.55 281.098   3
  10  -4  -4 3001.54 188.863   2
 -10  -4   4 2617.77 243.035   5
  10  -4  -3 2087.65 214.427   3
  10  -4  -3 1985.86 122.531   2
 -10  -4   3 2022.50 202.364   5
  10  -4  -2 10345.9 490.018   3
 -10  -4   2 9106.23 462.229   5
  10  -4  -2 10696.0 479.260   5
  10  -4  -2 10062.1 274.204   2
 -10  -4   2 10903.7 482.809   4
 -10  -4   2 9826.67 445.058   2
  10  -4  -1 6097.05 346.775   3
 -10  -4   1 5879.77 331.770   2
  10  -4  -1 6203.78 188.376   1
  10  -4   0 5543.09 320.686   3
  10  -4   0 5916.71 237.894   1
 -10  -4   0 5852.94 337.450   2
  10  -4   1 13384.5 526.555   3
  10  -4   1 13221.7 474.521   1
 -10  -4  -1 14447.2 588.322   2
 -10  -4  -2 850.701 135.824   2
  10  -4   2 852.115 109.740   3
 -10  -4  -2 794.740 130.469   1
  10  -4   2 762.729 106.919   1
  10  -4   3 2784.29 188.691   3
  10  -4   3 2784.11 223.264   1
 -10  -4  -3 2326.68 222.600   1
  10  -4   4 8640.56 343.237   3
 -10  -4  -4 8840.18 485.787   1
 -10  -4  -5 279.959 108.837   1
 -10  -4  -6 6290.42 453.736   1
 -10  -4  -7 5194.43 434.835   1
  10  -2  -7 2864.21 315.165   4
  10  -2  -6 761.178 155.997   4
 -10  -2   5 12747.1 620.468   5
 -10  -2   5 13983.9 553.753   1
  10  -2  -5 13055.8 618.690   4
  10  -2  -4 2020.88 206.514   3
 -10  -2   4 2632.00 239.124   5
 -10  -2   4 2225.15 183.458   1
  10  -2  -4 2596.22 223.497   4
 -10  -2   3 3966.98 274.189   3
  10  -2  -3 3423.23 254.753   3
  10  -2  -3 3482.56 158.521   2
  10  -2  -3 3399.00 233.628   4
 -10  -2   3 3449.49 217.538   1
  10  -2  -3 3833.26 281.451   5
 -10  -2   3 3290.98 256.576   5
  10  -2  -3 3542.49 156.067   2
 -10  -2   3 3657.29 256.855   4
  10  -2  -2 13340.9 542.707   3
 -10  -2   2 13310.2 555.772   5
 -10  -2   2 13774.7 526.856   4
  10  -2  -2 13557.0 484.186   4
 -10  -2   2 13400.2 472.833   2
  10  -2  -1 4459.53 266.596   3
 -10  -2   1 4324.77 227.771   2
 -10  -2   1 4735.61 246.612   4
  10  -2  -1 4253.96 201.658   4
  10  -2   0 11216.3 442.932   3
  10  -2   0 10861.5 357.746   1
 -10  -2   0 10339.2 410.223   2
  10  -2   0 10655.5 307.523   4
  10  -2   1 20668.6 659.261   3
 -10  -2  -1 20265.9 687.253   1
 -10  -2  -1 20550.9 682.930   2
  10  -2   1 20448.5 634.339   1
  10  -2   2 4101.24 218.789   3
 -10  -2  -2 4776.47 284.504   2
 -10  -2  -2 4847.05 282.005   1
 -10  -2  -3 5464.42 236.706   3
  10  -2   3 4945.65 224.164   3
 -10  -2  -3 5742.65 336.436   2
 -10  -2  -3 5131.49 319.112   1
  10  -2   3 5444.44 313.088   1
 -10  -2  -4 10656.7 334.918   3
 -10  -2  -4 10107.1 511.624   1
 -10  -2  -5 489.329 125.900   1
 -10  -2  -6 5959.54 427.979   1
 -10  -2  -7 4467.28 401.969   1
  10   0  -8 5821.31 422.145   2
  10   0  -7 3396.56 338.685   4
  10   0  -7 3275.53 285.031   2
  10   0  -6 3342.50 309.748   4
  10   0  -6 3187.69 254.630   2
 -10   0   5 10155.8 538.368   5
 -10   0   5 10269.1 395.576   1
  10   0  -5 9518.10 507.307   4
  10   0  -5 9422.41 429.837   2
 -10   0   4 8366.83 453.705   5
  10   0  -4 8189.55 353.101   2
  10   0  -4 8453.53 431.460   4
 -10   0   4 8566.21 324.960   1
 -10   0   3 3642.91 258.957   3
 -10   0   3 3319.39 166.992   1
 -10   0   3 3096.22 249.295   5
  10   0  -3 3390.08 183.887   2
  10   0  -3 3445.91 235.522   4
  10   0  -2 20704.7 585.295   2
  10   0  -2 21557.8 675.014   4
  10   0  -1 3858.99 151.251   2
 -10   0   1 3906.01 179.999   1
 -10   0   1 3960.03 151.386   2
 -10   0   0 2571.68 182.232   3
 -10   0   0 2155.88 124.736   2
 -10   0   0 2315.66 144.565   1
 -10   0   0 2311.42 120.644   4
 -10   0  -1 15277.9 518.848   3
 -10   0  -1 14861.5 490.182   2
 -10   0  -1 15332.8 517.551   1
 -10   0  -2 1667.49 124.739   3
  10   0   2 1323.66 139.992   1
 -10   0  -2 1728.91 146.394   2
 -10   0  -2 1750.65 157.653   1
  10   0   3 7437.22 381.328   1
 -10   0  -3 6964.16 262.242   3
 -10   0  -3 6927.99 362.566   1
 -10   0  -4 10304.4 498.320   1
 -10   0  -5 284.922 92.4684   1
 -10   0  -6 6045.81 424.406   1
 -10   0  -6 5627.30 327.286   4
 -10   0  -7 7537.70 521.487   1
 -10   0  -7 7253.58 413.485   4
  10   2  -8 4929.31 412.611   2
  10   2  -7 2909.34 285.934   2
  10   2  -6 963.498 152.314   2
 -10   2   5 14022.9 431.602   1
  10   2  -5 13783.8 588.373   2
  10   2  -4 2350.67 198.848   2
 -10   2   4 2295.06 233.048   5
 -10   2   3 3589.26 270.060   3
  10   2  -3 3815.97 236.658   2
 -10   2   3 3488.48 267.737   5
  10   2  -2 13863.1 495.175   2
 -10   2   2 13572.7 552.309   5
  10   2  -1 4117.68 224.339   2
 -10   2   1 4116.42 254.971   5
 -10   2   1 4399.33 145.103   1
 -10   2   0 10931.8 446.140   3
  10   2   0 10652.6 402.356   2
 -10   2   0 10599.2 286.776   2
 -10   2   0 10926.5 438.172   5
 -10   2   0 10669.4 283.443   2
 -10   2   0 10942.3 353.194   1
 -10   2  -1 19921.6 664.734   3
 -10   2  -1 20885.7 632.952   1
 -10   2  -2 4544.91 255.962   1
 -10   2  -3 5177.49 307.002   1
 -10   2  -4 10139.5 497.485   1
 -10   2  -5 420.704 113.245   1
 -10   2  -6 5176.38 398.695   1
 -10   2  -7 5629.48 451.782   1
  10   4  -7 1837.32 251.375   2
  10   4  -6 1109.23 187.645   2
  10   4  -5 13767.0 641.463   2
  10   4  -4 2918.60 254.861   2
  10   4  -3 2143.41 205.479   2
  10   4  -2 11235.0 494.591   2
 -10   4   2 10766.8 484.027   5
  10   4  -1 5870.15 332.705   2
 -10   4   1 7067.42 341.869   5
  10   4   0 6086.88 335.470   2
 -10   4   0 5757.50 218.415   2
 -10   4   0 6160.92 297.047   5
 -10   4  -1 13441.2 476.213   5
  10   4   1 12984.6 541.177   2
 -10   4  -1 13465.5 480.531   1
 -10   4  -1 13415.6 449.625   2
 -10   4  -2 143.124 62.2486   2
 -10   4  -2 787.255 110.820   1
 -10   4  -3 2079.18 199.631   1
 -10   4  -4 9504.83 492.652   1
 -10   4  -5 273.814 101.459   1
 -10   4  -6 6209.40 454.381   1
 -10   4  -7 5247.13 445.453   1
  10   6  -7 1618.46 255.159   2
  10   6  -6 637.729 156.197   2
  10   6  -5 8277.15 523.368   2
  10   6  -4 1709.75 223.138   2
  10   6  -3 1795.56 217.960   2
  10   6  -2 9518.10 510.222   2
 -10   6   1 1503.06 115.781   2
  10   6  -1 1517.05 190.311   2
  10   6   0 2844.25 254.445   2
 -10   6   0 2733.45 180.645   2
 -10   6   0 3050.33 195.874   5
  10   6   1 12536.5 581.722   2
 -10   6  -1 12221.1 484.408   2
 -10   6  -1 12670.5 432.555   5
  10   6   2 1276.75 176.013   2
 -10   6  -2 1319.67 95.8523   5
 -10   6  -2 1270.91 144.048   2
 -10   6  -3 2794.75 245.287   1
 -10   6  -3 3137.18 136.928   5
 -10   6  -3 2762.27 235.143   2
 -10   6  -4 5946.99 399.271   1
 -10   6  -4 6341.94 218.268   5
 -10   6  -4 6383.05 397.090   2
 -10   6  -5 224.644 89.3834   2
 -10   6  -5 352.008 117.513   1
 -10   6  -6 2835.91 316.917   1
 -10   6  -6 2748.70 299.110   2
  10   8  -5 5347.05 456.964   2
  10   8  -4 1252.40 227.272   2
  10   8  -3 1234.40 217.560   2
  10   8  -2 6286.67 449.407   2
  10   8  -1 1590.21 228.833   2
 -10   8   1 1758.96 162.059   2
  10   8   0 1957.15 245.303   2
 -10   8   0 2239.57 198.469   2
  10   8   1 6608.95 452.238   2
 -10   8  -1 6793.56 382.483   2
  10   8   2 263.658 112.076   2
 -10   8  -2 431.729 109.343   2
  10   8   3 1749.11 241.292   2
 -10   8  -3 1714.37 210.572   2
 -10   8  -4 4906.71 381.630   2
 -10   8  -5 301.742 124.593   2
 -10   8  -6 1899.00 274.476   2
  10  10  -3 785.137 191.643   2
  10  10  -2 3402.87 366.975   2
 -10  10   1 950.919 147.240   2
  10  10  -1 1409.97 247.819   2
  10  10   0 1897.83 278.324   2
 -10  10   0 1686.00 200.954   2
  10  10   1 3841.92 378.269   2
 -10  10  -1 4171.71 334.276   2
  10  10   2 602.497 163.094   2
 -10  10  -2 699.953 156.708   2
  10  10   3 1480.83 249.387   2
 -10  10  -3 1346.98 214.045   2
 -10  10  -4 2545.86 301.728   2
  11 -11   0 424.579 140.340   3
  11 -11   1 1046.16 206.948   3
  11 -11   2 2213.12 287.615   3
  11 -11   3 373.445 134.774   3
  11  -9  -4 3969.91 396.332   3
 -11  -9   4 3618.46 306.009   5
  11  -9  -3 733.161 172.667   3
 -11  -9   3 640.743 143.314   5
  11  -9  -2 926.084 184.222   3
 -11  -9   2 970.065 164.621   5
  11  -9  -1 5821.26 441.313   3
  11  -9   0 1359.77 204.027   3
  11  -9   1 1759.63 232.321   3
  11  -9   2 4583.88 366.495   3
 -11  -9  -2 4416.56 391.667   1
  11  -9   3 359.801 122.592   3
 -11  -9  -3 478.349 136.942   1
  11  -9   4 1681.60 208.236   3
 -11  -9  -4 1240.21 223.977   1
  11  -7  -6 1757.88 259.767   3
 -11  -7   6 1090.38 185.582   5
  11  -7  -5 1248.34 209.500   3
 -11  -7   5 1010.94 169.479   5
  11  -7  -4 5115.14 406.961   3
 -11  -7   4 4447.77 339.158   5
 -11  -7   3 1734.71 206.035   5
  11  -7  -3 2404.13 268.429   3
  11  -7  -2 1747.38 219.813   3
  11  -7  -2 1670.03 126.222   2
  11  -7  -2 1479.19 67.4334   1
  11  -7  -1 5959.31 248.967   1
  11  -7  -1 6097.88 409.859   3
  11  -7   0 429.228 113.347   3
  11  -7   1 3058.75 220.581   1
  11  -7   1 3372.19 283.871   3
  11  -7   2 8691.67 470.049   3
 -11  -7  -2 9345.31 535.503   1
  11  -7   3 550.043 110.826   3
 -11  -7  -3 373.966 122.574   1
  11  -7   4 3742.69 273.731   3
 -11  -7  -4 3460.91 331.909   1
 -11  -7  -5 4983.69 419.259   1
  11  -5  -7 4517.50 393.847   3
  11  -5  -6 2568.55 286.978   3
 -11  -5   6 2559.72 277.517   5
  11  -5  -5 2128.19 246.758   3
 -11  -5   5 1850.25 224.354   5
  11  -5  -4 8147.18 485.351   3
 -11  -5   4 7485.19 442.318   5
  11  -5  -3 2032.85 225.590   3
 -11  -5   3 1698.45 197.938   5
  11  -5  -3 1884.84 113.444   2
  11  -5  -2 3554.91 286.358   3
 -11  -5   2 3617.64 281.873   5
  11  -5  -2 3538.79 270.134   5
 -11  -5   2 3428.53 266.755   2
  11  -5  -1 12933.4 570.266   3
 -11  -5   1 12057.6 552.055   2
  11  -5  -1 12240.8 349.799   1
  11  -5   0 3323.77 256.155   3
  11  -5   0 3065.15 171.600   1
 -11  -5   0 3351.15 267.579   2
  11  -5   1 4173.43 282.738   3
 -11  -5  -1 4310.61 316.921   2
  11  -5   2 9626.29 445.568   3
  11  -5   2 10155.1 444.204   1
 -11  -5  -2 9685.61 503.069   1
  11  -5   3 1179.06 134.673   3
 -11  -5  -3 1289.72 184.841   1
  11  -5   4 4642.06 263.725   3
 -11  -5  -4 4843.43 363.188   1
 -11  -5  -5 6018.04 436.630   1
 -11  -5  -6 346.942 133.218   1
  11  -3  -7 5593.00 455.002   4
 -11  -3   6 3722.83 336.542   5
  11  -3  -6 4819.67 384.455   4
  11  -3  -5 1792.60 218.205   3
 -11  -3   5 1704.22 216.248   5
  11  -3  -5 1571.92 202.048   4
  11  -3  -4 9782.54 507.425   3
  11  -3  -4 10146.8 363.455   2
 -11  -3   4 9766.54 454.453   1
 -11  -3   4 9697.45 509.716   5
  11  -3  -4 9697.92 480.167   4
  11  -3  -3 807.596 138.844   3
  11  -3  -3 1102.44 70.3271   2
 -11  -3   3 1160.96 159.713   5
  11  -3  -3 1103.97 66.0756   2
  11  -3  -2 2728.92 229.833   3
 -11  -3   2 2108.14 209.803   5
 -11  -3   2 2625.14 211.069   4
 -11  -3   2 2279.56 179.262   2
  11  -3  -1 14947.8 601.145   3
 -11  -3   1 14926.8 557.688   2
 -11  -3   1 16221.4 576.632   4
  11  -3   0 3226.70 167.364   1
  11  -3   0 3186.57 233.724   3
 -11  -3   0 3651.90 240.068   2
  11  -3   0 3411.88 139.472   4
  11  -3   1 11125.8 459.754   3
 -11  -3  -1 11260.4 487.091   1
 -11  -3  -1 11189.5 491.554   2
  11  -3   1 11459.5 421.981   1
 -11  -3  -2 10575.4 489.811   1
  11  -3   2 10982.6 439.344   3
 -11  -3  -2 12238.0 527.310   2
  11  -3   2 11076.5 457.980   1
  11  -3   3 1170.15 112.899   3
 -11  -3  -3 1248.77 160.770   1
  11  -3   3 1214.65 148.228   1
 -11  -3  -4 5625.04 250.491   3
  11  -3   4 5600.46 238.511   3
 -11  -3  -4 5819.00 378.880   1
 -11  -3  -5 12069.0 615.857   1
 -11  -3  -6 279.901 119.732   1
 -11  -3  -7 3013.31 327.233   1
  11  -1  -7 8608.87 554.966   4
  11  -1  -7 6808.63 421.500   2
  11  -1  -6 2500.21 275.315   4
  11  -1  -6 2435.00 212.960   2
 -11  -1   5 2423.69 258.187   5
 -11  -1   5 2732.28 196.241   1
  11  -1  -5 2594.82 252.687   4
  11  -1  -5 2543.64 193.710   2
 -11  -1   4 11096.4 432.910   1
 -11  -1   4 10812.2 547.267   5
  11  -1  -4 11939.3 421.130   2
  11  -1  -4 11879.3 532.546   4
 -11  -1   3 3489.18 201.489   1
 -11  -1   3 3786.99 284.963   5
  11  -1  -3 4031.33 178.694   2
  11  -1  -3 3991.01 258.002   4
  11  -1  -2 4012.73 269.297   3
 -11  -1   2 4245.32 288.401   5
  11  -1  -2 4112.92 232.021   4
  11  -1  -1 19703.0 686.492   3
 -11  -1   1 20057.6 697.630   3
 -11  -1   1 19132.3 578.174   2
 -11  -1   1 19831.8 624.460   4
  11  -1   0 1837.65 159.496   3
 -11  -1   0 1903.66 164.443   3
 -11  -1   0 1915.29 147.156   1
 -11  -1   0 1760.43 132.743   2
 -11  -1   0 1892.65 126.921   4
  11  -1   1 6842.75 316.378   3
 -11  -1  -1 6617.71 315.029   3
  11  -1   1 6984.09 315.106   1
 -11  -1  -1 7270.45 325.646   2
 -11  -1  -1 7448.69 333.729   1
 -11  -1  -2 20262.7 651.449   3
  11  -1   2 21504.6 715.786   1
 -11  -1  -2 21481.5 712.951   2
 -11  -1  -2 20750.2 716.519   1
 -11  -1  -3 1373.03 110.867   3
 -11  -1  -3 1678.89 174.151   2
 -11  -1  -3 1309.90 160.556   1
  11  -1   3 1482.80 163.201   1
 -11  -1  -4 5784.08 206.843   3
 -11  -1  -4 5775.64 364.917   1
 -11  -1  -5 9581.61 522.852   1
 -11  -1  -6 443.383 135.465   1
 -11  -1  -7 3990.91 378.716   1
 -11  -1  -7 3924.56 300.705   4
  11   1  -7 7515.27 526.626   4
  11   1  -7 8099.58 476.611   2
  11   1  -6 3016.20 301.130   4
  11   1  -6 2999.31 254.293   2
 -11   1   5 2550.97 152.155   1
 -11   1   5 2387.23 258.111   5
  11   1  -5 2595.20 218.319   2
  11   1  -5 2693.86 256.470   4
 -11   1   4 11934.6 361.397   1
 -11   1   4 11598.5 572.096   5
  11   1  -4 11872.5 478.064   2
 -11   1   3 3705.70 280.006   5
 -11   1   3 3845.48 137.517   1
  11   1  -3 3675.42 216.291   2
 -11   1   2 4004.40 145.718   1
  11   1  -2 3876.23 204.495   2
 -11   1   2 4176.18 281.371   5
 -11   1   2 4097.76 143.104   1
 -11   1   1 19389.4 701.867   3
  11   1  -1 19590.8 590.829   2
 -11   1   1 20950.1 553.500   1
 -11   1   1 18739.3 702.435   5
 -11   1   0 1880.90 166.757   3
  11   1   0 1786.71 127.280   2
 -11   1   0 1910.43 126.241   1
 -11   1   0 1831.37 95.3883   2
 -11   1  -1 7176.82 332.093   3
 -11   1  -1 7259.11 312.598   1
 -11   1  -1 7254.89 285.121   2
 -11   1  -2 21006.7 699.943   1
 -11   1  -2 20823.6 657.580   3
 -11   1  -3 1436.71 160.521   1
  11   1   3 1336.12 163.597   1
 -11   1  -3 1480.36 75.9106   4
 -11   1  -4 5808.24 239.322   4
 -11   1  -4 5886.41 362.782   1
 -11   1  -5 10087.3 552.964   1
 -11   1  -5 12227.1 442.883   4
 -11   1  -6 426.746 123.773   1
 -11   1  -6 571.471 93.7613   4
 -11   1  -7 3259.00 345.502   1
  11   3  -8 677.453 166.042   2
  11   3  -7 6609.11 461.151   2
  11   3  -6 4461.45 347.172   2
  11   3  -5 1509.44 188.066   2
  11   3  -4 10798.3 502.768   2
  11   3  -3 1190.62 142.106   2
 -11   3   3 1052.83 154.469   5
 -11   3   2 2417.49 220.190   3
  11   3  -2 2312.14 189.887   2
 -11   3   2 2431.77 212.010   5
  11   3  -1 15182.2 564.789   2
 -11   3   1 16079.4 595.836   5
 -11   3   0 3739.85 232.534   5
 -11   3   0 3067.85 106.079   2
  11   3   0 3147.29 214.847   2
 -11   3   0 2881.45 106.632   2
 -11   3   0 3436.15 165.817   1
  11   3   1 10496.1 448.260   2
 -11   3  -1 10926.8 440.328   5
 -11   3  -1 10540.8 407.273   1
 -11   3  -1 10999.8 362.908   2
 -11   3  -2 10577.8 442.207   1
 -11   3  -3 1205.26 149.932   1
 -11   3  -4 5622.73 363.058   1
 -11   3  -5 11698.8 598.001   1
 -11   3  -6 236.711 110.260   1
 -11   3  -7 2477.44 303.007   1
  11   5  -7 5525.33 456.037   2
  11   5  -6 2820.65 303.100   2
  11   5  -5 2252.63 251.448   2
  11   5  -4 8556.59 483.529   2
  11   5  -3 2076.38 219.024   2
  11   5  -2 3580.49 282.662   2
 -11   5   2 3647.02 269.114   5
  11   5  -1 12859.7 571.396   2
 -11   5   1 13547.2 539.204   5
  11   5   0 3163.22 252.432   2
 -11   5   0 3296.67 167.289   2
 -11   5   0 3440.15 221.869   5
 -11   5  -1 4230.22 245.423   1
  11   5   1 4135.28 294.086   2
 -11   5  -1 4218.98 232.039   5
 -11   5  -1 4166.50 225.325   2
  11   5   2 10263.1 506.091   2
 -11   5  -2 9734.12 447.309   1
 -11   5  -2 10579.1 389.829   5
 -11   5  -2 9682.07 421.706   2
 -11   5  -3 1155.70 145.435   2
 -11   5  -3 1387.94 168.977   1
 -11   5  -4 5091.39 355.612   1
 -11   5  -4 4470.45 318.512   2
 -11   5  -5 4986.07 369.590   2
 -11   5  -5 5769.86 414.236   1
 -11   5  -6 356.612 122.507   1
  11   7  -6 1715.55 268.359   2
  11   7  -5 1478.92 233.450   2
  11   7  -4 5411.74 422.762   2
  11   7  -3 2290.42 262.697   2
  11   7  -2 1751.96 227.848   2
 -11   7   1 5872.15 274.900   2
  11   7  -1 6649.75 430.209   2
  11   7   0 575.369 138.969   2
 -11   7   0 393.160 80.2362   2
  11   7   1 3467.88 305.259   2
 -11   7  -1 3150.93 228.439   2
  11   7   2 9654.31 538.545   2
 -11   7  -2 9224.09 452.925   2
 -11   7  -3 552.305 121.692   2
 -11   7  -4 3595.11 309.886   2
 -11   7  -5 4882.69 402.790   1
 -11   7  -5 4696.24 378.609   2
 -11   7  -6 336.436 123.939   2
  11   9  -4 4310.82 425.027   2
  11   9  -3 848.517 198.212   2
  11   9  -2 1491.98 238.237   2
 -11   9   1 5176.67 310.106   2
  11   9  -1 5827.07 457.651   2
  11   9   0 1059.59 195.324   2
 -11   9   0 1360.25 164.441   2
  11   9   1 1943.86 256.272   2
 -11   9  -1 1547.04 186.498   2
  11   9   2 4850.71 418.821   2
 -11   9  -2 4253.28 331.291   2
  11   9   3 427.670 140.232   2
 -11   9  -3 597.750 141.009   2
 -11   9  -4 1677.16 235.680   2
 -11   9  -5 2885.44 325.349   2
  11  11   0 910.643 208.782   2
 -11  11  -3 67.1729 97.5067   2
  12 -10  -2 853.699 193.021   3
 -12 -10   2 461.440 128.269   5
  12 -10  -1 1141.18 211.356   3
  12 -10   0 4025.09 383.302   3
  12 -10   1 394.078 131.675   3
 -12 -10  -2 872.461 195.055   1
  12 -10   2 937.081 184.147   3
  12 -10   3 1951.73 255.076   3
  12  -8  -5 905.954 196.812   3
 -12  -8   5 816.802 160.514   5
  12  -8  -4 881.401 190.594   3
 -12  -8   4 573.754 133.703   5
  12  -8  -3 4870.60 407.772   3
 -12  -8   3 4246.57 345.625   5
  12  -8  -2 1370.93 211.970   3
 -12  -8   2 1195.01 182.635   5
  12  -8  -1 1710.56 228.565   3
  12  -8   0 5844.14 417.075   3
  12  -8   1 492.889 131.221   3
  12  -8   2 2191.09 241.883   3
 -12  -8  -2 2154.91 269.044   1
  12  -8   3 4261.07 326.842   3
 -12  -8  -3 4006.69 371.784   1
  12  -8   4 495.347 110.517   3
 -12  -8  -4 751.027 179.695   1
  12  -6  -6 5963.81 464.502   3
 -12  -6   6 5268.65 411.309   5
  12  -6  -5 1022.31 186.001   3
 -12  -6   5 810.176 153.975   5
  12  -6  -4 943.427 181.984   3
 -12  -6   4 1102.36 171.985   5
  12  -6  -3 8118.64 495.111   3
 -12  -6   3 7665.92 458.377   5
  12  -6  -2 3180.43 290.891   3
 -12  -6   2 2863.95 268.280   5
  12  -6  -1 4132.88 322.730   3
  12  -6  -1 4236.57 169.701   1
  12  -6   0 5980.36 383.491   3
  12  -6   0 5960.76 268.349   1
  12  -6   1 1148.36 125.248   1
  12  -6   1 965.805 147.922   3
  12  -6   2 2462.64 224.253   3
  12  -6   2 2026.70 190.479   1
 -12  -6  -2 2268.80 249.615   1
  12  -6   2 2164.15 106.394   4
 -12  -6  -3 8218.58 496.856   1
  12  -6   3 8477.74 427.177   3
  12  -6   4 123.469 59.0403   3
 -12  -6  -4 132.373 98.1779   1
 -12  -6  -5 4064.06 371.457   1
  12  -4  -6 6564.34 460.822   3
 -12  -4   6 6194.94 455.664   5
  12  -4  -6 7258.07 491.421   4
  12  -4  -5 2888.08 285.192   3
 -12  -4   5 2997.27 291.412   5
  12  -4  -5 3163.03 288.890   4
  12  -4  -4 1215.29 182.281   3
 -12  -4   4 1270.40 182.788   5
  12  -4  -3 7711.10 447.179   3
 -12  -4   3 7138.85 431.358   5
  12  -4  -2 1068.83 156.587   3
 -12  -4   2 826.676 122.110   2
 -12  -4   2 933.415 151.547   5
  12  -4  -1 4928.80 323.017   3
 -12  -4   1 4298.46 285.717   2
  12  -4   0 19670.8 733.262   3
 -12  -4   0 19382.5 730.414   2
  12  -4   0 19920.6 589.510   1
  12  -4   1 1306.83 154.026   3
 -12  -4  -1 1467.40 176.324   1
 -12  -4  -1 1786.66 191.483   2
  12  -4   2 2870.78 213.229   3
 -12  -4  -2 2368.70 227.898   1
  12  -4   2 2600.52 204.098   1
  12  -4   3 8288.32 373.528   3
 -12  -4  -3 7838.78 450.092   1
 -12  -4  -4 341.609 103.795   1
  12  -4   4 378.956 70.5871   3
 -12  -4  -5 5212.38 401.114   1
 -12  -4  -6 5496.89 436.174   1
  12  -2  -7 1137.96 207.906   4
 -12  -2   6 7337.33 500.202   5
  12  -2  -6 8689.66 530.508   4
  12  -2  -6 7841.18 393.642   2
 -12  -2   5 4184.25 346.070   5
 -12  -2   5 4474.11 281.371   1
  12  -2  -5 4391.73 337.671   4
  12  -2  -5 4444.86 247.267   2
  12  -2  -4 2827.19 258.175   3
 -12  -2   4 2925.63 210.981   1
 -12  -2   4 2817.09 265.151   5
  12  -2  -4 3008.59 164.498   2
  12  -2  -4 2854.36 242.985   4
  12  -2  -3 11957.9 551.062   3
  12  -2  -3 11814.7 319.478   2
  12  -2  -3 11516.6 321.198   2
 -12  -2   3 11401.9 555.091   5
  12  -2  -3 12540.1 509.476   4
  12  -2  -2 4590.35 307.582   3
 -12  -2   2 4060.67 302.256   5
  12  -2  -2 4702.76 253.555   4
 -12  -2   2 4896.73 286.952   4
 -12  -2   2 4531.41 238.989   2
 -12  -2   1 3842.79 263.328   3
  12  -2  -1 3510.85 251.030   3
 -12  -2   1 3081.39 198.161   2
  12  -2  -1 3534.16 181.993   4
 -12  -2   1 3514.02 221.255   4
 -12  -2   0 14709.1 558.888   3
  12  -2   0 14600.0 553.387   3
 -12  -2   0 12000.3 502.582   1
 -12  -2   0 13972.2 511.448   2
 -12  -2  -1 2130.70 177.659   3
  12  -2   1 2192.74 178.533   3
 -12  -2  -1 2131.42 183.985   1
 -12  -2  -1 2204.41 182.525   2
  12  -2   2 3216.71 206.776   3
 -12  -2  -2 3388.58 213.622   3
 -12  -2  -2 3862.46 264.919   2
 -12  -2  -2 3157.14 240.354   1
  12  -2   2 3647.46 239.100   1
 -12  -2  -3 8537.34 349.736   3
 -12  -2  -3 9510.49 466.402   2
 -12  -2  -3 8211.40 437.139   1
 -12  -2  -4 312.140 54.0319   3
 -12  -2  -4 288.084 95.7502   1
 -12  -2  -5 7111.20 456.192   1
 -12  -2  -6 6835.38 477.004   1
  12   0  -7 496.790 143.195   4
  12   0  -6 9532.58 463.099   2
  12   0  -6 8784.03 539.408   4
 -12   0   5 996.018 103.610   1
  12   0  -5 867.634 125.733   2
 -12   0   5 896.607 167.744   5
  12   0  -5 891.751 152.642   4
  12   0  -4 1455.44 132.797   2
 -12   0   4 1201.54 179.114   5
 -12   0   4 1355.63 109.556   1
  12   0  -4 1441.61 171.652   4
 -12   0   3 16187.1 490.237   1
  12   0  -3 15941.5 506.294   2
 -12   0   3 16162.6 679.035   5
  12   0  -3 15537.7 606.640   4
 -12   0   2 3754.86 270.657   3
  12   0  -2 3429.39 155.732   2
 -12   0   2 3322.82 261.083   5
 -12   0   1 7665.53 295.294   1
 -12   0   1 8006.25 397.032   3
 -12   0   1 7244.54 391.991   5
 -12   0   1 7598.22 247.906   2
 -12   0   0 14335.7 548.290   3
 -12   0   0 13511.9 435.129   2
 -12   0   0 13971.8 474.619   1
 -12   0  -1 2682.67 195.104   3
 -12   0  -1 2980.80 182.513   2
 -12   0  -1 2888.43 194.039   1
 -12   0  -1 2740.77 117.346   4
 -12   0  -2 7514.35 331.179   3
 -12   0  -2 6700.05 351.509   1
 -12   0  -2 7834.83 355.670   2
  12   0   2 7676.20 385.241   1
 -12   0  -3 15254.9 507.337   3
 -12   0  -3 14875.6 614.124   1
 -12   0  -3 16705.4 625.857   2
 -12   0  -4 677.552 132.241   1
 -12   0  -5 3872.13 321.604   1
 -12   0  -5 4023.36 230.708   4
 -12   0  -6 5910.79 432.448   1
 -12   0  -6 5924.84 322.699   4
 -12   0  -7 310.490 131.520   1
  12   2  -7 1269.18 195.576   2
  12   2  -6 8231.58 464.625   2
  12   2  -5 4199.73 294.883   2
  12   2  -4 3101.58 231.330   2
 -12   2   4 3413.21 297.195   5
 -12   2   3 12562.1 583.614   5
  12   2  -3 12351.9 488.633   2
  12   2  -2 4278.34 242.973   2
 -12   2   2 4312.42 295.935   5
 -12   2   1 3525.17 259.652   3
 -12   2   1 3396.42 251.667   5
  12   2  -1 3297.14 207.627   2
 -12   2   1 3656.48 143.081   1
 -12   2   0 14212.3 567.461   3
  12   2   0 13809.6 497.559   2
 -12   2   0 14514.6 568.308   5
 -12   2   0 14209.9 453.118   1
 -12   2  -1 2100.36 181.270   3
 -12   2  -1 2270.71 137.729   2
 -12   2  -1 2723.24 183.677   1
 -12   2  -2 3487.74 230.538   1
 -12   2  -3 8077.77 411.165   1
 -12   2  -4 163.462 74.2624   1
 -12   2  -5 8022.85 484.127   1
 -12   2  -6 6183.61 452.708   1
  12   4  -7 982.764 192.612   2
  12   4  -6 7221.16 471.755   2
  12   4  -5 3161.28 284.055   2
  12   4  -4 1556.90 190.077   2
  12   4  -3 8247.50 435.287   2
 -12   4   3 8131.83 456.397   5
  12   4  -2 952.534 138.294   2
 -12   4   2 958.923 139.455   5
  12   4  -1 5357.37 317.580   2
 -12   4   1 4429.70 286.749   5
 -12   4   0 19078.4 567.591   1
  12   4   0 20269.3 705.172   2
 -12   4   0 17792.6 480.111   2
 -12   4   0 20335.1 678.494   5
  12   4   1 1596.29 170.368   2
 -12   4  -1 1819.45 149.931   1
 -12   4  -1 1646.73 157.405   5
 -12   4  -1 1525.09 116.567   2
 -12   4  -2 2519.46 200.244   1
 -12   4  -2 2592.26 191.719   5
 -12   4  -2 1987.36 164.157   2
 -12   4  -3 8202.22 429.377   1
 -12   4  -4 342.249 104.081   1
 -12   4  -5 4911.91 377.644   1
 -12   4  -6 6046.09 457.645   1
  12   6  -6 5825.40 467.039   2
  12   6  -5 1100.31 193.955   2
  12   6  -4 1158.56 188.087   2
  12   6  -3 8312.27 491.393   2
  12   6  -2 3692.30 308.856   2
  12   6  -1 4299.68 328.209   2
 -12   6   1 4428.91 288.548   5
  12   6   0 5591.72 376.772   2
 -12   6   0 5825.89 254.693   2
 -12   6   0 5850.20 310.668   5
  12   6   1 1286.72 176.900   2
 -12   6  -1 1224.26 126.204   2
 -12   6  -1 1296.91 128.783   5
  12   6   2 2440.48 259.094   2
 -12   6  -2 2157.21 203.556   1
 -12   6  -2 2352.68 159.253   5
 -12   6  -2 2366.73 196.760   2
 -12   6  -3 8501.10 459.690   1
 -12   6  -3 8316.97 320.168   5
 -12   6  -3 8157.86 428.933   2
 -12   6  -4 285.580 97.3773   2
 -12   6  -4 126.553 83.8802   1
 -12   6  -5 3573.02 336.356   1
 -12   6  -5 3183.76 301.720   2
 -12   6  -6 3741.49 371.910   1
 -12   6  -6 4137.03 370.695   2
  12   8  -5 629.496 178.534   2
  12   8  -4 1075.48 207.316   2
  12   8  -3 5346.90 434.188   2
  12   8  -2 1395.26 216.435   2
 -12   8   1 1687.91 149.443   2
  12   8  -1 2567.10 299.276   2
  12   8   0 5825.91 424.713   2
 -12   8   0 5126.82 291.186   2
  12   8   1 498.478 145.302   2
 -12   8  -1 612.033 109.956   2
  12   8   2 2318.97 289.995   2
 -12   8  -2 2218.66 222.339   2
 -12   8  -3 5024.31 360.343   2
 -12   8  -4 490.184 128.283   2
 -12   8  -5 1868.24 254.880   2
  12  10  -3 2644.84 340.969   2
  12  10  -2 769.017 194.168   2
  12  10  -1 1451.30 253.568   2
  12  10   0 5473.73 483.782   2
  12  10   1 339.611 142.222   2
  12  10   2 1205.21 245.694   2
 -12  10  -2 1005.23 180.644   2
 -12  10  -3 1684.46 235.865   2
 -12  10  -4 420.679 137.730   2
  13 -11   2 427.452 157.401   3
 -13  -9   4 827.575 169.235   5
  13  -9  -3 979.998 207.279   3
 -13  -9   3 890.948 172.478   5
  13  -9  -2 2903.35 331.166   3
 -13  -9   2 2851.13 294.104   5
  13  -9  -1 741.834 165.852   3
  13  -9   0 1592.74 234.689   3
  13  -9   1 3827.59 353.904   3
  13  -9   2 174.966 96.4744   3
 -13  -9  -2 133.964 102.158   1
  13  -9   3 1921.69 241.759   3
 -13  -9  -3 1690.49 261.614   1
 -13  -7   6 537.678 155.740   5
  13  -7  -5 3713.72 374.030   3
 -13  -7   5 3311.91 319.848   5
  13  -7  -4 826.725 176.623   3
 -13  -7   4 654.172 141.505   5
  13  -7  -3 1561.47 226.795   3
 -13  -7   3 1062.18 180.916   5
  13  -7  -2 9634.42 557.590   3
 -13  -7   2 8206.31 504.408   5
  13  -7  -1 1857.12 235.545   3
  13  -7   0 2675.26 273.434   3
  13  -7   1 4513.03 343.806   3
  13  -7   1 4879.03 284.357   1
 -13  -7  -2 661.857 148.704   1
  13  -7   2 647.458 132.215   3
 -13  -7  -3 2785.69 298.533   1
  13  -7   3 2834.16 253.284   3
  13  -7   4 6049.26 359.449   3
 -13  -7  -4 5249.22 431.455   1
  13  -5  -6 1303.60 215.040   4
  13  -5  -6 1404.23 220.815   3
 -13  -5   6 1244.00 217.005   5
  13  -5  -5 5649.65 431.345   3
 -13  -5   5 5241.61 402.974   5
  13  -5  -4 2039.21 244.872   3
 -13  -5   4 1654.73 214.172   5
  13  -5  -3 1202.18 187.911   3
 -13  -5   3 993.693 165.694   5
  13  -5  -2 7867.04 461.987   3
 -13  -5   2 7361.48 450.449   5
  13  -5  -1 1329.01 177.877   3
 -13  -5   1 1168.11 166.006   2
  13  -5   0 5735.48 365.018   3
  13  -5   0 5689.65 249.991   1
  13  -5   1 7895.74 419.427   3
 -13  -5  -1 7079.01 431.701   1
  13  -5   2 1379.27 162.692   3
  13  -5   2 1310.26 151.410   1
 -13  -5  -2 1270.71 182.396   1
  13  -5   3 4400.24 282.340   3
 -13  -5  -3 5147.77 372.377   1
  13  -5   4 6894.59 342.330   3
 -13  -5  -4 6956.10 467.586   1
 -13  -5  -5 303.553 122.290   1
 -13  -3   6 1226.54 208.652   5
  13  -3  -6 1132.24 195.754   4
  13  -3  -5 7703.75 484.915   3
 -13  -3   5 7424.67 487.114   5
  13  -3  -5 8128.92 481.099   4
  13  -3  -4 2887.99 279.007   3
 -13  -3   4 2816.77 230.490   1
 -13  -3   4 2428.45 257.215   5
  13  -3  -4 3039.42 137.075   2
  13  -3  -4 2783.68 248.572   4
  13  -3  -3 3061.68 269.847   3
 -13  -3   3 2614.51 259.834   5
  13  -3  -3 3037.10 230.322   4
  13  -3  -2 11365.4 533.391   3
 -13  -3   2 9712.65 520.792   5
 -13  -3   2 11219.4 498.749   4
 -13  -3   2 10270.6 437.597   2
  13  -3  -2 10272.3 423.599   4
  13  -3  -1 2209.37 215.365   3
 -13  -3   1 2521.45 195.923   2
 -13  -3   1 2722.82 210.132   4
  13  -3  -1 2260.83 148.440   4
  13  -3   0 7169.64 376.848   3
 -13  -3   0 6833.74 355.635   2
  13  -3   0 6612.54 277.370   1
 -13  -3   0 5371.60 327.360   1
  13  -3   1 16392.8 619.527   3
 -13  -3  -1 15838.9 635.333   1
 -13  -3  -1 16762.9 650.003   2
 -13  -3  -2 1540.61 153.420   3
  13  -3   2 1461.13 151.044   3
 -13  -3  -2 1796.65 197.727   2
  13  -3   2 1453.72 153.365   1
 -13  -3  -2 1554.09 175.953   1
 -13  -3  -3 3012.77 206.075   3
  13  -3   3 3092.69 204.156   3
 -13  -3  -3 3254.78 273.339   1
 -13  -3  -4 7568.51 325.902   3
 -13  -3  -4 7822.37 466.329   1
 -13  -3  -5 700.489 160.497   1
 -13  -3  -6 4635.38 400.771   1
  13  -1  -7 2526.60 301.399   4
 -13  -1   6 1122.41 200.088   5
  13  -1  -6 1239.60 202.225   4
 -13  -1   5 7788.13 499.360   5
  13  -1  -5 7943.37 362.604   2
  13  -1  -5 8944.24 494.359   4
 -13  -1   4 1570.26 136.350   1
 -13  -1   4 1661.92 208.254   5
  13  -1  -4 1361.32 115.517   2
  13  -1  -4 1599.64 185.745   4
 -13  -1   3 1618.80 136.695   1
  13  -1  -3 1935.11 101.518   2
 -13  -1   3 1933.45 214.712   5
  13  -1  -3 1831.44 177.461   4
 -13  -1   2 17928.8 732.450   5
  13  -1  -2 18343.0 618.653   4
 -13  -1   1 2068.62 198.759   3
 -13  -1   1 2168.74 160.714   1
 -13  -1   1 2140.78 217.143   5
 -13  -1   1 2042.38 135.567   2
 -13  -1   1 2216.13 164.232   4
 -13  -1   0 6745.54 318.838   1
 -13  -1   0 7199.85 366.858   3
 -13  -1   0 6664.93 281.573   4
 -13  -1   0 6519.70 295.710   2
 -13  -1  -1 10891.1 466.360   3
 -13  -1  -1 11408.0 451.930   2
 -13  -1  -1 11263.8 462.514   1
 -13  -1  -2 1223.39 128.952   3
  13  -1   2 1312.81 150.335   1
 -13  -1  -2 1445.42 153.419   2
 -13  -1  -2 1047.79 134.357   1
 -13  -1  -3 6045.72 287.393   3
 -13  -1  -3 6266.84 371.812   1
 -13  -1  -3 7134.19 384.922   2
 -13  -1  -4 14024.8 451.598   3
 -13  -1  -4 14812.8 652.340   1
 -13  -1  -5 517.096 138.209   1
 -13  -1  -6 3020.19 315.281   1
  13   1  -6 1262.28 173.599   2
  13   1  -5 8504.53 413.532   2
 -13   1   5 7791.11 506.114   5
 -13   1   4 1582.00 77.1118   1
  13   1  -4 1541.65 148.690   2
 -13   1   4 1392.02 195.381   5
  13   1  -3 1805.12 145.912   2
 -13   1   3 2082.98 221.810   5
 -13   1   3 1874.59 78.0977   1
 -13   1   3 1968.01 79.9056   1
  13   1  -2 18034.5 574.875   2
 -13   1   2 18985.4 500.068   1
 -13   1   2 18100.8 729.446   5
 -13   1   1 2204.54 206.239   3
  13   1  -1 1848.25 128.131   2
 -13   1   1 2002.26 120.399   1
 -13   1   1 2136.58 203.944   5
 -13   1   0 6795.52 361.961   3
 -13   1   0 6689.11 283.882   1
 -13   1   0 6259.84 220.715   2
 -13   1   0 6890.70 375.806   5
 -13   1  -1 11387.6 475.674   3
 -13   1  -1 10330.5 427.847   1
 -13   1  -1 11598.2 400.959   2
 -13   1  -2 1087.39 132.250   1
 -13   1  -2 1233.23 130.995   3
 -13   1  -2 1578.86 141.198   2
 -13   1  -3 6189.67 360.137   1
 -13   1  -4 14832.3 651.397   1
 -13   1  -5 330.578 113.121   1
 -13   1  -5 268.214 55.4822   4
 -13   1  -6 3036.76 315.826   1
  13   3  -7 1881.90 244.870   2
  13   3  -6 1239.76 184.738   2
  13   3  -5 7444.78 430.644   2
  13   3  -4 3146.28 255.122   2
 -13   3   4 3155.71 296.698   5
  13   3  -3 2971.68 233.122   2
 -13   3   3 3459.33 291.021   5
  13   3  -2 11142.7 472.848   2
 -13   3   2 10315.3 510.218   5
  13   3  -1 2345.88 189.879   2
 -13   3   1 2444.31 215.334   5
  13   3   0 7003.38 347.619   2
 -13   3   0 7198.10 285.617   1
 -13   3   0 7342.49 380.622   5
 -13   3  -1 16053.4 613.183   5
 -13   3  -1 15999.9 555.783   1
 -13   3  -1 16176.5 488.704   2
 -13   3  -2 1715.69 165.444   1
 -13   3  -3 3036.21 246.961   1
 -13   3  -4 8274.48 466.646   1
 -13   3  -5 397.531 126.086   1
 -13   3  -6 5083.08 420.252   1
  13   5  -7 2480.28 307.124   2
  13   5  -6 1320.21 213.199   2
  13   5  -5 4995.90 383.632   2
  13   5  -4 2256.18 247.374   2
  13   5  -3 1544.51 195.932   2
  13   5  -2 8591.16 462.121   2
 -13   5   2 8246.69 449.496   5
  13   5  -1 1371.30 174.935   2
 -13   5   1 1455.83 169.610   5
  13   5   0 5115.94 334.239   2
 -13   5   0 5082.84 182.723   2
 -13   5   0 5907.17 321.393   5
  13   5   1 7976.77 432.919   2
 -13   5  -1 7322.11 347.962   1
 -13   5  -1 7370.52 360.493   5
 -13   5  -1 7811.64 317.661   2
 -13   5  -2 1197.13 149.830   1
 -13   5  -2 1233.82 132.849   5
 -13   5  -2 1606.62 149.729   2
 -13   5  -3 4908.08 331.051   1
 -13   5  -3 5008.89 270.716   5
 -13   5  -3 4605.62 295.897   2
 -13   5  -4 7055.82 444.036   1
 -13   5  -4 7109.15 410.720   2
 -13   5  -5 166.890 76.9716   2
 -13   5  -5 304.296 113.537   1
 -13   5  -6 2605.88 290.614   2
 -13   5  -6 2607.49 306.763   1
  13   7  -6 824.303 200.649   2
  13   7  -5 3177.76 341.045   2
  13   7  -4 781.216 165.473   2
  13   7  -3 1643.08 233.917   2
  13   7  -2 9134.53 536.926   2
  13   7  -1 1804.45 225.337   2
  13   7   0 2973.55 285.424   2
 -13   7   0 2432.49 165.040   2
  13   7   1 4464.38 363.234   2
 -13   7  -1 5113.46 288.060   2
 -13   7  -1 5483.62 279.633   5
  13   7   2 660.129 147.797   2
 -13   7  -2 801.903 124.829   2
 -13   7  -2 705.159 85.2998   5
 -13   7  -3 2621.63 246.577   2
 -13   7  -4 5196.43 393.269   1
 -13   7  -4 5592.14 390.633   2
 -13   7  -5 363.476 118.448   2
 -13   7  -5 217.878 92.6823   1
 -13   7  -6 1077.34 204.798   2
  13   9  -4 780.299 195.733   2
  13   9  -3 924.099 198.829   2
  13   9  -2 4208.41 400.906   2
  13   9  -1 742.418 176.465   2
  13   9   0 1752.14 269.592   2
  13   9   1 4630.24 408.895   2
  13   9   2 102.406 81.6980   2
 -13   9  -2 137.771 93.1309   2
 -13   9  -3 1939.91 233.569   2
 -13   9  -4 3810.70 347.943   2
 -13   9  -5 136.692 91.1634   2
 -14 -10   2 1004.13 201.654   5
  14 -10   0 189.991 102.327   3
  14 -10   1 1136.37 209.064   3
  14 -10   2 2419.02 294.181   3
  14 -10   3 165.972 94.5594   3
 -14  -8   5 769.049 170.489   5
 -14  -8   4 2911.57 306.140   5
  14  -8  -3 1084.00 208.665   3
 -14  -8   3 931.631 180.391   5
  14  -8  -2 1866.13 254.528   3
 -14  -8   2 1935.20 248.564   5
  14  -8  -1 4568.68 386.473   3
  14  -8   0 1034.12 176.478   3
  14  -8   1 1447.83 209.509   3
  14  -8   2 3337.80 310.087   3
 -14  -8  -2 3415.81 346.770   1
 -14  -8  -3 143.005 115.586   1
  14  -8   3 165.261 86.4897   3
  14  -6  -6 1664.24 246.901   4
 -14  -6   6 1632.08 245.418   5
  14  -6  -5 671.109 167.356   3
 -14  -6   5 813.752 175.588   5
  14  -6  -4 4143.61 373.513   3
 -14  -6   4 3751.74 339.447   5
  14  -6  -3 1249.40 205.334   3
 -14  -6   3 1251.08 195.015   5
  14  -6  -2 2343.07 261.003   3
 -14  -6   2 2048.33 250.261   5
  14  -6  -1 9087.63 520.897   3
  14  -6   0 408.072 112.385   3
  14  -6   0 283.027 56.9659   1
  14  -6   1 1473.63 187.990   3
  14  -6   1 1290.48 137.103   1
 -14  -6  -1 1793.91 223.004   1
  14  -6   2 7271.83 415.182   3
 -14  -6  -2 6366.18 445.576   1
  14  -6   3 619.216 115.831   3
 -14  -6  -3 477.233 135.235   1
 -14  -6  -4 4192.31 376.337   1
 -14  -6  -5 3007.39 333.373   1
 -14  -4   6 1535.86 237.284   5
  14  -4  -6 1633.15 240.314   4
  14  -4  -5 1388.91 214.010   3
 -14  -4   5 1141.56 194.600   5
  14  -4  -5 975.214 176.309   4
  14  -4  -4 8560.14 520.271   3
 -14  -4   4 8387.87 515.638   5
  14  -4  -4 9249.06 484.053   4
  14  -4  -3 2573.62 267.002   3
 -14  -4   3 2481.37 262.792   5
  14  -4  -3 2609.32 220.054   4
  14  -4  -2 3470.44 295.336   3
 -14  -4   2 2883.27 279.615   5
 -14  -4   2 2968.18 236.168   2
  14  -4  -2 3243.45 217.519   4
  14  -4  -1 6572.00 405.263   3
 -14  -4   1 6673.63 379.346   2
 -14  -4   1 6927.26 382.148   4
  14  -4  -1 7153.58 294.735   4
  14  -4   0 3499.34 275.461   3
  14  -4   0 3106.10 178.848   1
 -14  -4   0 3120.15 253.762   2
  14  -4   1 3663.95 273.029   3
 -14  -4  -1 3763.99 288.694   1
 -14  -4  -1 4039.72 304.331   2
 -14  -4  -2 6971.32 420.189   1
  14  -4   2 7445.62 386.462   3
  14  -4   2 7574.06 383.836   1
  14  -4   3 162.272 56.9543   3
 -14  -4  -3 305.099 106.543   1
  14  -4   4 3763.38 230.274   3
 -14  -4  -4 4314.83 352.773   1
 -14  -4  -5 5180.59 416.535   1
 -14  -2   6 2444.46 299.077   5
  14  -2  -6 2660.44 290.769   4
 -14  -2   5 991.163 185.306   5
  14  -2  -5 884.821 158.353   4
 -14  -2   4 8302.34 396.659   1
  14  -2  -4 8775.55 280.257   2
 -14  -2   4 8800.45 519.352   5
  14  -2  -4 8951.00 470.334   4
  14  -2  -3 1279.43 181.066   3
 -14  -2   3 1343.02 194.418   5
  14  -2  -3 1432.15 157.955   4
  14  -2  -2 3398.93 280.450   3
 -14  -2   2 3648.79 302.423   5
  14  -2  -2 3708.67 228.056   4
 -14  -2   2 4086.24 270.709   4
  14  -2  -1 13965.1 600.937   3
 -14  -2   1 13384.2 498.788   2
 -14  -2   1 14330.7 535.758   4
 -14  -2   0 1352.95 159.794   3
  14  -2   0 1168.36 151.969   3
 -14  -2   0 1378.04 141.062   2
 -14  -2   0 995.453 128.385   1
 -14  -2   0 1426.10 131.821   4
  14  -2   1 4172.86 270.185   3
 -14  -2  -1 3725.36 261.601   3
 -14  -2  -1 4190.34 271.856   2
 -14  -2  -1 4361.32 278.303   1
 -14  -2  -2 12598.7 507.104   3
  14  -2   2 12641.1 531.675   1
 -14  -2  -2 13123.5 560.679   2
 -14  -2  -2 11826.7 540.292   1
 -14  -2  -3 475.018 112.014   1
 -14  -2  -3 379.814 75.1551   3
 -14  -2  -4 4637.37 351.280   1
 -14  -2  -5 7615.88 491.794   1
 -14  -2  -6 178.223 109.444   1
  14   0  -6 3058.32 317.327   4
  14   0  -5 3628.58 241.518   2
 -14   0   5 3466.31 337.219   5
  14   0  -5 3307.88 299.812   4
  14   0  -4 7826.87 334.855   2
 -14   0   4 7395.28 473.392   5
 -14   0   4 7921.39 296.029   1
 -14   0   3 3468.58 173.429   1
  14   0  -3 3193.58 167.464   2
 -14   0   3 3139.79 284.823   5
 -14   0   2 2295.10 141.728   1
  14   0  -2 2181.62 109.027   2
 -14   0   2 2110.74 224.123   5
 -14   0   1 17884.0 732.635   5
 -14   0   1 18333.5 574.148   1
 -14   0   0 1550.65 169.499   3
 -14   0   0 1688.93 143.853   1
 -14   0   0 1641.76 118.271   2
 -14   0  -1 1916.96 178.952   3
 -14   0  -1 1736.35 161.474   1
 -14   0  -1 1847.05 149.230   2
 -14   0  -2 7255.70 359.545   3
 -14   0  -2 7812.98 393.801   1
 -14   0  -2 8473.71 384.791   2
 -14   0  -3 377.682 92.1648   2
 -14   0  -3 354.964 69.8225   3
 -14   0  -3 261.098 88.6912   1
 -14   0  -4 8460.69 475.663   1
 -14   0  -4 8619.09 295.431   4
 -14   0  -5 6444.04 436.553   1
 -14   0  -6 487.749 142.721   1
  14   2  -6 2449.85 250.757   2
  14   2  -5 1091.50 155.550   2
 -14   2   5 1315.67 215.006   5
  14   2  -4 9125.49 433.377   2
 -14   2   4 9748.96 554.202   5
  14   2  -3 1377.76 141.595   2
 -14   2   3 1362.14 189.708   5
  14   2  -2 3791.85 227.276   2
 -14   2   2 3689.43 292.381   5
  14   2  -1 13537.6 501.366   2
 -14   2   1 14210.7 613.634   5
 -14   2   1 14454.4 418.815   1
 -14   2   0 1220.43 157.733   3
  14   2   0 1001.38 115.868   2
 -14   2   0 1234.87 158.621   5
 -14   2   0 1268.89 108.607   1
 -14   2  -1 3925.11 275.689   3
 -14   2  -1 4612.95 209.624   2
 -14   2  -1 4224.61 243.501   1
 -14   2  -2 12570.9 475.427   2
 -14   2  -2 12297.4 513.441   1
 -14   2  -3 348.549 96.9875   1
 -14   2  -4 4413.03 331.394   1
 -14   2  -5 7471.50 479.660   1
 -14   2  -6 187.432 101.035   1
  14   4  -6 1696.26 227.772   2
  14   4  -5 1203.71 180.002   2
  14   4  -4 9427.94 500.765   2
  14   4  -3 2950.16 250.175   2
 -14   4   3 2774.45 269.904   5
  14   4  -2 4197.90 287.384   2
 -14   4   2 3483.65 287.252   5
  14   4  -1 6337.81 362.353   2
 -14   4   1 6909.32 390.495   5
  14   4   0 3216.33 248.095   2
 -14   4   0 3108.05 176.207   1
 -14   4   0 3801.65 265.974   5
  14   4   1 4130.91 286.525   2
 -14   4  -1 3614.70 229.569   1
 -14   4  -1 4258.26 278.328   5
 -14   4  -1 3995.47 192.551   2
 -14   4  -2 7697.83 397.592   1
 -14   4  -2 7939.85 398.630   5
 -14   4  -2 9079.08 370.324   2
 -14   4  -3 152.402 71.8724   1
 -14   4  -4 4459.68 343.056   1
 -14   4  -5 5567.07 417.348   1
 -14   4  -6 335.718 140.944   1
  14   6  -6 1687.10 259.690   2
  14   6  -5 1042.91 193.045   2
  14   6  -4 4299.76 361.256   2
  14   6  -3 1415.37 200.324   2
  14   6  -2 1932.20 239.006   2
  14   6  -1 9741.44 523.183   2
 -14   6   1 9699.36 481.162   5
  14   6   0 335.265 103.626   2
 -14   6   0 335.096 43.2271   2
 -14   6   0 372.239 91.5170   5
  14   6   1 1463.56 195.492   2
 -14   6  -1 1427.45 130.095   2
 -14   6  -1 1636.00 161.045   5
 -14   6  -2 6624.26 377.502   1
 -14   6  -2 6722.34 327.686   5
 -14   6  -2 7348.49 360.180   2
 -14   6  -3 654.551 117.785   2
 -14   6  -3 392.989 103.837   1
 -14   6  -3 460.351 80.6284   5
 -14   6  -4 3867.76 334.222   1
 -14   6  -4 4236.50 320.000   2
 -14   6  -5 3564.68 346.042   1
 -14   6  -5 4236.01 347.088   2
 -14   6  -6 137.657 76.9952   2
  14   8  -5 837.909 195.619   2
  14   8  -4 3838.36 388.748   2
  14   8  -3 1036.94 197.237   2
  14   8  -2 1880.16 261.850   2
  14   8  -1 5357.79 437.127   2
  14   8   0 1024.19 188.110   2
  14   8   1 1594.07 231.806   2
  14   8   2 3540.35 346.839   2
 -14   8  -2 3595.85 271.756   2
 -14   8  -3 156.643 86.0021   2
 -14   8  -4 2640.92 275.488   2
 -14   8  -5 2870.35 309.689   2
  14  10  -2 1423.59 269.065   2
  14  10  -1 2565.44 336.996   2
  14  10   0 476.071 163.195   2
  14  10   1 1647.31 268.667   2
 -15  -9   4 873.225 181.358   5
 -15  -9   3 3260.15 345.960   5
 -15  -9   2 462.736 143.662   5
  15  -9  -1 1601.46 248.346   3
  15  -9   0 3047.41 325.901   3
  15  -9   1 530.577 145.152   3
  15  -9   2 878.559 178.681   3
  15  -9   3 3041.01 302.386   3
 -15  -7   5 707.474 178.345   5
  15  -7  -4 908.496 194.924   3
 -15  -7   4 705.281 171.828   5
  15  -7  -3 4606.51 406.931   3
 -15  -7   3 4117.14 373.156   5
  15  -7  -2 1511.80 231.134   3
 -15  -7   2 1609.38 229.652   5
  15  -7  -1 1953.34 248.820   3
  15  -7   0 4117.32 350.607   3
  15  -7   1 307.416 109.595   3
 -15  -7  -1 390.037 119.912   1
  15  -7   2 2503.82 254.844   3
 -15  -7  -2 2445.59 285.281   1
 -15  -7  -3 5398.88 435.459   1
  15  -7   3 5828.43 383.693   3
 -15  -7  -4 381.174 128.937   1
 -15  -5   6 3515.47 364.444   5
  15  -5  -6 4094.04 386.085   4
  15  -5  -5 1254.49 216.601   3
 -15  -5   5 1148.05 202.700   5
  15  -5  -5 1107.16 182.740   4
  15  -5  -4 1541.33 226.391   3
 -15  -5   4 1172.74 200.898   5
  15  -5  -4 1488.31 194.614   4
  15  -5  -3 7330.40 488.652   3
 -15  -5   3 7200.54 485.601   5
  15  -5  -3 7893.73 415.525   4
  15  -5  -2 1541.19 215.404   3
 -15  -5   2 1394.69 209.187   5
  15  -5  -2 1373.00 143.775   4
  15  -5  -1 3689.67 316.508   3
  15  -5  -1 4143.91 219.468   4
  15  -5   0 6884.51 428.142   3
  15  -5   0 7488.96 303.715   1
  15  -5   0 6935.96 232.951   4
  15  -5   1 1519.20 189.869   3
 -15  -5  -1 1660.69 208.585   1
  15  -5   1 1640.92 155.571   1
 -15  -5  -2 2904.64 279.583   1
  15  -5   2 2962.83 251.242   3
  15  -5   3 6846.92 381.679   3
 -15  -5  -3 7627.45 480.904   1
 -15  -5  -4 355.903 125.559   1
 -15  -5  -5 2345.54 293.000   1
 -15  -3   6 4850.85 431.689   5
  15  -3  -6 5047.46 411.051   4
 -15  -3   5 2424.44 288.766   5
  15  -3  -5 2587.85 271.997   4
  15  -3  -4 1191.65 193.865   3
 -15  -3   4 964.957 178.611   5
  15  -3  -4 1181.46 165.056   4
  15  -3  -3 10591.8 563.136   3
 -15  -3   3 9055.96 545.748   5
  15  -3  -3 10548.5 478.330   4
  15  -3  -2 775.394 152.195   3
 -15  -3   2 784.901 107.420   2
 -15  -3   2 579.941 134.185   5
  15  -3  -2 855.044 107.502   4
  15  -3  -1 3747.02 296.300   3
 -15  -3   1 3671.67 249.270   2
 -15  -3   1 3739.22 258.844   4
  15  -3   0 7234.54 413.808   3
 -15  -3   0 8017.47 414.703   1
 -15  -3   0 7294.36 387.987   2
 -15  -3   0 8137.15 377.222   4
  15  -3   1 2609.45 227.848   3
 -15  -3  -1 2412.12 223.742   1
 -15  -3  -1 2646.83 230.480   2
  15  -3   2 6302.18 349.625   3
 -15  -3  -2 6244.60 354.133   3
  15  -3   2 6833.29 368.157   1
 -15  -3  -2 7176.38 412.288   1
 -15  -3  -3 8209.80 391.873   3
 -15  -3  -3 8419.37 480.850   1
 -15  -3  -4 385.792 117.526   1
 -15  -3  -5 2559.66 288.780   1
 -15  -1   6 6508.33 501.474   5
  15  -1  -6 6650.37 473.473   4
 -15  -1   5 1412.23 224.385   5
  15  -1  -5 1614.81 213.225   4
 -15  -1   4 2264.72 266.149   5
  15  -1  -4 2301.08 229.075   4
 -15  -1   3 11006.0 425.848   1
 -15  -1   3 11460.4 596.093   5
 -15  -1   2 2062.34 161.069   1
 -15  -1   2 1877.75 220.591   5
 -15  -1   1 4847.14 260.233   1
 -15  -1   1 4460.03 337.999   5
 -15  -1   1 4458.26 215.644   2
 -15  -1   0 10461.1 415.611   2
 -15  -1   0 11622.0 463.718   1
 -15  -1   0 11120.0 404.162   4
 -15  -1  -1 1120.02 142.375   3
 -15  -1  -1 1133.81 132.810   2
 -15  -1  -1 1183.02 145.257   1
 -15  -1  -1 1354.41 104.064   4
 -15  -1  -2 3864.48 257.363   3
 -15  -1  -2 3890.04 277.224   1
 -15  -1  -2 3873.59 271.624   2
 -15  -1  -3 13246.0 505.415   3
 -15  -1  -3 12299.9 585.048   1
 -15  -1  -4 244.749 92.2742   1
 -15  -1  -5 3797.58 341.856   1
 -15  -1  -6 5163.89 429.806   1
 -15   1   5 1316.54 215.893   5
  15   1  -4 1758.39 160.698   2
 -15   1   4 2030.66 251.223   5
  15   1  -3 11135.8 418.160   2
 -15   1   3 10930.7 579.595   5
 -15   1   2 2283.76 112.587   1
  15   1  -2 1939.27 135.305   2
 -15   1   2 1611.93 202.879   5
 -15   1   1 4828.93 217.414   1
  15   1  -1 4851.73 223.738   2
 -15   1   1 4957.64 346.124   5
 -15   1   0 11173.6 544.202   5
 -15   1   0 10833.7 333.127   2
 -15   1  -1 1295.35 160.177   3
 -15   1  -1 1212.18 131.903   1
 -15   1  -1 1628.66 127.795   2
 -15   1  -2 3804.11 265.673   1
 -15   1  -2 4051.45 266.037   3
 -15   1  -2 4012.11 246.053   2
 -15   1  -3 13517.0 608.577   1
 -15   1  -3 14993.1 596.782   2
 -15   1  -4 321.132 99.8209   1
 -15   1  -5 3116.04 306.915   1
 -15   1  -6 4168.34 382.344   1
  15   3  -5 2376.75 239.774   2
  15   3  -4 851.770 136.457   2
 -15   3   4 949.461 178.612   5
  15   3  -3 10289.2 473.128   2
 -15   3   3 10107.9 555.608   5
  15   3  -2 805.197 118.012   2
 -15   3   2 721.734 134.802   5
 -15   3   1 3821.99 144.826   1
  15   3  -1 3675.26 251.284   2
 -15   3   1 4175.91 310.574   5
  15   3   0 7928.23 385.986   2
 -15   3   0 8036.74 321.167   1
 -15   3   0 8276.63 440.087   5
 -15   3  -1 2521.09 142.755   2
 -15   3  -1 2890.79 245.165   5
 -15   3  -1 2556.01 189.110   1
 -15   3  -1 2568.72 141.679   2
 -15   3  -2 6430.71 352.872   1
 -15   3  -3 8362.05 447.899   1
 -15   3  -4 294.165 95.2308   1
 -15   3  -5 3032.27 305.618   1
 -15   3  -6 5966.72 468.553   1
  15   5  -6 4452.73 392.459   2
  15   5  -5 1257.86 205.742   2
  15   5  -4 1967.19 233.079   2
  15   5  -3 7757.90 455.240   2
 -15   5   3 7217.06 468.871   5
  15   5  -2 1387.97 178.797   2
 -15   5   2 1571.46 200.497   5
  15   5  -1 4166.05 316.938   2
 -15   5   1 4451.53 316.578   5
  15   5   0 7098.47 414.143   2
 -15   5   0 7524.46 403.562   5
  15   5   1 1852.22 209.462   2
 -15   5  -1 1634.07 154.792   1
 -15   5  -1 1743.52 124.840   2
 -15   5  -1 1818.96 181.225   5
 -15   5  -2 2939.23 237.836   1
 -15   5  -2 3196.61 238.384   5
 -15   5  -2 3083.82 209.131   2
 -15   5  -3 6168.30 396.517   1
 -15   5  -3 7233.45 368.915   5
 -15   5  -3 7110.91 374.884   2
 -15   5  -4 346.475 98.5001   2
 -15   5  -4 339.913 118.332   1
 -15   5  -5 2615.74 293.130   1
 -15   5  -5 2813.79 276.317   2
 -15   5  -6 3197.77 323.404   2
  15   7  -5 1147.16 215.429   2
  15   7  -4 1083.91 211.742   2
  15   7  -3 4664.45 397.146   2
  15   7  -2 1376.90 205.849   2
  15   7  -1 2199.85 269.707   2
  15   7   0 4239.12 357.900   2
 -15   7   0 3983.76 282.261   5
  15   7   1 317.976 114.723   2
 -15   7  -1 267.718 73.7820   5
  15   7   2 2897.79 302.306   2
 -15   7  -3 6081.55 378.519   2
 -15   7  -4 181.191 87.3927   2
 -15   7  -4 508.367 137.208   1
 -15   7  -5 2051.85 253.984   2
 -15   7  -5 1738.21 252.706   1
  15   9  -3 4053.73 414.171   2
  15   9  -2 719.577 176.830   2
  15   9  -1 1470.98 255.847   2
  15   9   0 3651.07 370.964   2
  15   9   1 449.972 152.386   2
  15   9   2 1713.06 266.162   2
 -16 -10   2 2407.57 310.144   5
  16 -10   2 401.823 136.420   3
 -16  -8   4 875.196 193.946   5
 -16  -8   3 1579.59 246.873   5
  16  -8  -2 4386.09 407.150   3
 -16  -8   2 3610.54 369.084   5
  16  -8  -1 593.919 155.255   3
  16  -8   0 1030.52 187.352   3
  16  -8   1 2829.54 302.580   3
 -16  -8  -1 2850.27 327.854   1
  16  -8   2 178.394 96.2382   3
 -16  -8  -2 247.878 117.608   1
  16  -8   3 2310.82 258.886   3
 -16  -6   5 3353.32 364.707   5
  16  -6  -5 4030.49 356.101   4
  16  -6  -4 829.938 152.820   4
  16  -6  -4 606.606 162.241   3
 -16  -6   4 818.743 182.556   5
  16  -6  -3 1605.94 237.866   3
 -16  -6   3 1652.47 239.293   5
  16  -6  -3 1826.96 194.141   4
  16  -6  -2 6869.02 478.998   3
 -16  -6   2 5862.55 450.781   5
  16  -6  -2 6449.46 341.777   4
  16  -6  -1 1865.49 240.349   3
  16  -6   0 2569.05 266.209   3
  16  -6   1 3698.34 316.238   3
 -16  -6  -1 4002.46 345.605   1
 -16  -6  -2 66.4369 84.2777   1
  16  -6   2 227.457 87.7420   3
  16  -6   3 3318.04 274.092   3
 -16  -6  -3 3026.83 317.142   1
 -16  -6  -4 4762.32 413.480   1
  16  -4  -6 1462.88 232.134   4
  16  -4  -5 4055.00 381.684   3
 -16  -4   5 4061.12 385.268   5
  16  -4  -5 4428.55 361.116   4
  16  -4  -4 2290.51 277.552   3
 -16  -4   4 2335.03 285.463   5
  16  -4  -4 2146.24 230.205   4
  16  -4  -3 2460.31 276.434   3
 -16  -4   3 1904.03 250.044   5
  16  -4  -3 1959.29 192.288   4
  16  -4  -2 7154.72 458.931   3
 -16  -4   2 6634.07 463.505   5
  16  -4  -2 6823.68 337.102   4
 -16  -4   2 6628.07 371.712   2
  16  -4  -1 360.512 107.303   3
 -16  -4   1 325.170 104.992   2
  16  -4  -1 299.015 57.0187   4
  16  -4   0 2592.70 251.239   3
 -16  -4   0 2161.49 221.603   1
 -16  -4   0 2338.10 227.913   2
  16  -4   1 11079.3 531.652   3
 -16  -4  -1 10399.2 533.549   1
  16  -4   1 10892.5 456.729   1
  16  -4   2 537.770 113.354   3
 -16  -4  -2 529.755 131.797   1
  16  -4   3 3333.30 248.280   3
 -16  -4  -3 3279.77 308.422   1
 -16  -4  -4 4502.35 381.534   1
 -16  -4  -5 315.247 117.751   1
 -16  -2   6 1471.08 245.373   5
  16  -2  -6 1000.58 187.270   4
 -16  -2   5 6072.17 467.070   5
  16  -2  -5 5553.59 399.912   4
 -16  -2   4 2395.43 277.353   5
  16  -2  -4 2436.64 237.113   4
 -16  -2   3 2098.51 256.011   5
  16  -2  -3 2311.93 207.134   4
 -16  -2   2 10946.5 595.053   5
 -16  -2   1 1814.77 171.769   1
 -16  -2   1 1455.38 204.883   5
 -16  -2   1 1836.28 154.813   2
 -16  -2   1 2035.95 178.706   4
 -16  -2   0 2283.12 199.956   1
 -16  -2   0 2079.54 177.230   2
 -16  -2   0 2294.75 175.602   4
 -16  -2  -1 7353.47 389.685   2
 -16  -2  -1 7488.22 399.916   1
 -16  -2  -1 7562.00 324.127   4
 -16  -2  -2 484.839 113.844   2
 -16  -2  -2 325.267 92.1903   1
 -16  -2  -2 610.412 110.407   3
 -16  -2  -3 4982.96 296.647   3
 -16  -2  -3 5210.02 364.291   1
 -16  -2  -4 4820.63 373.260   1
 -16  -2  -5 247.063 117.496   1
 -16   0   6 806.802 191.185   5
 -16   0   5 5228.35 436.037   5
 -16   0   4 980.567 182.025   5
 -16   0   3 2982.39 158.580   1
  16   0  -3 2768.30 128.179   2
 -16   0   3 2793.19 287.706   5
 -16   0   2 12265.6 621.327   5
 -16   0   2 12215.5 419.786   1
 -16   0   1 1705.45 215.101   5
 -16   0   1 2245.37 159.867   1
 -16   0   0 3644.86 228.709   1
 -16   0   0 3402.21 180.334   2
 -16   0  -1 8228.28 393.618   1
 -16   0  -1 8033.65 358.633   2
 -16   0  -2 461.740 93.3626   2
 -16   0  -2 260.928 72.5697   3
 -16   0  -2 193.280 73.2045   1
 -16   0  -3 5071.90 347.516   1
 -16   0  -3 5066.95 289.873   3
 -16   0  -3 5086.07 331.432   2
 -16   0  -4 11393.5 589.920   1
 -16   0  -5 61.5831 75.3026   1
 -16   2   5 6669.41 500.765   5
  16   2  -4 2233.86 192.811   2
 -16   2   4 2131.99 264.728   5
  16   2  -3 2320.95 186.337   2
 -16   2   3 2178.74 251.633   5
  16   2  -2 11256.4 443.378   2
 -16   2   2 11410.4 584.859   5
  16   2  -1 1738.16 148.684   2
 -16   2   1 1823.31 212.624   5
 -16   2   1 1654.69 108.455   1
 -16   2   0 2086.35 219.483   5
 -16   2   0 1932.11 146.228   1
 -16   2  -1 7445.11 295.041   2
 -16   2  -1 7837.32 364.172   1
 -16   2  -2 575.022 92.1396   2
 -16   2  -2 393.129 89.8484   1
 -16   2  -3 5573.45 329.506   2
 -16   2  -3 4997.96 341.168   1
 -16   2  -4 5878.40 403.289   1
 -16   2  -5 186.066 84.4263   1
  16   4  -5 4327.51 348.117   2
  16   4  -4 2475.26 245.287   2
 -16   4   4 2426.09 285.308   5
  16   4  -3 2135.45 217.616   2
 -16   4   3 1868.55 236.536   5
  16   4  -2 6862.90 394.442   2
 -16   4   2 6664.54 430.810   5
  16   4  -1 234.356 80.9944   2
 -16   4   1 347.729 103.456   5
  16   4   0 2170.17 204.791   2
 -16   4   0 1860.87 137.102   1
 -16   4   0 1946.87 207.875   5
 -16   4  -1 11489.2 464.001   1
 -16   4  -1 11682.7 535.631   5
 -16   4  -1 10947.5 355.216   2
 -16   4  -2 96.2418 49.8276   2
 -16   4  -2 577.899 117.081   5
 -16   4  -2 460.836 101.003   1
 -16   4  -3 3611.77 289.515   1
 -16   4  -3 3583.79 250.636   2
 -16   4  -4 5098.64 382.190   1
 -16   4  -5 280.108 115.422   1
  16   6  -5 4243.51 383.574   2
  16   6  -4 730.327 161.229   2
  16   6  -3 1557.51 217.655   2
  16   6  -2 6266.57 430.023   2
 -16   6   2 6110.49 412.642   5
  16   6  -1 2088.61 237.019   2
 -16   6   1 2192.47 229.430   5
  16   6   0 2414.55 252.244   2
 -16   6   0 2356.88 223.848   5
  16   6   1 4142.98 333.899   2
 -16   6  -1 3965.31 279.477   5
 -16   6  -2 175.696 70.7660   1
 -16   6  -2 315.770 81.9693   5
 -16   6  -3 2988.95 271.512   1
 -16   6  -3 2638.05 228.966   2
 -16   6  -4 4069.65 352.885   1
 -16   6  -4 4948.70 347.232   2
 -16   6  -5 57.4129 64.7484   2
 -16   6  -5-23.5123 89.1951   1
  16   8  -4 731.496 178.778   2
  16   8  -3 1865.90 270.630   2
  16   8  -2 4114.92 387.652   2
  16   8  -1 614.397 161.365   2
  16   8   0 1328.78 217.408   2
  16   8   1 2754.29 313.160   2
 -17  -9   2 875.738 208.080   5
  17  -9   1 1418.21 230.266   3
  17  -9   2 2405.89 292.543   3
 -17  -7   4 2991.19 344.543   5
 -17  -7   3 264.343 121.204   5
  17  -7  -2 2030.39 269.155   3
 -17  -7   2 1456.44 241.731   5
  17  -7  -1 5102.26 422.400   3
  17  -7   0 868.559 178.339   3
  17  -7   1 1842.71 238.191   3
 -17  -7  -1 2276.60 281.075   1
  17  -7   2 4087.68 342.084   3
 -17  -7  -2 3562.13 356.452   1
 -17  -5   5 744.463 183.018   5
  17  -5  -5 687.127 157.712   4
  17  -5  -4 5782.77 460.988   3
 -17  -5   4 5090.84 440.048   5
  17  -5  -4 5257.73 368.851   4
  17  -5  -3 1160.60 209.458   3
 -17  -5   3 1184.21 208.362   5
  17  -5  -3 948.893 140.194   4
  17  -5  -2 1532.99 221.559   3
 -17  -5   2 1175.35 210.457   5
  17  -5  -2 1615.17 155.580   4
  17  -5  -1 5122.75 393.211   3
  17  -5   0 608.464 137.366   3
 -17  -5   0 484.888 125.847   1
  17  -5   1 3707.82 310.913   3
 -17  -5  -1 4306.79 344.932   1
  17  -5   2 6028.16 388.269   3
 -17  -5  -2 6609.80 444.571   1
  17  -5   3 257.567 84.9266   3
 -17  -5  -3 662.284 152.126   1
 -17  -5  -4 2256.92 282.284   1
  17  -3  -6 945.545 193.026   4
 -17  -3   5 1364.35 242.467   5
  17  -3  -5 1429.15 209.996   4
 -17  -3   4 7386.75 520.560   5
  17  -3  -4 7396.09 439.183   4
  17  -3  -3 1853.06 242.602   3
 -17  -3   3 1680.91 236.503   5
  17  -3  -3 1621.39 175.595   4
  17  -3  -2 3091.51 296.795   3
 -17  -3   2 2826.13 304.007   5
  17  -3  -1 6781.70 432.356   3
 -17  -3   1 7057.37 388.827   1
 -17  -3   1 6500.34 348.847   2
 -17  -3   1 5814.08 349.052   4
 -17  -3   0 1616.24 183.048   1
  17  -3   0 1293.86 182.671   3
 -17  -3   0 1505.52 172.293   2
 -17  -3   0 1470.21 153.273   4
  17  -3   1 4361.68 314.690   3
 -17  -3  -1 4611.05 320.545   2
 -17  -3  -1 3948.14 302.046   1
 -17  -3  -2 10904.2 554.480   1
 -17  -3  -3 327.016 107.830   1
 -17  -3  -4 1678.69 227.343   1
 -17  -3  -5 3315.02 345.368   1
 -17  -1   5 1479.69 241.379   5
 -17  -1   4 6494.25 480.769   5
 -17  -1   3 749.024 96.5957   1
 -17  -1   3 1114.08 193.726   5
 -17  -1   2 3302.45 210.107   1
 -17  -1   2 3263.66 315.276   5
 -17  -1   1 9880.54 560.814   5
 -17  -1   1 9703.95 417.372   1
 -17  -1   1 9859.38 355.003   2
 -17  -1   0 1947.96 178.188   1
 -17  -1   0 1734.91 148.735   2
 -17  -1  -1 4228.64 288.016   1
 -17  -1  -1 4577.08 279.767   2
 -17  -1  -1 4689.79 207.837   4
 -17  -1  -2 8039.56 442.807   1
 -17  -1  -2 8836.26 443.141   2
 -17  -1  -3 370.747 104.723   1
 -17  -1  -4 2994.58 294.683   1
 -17  -1  -5 5939.21 446.922   1
 -17   1   5 1622.74 251.319   5
 -17   1   4 6715.53 485.821   5
 -17   1   3 1319.79 208.033   5
 -17   1   2 3058.89 141.562   1
  17   1  -2 2767.76 156.398   2
 -17   1   2 2832.92 287.523   5
 -17   1   1 9976.18 371.328   1
 -17   1   1 10341.0 557.924   5
 -17   1   0 1883.96 153.427   1
 -17   1   0 1693.04 211.626   5
 -17   1   0 1520.49 70.2877   2
 -17   1  -1 4684.63 285.586   1
 -17   1  -1 4801.51 241.534   2
 -17   1  -2 8392.37 431.499   1
 -17   1  -2 8007.69 427.448   3
 -17   1  -2 8534.16 401.583   2
 -17   1  -3 374.690 103.730   1
 -17   1  -4 3320.01 301.905   1
 -17   1  -5 5604.74 429.656   1
 -17   3   5 1666.96 255.671   5
 -17   3   4 8411.87 555.021   5
  17   3  -3 1570.53 174.952   2
 -17   3   3 1826.99 239.310   5
  17   3  -2 2756.48 216.601   2
 -17   3   2 2394.79 260.152   5
  17   3  -1 6518.31 341.195   2
 -17   3   1 6044.25 204.488   1
 -17   3   1 5897.24 402.877   5
 -17   3   0 1615.33 203.074   5
 -17   3   0 1604.85 134.680   1
 -17   3  -1 4817.29 340.841   5
 -17   3  -1 4572.41 272.132   1
 -17   3  -1 4182.36 174.454   2
 -17   3  -2 10592.1 497.090   1
 -17   3  -3 425.878 104.974   1
 -17   3  -4 1833.09 225.426   1
 -17   3  -5 3537.70 344.245   1
  17   5  -4 5995.35 415.474   2
  17   5  -3 1040.85 167.162   2
 -17   5   3 1069.09 188.703   5
  17   5  -2 1618.21 205.414   2
 -17   5   2 1330.94 199.634   5
  17   5  -1 4651.13 338.610   2
 -17   5   1 5315.08 371.755   5
  17   5   0 721.753 136.979   2
 -17   5   0 1079.08 157.350   5
 -17   5  -1 3562.97 240.269   1
 -17   5  -1 4246.77 306.154   5
 -17   5  -2 6273.97 370.924   1
 -17   5  -2 6625.28 382.971   5
 -17   5  -3 292.203 81.3206   5
 -17   5  -3 408.301 111.494   1
 -17   5  -4 2161.75 252.996   1
 -17   5  -5 4083.50 379.671   1
  17   7  -4 3604.81 374.504   2
  17   7  -3 496.015 148.715   2
  17   7  -2 1643.57 245.121   2
  17   7  -1 5050.87 403.899   2
 -17   7   1 5264.82 372.802   5
  17   7   0 1275.73 201.119   2
 -17   7   0 963.077 149.397   5
  17   7   1 1902.71 254.678   2
 -17   7  -4 2091.54 261.256   1
  17   9  -2 1298.99 239.881   2
  17   9  -1 2270.15 309.548   2
  17   9   0 388.012 142.480   2
  17   9   1 1555.69 259.799   2
 -18  -8   2 278.074 109.032   5
  18  -8   0 3810.95 374.456   3
 -18  -8   0 3530.64 370.282   1
  18  -8   1 280.605 113.755   3
  18  -8   2 1209.57 203.971   3
 -18  -6   4 1045.75 211.371   5
  18  -6  -3 3476.00 366.106   3
 -18  -6   3 3295.33 357.367   5
  18  -6  -2 747.799 171.569   3
 -18  -6   2 741.580 174.169   5
  18  -6  -1 1644.80 234.082   3
  18  -6   0 5585.81 422.222   3
 -18  -6   0 5304.60 413.033   1
  18  -6   1 108.041 67.0423   3
 -18  -6  -1 391.040 134.539   1
 -18  -6  -2 2601.64 295.268   1
  18  -6   2 2740.06 271.105   3
 -18  -6  -3 2972.86 323.464   1
  18  -4  -5 1162.17 192.654   4
  18  -4  -4 1892.10 268.313   3
 -18  -4   4 1657.89 260.531   5
  18  -4  -4 1614.97 201.060   4
  18  -4  -3 8442.30 543.005   3
 -18  -4   3 7276.36 527.565   5
  18  -4  -3 7239.61 398.111   4
  18  -4  -2 1698.49 233.051   3
 -18  -4   2 1231.85 215.506   5
  18  -4  -1 1647.50 223.342   3
 -18  -4   1 1799.70 211.347   1
  18  -4   0 4511.05 351.743   3
 -18  -4   0 4440.80 336.076   1
  18  -4   1 600.852 136.054   3
 -18  -4  -1 556.967 130.014   1
  18  -4   2 3890.28 303.160   3
 -18  -4  -2 3957.04 336.286   1
 -18  -4  -3 5513.07 419.428   1
 -18  -4  -4 197.915 101.409   1
  18  -2  -6 3713.35 363.563   4
 -18  -2   5 1564.76 252.961   5
  18  -2  -5 1462.00 205.583   4
 -18  -2   4 1911.12 274.509   5
 -18  -2   3 5766.70 451.849   5
 -18  -2   2 1234.84 147.864   1
 -18  -2   2 1248.64 203.115   5
 -18  -2   1 2839.54 226.891   1
 -18  -2   1 3029.98 310.449   5
 -18  -2   1 2765.85 217.353   4
 -18  -2   0 7351.53 396.886   1
 -18  -2  -1 277.853 78.7121   2
 -18  -2  -1 602.514 126.523   1
 -18  -2  -2 4675.59 341.113   1
 -18  -2  -3 7759.64 474.755   1
 -18  -2  -4 140.484 96.8860   1
 -18  -2  -5 2613.89 303.106   1
 -18   0   5 2132.70 298.982   5
 -18   0   4 1533.42 244.171   5
 -18   0   3 9874.03 591.763   5
 -18   0   2 1023.66 101.850   1
 -18   0   2 987.725 182.575   5
 -18   0   1 1106.38 116.868   1
 -18   0   1 1134.63 189.278   5
 -18   0   0 9144.14 411.395   1
 -18   0   0 9292.84 542.356   5
 -18   0  -1 506.796 99.9335   1
 -18   0  -2 3396.31 270.869   1
 -18   0  -3 4893.97 354.778   1
 -18   0  -4 289.859 113.069   1
 -18   0  -5 4425.95 388.001   1
 -18   2   4 1846.22 260.733   5
 -18   2   3 6416.96 465.794   5
  18   2  -2 1363.69 129.334   2
 -18   2   2 1277.61 200.066   5
 -18   2   1 2574.05 271.300   5
 -18   2   1 2720.19 150.039   1
 -18   2   0 7917.04 477.870   5
 -18   2   0 7067.10 326.190   1
 -18   2  -1 518.411 95.9976   1
 -18   2  -1 481.147 127.777   5
 -18   2  -2 4961.36 324.260   1
 -18   2  -3 7463.19 442.270   1
 -18   2  -4 252.173 105.969   1
 -18   2  -5 2155.63 271.378   1
 -18   4   4 1600.95 244.537   5
 -18   4   3 7621.38 514.009   5
  18   4  -2 1672.26 189.344   2
 -18   4   2 1577.04 219.484   5
  18   4  -1 1615.61 184.722   2
 -18   4   1 1913.59 227.488   5
  18   4   0 4042.30 294.939   2
 -18   4   0 4917.55 358.918   5
 -18   4  -1 530.630 123.415   5
 -18   4  -1 681.862 104.813   1
 -18   4  -2 3686.59 277.932   1
 -18   4  -2 3695.90 303.192   5
 -18   4  -3 5637.43 373.384   5
 -18   4  -3 5264.41 371.185   1
 -18   4  -4 113.532 80.0124   1
 -18   4  -5 2205.18 279.667   1
  18   6  -3 3449.80 324.686   2
  18   6  -2 773.638 155.715   2
 -18   6   2 983.163 178.374   5
  18   6  -1 2024.20 240.426   2
 -18   6   1 1554.31 215.305   5
  18   6   0 4735.30 365.372   2
 -18   6   0 5256.23 365.006   5
 -18   6  -1 59.5708 65.8036   5
 -18   6  -3 3588.23 310.740   1
 -18   6  -4 268.822 120.220   1
  18   8  -3 3950.59 391.586   2
  18   8  -2 828.431 187.670   2
  18   8  -1 1202.71 213.491   2
  18   8   0 3644.70 364.561   2
  18   8   1 53.7351 90.0739   2
  19  -7  -1 647.758 170.320   3
  19  -7   0 1722.98 248.332   3
 -19  -7   0 1253.91 227.289   1
  19  -7   1 3642.45 347.877   3
 -19  -7  -1 4055.19 385.087   1
  19  -7   2 255.365 106.247   3
  19  -5  -3 1510.42 243.936   3
 -19  -5   3 1294.15 228.305   5
  19  -5  -2 5758.00 449.948   3
 -19  -5   2 4694.34 438.943   5
  19  -5  -1 904.122 175.291   3
 -19  -5   1 858.257 160.777   1
  19  -5   0 2375.67 271.317   3
 -19  -5   0 2585.77 270.891   1
  19  -5   1 6356.05 433.922   3
 -19  -5  -1 6032.62 431.360   1
  19  -5   2 334.259 107.180   3
 -19  -5  -2 322.980 121.127   1
 -19  -5  -3 1495.80 231.590   1
  19  -3  -5 4087.98 350.521   4
 -19  -3   4 1758.79 272.253   5
 -19  -3   3 1399.46 234.143   5
 -19  -3   2 6417.49 373.185   1
 -19  -3   2 5114.09 444.096   5
 -19  -3   1 861.829 134.734   1
 -19  -3   1 538.536 148.150   5
 -19  -3   0 3456.35 284.706   1
 -19  -3  -1 6427.68 408.300   1
 -19  -3  -2 648.423 140.791   1
 -19  -3  -3 3275.27 312.822   1
 -19  -3  -4 4403.35 389.708   1
 -19  -1   4 1492.76 241.135   5
 -19  -1   3 2115.86 278.375   5
 -19  -1   2 6326.52 473.439   5
 -19  -1   2 6839.04 325.977   1
 -19  -1   1 1325.41 144.587   1
 -19  -1   1 1621.12 231.495   5
 -19  -1   0 3903.24 270.887   1
 -19  -1  -1 7401.52 411.698   1
 -19  -1  -2 403.441 108.424   1
 -19  -1  -3 1879.00 229.191   1
 -19  -1  -4 5051.86 402.545   1
 -19   1   4 965.538 200.603   5
 -19   1   3 2000.39 269.836   5
 -19   1   2 7062.71 492.256   5
 -19   1   1 1228.06 114.143   1
 -19   1   1 1174.13 194.987   5
 -19   1   0 3468.57 229.200   1
 -19   1   0 3498.32 325.781   5
 -19   1  -1 7972.18 404.330   1
 -19   1  -2 749.423 134.430   1
 -19   1  -3 2256.05 239.950   1
 -19   1  -4 5033.99 391.175   1
 -19   1  -5 333.754 107.430   1
 -19   3   4 1496.61 245.029   5
 -19   3   3 1786.67 256.127   5
 -19   3   2 6068.79 448.802   5
  19   3  -1 811.740 121.349   2
 -19   3   1 476.745 127.668   5
 -19   3   0 2775.95 283.852   5
 -19   3  -1 5361.83 396.700   5
 -19   3  -1 6487.93 342.955   1
 -19   3  -2 527.023 114.099   1
 -19   3  -2 619.591 145.157   5
 -19   3  -3 3334.43 292.054   1
 -19   3  -4 4175.36 357.964   1
 -19   3  -5 256.445 119.435   1
 -19   5   3 1282.31 221.282   5
  19   5  -2 5380.39 371.680   2
 -19   5   2 5984.64 442.918   5
  19   5  -1 688.877 134.189   2
 -19   5   1 822.282 161.962   5
  19   5   0 2774.70 262.468   2
 -19   5   0 2728.71 271.700   5
 -19   5  -1 5559.53 382.473   5
 -19   5  -2 332.791 106.354   5
 -19   5  -3 1679.17 210.285   1
 -19   5  -4 3605.06 338.878   1
  19   7  -2 3132.34 320.748   2
  19   7  -1 599.342 155.008   2
 -19   7   1 514.315 133.575   5
  19   7   0 1575.04 233.383   2
  20  -6  -1 3791.27 380.219   3
 -20  -6   1 4120.79 367.163   1
  20  -6   0 496.799 134.452   3
 -20  -6   0 362.750 124.054   1
  20  -6   1 2032.29 257.979   3
 -20  -6  -1 1898.32 256.818   1
  20  -6   2 3159.90 304.141   3
 -20  -4   3 1127.92 223.633   5
  20  -4  -2 1818.54 255.077   3
 -20  -4   2 1802.53 211.286   1
 -20  -4   2 1392.66 245.702   5
  20  -4  -1 3279.66 331.592   3
 -20  -4   1 3522.32 299.776   1
 -20  -4   1 3594.54 376.254   5
 -20  -4   0 379.102 116.708   1
  20  -4   0 189.849 103.760   3
 -20  -4  -1 3687.39 324.935   1
 -20  -4  -2 5096.68 403.303   1
 -20  -4  -3 600.237 153.423   1
 -20  -2   3 872.577 197.300   5
 -20  -2   2 1352.07 231.299   5
 -20  -2   1 6018.58 476.548   5
 -20  -2   1 6472.81 366.238   1
 -20  -2   0 459.948 107.711   1
 -20  -2  -1 3018.66 266.831   1
 -20  -2  -2 5168.93 374.982   1
 -20  -2  -3 220.352 101.778   1
 -20  -2  -4 2766.29 306.230   1
 -20   0   3 936.794 189.430   5
 -20   0   2 2240.76 284.925   5
 -20   0   1 6530.83 479.833   5
 -20   0   0 940.859 128.519   1
 -20   0   0 1122.65 191.331   5
 -20   0  -1 4367.02 303.246   1
 -20   0  -2 4494.14 330.717   1
 -20   0  -3 286.962 104.755   1
 -20   0  -4 2398.90 276.420   1
 -20   2   3 1082.45 206.917   5
 -20   2   2 1373.60 219.863   5
 -20   2   1 5588.52 430.529   5
 -20   2   0 702.209 157.256   5
 -20   2  -1 2938.45 302.117   5
 -20   2  -1 3156.76 239.347   1
 -20   2  -2 5105.82 344.337   1
 -20   2  -3 235.920 91.7101   1
 -20   2  -4 2721.89 294.017   1
 -20   4   3 1240.43 220.059   5
 -20   4   2 1757.15 246.292   5
 -20   4   1 3777.64 346.364   5
 -20   4   0 265.086 123.721   5
 -20   4  -1 3938.39 338.174   5
 -20   4  -2 5779.43 409.779   5
 -20   4  -3 674.431 146.538   5
 -20   4  -3 352.378 111.900   1
 -20   4  -4 2369.26 278.212   1
 -20   6   2 952.146 188.127   5
 -20   6   1 4308.43 367.325   5
  20   6   0 493.465 136.673   2
 -20   6   0 481.351 133.187   5
  20   8   0 586.708 151.829   2
 -21  -5   2 495.317 124.401   1
  21  -5  -1 1174.97 214.938   3
 -21  -5   1 1369.70 205.481   1
  21  -5   0 3929.68 367.517   3
 -21  -5   0 4120.56 354.418   1
  21  -5   1 243.081 107.411   3
 -21  -5  -1 227.361 107.721   1
 -21  -5  -2 1676.95 245.177   1
 -21  -3   2 944.777 206.397   5
 -21  -3   1 2151.32 295.603   5
 -21  -3   1 2319.38 230.294   1
 -21  -3   0 4232.86 325.166   1
 -21  -3  -1 482.386 118.822   1
 -21  -3  -2 2278.38 259.958   1
 -21  -3  -3 4507.18 390.178   1
 -21  -1   3 3305.32 368.479   5
 -21  -1   2 443.929 143.617   5
 -21  -1   1 2629.34 323.172   5
 -21  -1   0 6631.76 379.839   1
 -21  -1   0 7126.39 520.715   5
 -21  -1  -1 694.312 132.794   1
 -21  -1  -2 2136.46 239.169   1
 -21  -1  -3 3703.53 333.882   1
 -21  -1  -4 148.383 92.1418   1
 -21   1   3 3717.75 384.835   5
 -21   1   2 764.475 180.733   5
 -21   1   1 2814.82 317.443   5
 -21   1   0 6787.51 493.995   5
 -21   1  -1 653.764 116.203   1
 -21   1  -1 732.752 174.253   5
 -21   1  -2 2059.97 221.306   1
 -21   1  -3 3823.22 328.713   1
 -21   1  -4 272.797 125.960   1
 -21   3   3 5496.65 469.720   5
 -21   3   2 1106.61 204.859   5
 -21   3   1 1863.53 253.621   5
 -21   3   0 4366.98 378.314   5
 -21   3  -1 696.634 155.591   5
 -21   3  -2 2129.72 266.120   5
 -21   3  -3 5060.53 407.313   5
 -21   3  -3 4717.96 362.996   1
 -21   3  -4 512.792 154.086   1
 -21   5   2 369.911 139.668   5
 -21   5   1 924.922 187.656   5
 -21   5   0 4330.84 370.130   5
 -21   5  -1 98.9213 90.7491   5
 -22  -6   1 285.122 106.654   1
 -22  -6   0 2052.56 279.451   1
  22  -6   1 2912.60 324.593   3
 -22  -4   1 639.256 141.407   1
 -22  -4   0 1915.92 235.358   1
 -22  -4  -1 3144.77 308.952   1
 -22  -4  -2 273.434 99.0049   1
 -22  -2   1 539.014 166.840   5
 -22  -2   0 3111.75 269.839   1
 -22  -2   0 3166.91 364.661   5
 -22  -2  -1 4066.12 328.872   1
 -22  -2  -2 454.115 129.620   1
 -22  -2  -3 2826.90 304.058   1
 -22   0   2 4931.37 445.773   5
 -22   0   1 747.727 179.417   5
 -22   0   0 2885.94 336.423   5
 -22   0  -1 4851.46 332.079   1
 -22   0  -1 4828.20 432.324   5
 -22   0  -2 297.131 98.0012   1
 -22   0  -3 1926.77 239.704   1
 -22   2   2 3951.14 389.814   5
 -22   2   1 459.965 135.814   5
 -22   2   0 2779.71 317.788   5
 -22   2  -1 4147.47 386.394   5
 -22   2  -2 379.664 131.735   5
 -22   2  -3 2858.51 287.728   1
 -22   2  -4 3997.79 368.085   1
 -22   4   2 4654.61 424.007   5
 -22   4   1 617.221 164.707   5
 -22   4   0 1733.67 244.966   5
 -22   4  -1 3234.47 326.704   5
 -22   4  -2 62.3552 68.0377   5
 -22   6   1 242.280 121.671   5
 -23  -5   0 362.818 125.905   1
 -23  -3  -1 1600.39 220.670   1
 -23  -3  -2 3325.48 326.437   1
 -23  -1  -2 3404.52 315.986   1
 -23  -1  -3 231.769 99.3976   1
 -23   1   0 567.120 153.895   5
 -23   1  -1 1932.36 281.643   5
 -23   1  -2 3431.16 366.119   5
 -23   3   1 4303.48 409.253   5
 -23   3   0 88.9792 93.6654   5
 -23   3  -1 1508.83 237.808   5
 -23   3  -2 3643.77 363.476   5
 -23   5   1 4304.56 401.885   5
 -23   5   0 40.4423 71.5151   5
   0   0   0    0.00    0.00   0

TITL LV_WCO3pyz_aferrevacAt150degrees_120K in C2
REM C2 (#5 in standard setting)
CELL 0.71073  17.897399   9.986059   6.706729  90.0000  90.4821  90.0000
ZERR    4.00   0.000719   0.000524   0.000267   0.0000   0.0037   0.0000
LATT -7
SYMM -x, y,-z
SFAC C H N O W
UNIT 36.00 24.00 12.00 12.00 4.00
TREF
HKLF 4
END
;
_shelx_hkl_checksum              42669
_shelx_fab_file
;
-22 0 1 -0.8665 0.4593
-22 0 2 3.0515 -0.1836
-22 2 1 -1.9576 -0.1049
-22 2 2 0.4801 0.9811
-21 1 1 -0.6153 0.4470
-21 1 2 2.2110 0.3903
-21 1 3 -1.2012 1.7880
-21 3 1 -1.4991 -0.8491
-21 3 2 -0.0685 -0.1547
-20 0 1 1.4902 -0.3349
-20 0 2 3.1480 -0.0680
-20 0 3 0.4168 0.8276
-20 2 1 -1.2281 0.1925
-20 2 2 0.5254 -0.2530
-20 2 3 0.1919 0.4521
-20 4 1 -0.3438 -0.4069
-20 4 2 0.9677 -0.2467
-20 4 3 1.5658 -0.6590
-20 6 1 1.0020 0.5761
-19 1 1 1.7959 0.2477
-19 1 2 2.4870 -0.3950
-19 1 3 2.1418 0.1941
-19 1 4 -1.8578 0.7256
-19 3 1 -1.6518 -0.0357
-19 3 2 -0.0315 -0.3615
-19 3 3 1.1853 -0.5867
-19 3 4 -1.7187 -0.2078
-19 5 1 -0.1669 0.3493
-19 5 2 1.7786 0.1422
-19 5 3 2.7922 -0.1748
-19 7 1 -1.1489 -0.0683
-18 0 1 4.2676 -0.2532
-18 0 2 4.2943 0.0215
-18 0 3 4.8028 -0.3494
-18 0 4 -0.0489 -0.1619
-18 0 5 -4.6586 0.7011
-18 2 1 0.3173 0.3141
-18 2 2 1.3363 -0.5205
-18 2 3 2.5865 -0.5261
-18 2 4 -1.0512 0.2335
-18 2 5 -3.8219 -0.7671
-18 4 1 -1.8733 0.0071
-18 4 2 0.4204 0.2036
-18 4 3 1.9333 -0.3903
-18 4 4 0.0045 -0.5644
-18 6 1 -1.5024 0.3617
-18 6 2 0.8831 0.0249
-18 6 3 2.8883 0.2782
-17 1 1 3.9606 0.2417
-17 1 2 4.8655 -0.3310
-17 1 3 5.8811 -0.5408
-17 1 4 1.2519 0.2386
-17 1 5 -4.3008 -0.1561
-17 3 1 -1.6050 0.0029
-17 3 2 0.6444 0.1384
-17 3 3 2.0964 -0.4567
-17 3 4 0.0533 -0.4223
-17 3 5 -3.0836 -0.9001
-17 5 1 -2.7076 0.0822
-17 5 2 0.3751 0.2316
-17 5 3 2.2290 0.2928
-17 5 4 1.4789 0.0412
-17 7 1 -2.4692 -0.1418
-17 7 2 -0.9042 -0.1471
-17 7 3 1.4502 -0.0287
-16 0 1 6.1191 0.1260
-16 0 2 8.2393 0.1645
-16 0 3 8.6042 -0.4398
-16 0 4 3.3585 0.1096
-16 0 5 -3.4065 -0.1199
-16 0 6 0.9324 -0.5782
-16 2 1 1.4183 0.1043
-16 2 2 4.0939 0.0035
-16 2 3 4.8054 -0.3040
-16 2 4 1.5490 -0.0934
-16 2 5 -3.5253 -0.2547
-16 2 6 -1.5658 -0.0397
-16 4 1 -3.4580 -0.1877
-16 4 2 0.0785 0.4565
-16 4 3 1.6413 0.1514
-16 4 4 1.3721 -0.1703
-16 4 5 -2.1271 -0.1883
-16 6 1 -3.6168 0.0542
-16 6 2 -0.4484 -0.1764
-16 6 3 1.4411 0.3523
-16 6 4 1.0733 0.1614
-16 8 1 -1.7085 -0.4390
-16 8 2 -2.1996 -0.0021
-16 8 3 -0.4061 -0.4706
-15 1 1 5.2851 0.1224
-15 1 2 9.1500 0.0230
-15 1 3 8.6032 -0.0338
-15 1 4 3.6815 0.0923
-15 1 5 -2.3420 -0.1568
-15 1 6 0.2544 0.2450
-15 3 1 -1.9451 -0.1432
-15 3 2 2.2305 0.4425
-15 3 3 3.0292 0.1155
-15 3 4 1.5959 -0.1334
-15 3 5 -2.8598 0.2788
-15 3 6 -3.6586 0.2424
-15 5 1 -4.8892 -0.1196
-15 5 2 -0.5528 -0.0727
-15 5 3 1.2776 0.4303
-15 5 4 1.7617 0.1578
-15 5 5 -1.1818 0.3044
-15 7 1 -3.3244 0.0694
-15 7 2 -1.1700 -0.0228
-15 7 3 -0.0720 -0.1370
-15 7 4 -0.6388 -0.0990
-15 9 1 -0.5260 -0.4314
-15 9 2 -2.8789 -0.2795
-14 0 1 7.3400 0.1765
-14 0 2 12.2491 0.0535
-14 0 3 10.4517 0.1754
-14 0 4 4.6046 0.2162
-14 0 5 -1.0121 -0.2950
-14 0 6 1.2676 0.2893
-14 2 1 1.8913 -0.0801
-14 2 2 6.8493 0.2080
-14 2 3 6.3139 0.2649
-14 2 4 2.6300 -0.0418
-14 2 5 -1.8766 0.2602
-14 2 6 -1.6893 0.5196
-14 4 1 -4.9088 -0.1093
-14 4 2 0.0788 0.0910
-14 4 3 1.8954 0.2800
-14 4 4 1.6651 0.1574
-14 4 5 -2.3018 0.4899
-14 4 6 -4.1364 -0.0854
-14 6 1 -5.0030 0.1023
-14 6 2 -0.6361 -0.3116
-14 6 3 0.7827 0.1222
-14 6 4 0.9535 -0.1153
-14 6 5 -0.2307 0.3594
-14 8 1 -2.2370 0.0415
-14 8 2 -1.6287 0.3873
-14 8 3 -0.9415 -0.3408
-14 8 4 -1.3968 0.4355
-14 10 1 -0.5710 -0.1849
-13 1 1 5.9850 -0.0957
-13 1 2 10.9609 -0.0450
-13 1 3 8.9849 0.3637
-13 1 4 3.6366 -0.0172
-13 1 5 -0.5525 -0.0217
-13 1 6 0.4829 0.5566
-13 1 7 2.6339 0.8851
-13 3 1 -2.5693 -0.0163
-13 3 2 2.6471 0.1160
-13 3 3 3.7276 0.1823
-13 3 4 1.5027 0.1319
-13 3 5 -1.8797 0.4129
-13 3 6 -3.3015 -0.0643
-13 5 1 -6.1395 0.0526
-13 5 2 -0.9556 -0.4706
-13 5 3 1.6871 0.0899
-13 5 4 1.6633 0.0321
-13 5 5 -1.4403 0.2103
-13 5 6 -2.5966 0.1064
-13 7 1 -3.8380 0.2604
-13 7 2 -0.1248 0.3016
-13 7 3 0.6338 -0.2073
-13 7 4 0.4246 -0.1612
-13 7 5 0.5800 0.2135
-13 9 1 -1.9001 -0.1461
-13 9 2 -2.3331 0.0290
-13 9 3 -0.6853 -0.0689
-12 0 1 7.5246 -0.0543
-12 0 2 11.2779 -0.1771
-12 0 3 8.6091 0.2658
-12 0 4 3.3709 0.0347
-12 0 5 -0.1472 -0.1092
-12 0 6 1.1605 0.2552
-12 0 7 3.7865 -0.5163
-12 2 1 1.4462 -0.1086
-12 2 2 5.9189 -0.0514
-12 2 3 5.5245 0.1355
-12 2 4 1.7632 -0.0412
-12 2 5 -0.7513 0.1297
-12 2 6 -1.3215 0.0619
-12 2 7 0.4390 0.4797
-12 4 1 -5.7987 0.1324
-12 4 2 -0.7793 -0.2959
-12 4 3 2.3907 -0.0560
-12 4 4 1.1890 0.2084
-12 4 5 -1.6512 0.0180
-12 4 6 -3.2600 -0.2968
-12 6 1 -5.1506 0.1430
-12 6 2 -0.2755 -0.2416
-12 6 3 2.4087 -0.1554
-12 6 4 2.2313 -0.3224
-12 6 5 -0.0628 0.0799
-12 6 6 -0.7520 0.4728
-12 8 1 -2.8651 0.1292
-12 8 2 0.0129 0.7350
-12 8 3 1.0289 -0.1246
-12 8 4 1.0062 0.5111
-12 8 5 0.8489 -0.3913
-12 10 1 -2.3403 -0.1440
-12 10 2 -3.0271 -0.8713
-11 1 1 4.8129 -0.2080
-11 1 2 7.1554 -0.1858
-11 1 3 5.2089 -0.0037
-11 1 4 1.7045 -0.2220
-11 1 5 -0.3861 0.0200
-11 1 6 0.1816 0.0547
-11 1 7 2.4711 0.6524
-11 3 1 -3.7996 0.1095
-11 3 2 0.3606 -0.0873
-11 3 3 2.4770 -0.1515
-11 3 4 0.4560 0.1627
-11 3 5 -0.8993 -0.1185
-11 3 6 -2.6092 -0.4899
-11 3 7 -1.5056 -0.6469
-11 5 1 -5.9662 0.0420
-11 5 2 -1.4950 -0.3741
-11 5 3 2.9396 -0.1621
-11 5 4 2.3828 -0.1047
-11 5 5 -0.4609 -0.2670
-11 5 6 -2.0195 0.2616
-11 7 1 -3.3686 0.1276
-11 7 2 1.0121 0.3924
-11 7 3 3.7409 -0.1707
-11 7 4 3.6484 -0.1811
-11 7 5 1.2808 0.1119
-11 9 1 -2.8619 -0.1468
-11 9 2 -0.6955 0.2805
-11 9 3 0.8956 0.1016
-11 9 4 1.4560 1.0723
-10 0 1 5.0146 -0.1046
-10 0 2 4.8832 -0.0410
-10 0 3 2.0558 -0.1565
-10 0 4 0.4678 -0.1823
-10 0 5 -0.6966 0.1528
-10 0 6 0.4916 -0.1333
-10 0 7 2.7905 0.0021
-10 2 1 -0.9935 -0.0558
-10 2 2 1.1112 -0.0705
-10 2 3 1.0386 -0.2283
-10 2 4 -0.2919 -0.1295
-10 2 5 -0.5279 -0.0553
-10 2 6 -1.4266 -0.3103
-10 2 7 -0.2289 0.4373
-10 4 1 -6.2756 0.0829
-10 4 2 -2.4229 -0.0296
-10 4 3 1.6975 -0.1464
-10 4 4 1.0322 0.1590
-10 4 5 -0.2189 -0.4303
-10 4 6 -2.6274 -0.2427
-10 4 7 -1.7906 -0.7213
-10 6 1 -3.7633 -0.1317
-10 6 2 -0.0038 -0.0561
-10 6 3 5.1141 -0.1072
-10 6 4 5.0916 -0.3420
-10 6 5 1.5919 0.0266
-10 6 6 -0.9697 0.4837
-10 8 1 -2.5817 0.0441
-10 8 2 1.4752 0.4666
-10 8 3 4.2381 -0.0419
-10 8 4 4.4376 0.2580
-10 8 5 1.7941 -0.3563
-10 10 1 -2.7682 -0.1816
-10 10 2 -1.4819 -0.3587
-10 10 3 -0.6500 0.0802
-9 1 1 1.2980 -0.0836
-9 1 2 0.1497 -0.0330
-9 1 3 -2.3968 -0.2750
-9 1 4 -1.6905 -0.3062
-9 1 5 -0.8117 0.1651
-9 1 6 -0.2096 -0.1496
-9 1 7 1.0992 0.8315
-9 3 1 -5.9511 0.1026
-9 3 2 -3.1823 0.1747
-9 3 3 -1.2606 -0.1201
-9 3 4 -1.0092 0.1261
-9 3 5 -0.1697 -0.2250
-9 3 6 -2.4756 -0.2982
-9 3 7 -2.3364 -0.5035
-9 5 1 -4.7811 -0.2152
-9 5 2 -1.7133 0.0952
-9 5 3 3.7365 0.0346
-9 5 4 4.0603 -0.0850
-9 5 5 1.7327 -0.2901
-9 5 6 -1.7708 0.3233
-9 5 7 -0.6855 0.4798
-9 7 1 -1.8701 -0.0922
-9 7 2 1.6602 0.0485
-9 7 3 7.2128 -0.0304
-9 7 4 7.4113 -0.2350
-9 7 5 3.3096 0.3838
-9 7 6 -0.5641 -0.3117
-9 9 1 -2.7040 -0.0173
-9 9 2 0.9799 0.0778
-9 9 3 2.4006 -0.0375
-9 9 4 3.1976 0.4580
-9 9 5 1.4652 -1.2568
-9 11 1 -1.5473 -0.0253
-9 11 2 -1.5112 -0.3565
-8 0 1 1.8107 0.1006
-8 0 2 -2.4713 0.1823
-8 0 3 -6.7795 -0.2083
-8 0 4 -3.8394 -0.1278
-8 0 5 -0.8561 0.2323
-8 0 6 0.7151 -0.1740
-8 0 7 1.3659 0.3261
-8 2 1 -4.0676 0.0525
-8 2 2 -4.4086 0.0591
-8 2 3 -5.5794 -0.0779
-8 2 4 -3.4713 -0.1102
-8 2 5 -0.6098 0.1247
-8 2 6 -1.2853 -0.0339
-8 2 7 -1.3579 0.3723
-8 4 1 -6.6538 -0.0152
-8 4 2 -3.7242 0.3606
-8 4 3 -0.2063 0.1183
-8 4 4 0.9537 0.1749
-8 4 5 1.1340 -0.2698
-8 4 6 -2.3118 0.0864
-8 4 7 -2.7080 -0.7423
-8 6 1 -1.8393 -0.3222
-8 6 2 0.5458 -0.0099
-8 6 3 7.2213 0.1397
-8 6 4 7.9531 -0.2335
-8 6 5 4.2011 0.2444
-8 6 6 -0.7501 0.2826
-8 6 7 0.4321 1.5997
-8 8 1 -1.8188 0.1133
-8 8 2 2.1934 -0.1546
-8 8 3 6.8140 -0.0595
-8 8 4 6.9509 -0.1105
-8 8 5 3.5580 0.2035
-8 8 6 -0.1544 -1.2551
-8 10 1 -2.3648 -0.0406
-8 10 2 0.3336 -0.0087
-8 10 3 -1.0025 -0.1780
-8 10 4 1.0262 0.6977
-7 1 1 0.0981 0.0390
-7 1 2 -5.7994 -0.0206
-7 1 3 -10.0840 0.0208
-7 1 4 -5.9066 -0.1419
-7 1 5 -0.5432 0.2374
-7 1 6 0.9201 0.0519
-7 1 7 0.3802 0.4706
-7 1 8 -0.3157 -0.0642
-7 3 1 -7.2518 0.1496
-7 3 2 -6.3871 0.1910
-7 3 3 -5.6658 0.1389
-7 3 4 -3.1921 0.1404
-7 3 5 -0.1389 0.0509
-7 3 6 -1.7822 0.1658
-7 3 7 -2.9403 -0.4585
-7 5 1 -3.8046 -0.1945
-7 5 2 -1.4538 0.2293
-7 5 3 3.6231 0.1968
-7 5 4 5.2065 0.0504
-7 5 5 3.4377 -0.0849
-7 5 6 -1.1199 0.2533
-7 5 7 -1.7358 -0.1786
-7 7 1 -0.7437 -0.0679
-7 7 2 2.0653 -0.2856
-7 7 3 9.1731 0.1243
-7 7 4 9.4450 -0.2632
-7 7 5 5.4220 0.6418
-7 7 6 0.0808 -0.1846
-7 9 1 -2.6046 0.2129
-7 9 2 1.7319 -0.1618
-7 9 3 3.4197 -0.1925
-7 9 4 4.0887 0.0002
-7 9 5 2.4203 -0.2355
-7 11 1 -1.1238 -0.1403
-7 11 2 0.0775 0.4288
-7 11 3 -3.2238 -0.2488
-6 0 1 5.1054 0.0904
-6 0 2 -7.0332 0.0146
-6 0 3 -13.0567 0.1043
-6 0 4 -7.4324 0.0951
-6 0 5 0.4192 -0.0455
-6 0 6 3.1114 0.0114
-6 0 7 1.6556 0.0289
-6 0 8 -1.9575 -0.1372
-6 2 1 -2.7450 0.0612
-6 2 2 -8.5663 -0.1270
-6 2 3 -10.8959 0.1941
-6 2 4 -6.7461 -0.0017
-6 2 5 -0.5400 0.2407
-6 2 6 0.5628 0.1823
-6 2 7 -1.0308 -0.0273
-6 2 8 -1.2245 -0.1283
-6 4 1 -6.5715 0.1277
-6 4 2 -5.1254 0.1469
-6 4 3 -2.5350 0.0798
-6 4 4 -0.0261 0.1948
-6 4 5 1.0957 -0.0856
-6 4 6 -1.0480 0.2160
-6 4 7 -2.8733 -0.6306
-6 6 1 -1.2409 -0.1383
-6 6 2 1.0642 -0.0862
-6 6 3 7.4950 0.1847
-6 6 4 8.7072 -0.0470
-6 6 5 5.4416 0.2270
-6 6 6 0.1806 0.0864
-6 6 7 -0.8401 0.3613
-6 8 1 -1.9436 0.2010
-6 8 2 2.0105 -0.3036
-6 8 3 7.4892 0.0275
-6 8 4 7.1881 -0.3106
-6 8 5 4.3125 0.6170
-6 8 6 0.5788 -0.2903
-6 10 1 -2.6337 0.0764
-6 10 2 0.9316 0.1843
-6 10 3 -0.3821 -0.2701
-6 10 4 1.7382 0.3872
-6 12 1 0.1525 -0.2868
-5 1 1 7.7575 -0.1440
-5 1 2 -8.6482 -0.1786
-5 1 3 -13.7762 0.2402
-5 1 4 -7.7989 0.0286
-5 1 5 1.1173 0.0658
-5 1 6 4.1415 0.0368
-5 1 7 1.8460 -0.1301
-5 1 8 -2.4902 -0.1247
-5 3 1 -4.8877 0.1621
-5 3 2 -9.3632 -0.1629
-5 3 3 -9.0738 0.0190
-5 3 4 -5.3615 0.0844
-5 3 5 -0.6591 0.0769
-5 3 6 0.5484 0.1519
-5 3 7 -1.7601 -0.1873
-5 3 8 -2.0001 0.1302
-5 5 1 -4.1001 0.0841
-5 5 2 -2.0314 -0.0516
-5 5 3 2.0200 -0.0650
-5 5 4 4.3843 0.1550
-5 5 5 2.9665 -0.1546
-5 5 6 0.3506 0.0359
-5 5 7 -1.8719 -0.4593
-5 7 1 -1.4031 0.0352
-5 7 2 1.8732 -0.1305
-5 7 3 8.2843 0.2228
-5 7 4 8.3894 -0.1378
-5 7 5 5.2815 0.4102
-5 7 6 0.5934 0.0809
-5 9 1 -3.3743 0.1741
-5 9 2 0.8311 -0.0473
-5 9 3 3.4358 -0.1298
-5 9 4 3.6885 -0.2338
-5 9 5 1.5580 0.3835
-5 11 1 -1.7045 -0.1367
-5 11 2 0.3089 0.5769
-5 11 3 -1.6571 -0.1096
-4 0 1 19.0495 -0.2399
-4 0 2 -7.4992 -0.0969
-4 0 3 -13.6764 0.1393
-4 0 4 -6.2873 0.1080
-4 0 5 3.6737 -0.2741
-4 0 6 7.2003 0.0930
-4 0 7 4.1095 -0.1032
-4 0 8 -2.9805 0.0861
-4 2 1 6.0526 -0.1186
-4 2 2 -10.6584 -0.1920
-4 2 3 -12.9925 0.0851
-4 2 4 -7.3542 -0.0156
-4 2 5 0.6811 0.1115
-4 2 6 4.0430 -0.0954
-4 2 7 1.2664 -0.1318
-4 2 8 -2.0863 0.1468
-4 4 1 -5.5891 0.1988
-4 4 2 -7.4318 -0.2191
-4 4 3 -5.3950 -0.2923
-4 4 4 -1.8301 0.0678
-4 4 5 -0.0912 -0.1851
-4 4 6 1.2426 0.0085
-4 4 7 -1.5094 0.0389
-4 4 8 -2.5445 0.2660
-4 6 1 -2.8545 0.0574
-4 6 2 0.5001 -0.0517
-4 6 3 5.0422 0.0344
-4 6 4 6.5641 0.1431
-4 6 5 3.9546 -0.0871
-4 6 6 0.9003 -0.0668
-4 6 7 -1.3663 -0.3831
-4 8 1 -3.1584 0.0417
-4 8 2 0.6579 0.1028
-4 8 3 5.4446 0.1632
-4 8 4 4.8901 -0.2549
-4 8 5 2.5489 0.3012
-4 8 6 -0.0820 0.3406
-4 10 1 -3.4324 -0.0297
-4 10 2 -0.5416 0.0778
-4 10 3 0.4973 -0.1841
-4 10 4 2.0889 0.0022
-4 10 5 -1.0881 0.2206
-4 12 1 -0.6474 -0.1763
-4 12 2 0.1604 0.7500
-3 1 1 23.4542 -0.3206
-3 1 2 -7.7545 0.0269
-3 1 3 -12.5638 0.0786
-3 1 4 -4.6034 -0.0135
-3 1 5 4.8894 0.0113
-3 1 6 8.3761 -0.1724
-3 1 7 4.8041 -0.2344
-3 1 8 -2.1374 -0.0262
-3 3 1 1.1066 -0.0014
-3 3 2 -11.3985 -0.1246
-3 3 3 -11.3870 -0.2084
-3 3 4 -5.9717 -0.1110
-3 3 5 -0.2351 -0.0547
-3 3 6 3.5879 -0.1348
-3 3 7 0.6011 0.4057
-3 3 8 -1.8205 0.5890
-3 5 1 -5.4612 0.1307
-3 5 2 -3.7364 -0.1943
-3 5 3 -1.4019 -0.3046
-3 5 4 1.7738 0.1135
-3 5 5 0.9142 -0.2490
-3 5 6 1.6221 -0.1262
-3 5 7 -1.1433 -0.0909
-3 7 1 -3.3799 -0.0333
-3 7 2 0.7394 0.2361
-3 7 3 4.6047 0.2308
-3 7 4 4.8479 0.0746
-3 7 5 2.6654 -0.1078
-3 7 6 -0.2175 0.0867
-3 7 7 -1.7074 -0.0901
-3 9 1 -4.0995 -0.0946
-3 9 2 -1.4970 0.0860
-3 9 3 1.7794 -0.1013
-3 9 4 1.8331 -0.2847
-3 9 5 -1.0861 0.0640
-3 9 6 -1.0158 0.3872
-3 11 1 -2.3825 -0.1072
-3 11 2 -1.1853 -0.0091
-3 11 3 0.4636 0.1514
-2 0 1 36.7732 -0.2638
-2 0 2 -4.2811 0.1485
-2 0 3 -9.9077 -0.0694
-2 0 4 -0.3089 -0.0885
-2 0 5 8.9254 -0.0087
-2 0 6 11.6210 0.0800
-2 0 7 7.1955 0.1465
-2 0 8 -1.3984 0.0217
-2 2 1 17.9418 -0.1565
-2 2 2 -9.8977 0.1895
-2 2 3 -12.5976 -0.0245
-2 2 4 -4.5726 -0.1185
-2 2 5 3.9823 0.0677
-2 2 6 7.5500 -0.2624
-2 2 7 3.9865 0.0207
-2 2 8 -1.1232 0.1667
-2 4 1 -3.8350 0.0007
-2 4 2 -9.1558 -0.0951
-2 4 3 -8.6809 -0.3023
-2 4 4 -3.5304 -0.1351
-2 4 5 -0.7289 -0.1361
-2 4 6 2.9148 -0.0790
-2 4 7 0.0042 0.6816
-2 4 8 -2.2874 0.4072
-2 6 1 -5.0320 0.0167
-2 6 2 -0.6938 0.0275
-2 6 3 0.9675 -0.0087
-2 6 4 2.8429 0.2027
-2 6 5 1.0921 -0.1851
-2 6 6 0.4704 -0.1112
-2 6 7 -1.4324 -0.4416
-2 8 1 -4.0257 -0.1624
-2 8 2 -1.1822 0.3326
-2 8 3 1.8072 0.1062
-2 8 4 1.4639 -0.0657
-2 8 5 -0.4038 -0.3053
-2 8 6 -2.0395 0.1608
-2 10 1 -3.4204 -0.1143
-2 10 2 -2.8710 -0.2967
-2 10 3 0.3811 -0.2020
-2 10 4 1.3139 -0.2239
-2 10 5 -3.2479 -0.0119
-2 12 1 -1.3163 -0.0142
-2 12 2 -0.7899 -0.0798
-1 1 1 36.7282 0.0059
-1 1 2 -4.5084 0.2496
-1 1 3 -9.3536 -0.0154
-1 1 4 0.8159 -0.0691
-1 1 5 10.0186 0.1593
-1 1 6 12.1075 -0.1275
-1 1 7 7.3745 -0.2029
-1 1 8 -0.3818 -0.2372
-1 3 1 6.9733 -0.1103
-1 3 2 -11.0967 0.2609
-1 3 3 -12.9897 -0.0149
-1 3 4 -5.1951 -0.2000
-1 3 5 1.8442 0.0077
-1 3 6 5.3649 -0.0559
-1 3 7 2.3091 0.4882
-1 3 8 -1.3045 0.3333
-1 5 1 -5.8527 -0.0302
-1 5 2 -4.6215 -0.0895
-1 5 3 -4.9575 -0.1269
-1 5 4 -1.1237 -0.0003
-1 5 5 -0.8272 0.0171
-1 5 6 1.4688 -0.0557
-1 5 7 -0.7975 0.2544
-1 7 1 -4.1806 -0.0790
-1 7 2 -0.1743 0.2288
-1 7 3 0.9182 0.1480
-1 7 4 1.2139 0.1714
-1 7 5 -0.1757 -0.2868
-1 7 6 -1.8618 -0.0121
-1 7 7 -1.7849 -0.4606
-1 9 1 -3.5300 -0.1506
-1 9 2 -3.2596 -0.0474
-1 9 3 -0.2805 -0.2631
-1 9 4 -0.2784 -0.1254
-1 9 5 -3.0999 -0.3332
-1 9 6 -2.7778 -0.1195
-1 11 1 -2.0648 0.0432
-1 11 2 -2.3572 -0.4965
-1 11 3 1.3334 0.3372
-1 11 4 2.0402 -0.1767
0 0 2 -1.3441 0.0601
0 0 3 -6.5752 -0.0826
0 0 4 4.2709 -0.0948
0 0 5 13.7455 0.2852
0 0 6 14.9485 -0.0195
0 0 7 9.0524 0.0877
0 0 8 0.1726 -0.1332
0 2 0 40.0283 0.0973
0 2 1 24.0472 0.1103
0 2 2 -7.8923 0.2673
0 2 3 -12.0502 0.1305
0 2 4 -1.8976 -0.0497
0 2 5 7.7600 0.0465
0 2 6 9.4153 0.0458
0 2 7 5.4718 -0.2264
0 2 8 -0.3085 -0.2797
0 4 0 0.5516 -0.0078
0 4 1 -1.5569 -0.1446
0 4 2 -8.6462 0.1575
0 4 3 -11.0659 0.0676
0 4 4 -4.6296 -0.1327
0 4 5 -0.2870 0.1550
0 4 6 2.6314 0.0555
0 4 7 0.4317 0.4734
0 4 8 -2.6816 0.0408
0 6 0 -13.2249 0.0441
0 6 1 -4.3960 0.0178
0 6 2 -0.6284 -0.0628
0 6 3 -1.5592 0.0606
0 6 4 -0.1196 0.0950
0 6 5 -0.9753 0.0616
0 6 6 -0.7995 -0.0086
0 6 7 -1.4655 -0.2229
0 8 0 -7.8232 -0.0195
0 8 1 -2.9363 -0.0898
0 8 2 -1.5620 0.1149
0 8 3 -0.1645 -0.0663
0 8 4 -0.6716 0.0961
0 8 5 -2.0455 -0.3586
0 8 6 -3.5528 -0.0517
0 10 0 -3.8082 0.2046
0 10 1 -2.1326 0.0644
0 10 2 -3.2308 -0.3947
0 10 3 -0.0662 -0.2490
0 10 4 0.2209 -0.0678
0 10 5 -3.4557 -0.0098
0 12 0 -3.2821 -0.0869
0 12 1 -1.1553 0.1468
0 12 2 -0.5453 -0.2530
1 1 1 36.7371 0.4351
1 1 2 -3.7834 -0.1635
1 1 3 -8.4884 0.0708
1 1 4 2.2261 0.0481
1 1 5 12.9813 0.0033
1 1 6 13.7899 0.1037
1 1 7 8.0703 -0.4062
1 1 8 -0.0061 -0.2911
1 3 0 18.0008 0.3542
1 3 1 8.7068 -0.0564
1 3 2 -9.7533 0.2246
1 3 3 -14.0938 0.2257
1 3 4 -4.8494 0.0054
1 3 5 3.6568 0.0681
1 3 6 4.9113 0.1974
1 3 7 2.6100 -0.1461
1 3 8 -1.5370 -0.2941
1 5 0 -9.3904 -0.0229
1 5 1 -3.0374 -0.0170
1 5 2 -3.3236 -0.0372
1 5 3 -6.2021 0.0851
1 5 4 -2.8234 -0.0334
1 5 5 -1.4761 0.2923
1 5 6 0.1290 -0.0350
1 5 7 -0.9058 0.1892
1 7 0 -10.2967 0.0106
1 7 1 -1.5542 0.0649
1 7 2 0.8402 -0.0629
1 7 3 0.3848 0.0486
1 7 4 -0.3164 0.0634
1 7 5 -1.3487 -0.0580
1 7 6 -2.8804 0.1300
1 7 7 -1.1820 -0.5294
1 9 0 -4.7931 0.0711
1 9 1 -1.6654 0.0300
1 9 2 -2.2345 -0.1043
1 9 3 -0.3623 -0.2915
1 9 4 -0.9028 0.1457
1 9 5 -2.9181 -0.0532
1 9 6 -3.2390 -0.2086
1 11 0 -3.4132 0.0654
1 11 1 -0.7397 0.2720
1 11 2 -0.8299 -0.1940
1 11 3 1.1314 0.4349
1 11 4 1.1412 -0.0173
2 0 1 35.9404 0.4179
2 0 2 -3.9864 -0.3963
2 0 3 -7.6663 0.0601
2 0 4 2.1758 0.1018
2 0 5 14.0822 0.0265
2 0 6 15.3637 -0.1670
2 0 7 8.4211 -0.1870
2 0 8 -0.6888 0.0824
2 2 0 34.1526 1.4814
2 2 1 19.3898 0.1852
2 2 2 -8.5346 -0.2074
2 2 3 -13.0971 0.1318
2 2 4 -2.6470 0.1170
2 2 5 8.4833 -0.2066
2 2 6 8.7530 0.3404
2 2 7 5.1201 -0.4979
2 2 8 -0.9605 -0.2467
2 4 0 0.8725 -0.0930
2 4 1 0.8405 -0.0869
2 4 2 -6.8059 0.1089
2 4 3 -11.3866 0.1455
2 4 4 -5.0315 0.0912
2 4 5 -0.0029 0.2431
2 4 6 1.0103 -0.0532
2 4 7 0.2334 -0.0994
2 4 8 -3.0603 -0.3209
2 6 0 -9.1572 0.0076
2 6 1 0.5626 0.1641
2 6 2 1.5884 -0.1643
2 6 3 -0.7595 0.0299
2 6 4 -0.9523 -0.1085
2 6 5 -1.4530 0.1337
2 6 6 -1.6118 0.0261
2 6 7 -0.9132 0.0339
2 8 0 -5.3480 -0.0003
2 8 1 0.1312 0.0300
2 8 2 0.7243 -0.0571
2 8 3 1.2104 -0.0565
2 8 4 -0.4320 0.1290
2 8 5 -1.7294 0.0868
2 8 6 -3.5638 0.2388
2 10 0 -3.3742 0.0221
2 10 1 -0.4583 0.2037
2 10 2 -0.4739 0.0128
2 10 3 0.3398 -0.1059
2 10 4 0.0337 0.1732
2 10 5 -1.8763 0.2670
2 12 0 -2.9984 -0.1798
2 12 1 0.0129 0.2477
2 12 2 1.8467 0.2030
3 1 0 40.5099 2.4119
3 1 1 22.7607 0.2150
3 1 2 -8.3662 -0.5169
3 1 3 -11.1214 0.0298
3 1 4 -1.8245 0.0573
3 1 5 10.6908 -0.4020
3 1 6 12.0936 0.2398
3 1 7 6.3194 -0.2332
3 1 8 -1.7668 0.3221
3 3 0 12.2313 0.2340
3 3 1 5.4824 -0.1023
3 3 2 -9.5977 -0.0820
3 3 3 -14.3496 0.0373
3 3 4 -5.4485 0.2217
3 3 5 2.9373 -0.0240
3 3 6 2.9890 0.1023
3 3 7 1.9753 -0.4032
3 3 8 -1.9878 -0.1874
3 5 0 -4.5633 -0.2118
3 5 1 2.3613 0.1178
3 5 2 -0.4987 -0.0120
3 5 3 -4.6083 -0.0108
3 5 4 -2.7824 -0.0348
3 5 5 -1.4469 0.1194
3 5 6 -0.7916 -0.2802
3 5 7 -0.4861 0.1890
3 7 0 -3.8412 0.0632
3 7 1 3.7045 0.1035
3 7 2 4.0131 -0.1518
3 7 3 2.8282 0.0176
3 7 4 0.3026 -0.1524
3 7 5 -0.9394 0.0685
3 7 6 -2.4477 0.3027
3 7 7 0.2076 -0.4505
3 9 0 -2.6682 -0.0653
3 9 1 0.2983 -0.0080
3 9 2 1.3070 0.1255
3 9 3 1.5115 -0.0416
3 9 4 0.0376 0.2709
3 9 5 -1.5227 0.3493
3 9 6 -2.6341 0.2196
3 11 0 -2.8234 -0.1505
3 11 1 0.7256 0.2362
3 11 2 2.4750 0.2752
3 11 3 0.4985 0.2921
3 11 4 0.7106 -0.0411
4 0 0 33.9470 1.8948
4 0 1 16.1926 -0.0379
4 0 2 -10.7364 -0.2026
4 0 3 -11.4494 0.0923
4 0 4 -3.8329 0.0675
4 0 5 9.0103 -0.2808
4 0 6 11.7684 -0.0743
4 0 7 5.3042 -0.0422
4 0 8 -3.2135 0.3047
4 2 0 18.9728 0.6425
4 2 1 7.4410 -0.1583
4 2 2 -11.6274 -0.3082
4 2 3 -14.3610 -0.1168
4 2 4 -5.3459 0.0386
4 2 5 5.0188 -0.3275
4 2 6 5.8984 0.2875
4 2 7 3.2754 -0.0401
4 2 8 -2.2514 0.5341
4 4 0 0.1467 -0.4131
4 4 1 2.3216 -0.0376
4 4 2 -4.7310 0.0552
4 4 3 -9.4000 -0.0845
4 4 4 -4.5076 0.2069
4 4 5 -0.6873 0.0862
4 4 6 -0.1382 -0.3657
4 4 7 0.2747 -0.0491
4 4 8 -2.2610 0.0198
4 6 0 -1.1115 0.0246
4 6 1 7.0133 0.1628
4 6 2 5.1976 -0.0795
4 6 3 2.0931 -0.0590
4 6 4 -0.1309 -0.3013
4 6 5 -0.9105 -0.1639
4 6 6 -1.0032 -0.0436
4 6 7 0.5137 0.2968
4 8 0 -0.2333 0.0004
4 8 1 3.3735 -0.1344
4 8 2 4.6492 0.0254
4 8 3 3.9633 0.0987
4 8 4 0.8910 0.0739
4 8 5 -0.7501 0.3219
4 8 6 -2.4459 0.3660
4 10 0 -2.0934 -0.1759
4 10 1 0.4620 -0.0064
4 10 2 3.0057 0.3443
4 10 3 0.9481 0.0147
4 10 4 0.6109 0.0890
4 10 5 -0.4046 -0.0214
4 12 0 -1.8158 -0.0415
4 12 1 1.4914 0.0401
4 12 2 3.9466 0.0577
5 1 0 18.3162 0.3344
5 1 1 4.7541 -0.2880
5 1 2 -13.1260 -0.0294
5 1 3 -13.1591 -0.0980
5 1 4 -6.0900 -0.2026
5 1 5 4.7971 -0.3326
5 1 6 7.4139 0.2854
5 1 7 3.0267 0.3486
5 1 8 -3.7315 0.6859
5 3 0 2.4346 -0.4826
5 3 1 0.0188 -0.2096
5 3 2 -9.2146 -0.0139
5 3 3 -12.3930 -0.1719
5 3 4 -5.5330 0.1627
5 3 5 0.1757 0.0366
5 3 6 1.0968 -0.1557
5 3 7 1.0663 0.0881
5 3 8 -1.7449 0.4216
5 5 0 -0.3263 -0.1306
5 5 1 6.7294 0.1106
5 5 2 2.9101 0.0910
5 5 3 -1.3440 -0.1008
5 5 4 -1.6273 -0.1016
5 5 5 -1.3055 -0.1949
5 5 6 -0.2583 -0.3047
5 5 7 0.5828 0.4182
5 7 0 3.0650 0.1186
5 7 1 8.1031 -0.0957
5 7 2 7.9507 -0.0876
5 7 3 5.6127 0.0338
5 7 4 1.3952 -0.2311
5 7 5 -0.2724 -0.0289
5 7 6 -0.9473 0.2005
5 9 0 -0.0347 -0.1316
5 9 1 1.3623 -0.2149
5 9 2 4.8047 0.2809
5 9 3 2.9822 0.1263
5 9 4 0.9559 0.1802
5 9 5 -0.6425 0.1533
5 11 0 -1.3397 -0.0305
5 11 1 1.3354 -0.1243
5 11 2 3.9794 0.0441
5 11 3 -0.5739 -0.1880
6 0 0 10.9987 -0.5679
6 0 1 -1.0706 -0.3262
6 0 2 -13.3963 0.4612
6 0 3 -12.0449 -0.0005
6 0 4 -6.6672 -0.1581
6 0 5 2.8435 -0.0033
6 0 6 5.7825 0.2069
6 0 7 1.5866 0.1360
6 0 8 -4.6954 -0.1813
6 2 0 2.4195 -0.7087
6 2 1 -3.3594 -0.2721
6 2 2 -11.8281 0.1236
6 2 3 -12.4355 -0.1604
6 2 4 -6.0691 -0.1658
6 2 5 0.4392 0.0029
6 2 6 2.3540 0.0757
6 2 7 1.1152 0.4602
6 2 8 -2.6857 0.5289
6 4 0 -2.7826 -0.2521
6 4 1 2.0632 -0.0149
6 4 2 -1.8332 0.1524
6 4 3 -5.4594 -0.0708
6 4 4 -3.2723 0.1196
6 4 5 -1.8516 0.0487
6 4 6 -0.1359 -0.2964
6 4 7 0.5429 0.2529
6 6 0 3.8731 0.1786
6 6 1 10.3911 -0.0093
6 6 2 8.7139 -0.0296
6 6 3 4.9206 -0.0367
6 6 4 0.7908 -0.2964
6 6 5 -0.5930 -0.3056
6 6 6 0.4721 0.1493
6 6 7 1.8796 0.2447
6 8 0 3.2956 -0.0177
6 8 1 5.0821 -0.2331
6 8 2 8.0587 0.0225
6 8 3 5.4818 0.1273
6 8 4 1.4169 0.1217
6 8 5 -0.5297 0.1891
6 8 6 -1.0720 -0.2295
6 10 0 -0.4710 -0.0667
6 10 1 0.5525 -0.1406
6 10 2 4.2380 0.2155
6 10 3 0.5455 -0.1173
6 10 4 0.9027 -0.2481
6 12 0 0.0145 0.5480
6 12 1 1.9527 -0.4598
7 1 0 0.9843 -1.0314
7 1 1 -6.1418 -0.1526
7 1 2 -11.3556 0.3800
7 1 3 -10.2375 -0.0831
7 1 4 -5.6192 -0.2841
7 1 5 0.4688 0.1477
7 1 6 2.2816 0.1724
7 1 7 0.3104 0.3362
7 1 8 -3.8947 -0.2499
7 3 0 -5.8440 -0.3932
7 3 1 -3.9182 -0.0330
7 3 2 -6.0331 0.1579
7 3 3 -7.6610 -0.0062
7 3 4 -4.2386 0.0508
7 3 5 -2.2065 0.2220
7 3 6 -0.2033 -0.2222
7 3 7 0.3378 0.2136
7 5 0 0.1729 0.2376
7 5 1 7.1990 0.0265
7 5 2 5.9076 0.0986
7 5 3 2.0430 0.0196
7 5 4 -0.7704 -0.1051
7 5 5 -1.6988 -0.1655
7 5 6 0.6616 0.2192
7 5 7 1.3548 0.1821
7 7 0 5.4211 0.0744
7 7 1 9.0585 -0.1521
7 7 2 10.6694 -0.1765
7 7 3 6.9929 0.0335
7 7 4 1.4529 0.0078
7 7 5 -0.6545 0.0349
7 7 6 0.4449 0.0260
7 9 0 1.3620 -0.0891
7 9 1 1.9097 0.0297
7 9 2 6.3535 0.1776
7 9 3 2.7425 0.0370
7 9 4 0.6877 0.0534
7 9 5 -0.8280 -0.3612
7 11 0 0.2238 0.4108
7 11 1 1.0213 -0.3055
7 11 2 2.3142 -0.4764
7 11 3 -1.7547 -0.5579
8 0 0 -1.5223 -0.8474
8 0 1 -7.3903 0.0432
8 0 2 -8.2943 0.2768
8 0 3 -6.9536 -0.1023
8 0 4 -3.5935 -0.0695
8 0 5 0.7434 0.3123
8 0 6 0.7815 0.1419
8 0 7 -0.4790 -0.1532
8 0 8 -3.7994 -0.5945
8 2 0 -6.3317 -0.5192
8 2 1 -7.3389 0.1532
8 2 2 -6.9386 0.1283
8 2 3 -6.7368 0.0525
8 2 4 -3.6510 -0.0817
8 2 5 -1.4951 0.2425
8 2 6 -0.4584 -0.1713
8 2 7 -0.1440 0.0838
8 4 0 -5.3988 0.2717
8 4 1 0.4727 0.0772
8 4 2 1.3477 0.1190
8 4 3 -1.1584 0.1030
8 4 4 -2.3214 0.0548
8 4 5 -2.8948 0.0687
8 4 6 -0.3327 0.0578
8 4 7 0.5537 -0.1307
8 6 0 3.5443 0.1554
8 6 1 8.9826 -0.0833
8 6 2 10.2149 -0.1154
8 6 3 6.3791 0.0212
8 6 4 0.5091 -0.0251
8 6 5 -1.5162 -0.0001
8 6 6 1.1590 0.5668
8 8 0 3.3679 -0.1003
8 8 1 5.2283 0.1177
8 8 2 9.3673 -0.1014
8 8 3 5.2235 0.0543
8 8 4 0.5630 0.2847
8 8 5 -1.3574 0.0352
8 10 0 0.4365 0.1208
8 10 1 0.8856 0.2499
8 10 2 3.2375 0.0292
8 10 3 -0.6443 -0.2468
8 10 4 0.3550 -0.5064
9 1 0 -4.3148 -0.2758
9 1 1 -7.0639 0.3467
9 1 2 -4.3687 -0.1139
9 1 3 -3.4462 0.0421
9 1 4 -1.1090 0.0264
9 1 5 0.7388 0.2080
9 1 6 -0.9272 -0.1289
9 1 7 -0.6210 -0.1690
9 3 0 -8.0396 0.2276
9 3 1 -4.8193 0.2357
9 3 2 -1.6341 -0.0289
9 3 3 -2.3222 0.1399
9 3 4 -2.3900 0.0752
9 3 5 -2.7877 0.0799
9 3 6 -1.6012 -0.2346
9 3 7 -0.0977 -0.3074
9 5 0 -1.6160 0.2384
9 5 1 4.2199 -0.0234
9 5 2 6.6386 0.0284
9 5 3 3.7892 0.0238
9 5 4 -1.1695 0.0042
9 5 5 -2.8419 0.0151
9 5 6 0.1153 0.5837
9 5 7 1.2128 -0.6771
9 7 0 3.3041 -0.1199
9 7 1 6.9054 0.0185
9 7 2 10.5224 -0.2017
9 7 3 6.6259 0.0521
9 7 4 0.1734 0.3212
9 7 5 -2.0408 0.2779
9 7 6 0.8796 -0.0092
9 9 0 1.0645 -0.0769
9 9 1 2.7158 0.5799
9 9 2 5.9650 0.0907
9 9 3 1.4659 -0.0538
9 9 4 -0.4978 -0.0902
9 9 5 -1.3333 -0.6734
9 11 0 0.5708 0.4730
9 11 1 0.7733 -0.1123
9 11 2 -0.0589 -0.4639
10 0 0 -2.2683 0.3562
10 0 1 -4.9176 0.2941
10 0 2 -0.6878 -0.4524
10 0 3 0.3298 -0.0504
10 0 4 2.0937 0.2065
10 0 5 3.1801 -0.0025
10 0 6 -1.3693 -0.1904
10 0 7 -0.7145 -0.1508
10 2 0 -6.0257 0.2765
10 2 1 -5.6921 0.3662
10 2 2 -1.1624 -0.3040
10 2 3 -0.5228 0.1652
10 2 4 -0.0763 0.1155
10 2 5 -0.3118 0.0128
10 2 6 -2.2061 -0.2780
10 2 7 -0.4445 -0.2606
10 4 0 -5.9422 0.2617
10 4 1 -1.4579 0.0649
10 4 2 2.5242 -0.0070
10 4 3 1.2712 -0.0287
10 4 4 -2.0749 -0.0039
10 4 5 -3.4634 -0.1466
10 4 6 -1.9738 0.0628
10 4 7 0.1354 -0.6444
10 6 0 0.2344 -0.1394
10 6 1 4.6747 -0.0952
10 6 2 8.4268 -0.0318
10 6 3 5.6794 0.0025
10 6 4 -0.9859 0.2055
10 6 5 -2.9308 0.2961
10 6 6 0.3910 0.5427
10 8 0 1.2182 -0.1200
10 8 1 4.3326 0.3567
10 8 2 8.0597 -0.0177
10 8 3 3.8456 0.0721
10 8 4 -0.9717 0.2025
10 8 5 -2.0840 -0.1000
10 10 0 0.2802 -0.0228
10 10 1 1.8303 0.5107
10 10 2 1.8582 0.0114
10 10 3 -1.6608 -0.2270
11 1 0 -1.9199 0.4914
11 1 1 -3.2753 0.2275
11 1 2 1.5953 -0.4770
11 1 3 2.9226 0.1976
11 1 4 3.6556 0.1728
11 1 5 3.5988 -0.0896
11 1 6 -1.8952 -0.1353
11 1 7 -0.5328 0.0914
11 3 0 -6.2622 0.2568
11 3 1 -4.1167 0.1053
11 3 2 0.7339 -0.1889
11 3 3 1.1897 -0.0141
11 3 4 -0.6717 -0.0207
11 3 5 -2.0550 -0.2393
11 3 6 -3.3543 -0.1773
11 3 7 -0.4066 -0.1260
11 5 0 -3.8072 -0.1520
11 5 1 0.2939 -0.1037
11 5 2 4.5315 0.0610
11 5 3 3.1373 -0.1599
11 5 4 -2.0836 0.0069
11 5 5 -3.5196 -0.0446
11 5 6 -1.7854 0.1840
11 7 0 -0.3071 -0.1285
11 7 1 3.3589 -0.0288
11 7 2 7.4464 0.0874
11 7 3 4.7391 0.1447
11 7 4 -1.5956 0.2560
11 7 5 -2.6067 0.3031
11 9 0 0.0665 -0.0643
11 9 1 2.9875 0.3911
11 9 2 4.2049 0.0594
11 9 3 0.2142 -0.1310
11 9 4 -1.5483 -0.4377
11 11 0 0.0126 -0.2485
11 11 1 0.9746 -0.1977
12 0 0 0.7387 0.5062
12 0 1 -0.7977 -0.0816
12 0 2 3.8843 -0.2365
12 0 3 5.7800 0.1949
12 0 4 6.3648 0.0487
12 0 5 6.0749 -0.3658
12 0 6 -1.3558 -0.0479
12 0 7 -0.4901 0.4824
12 2 0 -3.1823 0.2725
12 2 1 -3.0590 -0.0575
12 2 2 1.8868 -0.2360
12 2 3 3.7207 0.1397
12 2 4 2.8258 0.0114
12 2 5 1.4322 -0.0473
12 2 6 -2.9886 0.0607
12 4 0 -5.8949 -0.1262
12 4 1 -2.9727 -0.0854
12 4 2 1.6209 -0.0183
12 4 3 1.7459 -0.2576
12 4 4 -1.4916 -0.1932
12 4 5 -3.0868 -0.3552
12 4 6 -3.9953 -0.1216
12 6 0 -3.1050 -0.1810
12 6 1 0.4393 -0.1632
12 6 2 4.6850 0.1517
12 6 3 3.3694 0.0505
12 6 4 -2.2907 0.1472
12 6 5 -2.6727 0.2140
12 6 6 -0.6053 -0.0457
12 8 0 -0.8599 0.1453
12 8 1 2.2601 -0.0745
12 8 2 4.7795 0.1910
12 8 3 2.1643 0.0429
12 8 4 -2.0716 -0.2983
12 10 0 0.0181 -0.3697
12 10 1 1.9553 -0.2412
12 10 2 0.6781 -0.2431
13 1 0 0.3991 0.1341
13 1 1 -0.4690 -0.3277
13 1 2 4.1063 0.0629
13 1 3 6.7711 0.2690
13 1 4 6.4031 -0.0506
13 1 5 4.9953 0.0834
13 1 6 -1.5793 0.2462
13 3 0 -4.9990 -0.0563
13 3 1 -3.5488 -0.1843
13 3 2 1.3182 0.0134
13 3 3 3.1729 -0.1251
13 3 4 1.1413 -0.2233
13 3 5 -1.2532 -0.1043
13 3 6 -4.2895 0.1980
13 5 0 -5.4285 -0.2018
13 5 1 -2.1947 -0.0923
13 5 2 2.0252 -0.0169
13 5 3 1.6736 -0.1120
13 5 4 -1.8312 -0.0767
13 5 5 -2.3360 -0.1886
13 5 6 -3.0080 -0.3132
13 7 0 -2.6601 0.2058
13 7 1 0.1325 -0.1999
13 7 2 3.4813 0.2870
13 7 3 2.4239 0.1998
13 7 4 -2.5275 -0.0882
13 7 5 -0.9953 0.1031
13 9 0 -0.3527 0.1239
13 9 1 1.3912 -0.5618
13 9 2 1.5253 -0.1609
13 9 3 -0.2453 -0.5123
14 0 0 2.0063 -0.2593
14 0 1 0.9199 -0.3200
14 0 2 5.0852 0.5276
14 0 3 8.3010 0.2022
14 0 4 7.9553 -0.3199
14 0 5 5.9342 -0.0178
14 0 6 -0.6467 0.3844
14 2 0 -2.1487 -0.0881
14 2 1 -2.0015 -0.3765
14 2 2 2.8975 0.2481
14 2 3 6.0578 0.0581
14 2 4 4.4789 -0.0570
14 2 5 1.4592 0.3752
14 2 6 -2.6468 0.3229
14 4 0 -6.0141 -0.1142
14 4 1 -3.4399 -0.0267
14 4 2 1.1299 -0.0257
14 4 3 2.1299 -0.1360
14 4 4 0.1750 -0.2481
14 4 5 -1.8609 -0.1597
14 4 6 -4.3404 0.1207
14 6 0 -4.3998 0.0807
14 6 1 -1.4726 -0.0249
14 6 2 1.9462 -0.0365
14 6 3 1.3318 0.2403
14 6 4 -2.0482 0.0911
14 6 5 -0.2756 0.0093
14 8 0 -1.4823 0.4569
14 8 1 -0.3061 -0.3370
14 8 2 1.2605 0.1764
14 8 3 1.0868 -0.3060
14 8 4 -2.0673 -0.7160
14 10 0 0.3997 -0.3401
14 10 1 0.3469 -1.3335
15 1 0 0.8266 -0.3054
15 1 1 -0.0689 -0.3380
15 1 2 4.2129 0.4073
15 1 3 7.8717 -0.0129
15 1 4 6.8864 0.0268
15 1 5 3.5189 0.4565
15 1 6 -0.8190 -0.1042
15 3 0 -4.6936 -0.0452
15 3 1 -3.3590 -0.0529
15 3 2 1.8644 0.2700
15 3 3 4.4517 -0.0809
15 3 4 2.5572 -0.0855
15 3 5 -1.1648 0.3012
15 3 6 -3.4028 0.4122
15 5 0 -5.2559 0.0302
15 5 1 -2.1686 0.1085
15 5 2 1.4190 -0.3094
15 5 3 1.1454 0.2029
15 5 4 -0.1784 0.0458
15 5 5 -0.0670 -0.0952
15 7 0 -2.6638 0.2399
15 7 1 -1.0409 0.2176
15 7 2 0.9303 0.0749
15 7 3 0.9140 0.0444
15 7 4 -2.0755 -0.1339
15 9 0 -0.0836 0.3941
15 9 1 -0.9835 -0.7132
15 9 2 -0.9541 -0.3935
16 0 0 2.0548 -0.4010
16 0 1 0.4206 0.1223
16 0 2 3.8089 0.2366
16 0 3 7.5597 -0.3023
16 0 4 7.2906 -0.1015
16 0 5 3.4000 0.4781
16 2 0 -1.9973 -0.1544
16 2 1 -2.2809 -0.0710
16 2 2 2.6902 0.3089
16 2 3 6.1503 -0.1702
16 2 4 4.3465 0.2993
16 2 5 0.0067 0.2740
16 4 0 -5.1081 0.1120
16 4 1 -2.8231 0.1890
16 4 2 1.7462 0.0455
16 4 3 2.6240 0.0669
16 4 4 1.6324 0.0003
16 4 5 -0.8238 0.2308
16 6 0 -3.1500 -0.0959
16 6 1 -0.5098 0.2885
16 6 2 1.2759 -0.4002
16 6 3 0.4124 0.3216
16 6 4 -0.6327 0.2735
16 8 0 -1.0056 0.2372
16 8 1 -1.2376 0.6303
16 8 2 -0.7819 0.0639
17 1 0 0.6559 -0.2167
17 1 1 -1.0726 0.1416
17 1 2 2.1715 -0.2111
17 1 3 5.7291 -0.3840
17 1 4 5.3974 0.4590
17 1 5 1.1951 -0.2310
17 3 0 -3.9343 0.0666
17 3 1 -3.3878 0.2734
17 3 2 1.8735 0.4034
17 3 3 3.9234 -0.1719
17 3 4 2.1498 0.2126
17 3 5 -1.5844 0.1483
17 5 0 -3.1954 -0.0349
17 5 1 -0.6109 -0.0293
17 5 2 1.8696 -0.2687
17 5 3 0.9683 0.2862
17 5 4 1.1716 0.2225
17 7 0 -1.2903 -0.4658
17 7 1 0.3090 1.0222
17 7 2 0.1665 -0.1175
18 0 0 1.3107 0.1900
18 0 1 -0.9988 0.4744
18 0 2 0.4142 -0.7025
18 0 3 3.7835 -0.4636
18 0 4 5.1120 0.4186
18 0 5 1.3335 0.0808
18 2 0 -1.9660 -0.1668
18 2 1 -3.1204 0.2972
18 2 2 0.8777 -0.0973
18 2 3 3.4000 -0.2549
18 2 4 2.2580 0.3370
18 2 5 -1.1321 -1.0485
18 4 0 -3.2512 0.2514
18 4 1 -2.1774 -0.0412
18 4 2 1.8384 0.3884
18 4 3 1.7844 -0.0777
18 4 4 1.2302 0.0997
18 6 0 -0.9355 -0.6281
18 6 1 1.4943 -0.0240
18 6 2 1.2591 -0.2707
18 6 3 -0.1757 0.1678
19 1 0 -0.4462 -0.1346
19 1 1 -2.2906 0.2534
19 1 2 -1.0760 -0.8380
19 1 3 1.5784 0.0981
19 1 4 2.8183 0.1073
19 3 0 -3.0536 0.1741
19 3 1 -3.6752 0.2645
19 3 2 0.7295 0.2790
19 3 3 1.3625 -0.2649
19 3 4 -0.0359 -0.0630
19 5 0 -0.9347 0.1030
19 5 1 0.3131 -0.9821
19 5 2 1.6417 0.2305
19 5 3 0.1897 0.0404
19 7 0 -0.2055 -1.0761
19 7 1 2.1032 0.9616
20 0 0 -0.6447 0.5204
20 0 1 -1.9621 -0.0019
20 0 2 -2.6519 -0.4951
20 0 3 -0.1365 0.6412
20 0 4 2.6525 0.1241
20 2 0 -2.4013 -0.3495
20 2 1 -3.6081 0.3668
20 2 2 -1.1167 -0.6583
20 2 3 -0.0412 0.3227
20 4 0 -1.5977 0.8307
20 4 1 -2.2024 -0.6721
20 4 2 1.0622 0.3946
20 4 3 0.0973 -0.2738
20 6 0 0.5349 -0.3972
20 6 1 2.0407 -1.2487
21 1 0 -1.8776 -0.6348
21 1 1 -2.3882 0.0268
21 1 2 -2.6217 -0.7043
21 1 3 -1.0603 1.4753
21 3 0 -2.1528 0.4801
21 3 1 -3.5185 0.2686
21 3 2 -0.1267 -0.6107
21 5 0 0.5274 1.0617
22 0 0 -1.8178 -0.1058
22 0 1 -1.3291 -0.7368
22 0 2 -2.7449 0.9363
22 2 0 -2.0393 -0.8267
22 2 1 -2.7246 0.6947
0 0 0 0.0 0.0
;
_shelx_fab_checksum              8956
_olex2_submission_special_instructions 'No special instructions were received'
_oxdiff_exptl_absorpt_empirical_details
;
Empirical correction (ABSPACK) includes:
- Absorption correction using spherical harmonics
- Frame scaling
;
_oxdiff_exptl_absorpt_empirical_full_max 1.152
_oxdiff_exptl_absorpt_empirical_full_min 0.906
loop_
_space_group_symop_operation_xyz
'x, y, z'
'-x, y, -z'
'x+1/2, y+1/2, z'
'-x+1/2, y+1/2, -z'
'-x, -y, -z'
'x, -y, z'
'-x+1/2, -y+1/2, -z'
'x+1/2, -y+1/2, z'
loop_
_atom_site_label
_atom_site_type_symbol
_atom_site_fract_x
_atom_site_fract_y
_atom_site_fract_z
_atom_site_U_iso_or_equiv
_atom_site_adp_type
_atom_site_occupancy
_atom_site_site_symmetry_order
_atom_site_calc_flag
_atom_site_refinement_flags_posn
_atom_site_refinement_flags_adp
_atom_site_refinement_flags_occupancy
_atom_site_disorder_assembly
_atom_site_disorder_group
W1 W 0.33485(2) 1.000000 0.67255(2) 0.01504(8) Uani 1 2 d S T P A .
O1 O 0.40592(15) 1.2213(3) 0.4070(5) 0.0410(8) Uani 1 1 d . . . . .
C1 C 0.37943(18) 1.1373(4) 0.5048(5) 0.0205(8) Uani 1 1 d . . . . .
C2 C 0.2470(3) 1.000000 0.4995(8) 0.0271(13) Uani 1 2 d S T P . .
O2 O 0.1942(2) 1.000000 0.3959(8) 0.0606(15) Uani 1 2 d S T P . .
N1 N 0.28364(15) 1.1527(3) 0.8769(4) 0.0219(7) Uani 1 1 d D . . . .
C3 C 0.3208(3) 1.2530(8) 0.9570(11) 0.047(2) Uani 0.660(6) 1 d D . P A 1
H3 H 0.371349 1.261299 0.928779 0.056 Uiso 0.660(6) 1 calc R U P A 1
C4 C 0.2114(3) 1.1534(8) 0.9195(11) 0.051(2) Uani 0.660(6) 1 d D . P A 1
H4 H 0.181023 1.087675 0.863386 0.061 Uiso 0.660(6) 1 calc R U P A 1
N2 N 0.4348(2) 1.000000 0.8788(6) 0.0196(9) Uani 1 2 d DS TU P . .
C7 C 0.5037(7) 1.000000 0.804(2) 0.020(3) Uani 0.3333 2 d DS TU P A 1
H7 H 0.509037 1.000000 0.665704 0.024 Uiso 0.3333 2 calc R U P A 1
C8 C 0.4832(6) 1.1054(12) 0.8870(17) 0.023(2) Uani 0.3333 1 d D U P A 2
C9 C 0.4337(8) 1.000000 1.0809(18) 0.020(3) Uani 0.3333 2 d DS TU P A 1
H9 H 0.387517 1.000000 1.143593 0.024 Uiso 0.3333 2 calc R U P A 1
C10 C 0.4544(6) 0.8966(12) 0.9939(17) 0.023(2) Uani 0.3333 1 d D U P A 2
C4A C 0.2825(6) 1.1439(12) 1.0779(16) 0.026(3) Uani 0.340(6) 1 d . U P A 2
H4A H 0.305911 1.071301 1.138823 0.031 Uiso 0.340(6) 1 calc R U P A 2
C3A C 0.2518(6) 1.2626(12) 0.8038(16) 0.026(3) Uani 0.340(6) 1 d . U P A 2
H3A H 0.252836 1.276782 0.666778 0.032 Uiso 0.340(6) 1 calc R U P A 2
H8 H 0.479(6) 1.180(13) 0.809(17) 0.024 Uiso 0.3333 1 d . U P . .
H10 H 0.419(6) 0.817(13) 1.003(17) 0.024 Uiso 0.3333 1 d . U P . .
loop_
_atom_site_aniso_label
_atom_site_aniso_U_11
_atom_site_aniso_U_22
_atom_site_aniso_U_33
_atom_site_aniso_U_23
_atom_site_aniso_U_13
_atom_site_aniso_U_12
W1 0.01318(11) 0.02647(15) 0.00546(11) 0.000 -0.00014(7) 0.000
O1 0.0338(15) 0.036(2) 0.053(2) 0.0215(17) 0.0032(14) -0.0047(13)
C1 0.0170(16) 0.023(2) 0.0216(19) -0.0017(16) -0.0041(14) 0.0019(14)
C2 0.022(3) 0.036(4) 0.024(3) 0.000 -0.001(2) 0.000
O2 0.032(2) 0.092(5) 0.057(3) 0.000 -0.031(2) 0.000
N1 0.0199(14) 0.036(2) 0.0103(14) -0.0027(14) 0.0014(12) 0.0035(13)
C3 0.013(3) 0.061(5) 0.066(5) -0.038(4) 0.016(3) -0.013(3)
C4 0.018(3) 0.067(6) 0.068(5) -0.048(4) 0.015(3) -0.018(3)
N2 0.0196(19) 0.029(3) 0.0103(19) 0.000 -0.0023(16) 0.000
C7 0.017(6) 0.038(8) 0.005(5) 0.000 0.002(5) 0.000
C8 0.026(5) 0.030(5) 0.013(4) 0.014(4) -0.006(4) -0.014(4)
C9 0.017(6) 0.032(7) 0.010(6) 0.000 0.005(5) 0.000
C10 0.022(5) 0.035(6) 0.013(5) 0.004(5) -0.002(4) -0.012(5)
C4A 0.027(4) 0.033(5) 0.017(4) -0.001(4) 0.001(3) 0.009(4)
C3A 0.032(4) 0.030(5) 0.017(4) 0.002(4) -0.002(3) 0.011(4)
loop_
_atom_type_symbol
_atom_type_description
_atom_type_scat_dispersion_real
_atom_type_scat_dispersion_imag
_atom_type_scat_source
C C 0.0033 0.0016 'International Tables Vol C Tables 4.2.6.8 and 6.1.1.4'
H H 0.0000 0.0000 'International Tables Vol C Tables 4.2.6.8 and 6.1.1.4'
N N 0.0061 0.0033 'International Tables Vol C Tables 4.2.6.8 and 6.1.1.4'
O O 0.0106 0.0060 'International Tables Vol C Tables 4.2.6.8 and 6.1.1.4'
W W -0.8490 6.8722 'International Tables Vol C Tables 4.2.6.8 and 6.1.1.4'
loop_
_geom_angle_atom_site_label_1
_geom_angle_atom_site_label_2
_geom_angle_atom_site_label_3
_geom_angle
_geom_angle_site_symmetry_1
_geom_angle_site_symmetry_3
_geom_angle_publ_flag
C1 W1 C1 89.4(2) . 6_575 ?
C1 W1 N1 177.65(12) 6_575 . ?
C1 W1 N1 92.61(14) 6_575 6_575 ?
C1 W1 N1 92.61(14) . . ?
C1 W1 N1 177.65(13) . 6_575 ?
C1 W1 N2 91.58(12) . . ?
C1 W1 N2 91.58(12) 6_575 . ?
C2 W1 C1 89.33(15) . . ?
C2 W1 C1 89.33(15) . 6_575 ?
C2 W1 N1 91.83(13) . 6_575 ?
C2 W1 N1 91.84(13) . . ?
C2 W1 N2 178.72(16) . . ?
N1 W1 N1 85.31(16) . 6_575 ?
N1 W1 N2 87.22(10) . . ?
N1 W1 N2 87.22(10) 6_575 . ?
O1 C1 W1 178.8(3) . . ?
O2 C2 W1 179.9(5) . . ?
C3 N1 W1 123.9(3) . . ?
C3 N1 C4 113.5(4) . . ?
C4 N1 W1 122.5(3) . . ?
C4A N1 W1 125.0(5) . . ?
C3A N1 W1 120.7(5) . . ?
C3A N1 C4A 114.3(7) . . ?
N1 C3 H3 118.3 . . ?
N1 C3 C4 123.4(5) . 7_577 ?
C4 C3 H3 118.3 7_577 . ?
N1 C4 C3 123.1(5) . 7_577 ?
N1 C4 H4 118.4 . . ?
C3 C4 H4 118.4 7_577 . ?
C7 N2 W1 119.9(6) . . ?
C7 N2 C8 55.1(6) . 6_575 ?
C7 N2 C9 113.6(9) . . ?
C8 N2 W1 121.7(5) . . ?
C8 N2 W1 121.7(5) 6_575 . ?
C9 N2 W1 126.5(6) . . ?
C9 N2 C8 88.6(7) . 6_575 ?
C10 N2 W1 124.0(5) 6_575 . ?
C10 N2 W1 124.0(5) . . ?
C10 N2 C8 38.4(6) 6_575 . ?
C10 N2 C8 114.3(7) . . ?
C10 N2 C10 101.4(11) 6_575 . ?
N2 C7 H7 118.5 . . ?
N2 C7 C9 123.0(11) . 5_677 ?
C9 C7 H7 118.5 5_677 . ?
N2 C8 C10 121.8(10) . 5_677 ?
N2 C8 H8 124(7) . . ?
C10 C8 N2 69.0(10) 6_575 . ?
C10 C8 H8 114(7) 5_677 . ?
C10 C8 H8 116(7) 6_575 . ?
N2 C9 C7 123.5(11) . 5_677 ?
N2 C9 H9 118.3 . . ?
C7 C9 H9 118.3 5_677 . ?
N2 C10 C8 123.9(10) . 5_677 ?
N2 C10 H10 119(7) . . ?
C8 C10 H10 117(7) 5_677 . ?
N1 C4A H4A 118.6 . . ?
N1 C4A C3A 122.8(10) . 7_577 ?
C3A C4A H4A 118.6 7_577 . ?
N1 C3A C4A 122.7(10) . 7_577 ?
N1 C3A H3A 118.6 . . ?
C4A C3A H3A 118.6 7_577 . ?
loop_
_geom_bond_atom_site_label_1
_geom_bond_atom_site_label_2
_geom_bond_distance
_geom_bond_site_symmetry_2
_geom_bond_publ_flag
W1 C1 1.949(4) 6_575 ?
W1 C1 1.949(4) . ?
W1 C2 1.947(5) . ?
W1 N1 2.251(3) . ?
W1 N1 2.251(3) 6_575 ?
W1 N2 2.253(4) . ?
O1 C1 1.167(4) . ?
C2 O2 1.169(7) . ?
N1 C3 1.314(7) . ?
N1 C4 1.327(6) . ?
N1 C4A 1.352(11) . ?
N1 C3A 1.328(12) . ?
C3 H3 0.9300 . ?
C3 C4 1.378(9) 7_577 ?
C4 H4 0.9300 . ?
N2 C7 1.337(12) . ?
N2 C8 1.364(10) . ?
N2 C8 1.364(10) 6_575 ?
N2 C9 1.355(12) . ?
N2 C10 1.334(11) . ?
N2 C10 1.334(11) 6_575 ?
C7 H7 0.9300 . ?
C7 C9 1.36(2) 5_677 ?
C8 C10 1.368(14) 5_677 ?
C8 C10 0.887(13) 6_575 ?
C8 H8 0.91(12) . ?
C9 H9 0.9300 . ?
C10 H10 1.01(12) . ?
C4A H4A 0.9300 . ?
C4A C3A 1.374(15) 7_577 ?
C3A H3A 0.9300 . ?
loop_
_geom_torsion_atom_site_label_1
_geom_torsion_atom_site_label_2
_geom_torsion_atom_site_label_3
_geom_torsion_atom_site_label_4
_geom_torsion
_geom_torsion_site_symmetry_1
_geom_torsion_site_symmetry_2
_geom_torsion_site_symmetry_3
_geom_torsion_site_symmetry_4
_geom_torsion_publ_flag
W1 N1 C3 C4 179.4(6) . . . 7_577 ?
W1 N1 C4 C3 -179.5(6) . . . 7_577 ?
W1 N1 C4A C3A -177.6(8) . . . 7_577 ?
W1 N1 C3A C4A 177.6(8) . . . 7_577 ?
W1 N2 C7 C9 180.000(2) . . . 5_677 ?
W1 N2 C8 C10 -177.3(10) . . . 5_677 ?
W1 N2 C8 C10 106.1(10) . . . 6_575 ?
W1 N2 C9 C7 180.000(3) . . . 5_677 ?
W1 N2 C10 C8 177.2(11) . . . 5_677 ?
C3 N1 C4 C3 -2.7(12) . . . 7_577 ?
C4 N1 C3 C4 2.7(12) . . . 7_577 ?
C7 N2 C9 C7 0.000(4) . . . 5_677 ?
C8 N2 C8 C10 -38.7(19) 6_575 . . 5_677 ?
C8 N2 C8 C10 -115.3(12) 6_575 . . 6_575 ?
C8 N2 C10 C8 77.5(14) 6_575 . . 5_677 ?
C8 N2 C10 C8 1(2) . . . 5_677 ?
C9 N2 C7 C9 0.000(3) . . . 5_677 ?
C10 N2 C8 C10 -1(2) . . . 5_677 ?
C10 N2 C8 C10 76.6(14) 6_575 . . 5_677 ?
C10 N2 C8 C10 -77.3(15) . . . 6_575 ?
C10 N2 C10 C8 -37.4(19) 6_575 . . 5_677 ?
C4A N1 C3A C4A -3.0(16) . . . 7_577 ?
C3A N1 C4A C3A 3.0(16) . . . 7_577 ?
loop_
_smtbx_masks_void_nr
_smtbx_masks_void_average_x
_smtbx_masks_void_average_y
_smtbx_masks_void_average_z
_smtbx_masks_void_volume
_smtbx_masks_void_count_electrons
_smtbx_masks_void_content
1 0.000 0.000 -0.325 107.8 38.9 '1 C4H4N2'
2 0.500 0.500 -0.630 107.8 38.9 '1 C4H4N2'
