#------------------------------------------------------------------------------
#$Date: 2021-10-06 16:59:38 +0300 (Wed, 06 Oct 2021) $
#$Revision: 269654 $
#$URL: file:///home/coder/svn-repositories/cod/cif/7/12/87/7128764.cif $
#------------------------------------------------------------------------------
#
# This file is available in the Crystallography Open Database (COD),
# http://www.crystallography.net/
#
# All data on this site have been placed in the public domain by the
# contributors.
#
data_7128764
loop_
_publ_author_name
'Dong, Long-Zhang'
'Zhang, Yu'
'Lu, Yun-Feng'
'Zhang, Lei'
'Huang, Xin'
'Wang, Jian-Hui'
'Liu, Jiang'
'Li, Shun-Li'
'Lan, Ya-Qian'
_publ_section_title
;
 A well-defined dual Mn-site based metal-organic framework to promote
 CO<sub>2</sub> reduction/evolution in Li-CO<sub>2</sub> batteries.
;
_journal_issue                   71
_journal_name_full
'Chemical communications (Cambridge, England)'
_journal_page_first              8937
_journal_page_last               8940
_journal_paper_doi               10.1039/d1cc03431f
_journal_volume                  57
_journal_year                    2021
_chemical_formula_moiety         'C32 H22 Co Mn N12 O9 S2, 0.5(C4 H16 N2)'
_chemical_formula_sum            'C34 H30 Co Mn N13 O9 S2'
_chemical_formula_weight         942.70
_space_group_crystal_system      orthorhombic
_space_group_IT_number           53
_space_group_name_Hall           '-P 2ac 2'
_space_group_name_H-M_alt        'P m n a'
_atom_sites_solution_hydrogens   mixed
_atom_sites_solution_primary     dual
_audit_creation_date             2021-08-02
_audit_creation_method
;
Olex2 1.3-alpha
(compiled 2020.11.12 svn.r5f609507 for OlexSys, GUI svn.r6272)
;
_audit_update_record
;
2021-08-02 deposited with the CCDC.	2021-08-09 downloaded from the CCDC.
;
_cell_angle_alpha                90
_cell_angle_beta                 90
_cell_angle_gamma                90
_cell_formula_units_Z            4
_cell_length_a                   22.29(2)
_cell_length_b                   13.477(12)
_cell_length_c                   15.919(16)
_cell_measurement_reflns_used    296
_cell_measurement_temperature    296.15
_cell_measurement_theta_max      23.14
_cell_measurement_theta_min      3.02
_cell_volume                     4782(8)
_computing_cell_refinement       'SAINT V8.40A (Bruker, 2019)'
_computing_data_reduction        'SAINT V8.40A (Bruker, 2019)'
_computing_molecular_graphics    'Olex2 1.3-alpha (Dolomanov et al., 2009)'
_computing_publication_material  'Olex2 1.3-alpha (Dolomanov et al., 2009)'
_computing_structure_refinement  'SHELXL 2018/3 (Sheldrick, 2015)'
_computing_structure_solution    'SHELXT 2014/5 (Sheldrick, 2014)'
_diffrn_ambient_temperature      296.15
_diffrn_detector_area_resol_mean 8
_diffrn_measured_fraction_theta_full 0.987
_diffrn_measured_fraction_theta_max 0.987
_diffrn_measurement_device_type  'Bruker APEX-II CCD'
_diffrn_measurement_method       '\f and \w scans'
_diffrn_radiation_monochromator  graphite
_diffrn_radiation_type           MoK\a
_diffrn_radiation_wavelength     0.71073
_diffrn_reflns_av_R_equivalents  0.0604
_diffrn_reflns_av_unetI/netI     0.0789
_diffrn_reflns_Laue_measured_fraction_full 0.987
_diffrn_reflns_Laue_measured_fraction_max 0.987
_diffrn_reflns_limit_h_max       23
_diffrn_reflns_limit_h_min       -23
_diffrn_reflns_limit_k_max       14
_diffrn_reflns_limit_k_min       -14
_diffrn_reflns_limit_l_max       17
_diffrn_reflns_limit_l_min       -17
_diffrn_reflns_number            10598
_diffrn_reflns_point_group_measured_fraction_full 0.987
_diffrn_reflns_point_group_measured_fraction_max 0.987
_diffrn_reflns_theta_full        23.255
_diffrn_reflns_theta_max         23.255
_diffrn_reflns_theta_min         1.827
_diffrn_source                   'sealed tube'
_diffrn_source_current           30.0
_diffrn_source_power             1.5
_diffrn_source_voltage           50.0
_diffrn_standards_number         0
_exptl_absorpt_coefficient_mu    0.757
_exptl_absorpt_correction_T_max  0.7452
_exptl_absorpt_correction_T_min  0.5836
_exptl_absorpt_correction_type   multi-scan
_exptl_absorpt_process_details
;
SADABS-2016/2 (Bruker,2016/2) was used for absorption correction.
wR2(int) was 0.0969 before and 0.0600 after correction.
The Ratio of minimum to maximum transmission is 0.7831.
The \l/2 correction factor is Not present.
;
_exptl_crystal_colour            'metallic dark violet'
_exptl_crystal_colour_lustre     metallic
_exptl_crystal_colour_modifier   dark
_exptl_crystal_colour_primary    violet
_exptl_crystal_density_diffrn    1.309
_exptl_crystal_description       block
_exptl_crystal_F_000             1924
_exptl_crystal_size_max          0.085
_exptl_crystal_size_mid          0.052
_exptl_crystal_size_min          0.051
_refine_diff_density_max         1.127
_refine_diff_density_min         -0.638
_refine_diff_density_rms         0.104
_refine_ls_extinction_method     none
_refine_ls_goodness_of_fit_ref   1.015
_refine_ls_hydrogen_treatment    constr
_refine_ls_matrix_type           full
_refine_ls_number_parameters     310
_refine_ls_number_reflns         3499
_refine_ls_number_restraints     84
_refine_ls_restrained_S_all      1.026
_refine_ls_R_factor_all          0.1198
_refine_ls_R_factor_gt           0.0778
_refine_ls_shift/su_max          0.000
_refine_ls_shift/su_mean         0.000
_refine_ls_structure_factor_coef Fsqd
_refine_ls_weighting_details
'w=1/[\s^2^(Fo^2^)+(0.1371P)^2^+11.3409P] where P=(Fo^2^+2Fc^2^)/3'
_refine_ls_weighting_scheme      calc
_refine_ls_wR_factor_gt          0.2087
_refine_ls_wR_factor_ref         0.2480
_reflns_Friedel_coverage         0.000
_reflns_number_gt                2140
_reflns_number_total             3499
_reflns_threshold_expression     'I > 2\s(I)'
_cod_data_source_file            d1cc03431f2.cif
_cod_data_source_block           cotpzp-mn
_cod_depositor_comments
'Adding full bibliography for 7128762--7128764.cif.'
_cod_database_code               7128764
_shelx_shelxl_version_number     2018/3
_shelx_space_group_comment
;
The symmetry employed for this shelxl refinement is uniquely defined
by the following loop, which should always be used as a source of
symmetry information in preference to the above space-group names.
They are only intended as comments.
;
_shelx_estimated_absorpt_t_max   0.962
_shelx_estimated_absorpt_t_min   0.938
_olex2_refinement_description
;
1. Fixed Uiso
 At 1.2 times of:
  All C(H) groups, All N(H) groups, All N(H,H) groups
 At 1.5 times of:
  All C(H,H,H) groups, All O(H,H) groups
2. Uiso/Uaniso restraints and constraints
O2B \\sim O2A \\sim O4A \\sim O4B \\sim O3A \\sim S1 \\sim O3B: within 2A with
sigma of 0.02 and sigma for terminal atoms of 0.04 within 2A
Uanis(O3A) \\sim Ueq, Uanis(O2A) \\sim Ueq: with sigma of 0.01 and sigma for
terminal atoms of 0.02
3. Others
 Sof(O4A)=Sof(O2A)=Sof(O3A)=1-FVAR(1)
 Sof(O2B)=Sof(O4B)=Sof(O3B)=FVAR(1)
 Fixed Sof: H9A(0.5) H9B(0.5) H17A(0.5) H17B(0.5) H17C(0.5) H18A(0.5)
 H18B(0.5) H18C(0.5)
4.a Riding coordinates:
 O5(H5A,H5B), C17(H17A,H17B,H17C), C18(H18A,H18B,H18C)
4.b Secondary CH2 refined with riding coordinates:
 N9(H9A,H9B)
4.c Aromatic/amide H refined with riding coordinates:
 C4(H4), C13(H13), N2(H2), C16(H16), C9(H9), C3(H3), C8(H8), N4(H4A), C14(H14),
  C1(H1)
;
_shelx_res_file
;
TITL mo_20210320_40_0ma_a.res in Pmna
    cotpzp-mn.res
    created by SHELXL-2018/3 at 22:19:30 on 02-Aug-2021
REM Old TITL mo_20210320_40_0ma in Pmna
REM SHELXT solution in Pmna
REM R1 0.305, Rweak 0.006, Alpha 0.040, Orientation as input
REM Formula found by SHELXT: C45 N2 O2A Co2
CELL 0.71073 22.2884 13.4775 15.9193 90 90 90
ZERR 4 0.0234 0.0117 0.0155 0 0 0
LATT 1
SYMM 0.5-X,-Y,0.5+Z
SYMM 0.5-X,+Y,0.5-Z
SYMM +X,-Y,-Z
SFAC C H Co Mn N O S
UNIT 136 120 4 4 52 36 8
SIMU 0.02 0.04 2 O2B O2A O4A O4B O3A S1 O3B
ISOR 0.01 0.02 O3A O2A

L.S. 5 0 49
PLAN  9
SIZE 0.085 0.052 0.051
TEMP 23
CONF
BOND $H
list 4
ABIN
MORE -1
fmap 2 53
acta
OMIT 4 0 0
OMIT 0 1 0
OMIT 0 12 0
REM <olex2.extras>
REM <HklSrc "%.\\CoTPzP-Mn.hkl">
REM </olex2.extras>

WGHT    0.137100   11.340900
FVAR       0.28994   0.62456
MN2   4    0.500000    0.639540    0.378661    10.50000    0.01819    0.01348 =
         0.06093   -0.00009    0.00000    0.00000
CO1   3    0.750000    1.143417    0.250000    10.50000    0.02983    0.02533 =
         0.10474    0.00000    0.02188    0.00000
S1    7    0.641528    1.145790    0.105141    11.00000    0.04183    0.09051 =
         0.13558   -0.00299    0.00621   -0.00227
N7    5    0.500000    0.495119    0.392535    10.50000    0.03260    0.02924 =
         0.05844   -0.00381    0.00000    0.00000
N5    5    0.500000    0.784162    0.377809    10.50000    0.02184    0.02284 =
         0.07503    0.00501    0.00000    0.00000
N6    5    0.588592    0.639039    0.374610    11.00000    0.03593    0.02518 =
         0.06655    0.00003    0.00755   -0.00049
N3    5    0.710970    0.255725    0.328780    11.00000    0.03522    0.03170 =
         0.09297   -0.00942    0.01091    0.00412
O1    6    0.669677    1.142162    0.179871    11.00000    0.04315    0.09924 =
         0.10989    0.00330    0.00443   -0.00748
N1    5    0.711178    1.027639    0.325659    11.00000    0.04296    0.03648 =
         0.10457    0.00261    0.02201   -0.00436
C5    1    0.549301    0.432858    0.403502    11.00000    0.03036    0.02737 =
         0.07072   -0.00466    0.00169    0.00393
C7    1    0.625009    0.557893    0.367287    11.00000    0.02856    0.03618 =
         0.07208   -0.00944    0.00510    0.00451
C4    1    0.530537    0.337639    0.429237    11.00000    0.05104    0.01425 =
         0.07919    0.00380    0.00525    0.00356
AFIX  43
H4    2    0.555284    0.284714    0.443543    11.00000   -1.20000
AFIX   0
C2    1    0.654435    0.381027    0.379834    11.00000    0.03343    0.02718 =
         0.08371   -0.00055    0.00312    0.00388
C15   1    0.656363    0.895400    0.368687    11.00000    0.02915    0.03185 =
         0.09713    0.00941    0.00977   -0.00706
C6    1    0.608697    0.460398    0.384379    11.00000    0.03550    0.02753 =
         0.07511   -0.00786   -0.00105    0.01083
C12   1    0.549398    0.846475    0.384100    11.00000    0.04059    0.03103 =
         0.06316    0.00206    0.00290   -0.00155
C11   1    0.609376    0.818351    0.372520    11.00000    0.03701    0.03239 =
         0.07549    0.00201    0.00695   -0.00926
C10   1    0.625457    0.719823    0.362334    11.00000    0.03040    0.02877 =
         0.08567    0.00775    0.00471   -0.00246
C13   1    0.530731    0.946536    0.397850    11.00000    0.04314    0.03130 =
         0.08910   -0.00186   -0.00031   -0.00972
AFIX  43
H13   2    0.555569    1.001266    0.405371    11.00000   -1.20000
AFIX   0
N2    5    0.738915    0.981538    0.389714    11.00000    0.08136    0.07286 =
         0.11634    0.01987   -0.00894   -0.04472
AFIX  43
H2    2    0.772506    0.999711    0.411387    11.00000   -1.20000
AFIX   0
C16   1    0.661727    0.975406    0.313335    11.00000    0.02926    0.04868 =
         0.10928    0.01483    0.00908   -0.00565
AFIX  43
H16   2    0.633510    0.990329    0.272195    11.00000   -1.20000
AFIX   0
C9    1    0.684295    0.685689    0.340287    11.00000    0.02931    0.04462 =
         0.11693    0.00474    0.02212   -0.00332
AFIX  43
H9    2    0.716884    0.725572    0.326470    11.00000   -1.20000
AFIX   0
C3    1    0.663904    0.312825    0.316311    11.00000    0.03585    0.05898 =
         0.11545   -0.02734   -0.00691    0.01617
AFIX  43
H3    2    0.639355    0.307785    0.269265    11.00000   -1.20000
AFIX   0
C8    1    0.684179    0.588277    0.342994    11.00000    0.03512    0.04071 =
         0.11030    0.00439    0.01880    0.00566
AFIX  43
H8    2    0.716450    0.546759    0.331331    11.00000   -1.20000
AFIX   0
N4    5    0.731865    0.285314    0.401822    11.00000    0.09532    0.09629 =
         0.10670   -0.02733   -0.02601    0.07070
AFIX  43
H4A   2    0.762648    0.259947    0.426310    11.00000   -1.20000
AFIX   0
O5    6    0.500000    0.628274    0.223492    10.50000    0.29908    0.12622 =
         0.12720   -0.00225    0.00000    0.00000
AFIX   3
H5A   2    0.500000    0.575774    0.193932    10.50000   -1.50000
H5B   2    0.500000    0.675254    0.187882    10.50000   -1.50000
AFIX   0
PART 2
O2B   6    0.680232    1.113120    0.039497    21.00000    0.08843    0.23181 =
         0.13261   -0.00869    0.01121    0.06891
PART 0
C14   1    0.706350    0.902588    0.415034    11.00000    0.07119    0.08052 =
         0.13157    0.03980   -0.01283   -0.03118
AFIX  43
H14   2    0.717018    0.859587    0.458213    11.00000   -1.20000
AFIX   0
C1    1    0.698931    0.360499    0.433532    11.00000    0.13684    0.12366 =
         0.09965   -0.05058   -0.03778    0.10119
AFIX  43
H1    2    0.705978    0.392691    0.484254    11.00000   -1.20000
AFIX   0
N9    5    0.500000    1.238784    0.179430    10.50000    0.05658    0.26627 =
         0.27217   -0.15568    0.00000    0.00000
AFIX  23
H9A   2    0.532149    1.227357    0.147712    10.50000   -1.20000
H9B   2    0.467851    1.227357    0.147712    10.50000   -1.20000
AFIX   0
C17   1    0.500000    1.342239    0.201949    10.50000    0.18479    0.15958 =
         0.14691   -0.03424    0.00000    0.00000
PART -1
AFIX   3
H17A  2    0.501290    1.384199    0.153249    10.50000   -1.50000
H17B  2    0.534510    1.354849    0.236419    10.50000   -1.50000
H17C  2    0.464200    1.355909    0.233419    10.50000   -1.50000
AFIX   0
PART 2
O4B   6    0.584395    1.099417    0.103567    21.00000    0.04584    0.13263 =
         0.22631   -0.00855   -0.00191   -0.03127
O3B   6    0.630005    1.255598    0.099691    21.00000    0.08947    0.12918 =
         0.19956    0.04888   -0.06375   -0.02359
PART 1
O4A   6    0.632958    1.032796    0.093793   -21.00000    0.11439    0.08071 =
         0.19858   -0.02888   -0.05207    0.00218
O2A   6    0.681901    1.171137    0.029696   -21.00000    0.06776    0.11844 =
         0.09785   -0.01993    0.00267   -0.06401
O3A   6    0.587153    1.184492    0.080655   -21.00000    0.03685    0.14777 =
         0.16932    0.01090   -0.01776    0.03312
PART 0
C18   1    0.500000    1.159872    0.254524    10.50000    0.34291    0.26760 =
         0.12738    0.07023    0.00000    0.00000
PART -1
AFIX   3
H18A  2    0.484860    1.191043    0.304434    10.50000   -1.50000
H18B  2    0.540200    1.137082    0.264334    10.50000   -1.50000
H18C  2    0.474940    1.104502    0.240104    10.50000   -1.50000
AFIX   0
HKLF 4




REM  mo_20210320_40_0ma_a.res in Pmna
REM wR2 = 0.2480, GooF = S = 1.015, Restrained GooF = 1.026 for all data
REM R1 = 0.0778 for 2140 Fo > 4sig(Fo) and 0.1198 for all 3499 data
REM 310 parameters refined using 84 restraints

END

WGHT      0.1371     11.3472

REM Highest difference peak  1.127,  deepest hole -0.638,  1-sigma level  0.104
Q1    1   0.5000  0.6714  0.3807  10.50000  0.05    1.13
Q2    1   0.7538  1.0654  0.2605  11.00000  0.05    0.54
Q3    1   0.7500  1.2228  0.2500  10.50000  0.05    0.49
Q4    1   0.7526  1.1410  0.3359  11.00000  0.05    0.47
Q5    1   0.5000  1.0317  0.3833  10.50000  0.05    0.42
Q6    1   0.4553  0.5924  0.1792  11.00000  0.05    0.41
Q7    1   0.6619  1.1435  0.2433  11.00000  0.05    0.36
Q8    1   0.5000  1.1222  0.3720  10.50000  0.05    0.35
Q9    1   0.5000  0.6412  0.1320  10.50000  0.05    0.34
;
_shelx_res_checksum              99969
_shelx_fab_file
;
    0    1    0    -99.58      0.00
    0    2    0     32.13      0.00
    0    3    0    -34.02      0.00
    0    4    0    -22.06      0.00
    0    5    0     -9.91      0.00
    0    6    0     -2.55      0.00
    0    7    0     -1.66      0.00
    0    8    0      4.57      0.00
    0   10    0      0.66      0.00
    0   11    0      7.78      0.00
    0   12    0     -4.04      0.00
    0   13    0      5.74      0.00
    0   14    0      3.01      0.00
    0    1    1    105.77      0.00
    0    2    1      7.78      0.00
    0    3    1     21.43      0.00
    0    4    1     -0.51      0.00
    0    5    1     -8.44      0.00
    0    6    1     -0.14      0.00
    0    7    1     -6.29      0.00
    0    8    1     -1.55      0.00
    0    9    1     -1.50      0.00
    0   10    1     -2.76      0.00
    0   11    1      2.00      0.00
    0   12    1     -0.17      0.00
    0   13    1     -1.04      0.00
    0   14    1      1.12      0.00
    0    0    2     74.51      0.00
    0    1    2    -40.34      0.00
    0    2    2     20.14      0.00
    0    3    2      9.92      0.00
    0    4    2     -2.76      0.00
    0    5    2     -3.18      0.00
    0    6    2     -2.34      0.00
    0    7    2      1.04      0.00
    0    8    2     -0.14      0.00
    0    9    2     -4.97      0.00
    0   10    2      0.00      0.00
    0   11    2      0.54      0.00
    0   12    2      3.77      0.00
    0   13    2      0.91      0.00
    0   14    2      3.65      0.00
    0    1    3     70.86      0.00
    0    2    3     -3.15      0.00
    0    3    3     19.50      0.00
    0    4    3      4.62      0.00
    0    5    3      0.24      0.00
    0    6    3     -2.81      0.00
    0    7    3     -4.79      0.00
    0    8    3      0.90      0.00
    0    9    3     -1.71      0.00
    0   10    3     -5.78      0.00
    0   11    3     -1.46      0.00
    0   12    3      0.17      0.00
    0   13    3     -0.80      0.00
    0   14    3      3.73      0.00
    0    1    4     -2.46      0.00
    0    2    4     10.00      0.00
    0    3    4     15.20      0.00
    0    4    4     11.37      0.00
    0    5    4      0.25      0.00
    0    6    4      3.44      0.00
    0    7    4      0.81      0.00
    0    8    4     -2.09      0.00
    0    9    4      1.95      0.00
    0   10    4     -2.10      0.00
    0   11    4     -3.26      0.00
    0   12    4     -0.16      0.00
    0   13    4     -2.50      0.00
    0   14    4      1.08      0.00
    0    1    5    -18.11      0.00
    0    2    5     -0.79      0.00
    0    3    5     -0.97      0.00
    0    4    5      5.55      0.00
    0    5    5      6.16      0.00
    0    6    5     -0.75      0.00
    0    7    5     -0.86      0.00
    0    8    5      0.81      0.00
    0    9    5      2.87      0.00
    0   10    5     -1.15      0.00
    0   11    5      1.83      0.00
    0   12    5     -0.90      0.00
    0   13    5     -2.74      0.00
    0   14    5     -1.31      0.00
    0    0    6      9.90      0.00
    0    1    6    -11.09      0.00
    0    2    6     -0.34      0.00
    0    3    6      3.18      0.00
    0    4    6      5.19      0.00
    0    5    6     -0.71      0.00
    0    6    6      6.99      0.00
    0    7    6     -0.77      0.00
    0    8    6     -1.21      0.00
    0    9    6      1.35      0.00
    0   10    6     -1.16      0.00
    0   11    6     -1.50      0.00
    0   12    6      2.96      0.00
    0   13    6     -1.96      0.00
    0   14    6      0.78      0.00
    0    1    7     -2.29      0.00
    0    2    7     -4.65      0.00
    0    3    7     -3.36      0.00
    0    4    7     -0.74      0.00
    0    5    7      3.58      0.00
    0    6    7     -1.25      0.00
    0    7    7      0.41      0.00
    0    8    7      2.62      0.00
    0    9    7      2.06      0.00
    0   10    7      0.60      0.00
    0   11    7     -0.06      0.00
    0   13    7      0.06      0.00
    0    0    8     10.04      0.00
    0    1    8     -5.44      0.00
    0    2    8     -0.41      0.00
    0    3    8     -1.29      0.00
    0    4    8      1.72      0.00
    0    5    8     -0.76      0.00
    0    6    8      4.79      0.00
    0    7    8     -1.79      0.00
    0    8    8     -0.83      0.00
    0    9    8      2.79      0.00
    0   10    8     -0.20      0.00
    0   11    8     -0.10      0.00
    0    1    9      5.22      0.00
    0    2    9     -4.56      0.00
    0    3    9     -6.22      0.00
    0    4    9     -3.36      0.00
    0    5    9     -1.18      0.00
    0    6    9      2.01      0.00
    0    7    9      0.97      0.00
    0    8    9      0.81      0.00
    0    9    9      3.30      0.00
    0   10    9     -0.51      0.00
    0   11    9      2.48      0.00
    0    0   10     -1.55      0.00
    0    1   10      2.44      0.00
    0    2   10      3.13      0.00
    0    3   10      2.30      0.00
    0    4   10     -2.95      0.00
    0    5   10     -3.47      0.00
    0    6   10     -3.00      0.00
    0    7   10      0.88      0.00
    0    8   10     -2.62      0.00
    0    9   10      3.77      0.00
    0   10   10      0.10      0.00
    0   11   10     -1.25      0.00
    0   12   10     -0.53      0.00
    0    1   11      1.33      0.00
    0    2   11     -4.11      0.00
    0    3   11      0.68      0.00
    0    4   11      1.12      0.00
    0    5   11      1.57      0.00
    0    6   11     -1.84      0.00
    0    7   11     -0.26      0.00
    0    8   11     -1.37      0.00
    0    9   11      0.73      0.00
    0   10   11      0.34      0.00
    0   11   11     -0.90      0.00
    0    0   12      0.05      0.00
    0    1   12      0.65      0.00
    0    2   12      0.50      0.00
    0    3   12     -1.81      0.00
    0    4   12     -1.14      0.00
    0    5   12     -1.00      0.00
    0    6   12     -0.71      0.00
    0    7   12     -0.17      0.00
    0    8   12     -0.71      0.00
    0    9   12      2.85      0.00
    0   10   12      1.28      0.00
    0   11   12      0.26      0.00
    0    1   13      1.05      0.00
    0    2   13      1.34      0.00
    0    3   13      0.49      0.00
    0    4   13      0.75      0.00
    0    5   13     -0.65      0.00
    0    6   13     -0.79      0.00
    0    7   13     -2.02      0.00
    0    8   13     -1.08      0.00
    0    9   13      0.84      0.00
    0   10   13      2.09      0.00
    0    0   14      0.16      0.00
    0    1   14     -4.60      0.00
    0    2   14     -0.38      0.00
    0    3   14      2.52      0.00
    0    4   14     -0.47      0.00
    0    5   14      1.83      0.00
    0    6   14     -0.60      0.00
    0    7   14     -1.78      0.00
    0    8   14      0.21      0.00
    0    9   14     -6.20      0.00
    0    1   15     -0.42      0.00
    0    2   15     -2.15      0.00
    0    3   15     -0.65      0.00
    0    4   15      1.41      0.00
    0    5   15     -1.08      0.00
    0    7   15     -1.20      0.00
    0    0   16     -1.11      0.00
    0    1   16      1.98      0.00
    0    2   16      0.58      0.00
    0    3   16     -1.45      0.00
    0    4   16      3.02      0.00
    0    1   17     -2.38      0.00
    0    2   17      2.11      0.00
    0    3   17      0.51      0.00
    1    1    1     51.56      0.00
    1    2    1    -21.32      0.00
    1    3    1      8.94      0.00
    1    4    1     14.06      0.00
    1    5    1      6.63      0.00
    1    6    1      3.33      0.00
    1    7    1      1.13      0.00
    1    8    1     -2.18      0.00
    1    9    1      2.66      0.00
    1   10    1     -1.09      0.00
    1   11    1     -4.14      0.00
    1   12    1      0.32      0.00
    1   13    1     -1.56      0.00
    1   14    1     -1.75      0.00
    1    1    2   -100.26      0.00
    1    2    2    -12.57      0.00
    1    3    2    -27.22      0.00
    1    4    2     -1.80      0.00
    1    5    2      7.51      0.00
    1    6    2      1.76      0.00
    1    7    2      6.67      0.00
    1    8    2      0.65      0.00
    1    9    2      2.10      0.00
    1   10    2      3.94      0.00
    1   11    2      0.57      0.00
    1   12    2     -0.21      0.00
    1   13    2      0.30      0.00
    1   14    2     -1.54      0.00
    1    0    3     42.48      0.00
    1    1    3     10.07      0.00
    1    2    3     -8.95      0.00
    1    3    3    -19.44      0.00
    1    4    3     -8.66      0.00
    1    5    3     -0.89      0.00
    1    6    3      0.14      0.00
    1    7    3     -0.64      0.00
    1    8    3      1.78      0.00
    1    9    3      1.22      0.00
    1   10    3      0.79      0.00
    1   11    3      3.01      0.00
    1   12    3     -1.98      0.00
    1   13    3      1.77      0.00
    1   14    3     -1.74      0.00
    1    1    4     -6.97      0.00
    1    2    4     -2.92      0.00
    1    3    4     -6.09      0.00
    1    4    4     -4.71      0.00
    1    5    4     -3.52      0.00
    1    6    4      1.05      0.00
    1    7    4      1.70      0.00
    1    8    4     -1.46      0.00
    1    9    4      0.52      0.00
    1   10    4      2.24      0.00
    1   11    4      1.99      0.00
    1   12    4      0.47      0.00
    1   13    4      0.89      0.00
    1   14    4     -1.25      0.00
    1    0    5     12.77      0.00
    1    1    5      7.33      0.00
    1    2    5     -1.15      0.00
    1    3    5     -6.82      0.00
    1    4    5     -7.73      0.00
    1    5    5     -0.95      0.00
    1    6    5     -4.78      0.00
    1    7    5      0.22      0.00
    1    8    5      0.20      0.00
    1    9    5     -1.93      0.00
    1   10    5      1.10      0.00
    1   11    5      3.23      0.00
    1   12    5     -0.82      0.00
    1   13    5      1.90      0.00
    1   14    5     -0.53      0.00
    1    1    6      8.22      0.00
    1    2    6     -0.74      0.00
    1    3    6      2.32      0.00
    1    4    6     -1.96      0.00
    1    5    6     -3.62      0.00
    1    6    6      0.06      0.00
    1    7    6      0.22      0.00
    1    8    6     -0.89      0.00
    1    9    6     -1.37      0.00
    1   10    6     -0.27      0.00
    1   11    6      1.33      0.00
    1   12    6      0.78      0.00
    1   13    6      0.09      0.00
    1   14    6      0.11      0.00
    1    0    7    -10.90      0.00
    1    1    7      7.77      0.00
    1    2    7      2.10      0.00
    1    3    7     -0.28      0.00
    1    4    7     -3.48      0.00
    1    5    7     -1.14      0.00
    1    6    7     -5.00      0.00
    1    7    7      0.31      0.00
    1    8    7      0.84      0.00
    1    9    7     -1.00      0.00
    1   10    7      0.09      0.00
    1   11    7      0.77      0.00
    1   12    7     -1.01      0.00
    1   13    7      0.30      0.00
    1    1    8     -2.96      0.00
    1    2    8      4.28      0.00
    1    3    8      4.15      0.00
    1    4    8      2.89      0.00
    1    5    8     -0.40      0.00
    1    6    8     -1.06      0.00
    1    7    8     -1.35      0.00
    1    8    8     -2.46      0.00
    1    9    8     -1.24      0.00
    1   10    8      0.44      0.00
    1   11    8      0.38      0.00
    1   12    8      0.06      0.00
    1   13    8     -2.61      0.00
    1    0    9     -2.29      0.00
    1    1    9      0.57      0.00
    1    2    9     -1.75      0.00
    1    3    9      0.28      0.00
    1    4    9     -0.09      0.00
    1    5    9      1.74      0.00
    1    6    9     -0.10      0.00
    1    7    9      1.11      0.00
    1    8    9      0.89      0.00
    1    9    9     -1.86      0.00
    1   10    9     -0.60      0.00
    1   11    9      0.27      0.00
    1   12    9      0.92      0.00
    1    1   10     -2.56      0.00
    1    2   10      3.39      0.00
    1    3   10      1.77      0.00
    1    4   10      1.26      0.00
    1    5   10      0.81      0.00
    1    6   10     -0.31      0.00
    1    7   10     -0.30      0.00
    1    8   10      0.55      0.00
    1    9   10     -1.30      0.00
    1   10   10      1.49      0.00
    1   11   10     -0.46      0.00
    1   12   10      1.64      0.00
    1    0   11      1.20      0.00
    1    1   11     -3.59      0.00
    1    2   11     -1.70      0.00
    1    3   11     -0.21      0.00
    1    4   11      1.42      0.00
    1    5   11      3.00      0.00
    1    6   11      2.73      0.00
    1    7   11     -0.58      0.00
    1    8   11      1.67      0.00
    1    9   11     -3.01      0.00
    1   10   11      0.48      0.00
    1   11   11     -0.01      0.00
    1    1   12     -1.17      0.00
    1    2   12      0.29      0.00
    1    3   12     -2.19      0.00
    1    4   12     -2.04      0.00
    1    5   12     -1.54      0.00
    1    6   12      1.86      0.00
    1    7   12      2.27      0.00
    1    8   12      1.30      0.00
    1    9   12     -0.89      0.00
    1   10   12     -2.15      0.00
    1    0   13     -1.63      0.00
    1    1   13      2.33      0.00
    1    2   13      0.46      0.00
    1    3   13      1.37      0.00
    1    4   13      1.84      0.00
    1    5   13     -0.71      0.00
    1    6   13     -0.25      0.00
    1    7   13      1.15      0.00
    1    8   13      0.15      0.00
    1    9   13      1.87      0.00
    1   10   13     -2.90      0.00
    1    1   14     -1.22      0.00
    1    2   14      0.77      0.00
    1    3   14      0.36      0.00
    1    4   14     -0.29      0.00
    1    5   14      1.30      0.00
    1    6   14     -1.94      0.00
    1    7   14      2.27      0.00
    1    8   14      2.11      0.00
    1    9   14     -0.30      0.00
    1    0   15      0.65      0.00
    1    1   15     -0.54      0.00
    1    2   15     -0.92      0.00
    1    3   15     -0.29      0.00
    1    4   15     -0.81      0.00
    1    5   15      1.30      0.00
    1    6   15      0.94      0.00
    1    7   15     -1.68      0.00
    1    1   16      2.43      0.00
    1    2   16      0.09      0.00
    1    3   16      0.48      0.00
    1    4   16     -0.76      0.00
    1    5   16     -2.41      0.00
    1    0   17     -0.34      0.00
    1    1   17     -1.31      0.00
    1    2   17      0.93      0.00
    1    3   17      0.34      0.00
    1    4   17     -0.75      0.00
    2    0    0     93.50      0.00
    2    1    0     25.55      0.00
    2    2    0      6.05      0.00
    2    3    0      1.36      0.00
    2    4    0    -19.92      0.00
    2    5    0     -7.06      0.00
    2    6    0     -2.12      0.00
    2    7    0     -0.45      0.00
    2    8    0      1.75      0.00
    2   10    0      0.78      0.00
    2   11    0      1.72      0.00
    2   12    0      1.64      0.00
    2   13    0     -1.32      0.00
    2   14    0     -0.24      0.00
    2    1    1     27.12      0.00
    2    2    1     18.02      0.00
    2    3    1     18.06      0.00
    2    4    1      3.98      0.00
    2    5    1     -3.39      0.00
    2    6    1     -1.31      0.00
    2    7    1     -3.31      0.00
    2    8    1     -1.15      0.00
    2    9    1     -0.22      0.00
    2   10    1     -0.69      0.00
    2   11    1     -0.42      0.00
    2   12    1      1.60      0.00
    2   13    1     -0.03      0.00
    2   14    1     -2.33      0.00
    2    0    2     28.25      0.00
    2    1    2     -0.81      0.00
    2    2    2      1.65      0.00
    2    3    2      7.57      0.00
    2    4    2     -2.41      0.00
    2    5    2     -0.37      0.00
    2    6    2     -1.35      0.00
    2    7    2      0.00      0.00
    2    8    2     -1.97      0.00
    2    9    2     -1.16      0.00
    2   10    2     -0.29      0.00
    2   11    2     -0.12      0.00
    2   12    2      2.95      0.00
    2   13    2      0.96      0.00
    2   14    2      0.70      0.00
    2    1    3     17.50      0.00
    2    2    3     17.46      0.00
    2    3    3     13.29      0.00
    2    4    3      5.50      0.00
    2    5    3     -2.17      0.00
    2    6    3      0.51      0.00
    2    7    3     -3.45      0.00
    2    8    3      0.48      0.00
    2    9    3     -3.04      0.00
    2   10    3     -0.33      0.00
    2   11    3     -3.17      0.00
    2   12    3      0.89      0.00
    2   13    3      0.99      0.00
    2   14    3     -1.97      0.00
    2    0    4     -8.50      0.00
    2    1    4     -8.74      0.00
    2    2    4     -4.63      0.00
    2    3    4      9.88      0.00
    2    4    4      7.72      0.00
    2    5    4      2.73      0.00
    2    6    4      1.54      0.00
    2    7    4     -1.32      0.00
    2    8    4      0.60      0.00
    2    9    4     -0.97      0.00
    2   10    4      0.30      0.00
    2   11    4     -3.24      0.00
    2   12    4      1.49      0.00
    2   13    4     -0.68      0.00
    2   14    4      0.78      0.00
    2    1    5     -3.37      0.00
    2    2    5      4.69      0.00
    2    3    5     -1.35      0.00
    2    4    5      2.44      0.00
    2    5    5      3.15      0.00
    2    6    5      1.33      0.00
    2    7    5     -0.81      0.00
    2    8    5      0.21      0.00
    2    9    5     -1.31      0.00
    2   10    5      2.65      0.00
    2   11    5     -2.83      0.00
    2   12    5      0.00      0.00
    2   13    5     -0.65      0.00
    2   14    5     -2.39      0.00
    2    0    6      5.54      0.00
    2    1    6     -6.73      0.00
    2    2    6     -2.42      0.00
    2    3    6      3.24      0.00
    2    4    6      3.52      0.00
    2    5    6      3.42      0.00
    2    6    6      1.61      0.00
    2    7    6      1.26      0.00
    2    8    6      0.38      0.00
    2    9    6     -0.48      0.00
    2   10    6      0.40      0.00
    2   11    6     -1.28      0.00
    2   12    6      1.69      0.00
    2   13    6      0.64      0.00
    2   14    6     -2.07      0.00
    2    1    7      1.91      0.00
    2    2    7     -1.80      0.00
    2    3    7     -3.13      0.00
    2    4    7     -0.66      0.00
    2    5    7     -0.20      0.00
    2    6    7      2.45      0.00
    2    7    7     -0.26      0.00
    2    8    7      0.75      0.00
    2    9    7      0.57      0.00
    2   10    7      1.90      0.00
    2   11    7     -2.89      0.00
    2   12    7     -0.16      0.00
    2   13    7      3.32      0.00
    2    0    8     -1.73      0.00
    2    1    8     -1.32      0.00
    2    2    8      1.40      0.00
    2    3    8     -0.89      0.00
    2    4    8      2.15      0.00
    2    5    8      0.89      0.00
    2    6    8      0.00      0.00
    2    7    8      0.97      0.00
    2    8    8      0.36      0.00
    2    9    8     -0.15      0.00
    2   10    8      1.81      0.00
    2   11    8     -0.09      0.00
    2   12    8     -2.31      0.00
    2   13    8      0.23      0.00
    2    1    9     -0.63      0.00
    2    2    9     -3.19      0.00
    2    3    9     -1.37      0.00
    2    4    9     -3.62      0.00
    2    5    9     -0.73      0.00
    2    6    9      1.05      0.00
    2    7    9      0.90      0.00
    2    8    9      0.98      0.00
    2    9    9      0.12      0.00
    2   10    9      0.31      0.00
    2   11    9      0.63      0.00
    2   12    9      0.28      0.00
    2    0   10     -0.02      0.00
    2    1   10      2.36      0.00
    2    2   10      1.14      0.00
    2    3   10     -0.53      0.00
    2    4   10      1.84      0.00
    2    5   10     -2.92      0.00
    2    6   10     -2.30      0.00
    2    7   10     -1.40      0.00
    2    8   10      1.93      0.00
    2    9   10      1.01      0.00
    2   10   10     -0.78      0.00
    2   11   10     -1.24      0.00
    2   12   10     -2.08      0.00
    2    1   11      0.25      0.00
    2    2   11     -1.19      0.00
    2    3   11     -0.21      0.00
    2    4   11      0.25      0.00
    2    5   11      0.36      0.00
    2    6   11      0.45      0.00
    2    7   11     -2.09      0.00
    2    8   11     -0.43      0.00
    2    9   11      1.63      0.00
    2   10   11      0.58      0.00
    2   11   11     -0.93      0.00
    2    0   12      1.59      0.00
    2    1   12      0.05      0.00
    2    2   12     -0.50      0.00
    2    3   12     -0.65      0.00
    2    4   12     -0.38      0.00
    2    5   12     -0.31      0.00
    2    6   12     -2.38      0.00
    2    7   12     -0.51      0.00
    2    8   12      0.11      0.00
    2    9   12      2.17      0.00
    2   10   12      0.46      0.00
    2    1   13      3.04      0.00
    2    2   13     -1.86      0.00
    2    3   13      1.02      0.00
    2    4   13      0.74      0.00
    2    5   13      0.27      0.00
    2    6   13      1.59      0.00
    2    7   13     -3.41      0.00
    2    8   13     -2.05      0.00
    2    9   13      1.69      0.00
    2   10   13      0.70      0.00
    2    0   14     -2.38      0.00
    2    1   14      0.25      0.00
    2    2   14     -0.09      0.00
    2    3   14     -2.83      0.00
    2    4   14      0.59      0.00
    2    5   14     -0.14      0.00
    2    6   14      0.18      0.00
    2    7   14      0.87      0.00
    2    8   14     -1.38      0.00
    2    9   14     -2.18      0.00
    2    1   15     -0.57      0.00
    2    2   15      1.44      0.00
    2    3   15     -0.03      0.00
    2    4   15     -2.03      0.00
    2    5   15     -0.04      0.00
    2    6   15      0.64      0.00
    2    7   15     -0.31      0.00
    2    0   16      0.14      0.00
    2    1   16      0.66      0.00
    2    2   16     -0.09      0.00
    2    3   16      1.56      0.00
    2    4   16      0.50      0.00
    2    5   16      0.18      0.00
    2    6   16     -2.39      0.00
    2    1   17     -2.43      0.00
    2    2   17      2.15      0.00
    2    3   17     -0.93      0.00
    3    0    1     35.10      0.00
    3    1    1    -62.30      0.00
    3    2    1      4.78      0.00
    3    3    1    -13.47      0.00
    3    4    1     10.53      0.00
    3    5    1      3.47      0.00
    3    6    1      1.20      0.00
    3    7    1     -0.35      0.00
    3    8    1      1.30      0.00
    3    9    1     -1.28      0.00
    3   10    1      0.17      0.00
    3   11    1      0.43      0.00
    3   12    1     -3.13      0.00
    3   13    1      1.12      0.00
    3   14    1      0.51      0.00
    3    1    2     26.97      0.00
    3    2    2    -30.90      0.00
    3    3    2    -13.78      0.00
    3    4    2     -9.58      0.00
    3    5    2      1.40      0.00
    3    6    2      0.03      0.00
    3    7    2      1.78      0.00
    3    8    2      0.46      0.00
    3    9    2      0.64      0.00
    3   10    2     -0.97      0.00
    3   11    2      3.41      0.00
    3   12    2     -1.92      0.00
    3   13    2     -0.95      0.00
    3   14    2      2.82      0.00
    3    0    3    -36.43      0.00
    3    1    3     14.94      0.00
    3    2    3      8.65      0.00
    3    3    3     -2.97      0.00
    3    4    3     -3.20      0.00
    3    5    3     -2.88      0.00
    3    6    3      0.39      0.00
    3    7    3      1.57      0.00
    3    8    3      0.58      0.00
    3    9    3      1.51      0.00
    3   10    3     -1.28      0.00
    3   11    3      0.87      0.00
    3   12    3     -0.54      0.00
    3   13    3     -1.28      0.00
    3   14    3     -1.18      0.00
    3    1    4      0.76      0.00
    3    2    4    -10.36      0.00
    3    3    4     -1.13      0.00
    3    4    4     -3.37      0.00
    3    5    4      0.68      0.00
    3    6    4     -2.61      0.00
    3    7    4      0.50      0.00
    3    8    4     -0.44      0.00
    3    9    4      2.89      0.00
    3   10    4     -2.48      0.00
    3   11    4      2.66      0.00
    3   12    4     -0.40      0.00
    3   13    4      0.09      0.00
    3   14    4      4.25      0.00
    3    0    5    -16.90      0.00
    3    1    5      7.65      0.00
    3    2    5      6.37      0.00
    3    3    5     -3.01      0.00
    3    4    5     -3.53      0.00
    3    5    5     -3.42      0.00
    3    6    5      0.26      0.00
    3    7    5      0.39      0.00
    3    8    5     -2.33      0.00
    3    9    5      2.37      0.00
    3   10    5     -1.09      0.00
    3   11    5      1.02      0.00
    3   12    5     -1.70      0.00
    3   13    5     -2.29      0.00
    3   14    5      1.67      0.00
    3    1    6     -9.36      0.00
    3    2    6     -1.38      0.00
    3    3    6      2.40      0.00
    3    4    6      0.70      0.00
    3    5    6      0.12      0.00
    3    6    6     -2.80      0.00
    3    7    6      0.77      0.00
    3    8    6      0.13      0.00
    3    9    6      0.56      0.00
    3   10    6     -2.24      0.00
    3   11    6      3.01      0.00
    3   12    6      1.14      0.00
    3   13    6     -2.58      0.00
    3    0    7      5.90      0.00
    3    1    7      1.42      0.00
    3    2    7     -2.47      0.00
    3    3    7     -0.55      0.00
    3    4    7     -1.04      0.00
    3    5    7     -3.62      0.00
    3    6    7      1.33      0.00
    3    7    7     -2.87      0.00
    3    8    7     -0.30      0.00
    3    9    7      1.09      0.00
    3   10    7     -1.25      0.00
    3   11    7     -0.56      0.00
    3   12    7      1.04      0.00
    3   13    7     -0.86      0.00
    3    1    8      0.66      0.00
    3    2    8      2.45      0.00
    3    3    8      0.34      0.00
    3    4    8      2.11      0.00
    3    5    8      2.31      0.00
    3    6    8     -2.55      0.00
    3    7    8     -0.17      0.00
    3    8    8     -0.53      0.00
    3    9    8      0.16      0.00
    3   10    8     -1.88      0.00
    3   11    8      0.78      0.00
    3   12    8     -0.25      0.00
    3   13    8     -5.35      0.00
    3    0    9      3.51      0.00
    3    1    9     -2.93      0.00
    3    2    9     -1.21      0.00
    3    3    9      3.14      0.00
    3    4    9     -3.08      0.00
    3    5    9      0.61      0.00
    3    6    9      1.01      0.00
    3    7    9     -0.20      0.00
    3    8    9     -2.38      0.00
    3    9    9      1.08      0.00
    3   10    9      0.52      0.00
    3   11    9      0.00      0.00
    3   12    9      3.35      0.00
    3    1   10      3.11      0.00
    3    2   10      0.62      0.00
    3    3   10     -0.08      0.00
    3    4   10      3.08      0.00
    3    5   10      0.07      0.00
    3    6   10     -0.62      0.00
    3    7   10      0.79      0.00
    3    8   10     -0.68      0.00
    3    9   10     -0.38      0.00
    3   10   10     -0.23      0.00
    3   11   10      0.19      0.00
    3   12   10      1.58      0.00
    3    0   11     -5.81      0.00
    3    1   11      0.70      0.00
    3    2   11      0.54      0.00
    3    3   11      0.55      0.00
    3    4   11     -1.21      0.00
    3    5   11      0.02      0.00
    3    6   11      2.48      0.00
    3    7   11      0.94      0.00
    3    8   11     -2.50      0.00
    3    9   11     -1.22      0.00
    3   10   11      1.69      0.00
    3   11   11     -1.29      0.00
    3    1   12     -2.95      0.00
    3    2   12      3.22      0.00
    3    3   12      0.03      0.00
    3    4   12     -1.36      0.00
    3    5   12      0.33      0.00
    3    6   12     -3.48      0.00
    3    7   12      3.88      0.00
    3    8   12      0.66      0.00
    3    9   12     -2.38      0.00
    3   10   12     -0.38      0.00
    3    0   13      2.76      0.00
    3    1   13     -1.29      0.00
    3    2   13      1.21      0.00
    3    3   13      3.62      0.00
    3    4   13     -0.92      0.00
    3    5   13     -0.01      0.00
    3    6   13      1.13      0.00
    3    7   13     -1.42      0.00
    3    8   13      0.77      0.00
    3    9   13     -0.94      0.00
    3    1   14     -0.71      0.00
    3    2   14      0.78      0.00
    3    3   14     -0.73      0.00
    3    4   14      1.87      0.00
    3    5   14     -0.66      0.00
    3    6   14     -0.72      0.00
    3    7   14      2.33      0.00
    3    8   14      0.52      0.00
    3    0   15      0.47      0.00
    3    1   15     -0.44      0.00
    3    2   15      0.26      0.00
    3    3   15      1.07      0.00
    3    4   15     -0.76      0.00
    3    5   15     -0.71      0.00
    3    6   15      1.00      0.00
    3    7   15     -1.80      0.00
    3    1   16      1.98      0.00
    3    2   16     -3.49      0.00
    3    3   16      1.25      0.00
    3    4   16      0.88      0.00
    3    5   16     -0.09      0.00
    3    6   16     -0.04      0.00
    3    0   17     -0.81      0.00
    3    1   17     -0.09      0.00
    3    2   17      2.16      0.00
    3    3   17     -4.20      0.00
    4    0    0    -95.91      0.00
    4    1    0     79.19      0.00
    4    2    0      0.60      0.00
    4    3    0     21.79      0.00
    4    4    0     -2.98      0.00
    4    5    0     -3.56      0.00
    4    6    0     -0.71      0.00
    4    7    0      1.00      0.00
    4    8    0     -2.37      0.00
    4    9    0      2.11      0.00
    4   10    0     -1.55      0.00
    4   11    0     -0.87      0.00
    4   12    0      4.21      0.00
    4   13    0     -0.15      0.00
    4   14    0      0.15      0.00
    4    1    1    -37.93      0.00
    4    2    1     23.78      0.00
    4    3    1      4.50      0.00
    4    4    1      7.84      0.00
    4    5    1      1.54      0.00
    4    6    1     -0.23      0.00
    4    7    1     -0.31      0.00
    4    8    1     -0.10      0.00
    4    9    1     -0.28      0.00
    4   10    1      1.18      0.00
    4   11    1     -3.14      0.00
    4   12    1     -0.03      0.00
    4   13    1      0.76      0.00
    4   14    1      2.19      0.00
    4    0    2      9.41      0.00
    4    1    2      6.74      0.00
    4    2    2     -4.39      0.00
    4    3    2      7.63      0.00
    4    4    2      0.21      0.00
    4    5    2      0.63      0.00
    4    6    2      0.41      0.00
    4    7    2     -1.28      0.00
    4    8    2     -0.34      0.00
    4    9    2     -0.31      0.00
    4   10    2      0.82      0.00
    4   11    2      0.67      0.00
    4   12    2     -1.82      0.00
    4   13    2     -0.54      0.00
    4   14    2      0.79      0.00
    4    1    3    -24.19      0.00
    4    2    3     17.58      0.00
    4    3    3      3.30      0.00
    4    4    3      6.80      0.00
    4    5    3     -0.49      0.00
    4    6    3      2.02      0.00
    4    7    3      0.32      0.00
    4    8    3     -1.88      0.00
    4    9    3      0.05      0.00
    4   10    3      1.20      0.00
    4   11    3     -1.24      0.00
    4   12    3      1.16      0.00
    4   13    3     -1.55      0.00
    4   14    3     -1.27      0.00
    4    0    4     56.00      0.00
    4    1    4    -23.71      0.00
    4    2    4     -6.61      0.00
    4    3    4     -2.41      0.00
    4    4    4      2.29      0.00
    4    5    4      3.26      0.00
    4    6    4     -1.06      0.00
    4    7    4      0.02      0.00
    4    8    4      1.54      0.00
    4    9    4     -2.99      0.00
    4   10    4      2.55      0.00
    4   11    4     -0.85      0.00
    4   12    4     -0.52      0.00
    4   13    4      2.00      0.00
    4   14    4     -0.11      0.00
    4    1    5     17.09      0.00
    4    2    5     -0.85      0.00
    4    3    5     -0.80      0.00
    4    4    5     -0.20      0.00
    4    5    5     -0.70      0.00
    4    6    5      2.60      0.00
    4    7    5     -0.48      0.00
    4    8    5     -0.20      0.00
    4    9    5     -1.11      0.00
    4   10    5      0.33      0.00
    4   11    5     -0.17      0.00
    4   12    5     -1.80      0.00
    4   13    5      0.72      0.00
    4   14    5     -1.41      0.00
    4    0    6      1.52      0.00
    4    1    6      0.23      0.00
    4    2    6      1.06      0.00
    4    3    6     -1.43      0.00
    4    4    6      1.62      0.00
    4    5    6      1.69      0.00
    4    6    6     -0.87      0.00
    4    7    6      0.34      0.00
    4    8    6      1.80      0.00
    4    9    6     -0.27      0.00
    4   10    6      0.62      0.00
    4   11    6      1.10      0.00
    4   12    6     -0.85      0.00
    4   13    6      2.73      0.00
    4    1    7      6.42      0.00
    4    2    7      0.71      0.00
    4    3    7      0.48      0.00
    4    4    7     -0.56      0.00
    4    5    7     -1.12      0.00
    4    6    7      1.77      0.00
    4    7    7     -1.17      0.00
    4    8    7     -1.16      0.00
    4    9    7     -0.75      0.00
    4   10    7     -0.06      0.00
    4   11    7      0.23      0.00
    4   12    7     -1.30      0.00
    4   13    7      5.99      0.00
    4    0    8     -9.80      0.00
    4    1    8      1.55      0.00
    4    2    8      3.10      0.00
    4    3    8     -0.53      0.00
    4    4    8      1.87      0.00
    4    5    8      1.87      0.00
    4    6    8     -0.92      0.00
    4    7    8      1.09      0.00
    4    8    8      0.44      0.00
    4    9    8     -0.55      0.00
    4   10    8     -0.46      0.00
    4   11    8      0.43      0.00
    4   12    8     -0.73      0.00
    4   13    8     -1.10      0.00
    4    1    9     -5.15      0.00
    4    2    9     -1.06      0.00
    4    3    9      1.70      0.00
    4    4    9     -0.61      0.00
    4    5    9     -1.17      0.00
    4    6    9      0.75      0.00
    4    7    9     -0.15      0.00
    4    8    9      0.80      0.00
    4    9    9     -1.31      0.00
    4   10    9     -0.11      0.00
    4   11    9     -0.81      0.00
    4   12    9     -0.29      0.00
    4    0   10      6.52      0.00
    4    1   10     -1.33      0.00
    4    2   10      0.79      0.00
    4    3   10     -3.08      0.00
    4    4   10      2.73      0.00
    4    5   10      1.03      0.00
    4    6   10     -1.57      0.00
    4    7   10     -0.82      0.00
    4    8   10      1.57      0.00
    4    9   10      1.22      0.00
    4   10   10     -2.87      0.00
    4   11   10      3.67      0.00
    4   12   10     -5.90      0.00
    4    1   11      3.01      0.00
    4    2   11     -1.00      0.00
    4    3   11      1.32      0.00
    4    4   11     -0.98      0.00
    4    5   11     -0.79      0.00
    4    6   11      2.53      0.00
    4    7   11     -3.30      0.00
    4    8   11     -0.10      0.00
    4    9   11      0.85      0.00
    4   10   11     -1.79      0.00
    4   11   11      1.36      0.00
    4    0   12     -1.01      0.00
    4    1   12     -0.14      0.00
    4    2   12      0.02      0.00
    4    3   12     -0.65      0.00
    4    4   12     -0.14      0.00
    4    5   12      1.03      0.00
    4    6   12     -1.13      0.00
    4    7   12      1.46      0.00
    4    8   12      0.18      0.00
    4    9   12      0.10      0.00
    4   10   12      0.35      0.00
    4    1   13      1.03      0.00
    4    2   13     -2.38      0.00
    4    3   13      1.42      0.00
    4    4   13     -0.47      0.00
    4    5   13     -0.66      0.00
    4    6   13      2.34      0.00
    4    7   13     -1.81      0.00
    4    8   13      1.07      0.00
    4    9   13     -0.56      0.00
    4    0   14     -0.25      0.00
    4    1   14      1.14      0.00
    4    2   14     -0.61      0.00
    4    3   14     -3.88      0.00
    4    4   14      1.29      0.00
    4    5   14     -2.02      0.00
    4    6   14     -1.77      0.00
    4    7   14      2.15      0.00
    4    8   14      0.66      0.00
    4    1   15     -1.04      0.00
    4    2   15      2.42      0.00
    4    3   15     -1.33      0.00
    4    4   15     -0.98      0.00
    4    5   15      1.25      0.00
    4    6   15     -0.78      0.00
    4    7   15     -3.94      0.00
    4    0   16      1.82      0.00
    4    1   16      0.99      0.00
    4    2   16     -2.88      0.00
    4    3   16      4.07      0.00
    4    4   16     -3.19      0.00
    4    5   16      3.33      0.00
    4    1   17     -0.19      0.00
    4    2   17      0.05      0.00
    4    3   17     -1.52      0.00
    5    0    1     18.34      0.00
    5    1    1    -20.43      0.00
    5    2    1     -6.98      0.00
    5    3    1    -10.03      0.00
    5    4    1     -3.93      0.00
    5    5    1      1.71      0.00
    5    6    1     -1.13      0.00
    5    7    1      1.19      0.00
    5    8    1      0.50      0.00
    5    9    1     -1.24      0.00
    5   10    1      0.46      0.00
    5   11    1     -0.65      0.00
    5   12    1     -0.47      0.00
    5   13    1     -2.49      0.00
    5   14    1     -2.57      0.00
    5    1    2     33.57      0.00
    5    2    2    -16.15      0.00
    5    3    2      0.47      0.00
    5    4    2     -8.09      0.00
    5    5    2     -4.27      0.00
    5    6    2     -1.10      0.00
    5    7    2     -1.05      0.00
    5    8    2      1.71      0.00
    5    9    2      0.29      0.00
    5   10    2      0.11      0.00
    5   11    2      1.92      0.00
    5   12    2      0.57      0.00
    5   13    2      0.84      0.00
    5   14    2     -5.89      0.00
    5    0    3    -54.63      0.00
    5    1    3     27.18      0.00
    5    2    3      1.61      0.00
    5    3    3      0.06      0.00
    5    4    3      0.39      0.00
    5    5    3     -1.81      0.00
    5    6    3     -0.76      0.00
    5    7    3      0.01      0.00
    5    8    3     -1.50      0.00
    5    9    3      2.33      0.00
    5   10    3     -2.09      0.00
    5   11    3     -0.28      0.00
    5   12    3      3.16      0.00
    5   13    3      0.61      0.00
    5   14    3     -0.86      0.00
    5    1    4     -5.71      0.00
    5    2    4      8.30      0.00
    5    3    4     -0.06      0.00
    5    4    4     -1.47      0.00
    5    5    4      0.25      0.00
    5    6    4     -2.82      0.00
    5    7    4     -1.29      0.00
    5    8    4      1.36      0.00
    5    9    4     -2.65      0.00
    5   10    4      1.22      0.00
    5   11    4     -2.36      0.00
    5   12    4     -0.58      0.00
    5   13    4      3.58      0.00
    5   14    4      0.15      0.00
    5    0    5    -25.02      0.00
    5    1    5      6.47      0.00
    5    2    5     -1.79      0.00
    5    3    5      5.40      0.00
    5    4    5     -0.19      0.00
    5    5    5      0.75      0.00
    5    6    5      1.56      0.00
    5    7    5     -1.74      0.00
    5    8    5     -0.33      0.00
    5    9    5      0.93      0.00
    5   10    5     -1.89      0.00
    5   11    5     -0.46      0.00
    5   12    5     -0.60      0.00
    5   13    5     -2.82      0.00
    5   14    5      2.71      0.00
    5    1    6    -12.99      0.00
    5    2    6      0.89      0.00
    5    3    6     -0.25      0.00
    5    4    6      0.99      0.00
    5    5    6      0.52      0.00
    5    6    6      0.18      0.00
    5    7    6      1.48      0.00
    5    8    6     -0.24      0.00
    5    9    6     -0.03      0.00
    5   10    6      0.01      0.00
    5   11    6     -2.65      0.00
    5   12    6      3.07      0.00
    5   13    6     -2.46      0.00
    5    0    7      9.59      0.00
    5    1    7     -3.65      0.00
    5    2    7     -3.73      0.00
    5    3    7      0.12      0.00
    5    4    7     -1.50      0.00
    5    5    7      1.69      0.00
    5    6    7     -1.47      0.00
    5    7    7      1.19      0.00
    5    8    7     -0.60      0.00
    5    9    7      0.38      0.00
    5   10    7      0.55      0.00
    5   11    7     -1.35      0.00
    5   12    7     -0.44      0.00
    5   13    7      1.46      0.00
    5    1    8      2.85      0.00
    5    2    8     -1.35      0.00
    5    3    8     -0.35      0.00
    5    4    8     -1.26      0.00
    5    5    8      0.19      0.00
    5    6    8      0.62      0.00
    5    7    8      0.48      0.00
    5    8    8      0.03      0.00
    5    9    8      0.00      0.00
    5   10    8     -0.21      0.00
    5   11    8     -1.06      0.00
    5   12    8      0.88      0.00
    5   13    8     -3.09      0.00
    5    0    9     -4.03      0.00
    5    1    9      2.04      0.00
    5    2    9     -1.86      0.00
    5    3    9      1.87      0.00
    5    4    9     -1.09      0.00
    5    5    9     -1.63      0.00
    5    6    9      0.90      0.00
    5    7    9     -0.90      0.00
    5    8    9      0.65      0.00
    5    9    9     -2.58      0.00
    5   10    9      2.84      0.00
    5   11    9     -2.32      0.00
    5   12    9      2.78      0.00
    5    1   10     -1.67      0.00
    5    2   10      1.77      0.00
    5    3   10     -0.63      0.00
    5    4   10     -0.53      0.00
    5    5   10      0.64      0.00
    5    6   10     -1.53      0.00
    5    7   10      3.58      0.00
    5    8   10     -0.73      0.00
    5    9   10      0.68      0.00
    5   10   10      0.20      0.00
    5   11   10      0.26      0.00
    5    0   11     -1.97      0.00
    5    1   11      1.81      0.00
    5    2   11     -1.43      0.00
    5    3   11      1.94      0.00
    5    4   11     -0.53      0.00
    5    5   11     -3.05      0.00
    5    6   11     -1.28      0.00
    5    7   11     -0.03      0.00
    5    8   11     -0.20      0.00
    5    9   11     -1.17      0.00
    5   10   11      0.45      0.00
    5   11   11     -2.55      0.00
    5    1   12     -2.22      0.00
    5    2   12      2.97      0.00
    5    3   12     -2.00      0.00
    5    4   12      2.52      0.00
    5    5   12      0.77      0.00
    5    6   12     -3.39      0.00
    5    7   12      1.07      0.00
    5    8   12     -0.43      0.00
    5    9   12      0.40      0.00
    5   10   12      2.47      0.00
    5    0   13      2.69      0.00
    5    1   13      0.42      0.00
    5    2   13      0.14      0.00
    5    3   13      2.24      0.00
    5    4   13     -1.52      0.00
    5    5   13      1.18      0.00
    5    6   13      0.82      0.00
    5    7   13     -3.62      0.00
    5    8   13     -0.17      0.00
    5    9   13     -1.88      0.00
    5    1   14      2.77      0.00
    5    2   14     -1.40      0.00
    5    3   14      0.29      0.00
    5    4   14      0.77      0.00
    5    5   14     -0.14      0.00
    5    6   14      2.16      0.00
    5    7   14      1.16      0.00
    5    8   14     -2.37      0.00
    5    0   15     -1.75      0.00
    5    1   15     -0.35      0.00
    5    2   15      4.17      0.00
    5    3   15     -2.33      0.00
    5    4   15      0.61      0.00
    5    5   15     -1.11      0.00
    5    6   15     -0.53      0.00
    5    7   15      1.38      0.00
    5    1   16     -0.83      0.00
    5    2   16      0.38      0.00
    5    3   16      0.52      0.00
    5    4   16      0.29      0.00
    5    5   16      0.57      0.00
    5    0   17     -1.77      0.00
    5    1   17     -1.05      0.00
    5    2   17      2.06      0.00
    6    0    0     18.98      0.00
    6    1    0     -5.30      0.00
    6    2    0     13.94      0.00
    6    3    0      4.99      0.00
    6    4    0     10.43      0.00
    6    5    0     -0.91      0.00
    6    6    0      1.78      0.00
    6    7    0     -2.29      0.00
    6    8    0     -0.74      0.00
    6    9    0      0.26      0.00
    6   10    0      1.27      0.00
    6   11    0      0.76      0.00
    6   12    0      1.78      0.00
    6   13    0      5.80      0.00
    6   14    0      2.77      0.00
    6    1    1     -8.65      0.00
    6    2    1      7.33      0.00
    6    3    1     -2.02      0.00
    6    4    1      2.51      0.00
    6    5    1      4.34      0.00
    6    6    1     -0.30      0.00
    6    7    1      1.87      0.00
    6    8    1     -1.00      0.00
    6    9    1     -1.65      0.00
    6   10    1     -0.98      0.00
    6   11    1     -1.67      0.00
    6   12    1     -2.45      0.00
    6   13    1      0.75      0.00
    6   14    1      6.41      0.00
    6    0    2     30.53      0.00
    6    1    2    -19.68      0.00
    6    2    2      5.54      0.00
    6    3    2      4.29      0.00
    6    4    2      3.41      0.00
    6    5    2     -0.10      0.00
    6    6    2      1.97      0.00
    6    7    2     -1.41      0.00
    6    8    2      1.66      0.00
    6    9    2      0.66      0.00
    6   10    2      0.73      0.00
    6   11    2      0.68      0.00
    6   12    2     -3.77      0.00
    6   13    2     -0.66      0.00
    6   14    2      1.54      0.00
    6    1    3     -0.73      0.00
    6    2    3     -5.78      0.00
    6    3    3     -1.57      0.00
    6    4    3      2.13      0.00
    6    5    3      2.85      0.00
    6    6    3      2.27      0.00
    6    7    3      1.53      0.00
    6    8    3     -2.47      0.00
    6    9    3      1.82      0.00
    6   10    3     -1.66      0.00
    6   11    3      2.33      0.00
    6   12    3      0.22      0.00
    6   13    3     -4.15      0.00
    6   14    3      5.40      0.00
    6    0    4     24.79      0.00
    6    1    4    -11.34      0.00
    6    2    4      0.97      0.00
    6    3    4     -2.38      0.00
    6    4    4     -2.77      0.00
    6    5    4      0.57      0.00
    6    6    4     -0.11      0.00
    6    7    4      3.11      0.00
    6    8    4      0.18      0.00
    6    9    4      0.34      0.00
    6   10    4      0.47      0.00
    6   11    4     -1.61      0.00
    6   12    4      0.09      0.00
    6   13    4      0.01      0.00
    6   14    4     -1.26      0.00
    6    1    5      9.94      0.00
    6    2    5     -8.16      0.00
    6    3    5      0.24      0.00
    6    4    5     -2.58      0.00
    6    5    5     -1.63      0.00
    6    6    5      0.87      0.00
    6    7    5      0.81      0.00
    6    8    5      0.33      0.00
    6    9    5      2.02      0.00
    6   10    5      0.42      0.00
    6   11    5      1.95      0.00
    6   12    5     -1.01      0.00
    6   13    5     -0.80      0.00
    6    0    6     -0.25      0.00
    6    1    6      6.26      0.00
    6    2    6      3.39      0.00
    6    3    6     -3.14      0.00
    6    4    6      0.60      0.00
    6    5    6     -4.11      0.00
    6    6    6     -0.38      0.00
    6    7    6     -0.41      0.00
    6    8    6      0.57      0.00
    6    9    6     -0.18      0.00
    6   10    6      0.76      0.00
    6   11    6     -0.18      0.00
    6   12    6      1.44      0.00
    6   13    6     -0.86      0.00
    6    1    7     -1.05      0.00
    6    2    7      6.33      0.00
    6    3    7     -0.33      0.00
    6    4    7      0.73      0.00
    6    5    7      0.64      0.00
    6    6    7     -2.22      0.00
    6    7    7     -1.25      0.00
    6    8    7      0.81      0.00
    6    9    7     -0.30      0.00
    6   10    7      0.49      0.00
    6   11    7      1.81      0.00
    6   12    7     -0.78      0.00
    6   13    7      1.75      0.00
    6    0    8      2.50      0.00
    6    1    8     -1.20      0.00
    6    2    8      0.83      0.00
    6    3    8      0.39      0.00
    6    4    8      1.84      0.00
    6    5    8     -1.41      0.00
    6    6    8      1.64      0.00
    6    7    8     -1.47      0.00
    6    8    8     -0.98      0.00
    6    9    8      1.11      0.00
    6   10    8     -1.90      0.00
    6   11    8      1.70      0.00
    6   12    8      0.38      0.00
    6    1    9      0.43      0.00
    6    2    9      0.19      0.00
    6    3    9     -0.92      0.00
    6    4    9      2.70      0.00
    6    5    9      0.52      0.00
    6    6    9      0.08      0.00
    6    7    9     -2.30      0.00
    6    8    9      1.17      0.00
    6    9    9     -1.11      0.00
    6   10    9     -0.45      0.00
    6   11    9     -1.37      0.00
    6   12    9     -0.61      0.00
    6    0   10      4.20      0.00
    6    1   10     -1.78      0.00
    6    2   10      1.31      0.00
    6    3   10     -0.95      0.00
    6    4   10     -1.19      0.00
    6    5   10      2.99      0.00
    6    6   10      1.12      0.00
    6    7   10      0.62      0.00
    6    8   10     -0.83      0.00
    6    9   10      2.72      0.00
    6   10   10      0.23      0.00
    6   11   10      1.73      0.00
    6    1   11      3.53      0.00
    6    2   11     -2.81      0.00
    6    3   11      2.43      0.00
    6    4   11      0.41      0.00
    6    5   11     -0.86      0.00
    6    6   11      2.44      0.00
    6    7   11     -4.40      0.00
    6    8   11      0.17      0.00
    6    9   11     -2.27      0.00
    6   10   11     -0.51      0.00
    6   11   11      1.50      0.00
    6    0   12     -2.61      0.00
    6    1   12     -1.34      0.00
    6    2   12      1.22      0.00
    6    3   12     -3.10      0.00
    6    4   12      2.20      0.00
    6    5   12      0.98      0.00
    6    6   12      3.97      0.00
    6    7   12      1.82      0.00
    6    8   12     -0.21      0.00
    6    9   12      0.39      0.00
    6   10   12     -0.16      0.00
    6    1   13     -2.68      0.00
    6    2   13     -0.93      0.00
    6    3   13      0.20      0.00
    6    4   13     -2.98      0.00
    6    5   13      1.17      0.00
    6    6   13      0.16      0.00
    6    7   13      1.48      0.00
    6    8   13     -0.79      0.00
    6    9   13      1.47      0.00
    6    0   14      0.47      0.00
    6    1   14      0.72      0.00
    6    2   14     -3.38      0.00
    6    3   14      1.35      0.00
    6    4   14     -1.60      0.00
    6    5   14     -1.30      0.00
    6    6   14     -0.40      0.00
    6    7   14      3.78      0.00
    6    8   14     -0.64      0.00
    6    1   15     -0.90      0.00
    6    2   15     -0.29      0.00
    6    3   15     -0.07      0.00
    6    4   15      0.44      0.00
    6    5   15      0.22      0.00
    6    6   15     -4.14      0.00
    6    7   15     -0.21      0.00
    6    0   16      1.15      0.00
    6    1   16      0.62      0.00
    6    2   16     -2.76      0.00
    6    3   16      1.31      0.00
    6    4   16      1.42      0.00
    6    5   16      1.65      0.00
    6    1   17      0.57      0.00
    7    0    1    -32.29      0.00
    7    1    1     16.13      0.00
    7    2    1     -7.38      0.00
    7    3    1     -2.11      0.00
    7    4    1     -8.13      0.00
    7    5    1     -0.64      0.00
    7    6    1     -2.82      0.00
    7    7    1      0.76      0.00
    7    8    1      0.17      0.00
    7    9    1      0.83      0.00
    7   10    1     -2.07      0.00
    7   11    1     -0.30      0.00
    7   12    1      0.44      0.00
    7   13    1     -3.77      0.00
    7   14    1     -1.00      0.00
    7    1    2     -5.77      0.00
    7    2    2      1.49      0.00
    7    3    2      2.48      0.00
    7    4    2     -0.52      0.00
    7    5    2     -4.83      0.00
    7    6    2      0.26      0.00
    7    7    2     -2.84      0.00
    7    8    2      2.19      0.00
    7    9    2      1.30      0.00
    7   10    2      2.53      0.00
    7   11    2     -1.34      0.00
    7   12    2      1.62      0.00
    7   13    2      1.24      0.00
    7   14    2     -6.54      0.00
    7    0    3     -7.65      0.00
    7    1    3      8.50      0.00
    7    2    3      0.42      0.00
    7    3    3     -1.84      0.00
    7    4    3      0.81      0.00
    7    5    3     -0.68      0.00
    7    6    3     -2.00      0.00
    7    7    3     -1.36      0.00
    7    8    3     -0.23      0.00
    7    9    3     -3.62      0.00
    7   10    3      1.70      0.00
    7   11    3      0.43      0.00
    7   12    3      2.24      0.00
    7   13    3      2.13      0.00
    7   14    3      1.11      0.00
    7    1    4     -5.10      0.00
    7    2    4      9.41      0.00
    7    3    4      1.90      0.00
    7    4    4      1.43      0.00
    7    5    4      0.12      0.00
    7    6    4     -1.51      0.00
    7    7    4     -0.61      0.00
    7    8    4      1.35      0.00
    7    9    4     -1.02      0.00
    7   10    4     -0.90      0.00
    7   11    4     -3.65      0.00
    7   12    4     -0.23      0.00
    7   13    4      2.25      0.00
    7    0    5      4.41      0.00
    7    1    5     -8.10      0.00
    7    2    5     -0.59      0.00
    7    3    5      1.31      0.00
    7    4    5      2.99      0.00
    7    5    5      0.32      0.00
    7    6    5      1.04      0.00
    7    7    5     -1.71      0.00
    7    8    5     -0.23      0.00
    7    9    5     -1.71      0.00
    7   10    5      1.11      0.00
    7   11    5      1.86      0.00
    7   12    5     -2.33      0.00
    7   13    5      1.95      0.00
    7    1    6      4.39      0.00
    7    2    6     -3.83      0.00
    7    3    6      0.18      0.00
    7    4    6      1.32      0.00
    7    5    6      0.78      0.00
    7    6    6      1.04      0.00
    7    7    6      0.47      0.00
    7    8    6     -0.50      0.00
    7    9    6     -0.57      0.00
    7   10    6     -3.33      0.00
    7   11    6     -0.29      0.00
    7   12    6     -0.28      0.00
    7   13    6     -0.11      0.00
    7    0    7     -3.79      0.00
    7    1    7     -1.89      0.00
    7    2    7     -0.57      0.00
    7    3    7      0.46      0.00
    7    4    7     -3.10      0.00
    7    5    7      3.75      0.00
    7    6    7      0.37      0.00
    7    7    7      2.88      0.00
    7    8    7     -0.76      0.00
    7    9    7      0.38      0.00
    7   10    7      0.25      0.00
    7   11    7     -0.93      0.00
    7   12    7      0.07      0.00
    7   13    7     -0.89      0.00
    7    1    8      2.44      0.00
    7    2    8     -5.70      0.00
    7    3    8      1.53      0.00
    7    4    8     -1.59      0.00
    7    5    8     -2.67      0.00
    7    6    8      0.61      0.00
    7    7    8      2.63      0.00
    7    8    8     -1.19      0.00
    7    9    8      0.55      0.00
    7   10    8      0.26      0.00
    7   11    8      0.04      0.00
    7   12    8      0.19      0.00
    7    0    9     -4.19      0.00
    7    1    9      1.98      0.00
    7    2    9      0.61      0.00
    7    3    9     -3.57      0.00
    7    4    9      0.97      0.00
    7    5    9      0.10      0.00
    7    6    9     -1.00      0.00
    7    7    9      1.43      0.00
    7    8    9      0.47      0.00
    7    9    9     -2.61      0.00
    7   10    9     -1.30      0.00
    7   11    9     -0.59      0.00
    7   12    9      0.71      0.00
    7    1   10     -3.33      0.00
    7    2   10      0.78      0.00
    7    3   10     -1.55      0.00
    7    4   10     -3.30      0.00
    7    5   10      0.52      0.00
    7    6   10     -1.23      0.00
    7    7   10      4.44      0.00
    7    8   10     -0.21      0.00
    7    9   10      4.23      0.00
    7   10   10     -1.09      0.00
    7   11   10      1.15      0.00
    7    0   11      2.59      0.00
    7    1   11      1.75      0.00
    7    2   11     -1.06      0.00
    7    3   11      0.57      0.00
    7    4   11     -2.50      0.00
    7    5   11     -1.74      0.00
    7    6   11     -3.25      0.00
    7    7   11     -0.82      0.00
    7    8   11     -1.31      0.00
    7    9   11     -0.93      0.00
    7   10   11     -1.86      0.00
    7    1   12      0.74      0.00
    7    2   12      1.19      0.00
    7    3   12     -0.55      0.00
    7    4   12      0.91      0.00
    7    5   12     -0.13      0.00
    7    6   12     -0.85      0.00
    7    7   12      1.81      0.00
    7    8   12      1.26      0.00
    7    9   12     -0.99      0.00
    7   10   12      0.75      0.00
    7    0   13      0.51      0.00
    7    1   13     -0.04      0.00
    7    2   13      2.75      0.00
    7    3   13     -0.49      0.00
    7    4   13     -0.24      0.00
    7    5   13      0.18      0.00
    7    6   13     -2.23      0.00
    7    7   13     -2.23      0.00
    7    8   13      1.21      0.00
    7    9   13     -0.60      0.00
    7    1   14     -0.91      0.00
    7    2   14      1.09      0.00
    7    3   14      0.23      0.00
    7    4   14      1.67      0.00
    7    5   14     -0.95      0.00
    7    6   14      1.81      0.00
    7    7   14     -1.92      0.00
    7    8   14      1.49      0.00
    7    0   15      1.04      0.00
    7    1   15     -1.09      0.00
    7    2   15      1.93      0.00
    7    3   15     -0.56      0.00
    7    4   15      0.51      0.00
    7    5   15     -0.62      0.00
    7    6   15      0.42      0.00
    7    1   16      0.11      0.00
    7    2   16      0.55      0.00
    7    3   16      1.30      0.00
    7    4   16      0.45      0.00
    8    0    0     23.46      0.00
    8    1    0     -5.43      0.00
    8    2    0      1.88      0.00
    8    3    0      1.01      0.00
    8    4    0      6.05      0.00
    8    5    0      2.08      0.00
    8    6    0      1.46      0.00
    8    7    0      1.41      0.00
    8    8    0     -0.28      0.00
    8    9    0     -1.14      0.00
    8   10    0      3.34      0.00
    8   11    0      0.96      0.00
    8   12    0     -1.67      0.00
    8   13    0      4.02      0.00
    8   14    0      0.44      0.00
    8    1    1      4.97      0.00
    8    2    1     -0.80      0.00
    8    3    1     -0.40      0.00
    8    4    1     -0.92      0.00
    8    5    1      1.54      0.00
    8    6    1     -1.09      0.00
    8    7    1      2.68      0.00
    8    8    1     -0.28      0.00
    8    9    1      0.31      0.00
    8   10    1     -3.06      0.00
    8   11    1     -0.25      0.00
    8   12    1     -0.30      0.00
    8   13    1     -1.12      0.00
    8   14    1      4.12      0.00
    8    0    2      4.48      0.00
    8    1    2     -2.08      0.00
    8    2    2     -1.72      0.00
    8    3    2      1.35      0.00
    8    4    2      3.17      0.00
    8    5    2     -0.49      0.00
    8    6    2      1.22      0.00
    8    7    2      0.33      0.00
    8    8    2     -0.34      0.00
    8    9    2      2.87      0.00
    8   10    2      1.41      0.00
    8   11    2     -0.49      0.00
    8   12    2     -2.10      0.00
    8   13    2     -0.66      0.00
    8   14    2     -0.65      0.00
    8    1    3      4.67      0.00
    8    2    3     -3.37      0.00
    8    3    3     -3.14      0.00
    8    4    3     -0.84      0.00
    8    5    3      1.21      0.00
    8    6    3     -1.11      0.00
    8    7    3      2.49      0.00
    8    8    3      0.67      0.00
    8    9    3     -0.86      0.00
    8   10    3     -1.98      0.00
    8   11    3      3.01      0.00
    8   12    3     -1.70      0.00
    8   13    3     -0.02      0.00
    8    0    4    -12.56      0.00
    8    1    4      6.74      0.00
    8    2    4     -1.95      0.00
    8    3    4      1.33      0.00
    8    4    4     -2.91      0.00
    8    5    4      0.79      0.00
    8    6    4      0.15      0.00
    8    7    4      0.60      0.00
    8    8    4     -0.04      0.00
    8    9    4      5.70      0.00
    8   10    4     -3.68      0.00
    8   11    4      1.00      0.00
    8   12    4     -0.60      0.00
    8   13    4     -2.23      0.00
    8    1    5     -5.35      0.00
    8    2    5      0.25      0.00
    8    3    5     -2.28      0.00
    8    4    5     -1.68      0.00
    8    5    5     -2.62      0.00
    8    6    5      0.00      0.00
    8    7    5      0.38      0.00
    8    8    5      0.41      0.00
    8    9    5      0.80      0.00
    8   10    5      2.46      0.00
    8   11    5      1.67      0.00
    8   12    5      0.76      0.00
    8   13    5     -0.40      0.00
    8    0    6     -1.38      0.00
    8    1    6      7.00      0.00
    8    2    6     -0.02      0.00
    8    3    6     -0.76      0.00
    8    4    6     -0.49      0.00
    8    5    6     -0.34      0.00
    8    6    6     -1.20      0.00
    8    7    6     -0.83      0.00
    8    8    6      0.81      0.00
    8    9    6     -0.71      0.00
    8   10    6     -1.53      0.00
    8   11    6     -0.09      0.00
    8   12    6      1.04      0.00
    8   13    6     -0.03      0.00
    8    1    7     -5.64      0.00
    8    2    7      6.95      0.00
    8    3    7     -0.61      0.00
    8    4    7     -2.36      0.00
    8    5    7      0.87      0.00
    8    6    7     -0.30      0.00
    8    7    7     -0.54      0.00
    8    8    7      1.87      0.00
    8    9    7      1.63      0.00
    8   10    7      1.79      0.00
    8   11    7      0.25      0.00
    8   12    7     -0.13      0.00
    8    0    8      8.01      0.00
    8    1    8     -1.10      0.00
    8    2    8     -1.46      0.00
    8    3    8      2.31      0.00
    8    4    8     -0.45      0.00
    8    5    8     -2.20      0.00
    8    6    8      0.60      0.00
    8    7    8     -3.36      0.00
    8    8    8      1.00      0.00
    8    9    8     -0.06      0.00
    8   10    8      0.45      0.00
    8   11    8      2.29      0.00
    8   12    8     -1.83      0.00
    8    1    9      2.65      0.00
    8    2    9      1.78      0.00
    8    3    9      0.66      0.00
    8    4    9      0.93      0.00
    8    5    9      1.66      0.00
    8    6    9      0.69      0.00
    8    7    9     -3.60      0.00
    8    8    9      0.42      0.00
    8    9    9     -2.46      0.00
    8   10    9      0.90      0.00
    8   11    9     -0.38      0.00
    8    0   10     -1.60      0.00
    8    1   10      0.32      0.00
    8    2   10     -0.71      0.00
    8    3   10      1.95      0.00
    8    4   10      0.02      0.00
    8    5   10      1.06      0.00
    8    6   10      3.18      0.00
    8    7   10      0.90      0.00
    8    8   10      1.62      0.00
    8    9   10      0.65      0.00
    8   10   10      2.46      0.00
    8   11   10     -2.52      0.00
    8    1   11     -1.57      0.00
    8    2   11      0.79      0.00
    8    3   11      0.04      0.00
    8    4   11      1.99      0.00
    8    5   11     -0.95      0.00
    8    6   11      0.00      0.00
    8    7   11     -2.03      0.00
    8    8   11     -1.14      0.00
    8    9   11     -1.53      0.00
    8   10   11      2.03      0.00
    8    0   12      0.71      0.00
    8    1   12     -1.37      0.00
    8    2   12     -3.52      0.00
    8    3   12      0.50      0.00
    8    4   12      3.17      0.00
    8    5   12      1.76      0.00
    8    6   12      2.51      0.00
    8    7   12      1.57      0.00
    8    8   12      2.23      0.00
    8    9   12     -0.78      0.00
    8    1   13      1.38      0.00
    8    2   13     -3.64      0.00
    8    3   13     -1.72      0.00
    8    4   13     -0.08      0.00
    8    5   13      0.89      0.00
    8    6   13      0.33      0.00
    8    7   13     -2.52      0.00
    8    8   13      0.36      0.00
    8    0   14     -2.20      0.00
    8    1   14      2.05      0.00
    8    2   14     -3.52      0.00
    8    3   14      0.57      0.00
    8    4   14     -1.31      0.00
    8    5   14      2.68      0.00
    8    6   14      1.11      0.00
    8    7   14      0.63      0.00
    8    1   15      1.37      0.00
    8    2   15     -1.71      0.00
    8    3   15     -1.00      0.00
    8    4   15     -0.22      0.00
    8    5   15     -1.17      0.00
    8    6   15      2.36      0.00
    8    0   16     -0.29      0.00
    8    1   16     -1.00      0.00
    8    2   16      2.50      0.00
    8    3   16     -2.65      0.00
    8    4   16      2.17      0.00
    9    0    1     -0.03      0.00
    9    1    1     -5.31      0.00
    9    2    1      3.00      0.00
    9    3    1     -1.04      0.00
    9    4    1     -2.05      0.00
    9    5    1     -1.74      0.00
    9    6    1     -1.56      0.00
    9    7    1     -3.60      0.00
    9    8    1      0.40      0.00
    9    9    1      0.87      0.00
    9   10    1     -0.21      0.00
    9   11    1     -1.54      0.00
    9   12    1      2.05      0.00
    9   13    1     -0.45      0.00
    9    1    2     -2.94      0.00
    9    2    2      0.27      0.00
    9    3    2      0.50      0.00
    9    4    2      1.55      0.00
    9    5    2     -0.63      0.00
    9    6    2      0.98      0.00
    9    7    2     -1.38      0.00
    9    8    2     -0.52      0.00
    9    9    2     -0.83      0.00
    9   10    2      2.73      0.00
    9   11    2     -2.23      0.00
    9   12    2      0.02      0.00
    9   13    2      1.95      0.00
    9    0    3      9.93      0.00
    9    1    3     -4.20      0.00
    9    2    3      3.33      0.00
    9    3    3     -0.21      0.00
    9    4    3     -0.94      0.00
    9    5    3      1.16      0.00
    9    6    3     -0.62      0.00
    9    7    3      0.16      0.00
    9    8    3     -0.19      0.00
    9    9    3     -3.77      0.00
    9   10    3      1.07      0.00
    9   11    3     -0.51      0.00
    9   12    3      1.30      0.00
    9   13    3      1.16      0.00
    9    1    4      3.92      0.00
    9    2    4     -1.47      0.00
    9    3    4      4.33      0.00
    9    4    4     -0.56      0.00
    9    5    4      0.10      0.00
    9    6    4      0.85      0.00
    9    7    4      1.10      0.00
    9    8    4      0.36      0.00
    9    9    4      0.75      0.00
    9   10    4     -0.57      0.00
    9   11    4     -3.66      0.00
    9   12    4      1.20      0.00
    9   13    4     -0.77      0.00
    9    0    5      4.14      0.00
    9    1    5     -4.17      0.00
    9    2    5      0.24      0.00
    9    3    5      0.02      0.00
    9    4    5      0.72      0.00
    9    5    5     -1.80      0.00
    9    6    5      0.01      0.00
    9    7    5      0.83      0.00
    9    8    5     -0.33      0.00
    9    9    5     -3.04      0.00
    9   10    5      2.51      0.00
    9   11    5     -1.52      0.00
    9   12    5      2.28      0.00
    9   13    5      0.90      0.00
    9    1    6      5.90      0.00
    9    2    6     -2.04      0.00
    9    3    6      1.08      0.00
    9    4    6      1.41      0.00
    9    5    6      0.10      0.00
    9    6    6     -1.07      0.00
    9    7    6      0.11      0.00
    9    8    6      0.84      0.00
    9    9    6     -1.54      0.00
    9   10    6     -0.69      0.00
    9   11    6     -3.65      0.00
    9   12    6     -2.33      0.00
    9    0    7     -5.44      0.00
    9    1    7     -1.29      0.00
    9    2    7      1.33      0.00
    9    3    7     -1.10      0.00
    9    4    7      1.06      0.00
    9    5    7      0.65      0.00
    9    6    7      1.22      0.00
    9    7    7      2.02      0.00
    9    8    7     -1.61      0.00
    9    9    7      0.27      0.00
    9   10    7      0.53      0.00
    9   11    7      0.10      0.00
    9   12    7      1.30      0.00
    9    1    8     -1.02      0.00
    9    2    8     -1.24      0.00
    9    3    8     -1.90      0.00
    9    4    8      1.19      0.00
    9    5    8     -2.66      0.00
    9    6    8      1.18      0.00
    9    7    8      1.54      0.00
    9    8    8     -0.84      0.00
    9    9    8      0.81      0.00
    9   10    8     -1.01      0.00
    9   11    8     -1.61      0.00
    9   12    8      1.19      0.00
    9    0    9     -1.12      0.00
    9    1    9      0.49      0.00
    9    2    9     -0.35      0.00
    9    3    9     -2.02      0.00
    9    4    9      0.41      0.00
    9    5    9     -0.15      0.00
    9    6    9     -1.77      0.00
    9    7    9      2.90      0.00
    9    8    9     -1.94      0.00
    9    9    9     -0.63      0.00
    9   10    9     -0.94      0.00
    9   11    9     -1.12      0.00
    9    1   10      0.41      0.00
    9    2   10     -1.48      0.00
    9    3   10     -1.79      0.00
    9    4   10     -1.42      0.00
    9    5   10     -0.65      0.00
    9    6   10      0.34      0.00
    9    7   10      0.75      0.00
    9    8   10      2.63      0.00
    9    9   10      2.14      0.00
    9   10   10      0.18      0.00
    9   11   10     -0.38      0.00
    9    0   11      2.12      0.00
    9    1   11      0.67      0.00
    9    2   11      1.60      0.00
    9    3   11     -1.03      0.00
    9    4   11     -3.31      0.00
    9    5   11     -1.29      0.00
    9    6   11     -1.82      0.00
    9    7   11     -3.45      0.00
    9    8   11     -2.62      0.00
    9    9   11      0.10      0.00
    9   10   11     -0.86      0.00
    9    1   12      1.51      0.00
    9    2   12      0.10      0.00
    9    3   12      2.62      0.00
    9    4   12     -1.37      0.00
    9    5   12      0.36      0.00
    9    6   12      1.58      0.00
    9    7   12      1.50      0.00
    9    8   12     -1.90      0.00
    9    9   12     -0.04      0.00
    9    0   13      0.58      0.00
    9    1   13     -0.50      0.00
    9    2   13      3.52      0.00
    9    3   13     -2.22      0.00
    9    4   13      0.07      0.00
    9    5   13     -2.89      0.00
    9    6   13      0.05      0.00
    9    7   13      1.89      0.00
    9    8   13     -2.38      0.00
    9    1   14     -3.22      0.00
    9    2   14      3.69      0.00
    9    3   14      1.82      0.00
    9    4   14     -1.78      0.00
    9    5   14      1.85      0.00
    9    6   14     -6.44      0.00
    9    7   14      7.32      0.00
    9    0   15      3.17      0.00
    9    1   15     -1.11      0.00
    9    2   15     -0.31      0.00
    9    3   15      2.03      0.00
    9    4   15      0.05      0.00
    9    5   15     -1.24      0.00
    9    1   16      0.08      0.00
    9    2   16      1.35      0.00
    9    3   16      0.17      0.00
   10    0    0     -4.35      0.00
   10    1    0      7.12      0.00
   10    2    0     -2.91      0.00
   10    3    0      2.52      0.00
   10    4    0     -0.88      0.00
   10    5    0      3.00      0.00
   10    6    0      0.20      0.00
   10    7    0      3.08      0.00
   10    8    0      0.28      0.00
   10    9    0      2.62      0.00
   10   10    0     -1.42      0.00
   10   11    0      3.48      0.00
   10   12    0     -5.00      0.00
   10   13    0     -4.57      0.00
   10    1    1      1.97      0.00
   10    2    1     -0.51      0.00
   10    3    1      2.18      0.00
   10    4    1     -1.70      0.00
   10    5    1     -1.89      0.00
   10    6    1      0.64      0.00
   10    8    1      1.11      0.00
   10    9    1      0.97      0.00
   10   10    1     -1.42      0.00
   10   11    1      2.01      0.00
   10   12    1      1.99      0.00
   10   13    1     -2.55      0.00
   10    0    2     -7.97      0.00
   10    1    2      3.85      0.00
   10    2    2     -2.46      0.00
   10    3    2      0.44      0.00
   10    4    2      2.41      0.00
   10    5    2     -0.42      0.00
   10    6    2     -0.88      0.00
   10    7    2      0.56      0.00
   10    8    2      0.23      0.00
   10    9    2      1.92      0.00
   10   10    2     -0.88      0.00
   10   11    2      0.21      0.00
   10   12    2     -1.11      0.00
   10   13    2     -0.77      0.00
   10    1    3     -2.73      0.00
   10    2    3      2.50      0.00
   10    3    3     -1.97      0.00
   10    4    3     -0.38      0.00
   10    5    3     -0.29      0.00
   10    6    3     -0.43      0.00
   10    7    3     -0.99      0.00
   10    8    3      1.10      0.00
   10    9    3      1.02      0.00
   10   10    3     -0.81      0.00
   10   11    3      0.56      0.00
   10   12    3     -1.30      0.00
   10   13    3     -0.45      0.00
   10    0    4     -0.72      0.00
   10    1    4     -1.24      0.00
   10    2    4      0.16      0.00
   10    3    4     -1.24      0.00
   10    4    4      1.24      0.00
   10    5    4     -0.70      0.00
   10    6    4      0.89      0.00
   10    7    4     -1.49      0.00
   10    8    4      1.11      0.00
   10    9    4      1.54      0.00
   10   10    4      1.33      0.00
   10   11    4      1.79      0.00
   10   12    4     -2.15      0.00
   10   13    4     -1.60      0.00
   10    1    5     -3.18      0.00
   10    2    5      1.87      0.00
   10    3    5     -2.43      0.00
   10    4    5      0.18      0.00
   10    5    5     -1.36      0.00
   10    6    5      0.85      0.00
   10    7    5     -1.26      0.00
   10    8    5     -0.43      0.00
   10    9    5      1.16      0.00
   10   10    5     -1.44      0.00
   10   11    5      2.93      0.00
   10   12    5      1.64      0.00
   10   13    5     -1.83      0.00
   10    0    6      4.22      0.00
   10    1    6     -0.96      0.00
   10    2    6      0.31      0.00
   10    3    6      0.86      0.00
   10    4    6     -0.27      0.00
   10    5    6      0.38      0.00
   10    6    6     -0.02      0.00
   10    7    6      0.42      0.00
   10    8    6     -0.55      0.00
   10    9    6      0.96      0.00
   10   10    6      0.11      0.00
   10   11    6     -0.24      0.00
   10   12    6     -1.98      0.00
   10    1    7      1.50      0.00
   10    2    7     -2.21      0.00
   10    3    7      1.02      0.00
   10    4    7     -0.92      0.00
   10    5    7      2.26      0.00
   10    6    7     -1.23      0.00
   10    7    7      1.27      0.00
   10    8    7      0.26      0.00
   10    9    7      0.19      0.00
   10   10    7      0.91      0.00
   10   11    7      3.79      0.00
   10   12    7      1.22      0.00
   10    0    8      2.63      0.00
   10    1    8      0.12      0.00
   10    2    8      0.89      0.00
   10    3    8     -0.30      0.00
   10    4    8     -2.46      0.00
   10    5    8      0.22      0.00
   10    6    8      0.03      0.00
   10    7    8     -1.20      0.00
   10    8    8      1.58      0.00
   10    9    8     -0.37      0.00
   10   10    8     -1.12      0.00
   10   11    8      0.15      0.00
   10    1    9      2.71      0.00
   10    2    9      0.83      0.00
   10    3    9      2.99      0.00
   10    4    9      0.64      0.00
   10    5    9      1.01      0.00
   10    6    9     -2.79      0.00
   10    7    9     -0.68      0.00
   10    8    9     -1.38      0.00
   10    9    9      0.09      0.00
   10   10    9     -0.11      0.00
   10   11    9      0.03      0.00
   10    0   10     -2.33      0.00
   10    1   10     -1.41      0.00
   10    2   10      1.72      0.00
   10    3   10     -1.05      0.00
   10    4   10      3.94      0.00
   10    5   10      2.18      0.00
   10    6   10      3.38      0.00
   10    7   10     -0.06      0.00
   10    8   10      0.52      0.00
   10    9   10      0.33      0.00
   10   10   10     -0.05      0.00
   10    1   11     -1.53      0.00
   10    2   11      0.44      0.00
   10    3   11     -0.83      0.00
   10    4   11     -0.68      0.00
   10    5   11      1.59      0.00
   10    6   11     -1.69      0.00
   10    7   11      2.40      0.00
   10    8   11     -1.48      0.00
   10    9   11     -0.59      0.00
   10   10   11     -1.61      0.00
   10    0   12     -0.35      0.00
   10    1   12      0.29      0.00
   10    2   12     -1.18      0.00
   10    3   12      0.36      0.00
   10    4   12      0.39      0.00
   10    5   12      2.20      0.00
   10    6   12     -0.37      0.00
   10    7   12      2.90      0.00
   10    8   12      2.25      0.00
   10    9   12      1.44      0.00
   10    1   13     -0.03      0.00
   10    2   13      1.10      0.00
   10    3   13     -3.47      0.00
   10    4   13      3.94      0.00
   10    5   13     -3.76      0.00
   10    6   13      2.47      0.00
   10    7   13     -6.46      0.00
   10    8   13      6.16      0.00
   10    0   14     -2.25      0.00
   10    1   14      0.33      0.00
   10    2   14     -0.77      0.00
   10    3   14     -0.20      0.00
   10    4   14     -0.10      0.00
   10    5   14      2.46      0.00
   10    6   14      1.70      0.00
   10    1   15      0.72      0.00
   10    2   15     -3.97      0.00
   10    3   15      1.51      0.00
   10    4   15     -0.85      0.00
   10    5   15     -1.15      0.00
   10    0   16     -0.76      0.00
   10    1   16      2.42      0.00
   10    2   16     -1.25      0.00
   11    0    1      0.95      0.00
   11    1    1     -2.70      0.00
   11    2    1      1.62      0.00
   11    3    1     -1.63      0.00
   11    4    1      1.54      0.00
   11    5    1     -1.76      0.00
   11    6    1      1.14      0.00
   11    7    1     -0.67      0.00
   11    8    1      0.60      0.00
   11    9    1     -4.96      0.00
   11   10    1      2.22      0.00
   11   11    1     -1.64      0.00
   11   12    1      3.13      0.00
   11   13    1      4.49      0.00
   11    1    2     -0.86      0.00
   11    2    2      1.39      0.00
   11    3    2     -1.70      0.00
   11    4    2      0.38      0.00
   11    5    2      1.71      0.00
   11    6    2     -1.97      0.00
   11    7    2      2.25      0.00
   11    8    2     -0.48      0.00
   11    9    2     -0.26      0.00
   11   10    2     -1.04      0.00
   11   11    2     -1.73      0.00
   11   12    2     -1.24      0.00
   11   13    2      2.47      0.00
   11    0    3      2.33      0.00
   11    1    3      0.80      0.00
   11    2    3     -0.29      0.00
   11    3    3      2.56      0.00
   11    4    3     -1.98      0.00
   11    5    3      1.18      0.00
   11    6    3      0.36      0.00
   11    7    3      0.61      0.00
   11    8    3     -0.98      0.00
   11    9    3      0.18      0.00
   11   10    3     -0.16      0.00
   11   11    3     -0.09      0.00
   11   12    3     -0.46      0.00
   11   13    3     -0.56      0.00
   11    1    4      3.47      0.00
   11    2    4     -2.47      0.00
   11    3    4      2.59      0.00
   11    4    4     -0.58      0.00
   11    5    4      1.05      0.00
   11    6    4     -1.17      0.00
   11    7    4      1.96      0.00
   11    8    4      0.32      0.00
   11    9    4     -1.63      0.00
   11   10    4      0.41      0.00
   11   11    4      1.23      0.00
   11   12    4     -0.58      0.00
   11    0    5     -5.19      0.00
   11    1    5      3.82      0.00
   11    2    5     -1.26      0.00
   11    3    5     -0.40      0.00
   11    4    5     -1.00      0.00
   11    5    5      0.94      0.00
   11    6    5     -1.68      0.00
   11    7    5      0.36      0.00
   11    8    5     -0.25      0.00
   11    9    5      0.75      0.00
   11   10    5     -3.70      0.00
   11   11    5      0.05      0.00
   11   12    5      1.23      0.00
   11    1    6     -1.51      0.00
   11    2    6      3.16      0.00
   11    3    6      0.31      0.00
   11    4    6     -0.07      0.00
   11    5    6     -0.93      0.00
   11    6    6     -0.23      0.00
   11    7    6     -0.91      0.00
   11    8    6     -0.20      0.00
   11    9    6      0.24      0.00
   11   10    6     -0.38      0.00
   11   11    6     -3.56      0.00
   11   12    6     -3.32      0.00
   11    0    7     -3.39      0.00
   11    1    7      0.98      0.00
   11    2    7     -1.71      0.00
   11    3    7      1.13      0.00
   11    4    7      1.83      0.00
   11    5    7      0.50      0.00
   11    6    7      1.67      0.00
   11    7    7     -2.42      0.00
   11    8    7      0.88      0.00
   11    9    7     -1.32      0.00
   11   10    7      0.62      0.00
   11   11    7      1.56      0.00
   11   12    7     -1.89      0.00
   11    1    8     -2.97      0.00
   11    2    8      0.62      0.00
   11    3    8     -0.61      0.00
   11    4    8     -2.16      0.00
   11    5    8     -1.10      0.00
   11    6    8      3.50      0.00
   11    7    8      0.22      0.00
   11    8    8      0.52      0.00
   11    9    8     -0.45      0.00
   11   10    8     -2.70      0.00
   11   11    8     -0.55      0.00
   11    0    9      0.83      0.00
   11    1    9      1.24      0.00
   11    2    9     -2.89      0.00
   11    3    9      2.35      0.00
   11    4    9     -1.32      0.00
   11    5    9     -2.06      0.00
   11    6    9     -2.29      0.00
   11    7    9      0.70      0.00
   11    8    9     -0.02      0.00
   11    9    9      0.71      0.00
   11   10    9      0.87      0.00
   11   11    9     -1.90      0.00
   11    1   10     -0.95      0.00
   11    2   10      1.80      0.00
   11    3   10     -1.24      0.00
   11    4   10      0.83      0.00
   11    5   10     -1.98      0.00
   11    6   10      2.01      0.00
   11    7   10     -2.04      0.00
   11    8   10      2.14      0.00
   11    9   10     -2.45      0.00
   11   10   10      3.69      0.00
   11    0   11      0.55      0.00
   11    1   11      1.13      0.00
   11    2   11     -2.03      0.00
   11    3   11      2.07      0.00
   11    4   11     -2.35      0.00
   11    5   11     -2.00      0.00
   11    6   11     -2.47      0.00
   11    7   11     -2.14      0.00
   11    8   11      0.71      0.00
   11    9   11     -4.19      0.00
   11    1   12      1.70      0.00
   11    2   12     -0.92      0.00
   11    3   12      4.04      0.00
   11    4   12     -1.48      0.00
   11    5   12      1.73      0.00
   11    6   12     -1.18      0.00
   11    7   12      0.22      0.00
   11    8   12     -1.74      0.00
   11    0   13      0.77      0.00
   11    1   13      0.44      0.00
   11    2   13     -1.50      0.00
   11    3   13      0.19      0.00
   11    4   13      1.61      0.00
   11    5   13     -1.89      0.00
   11    6   13      0.88      0.00
   11    7   13     -1.76      0.00
   11    1   14      2.01      0.00
   11    2   14     -0.18      0.00
   11    3   14     -0.09      0.00
   11    4   14     -3.03      0.00
   11    5   14      3.14      0.00
   11    6   14     -1.09      0.00
   11    0   15      0.83      0.00
   11    1   15     -0.24      0.00
   11    2   15      1.96      0.00
   11    3   15      1.03      0.00
   11    4   15     -1.15      0.00
   12    0    0      6.75      0.00
   12    1    0     -1.80      0.00
   12    2    0     -0.62      0.00
   12    3    0      3.12      0.00
   12    4    0     -3.92      0.00
   12    5    0      1.54      0.00
   12    6    0     -1.03      0.00
   12    7    0      0.11      0.00
   12    8    0     -1.88      0.00
   12    9    0      5.95      0.00
   12   10    0     -0.54      0.00
   12   11    0     -0.34      0.00
   12   12    0     -2.52      0.00
   12   13    0     -4.70      0.00
   12    1    1      3.30      0.00
   12    2    1     -2.17      0.00
   12    3    1      1.51      0.00
   12    4    1      1.21      0.00
   12    5    1     -1.09      0.00
   12    6    1      1.52      0.00
   12    7    1     -1.57      0.00
   12    8    1     -1.54      0.00
   12    9    1     -1.65      0.00
   12   10    1      2.61      0.00
   12   11    1      2.52      0.00
   12   12    1      0.84      0.00
   12   13    1      0.29      0.00
   12    0    2     -2.00      0.00
   12    1    2     -0.03      0.00
   12    2    2     -0.33      0.00
   12    3    2     -1.05      0.00
   12    4    2     -0.48      0.00
   12    5    2      0.68      0.00
   12    6    2     -0.68      0.00
   12    7    2      0.71      0.00
   12    8    2     -0.45      0.00
   12    9    2      1.17      0.00
   12   10    2     -2.43      0.00
   12   11    2      0.49      0.00
   12   12    2     -1.17      0.00
   12    1    3      0.59      0.00
   12    2    3     -0.25      0.00
   12    3    3     -0.18      0.00
   12    4    3      0.89      0.00
   12    5    3     -0.69      0.00
   12    6    3      2.07      0.00
   12    7    3     -2.30      0.00
   12    8    3     -1.87      0.00
   12    9    3      0.03      0.00
   12   10    3      1.67      0.00
   12   11    3     -0.49      0.00
   12   12    3      2.10      0.00
   12    0    4     -1.80      0.00
   12    1    4     -0.93      0.00
   12    2    4      0.19      0.00
   12    3    4     -1.19      0.00
   12    4    4      1.46      0.00
   12    5    4     -0.88      0.00
   12    6    4      1.58      0.00
   12    7    4     -0.19      0.00
   12    8    4      1.32      0.00
   12    9    4     -1.34      0.00
   12   10    4      2.31      0.00
   12   11    4     -1.14      0.00
   12   12    4     -0.22      0.00
   12    1    5     -1.22      0.00
   12    2    5      0.24      0.00
   12    3    5     -1.54      0.00
   12    4    5      0.71      0.00
   12    5    5      0.43      0.00
   12    6    5      0.53      0.00
   12    7    5     -0.34      0.00
   12    8    5     -0.50      0.00
   12    9    5     -0.46      0.00
   12   10    5      1.24      0.00
   12   11    5      0.92      0.00
   12   12    5      1.55      0.00
   12    0    6      3.63      0.00
   12    1    6     -2.81      0.00
   12    2    6      1.44      0.00
   12    3    6      0.11      0.00
   12    4    6      0.11      0.00
   12    5    6     -0.35      0.00
   12    6    6     -0.50      0.00
   12    7    6      0.89      0.00
   12    8    6      0.25      0.00
   12    9    6      0.72      0.00
   12   10    6      1.28      0.00
   12   11    6     -1.47      0.00
   12   12    6      1.45      0.00
   12    1    7      1.70      0.00
   12    2    7     -1.56      0.00
   12    3    7     -0.49      0.00
   12    4    7      2.43      0.00
   12    5    7      1.10      0.00
   12    6    7     -0.74      0.00
   12    7    7      0.07      0.00
   12    8    7      0.47      0.00
   12    9    7     -0.92      0.00
   12   10    7      3.04      0.00
   12   11    7      0.24      0.00
   12    0    8     -0.81      0.00
   12    1    8     -0.72      0.00
   12    2    8      2.28      0.00
   12    3    8     -2.22      0.00
   12    4    8     -0.13      0.00
   12    5    8      0.84      0.00
   12    6    8     -1.74      0.00
   12    7    8      2.18      0.00
   12    8    8     -1.46      0.00
   12    9    8      1.32      0.00
   12   10    8     -1.30      0.00
   12   11    8     -0.12      0.00
   12    1    9      0.30      0.00
   12    2    9      0.54      0.00
   12    3    9      0.21      0.00
   12    4    9      2.23      0.00
   12    5    9      1.01      0.00
   12    6    9     -2.34      0.00
   12    7    9      0.01      0.00
   12    8    9     -1.75      0.00
   12    9    9      2.15      0.00
   12   10    9     -1.78      0.00
   12    0   10      0.52      0.00
   12    1   10     -2.57      0.00
   12    2   10      2.09      0.00
   12    3   10     -0.82      0.00
   12    4   10      1.83      0.00
   12    5   10      2.37      0.00
   12    6   10      3.57      0.00
   12    7   10     -0.10      0.00
   12    8   10     -0.67      0.00
   12    9   10      2.29      0.00
   12    1   11      0.90      0.00
   12    2   11     -2.96      0.00
   12    3   11     -1.32      0.00
   12    4   11      0.07      0.00
   12    5   11     -0.74      0.00
   12    6   11      2.06      0.00
   12    7   11      0.72      0.00
   12    8   11     -0.70      0.00
   12    9   11     -0.58      0.00
   12    0   12      0.23      0.00
   12    1   12     -0.34      0.00
   12    2   12      3.33      0.00
   12    3   12     -0.83      0.00
   12    4   12     -1.75      0.00
   12    5   12      0.29      0.00
   12    6   12      0.06      0.00
   12    7   12      3.82      0.00
   12    8   12     -0.61      0.00
   12    1   13     -2.03      0.00
   12    2   13      1.67      0.00
   12    3   13     -0.48      0.00
   12    4   13      2.57      0.00
   12    5   13     -2.12      0.00
   12    6   13     -1.48      0.00
   12    7   13      0.82      0.00
   12    0   14      1.13      0.00
   12    1   14     -2.01      0.00
   12    2   14      0.45      0.00
   12    3   14     -0.36      0.00
   12    4   14     -0.95      0.00
   12    5   14      3.83      0.00
   12    1   15     -1.42      0.00
   12    2   15      0.42      0.00
   12    3   15     -1.83      0.00
   13    0    1     -4.57      0.00
   13    1    1      2.04      0.00
   13    2    1      0.06      0.00
   13    3    1     -2.00      0.00
   13    4    1      2.12      0.00
   13    5    1      0.54      0.00
   13    6    1      2.45      0.00
   13    7    1      1.54      0.00
   13    8    1      0.68      0.00
   13    9    1     -2.96      0.00
   13   10    1     -2.53      0.00
   13   11    1      0.31      0.00
   13   12    1      2.71      0.00
   13    1    2     -4.79      0.00
   13    2    2      1.26      0.00
   13    3    2     -1.85      0.00
   13    4    2     -2.19      0.00
   13    5    2      1.62      0.00
   13    6    2     -0.18      0.00
   13    7    2      0.25      0.00
   13    8    2      1.76      0.00
   13    9    2      1.38      0.00
   13   10    2     -1.42      0.00
   13   11    2      0.35      0.00
   13   12    2     -2.05      0.00
   13    0    3      8.14      0.00
   13    1    3     -2.75      0.00
   13    2    3      1.38      0.00
   13    3    3      0.93      0.00
   13    4    3     -0.65      0.00
   13    5    3      0.34      0.00
   13    6    3      0.03      0.00
   13    7    3     -0.50      0.00
   13    8    3     -0.74      0.00
   13    9    3     -0.10      0.00
   13   10    3     -0.12      0.00
   13   11    3     -0.22      0.00
   13   12    3      4.15      0.00
   13    1    4      0.37      0.00
   13    2    4     -1.66      0.00
   13    3    4      0.16      0.00
   13    4    4      0.15      0.00
   13    5    4      0.60      0.00
   13    6    4      1.14      0.00
   13    7    4      0.06      0.00
   13    8    4     -0.63      0.00
   13    9    4      0.24      0.00
   13   10    4     -0.46      0.00
   13   11    4     -0.20      0.00
   13   12    4     -1.02      0.00
   13    0    5      0.53      0.00
   13    1    5      1.24      0.00
   13    2    5     -0.73      0.00
   13    3    5     -0.03      0.00
   13    4    5     -0.72      0.00
   13    5    5     -0.15      0.00
   13    6    5     -1.45      0.00
   13    7    5      0.06      0.00
   13    8    5     -1.03      0.00
   13    9    5      0.92      0.00
   13   10    5     -0.89      0.00
   13   11    5      0.78      0.00
   13   12    5     -1.46      0.00
   13    1    6      0.42      0.00
   13    2    6     -1.04      0.00
   13    3    6      2.16      0.00
   13    4    6     -1.43      0.00
   13    5    6     -0.03      0.00
   13    6    6      0.17      0.00
   13    7    6     -1.23      0.00
   13    8    6     -2.32      0.00
   13    9    6      0.65      0.00
   13   10    6     -2.03      0.00
   13   11    6     -0.07      0.00
   13    0    7      1.13      0.00
   13    1    7      0.45      0.00
   13    2    7     -1.18      0.00
   13    3    7      0.63      0.00
   13    4    7      1.35      0.00
   13    5    7     -0.99      0.00
   13    6    7      1.34      0.00
   13    7    7     -0.75      0.00
   13    8    7      0.65      0.00
   13    9    7     -0.68      0.00
   13   10    7      1.41      0.00
   13   11    7     -1.61      0.00
   13    1    8      0.86      0.00
   13    2    8     -1.09      0.00
   13    3    8      0.33      0.00
   13    4    8     -1.53      0.00
   13    5    8     -0.69      0.00
   13    6    8      0.07      0.00
   13    7    8      0.13      0.00
   13    8    8      0.00      0.00
   13    9    8     -1.41      0.00
   13   10    8      0.38      0.00
   13    0    9     -0.65      0.00
   13    1    9      1.54      0.00
   13    2    9     -0.11      0.00
   13    3    9      0.12      0.00
   13    4    9     -0.42      0.00
   13    5    9     -2.15      0.00
   13    6    9     -0.80      0.00
   13    7    9     -1.62      0.00
   13    8    9      2.14      0.00
   13    9    9     -1.90      0.00
   13   10    9      0.43      0.00
   13    1   10     -0.10      0.00
   13    2   10      0.18      0.00
   13    3   10      2.64      0.00
   13    4   10     -1.61      0.00
   13    5   10      0.81      0.00
   13    6   10     -1.85      0.00
   13    7   10      0.23      0.00
   13    8   10     -0.35      0.00
   13    9   10      0.22      0.00
   13    0   11     -2.60      0.00
   13    1   11      1.02      0.00
   13    2   11     -1.07      0.00
   13    3   11     -0.67      0.00
   13    4   11      1.79      0.00
   13    5   11     -1.11      0.00
   13    6   11     -2.58      0.00
   13    7   11     -0.48      0.00
   13    8   11     -1.94      0.00
   13    1   12     -2.36      0.00
   13    2   12      3.23      0.00
   13    3   12     -2.48      0.00
   13    4   12      0.30      0.00
   13    5   12      1.75      0.00
   13    6   12     -0.17      0.00
   13    7   12      0.76      0.00
   13    0   13     -1.42      0.00
   13    1   13      0.87      0.00
   13    2   13     -1.07      0.00
   13    3   13      0.74      0.00
   13    4   13      0.60      0.00
   13    5   13     -2.88      0.00
   13    6   13      2.51      0.00
   13    1   14      1.93      0.00
   13    2   14     -1.65      0.00
   13    3   14      1.36      0.00
   13    4   14     -1.74      0.00
   13    0   15     -2.44      0.00
   13    1   15      1.11      0.00
   14    0    0      7.97      0.00
   14    1    0     -1.29      0.00
   14    2    0      1.44      0.00
   14    3    0     -0.61      0.00
   14    4    0     -2.50      0.00
   14    5    0     -4.66      0.00
   14    6    0     -0.02      0.00
   14    7    0     -1.20      0.00
   14    8    0      0.67      0.00
   14    9    0     -3.29      0.00
   14   10    0      3.58      0.00
   14   11    0      1.56      0.00
   14   12    0      0.66      0.00
   14    1    1      2.49      0.00
   14    2    1     -0.74      0.00
   14    3    1      1.43      0.00
   14    4    1      2.48      0.00
   14    5    1      0.23      0.00
   14    6    1     -1.28      0.00
   14    7    1      1.09      0.00
   14    8    1     -1.50      0.00
   14    9    1     -0.90      0.00
   14   10    1     -1.17      0.00
   14   11    1     -1.39      0.00
   14   12    1      2.43      0.00
   14    0    2     -3.84      0.00
   14    1    2      3.61      0.00
   14    2    2     -2.49      0.00
   14    3    2     -0.35      0.00
   14    4    2     -1.92      0.00
   14    5    2     -1.40      0.00
   14    6    2     -0.62      0.00
   14    7    2      0.31      0.00
   14    8    2      1.15      0.00
   14    9    2      0.29      0.00
   14   10    2      1.05      0.00
   14   11    2      0.35      0.00
   14   12    2     -6.12      0.00
   14    1    3      1.62      0.00
   14    2    3      0.12      0.00
   14    3    3      1.42      0.00
   14    4    3      2.01      0.00
   14    5    3      0.23      0.00
   14    6    3     -1.35      0.00
   14    7    3     -2.11      0.00
   14    8    3     -1.73      0.00
   14    9    3     -1.28      0.00
   14   10    3      1.56      0.00
   14   11    3      1.63      0.00
   14   12    3      2.39      0.00
   14    0    4     -5.25      0.00
   14    1    4      0.82      0.00
   14    2    4     -0.30      0.00
   14    3    4     -1.01      0.00
   14    4    4      2.07      0.00
   14    5    4      0.07      0.00
   14    6    4      1.61      0.00
   14    7    4      1.21      0.00
   14    8    4      0.05      0.00
   14    9    4     -1.87      0.00
   14   10    4      0.23      0.00
   14   11    4     -0.20      0.00
   14    1    5     -2.14      0.00
   14    2    5      1.85      0.00
   14    3    5     -1.84      0.00
   14    4    5      1.01      0.00
   14    5    5      1.67      0.00
   14    6    5     -2.58      0.00
   14    7    5      0.28      0.00
   14    8    5      1.93      0.00
   14    9    5     -0.71      0.00
   14   10    5      0.87      0.00
   14   11    5      2.61      0.00
   14    0    6     -0.70      0.00
   14    1    6     -1.32      0.00
   14    2    6      0.30      0.00
   14    3    6      1.30      0.00
   14    4    6     -1.03      0.00
   14    5    6      2.12      0.00
   14    6    6     -0.02      0.00
   14    7    6     -1.70      0.00
   14    8    6      0.51      0.00
   14    9    6     -0.32      0.00
   14   10    6     -0.53      0.00
   14   11    6      1.91      0.00
   14    1    7     -1.14      0.00
   14    2    7      0.15      0.00
   14    3    7     -0.85      0.00
   14    4    7      1.69      0.00
   14    5    7      0.47      0.00
   14    6    7      0.72      0.00
   14    7    7     -0.12      0.00
   14    8    7      1.12      0.00
   14    9    7      1.35      0.00
   14   10    7     -0.97      0.00
   14    0    8     -2.08      0.00
   14    1    8      0.35      0.00
   14    2    8     -0.39      0.00
   14    3    8      0.36      0.00
   14    4    8     -0.46      0.00
   14    5    8      0.88      0.00
   14    6    8     -0.39      0.00
   14    7    8     -0.15      0.00
   14    8    8     -1.65      0.00
   14    9    8      1.93      0.00
   14   10    8     -1.13      0.00
   14    1    9     -3.28      0.00
   14    2    9      1.15      0.00
   14    3    9     -2.02      0.00
   14    4    9      1.04      0.00
   14    5    9      1.06      0.00
   14    6    9      1.16      0.00
   14    7    9      0.45      0.00
   14    8    9      1.79      0.00
   14    9    9     -1.52      0.00
   14    0   10      3.78      0.00
   14    1   10     -0.74      0.00
   14    2   10     -1.20      0.00
   14    3   10      2.21      0.00
   14    4   10     -2.35      0.00
   14    5   10      0.65      0.00
   14    6   10      0.12      0.00
   14    7   10      0.59      0.00
   14    8   10      3.07      0.00
   14    1   11      1.99      0.00
   14    2   11     -3.21      0.00
   14    3   11      0.14      0.00
   14    4   11      0.57      0.00
   14    5   11     -1.15      0.00
   14    6   11      1.13      0.00
   14    7   11     -2.77      0.00
   14    8   11      0.72      0.00
   14    0   12      0.58      0.00
   14    1   12      0.37      0.00
   14    2   12      1.05      0.00
   14    3   12     -0.31      0.00
   14    4   12      0.15      0.00
   14    5   12      0.37      0.00
   14    6   12      0.56      0.00
   14    7   12      0.60      0.00
   14    1   13      2.08      0.00
   14    2   13     -3.01      0.00
   14    3   13      3.28      0.00
   14    4   13     -2.79      0.00
   14    5   13      1.14      0.00
   14    0   14     -0.51      0.00
   14    1   14     -0.83      0.00
   14    2   14     -0.17      0.00
   14    3   14      0.91      0.00
   15    0    1     -0.53      0.00
   15    1    1     -1.01      0.00
   15    2    1     -0.65      0.00
   15    3    1      0.55      0.00
   15    4    1      0.66      0.00
   15    5    1      6.31      0.00
   15    6    1      0.33      0.00
   15    7    1      1.08      0.00
   15    8    1     -2.03      0.00
   15    9    1      1.52      0.00
   15   10    1     -1.84      0.00
   15   11    1     -2.71      0.00
   15    1    2     -2.39      0.00
   15    2    2     -1.75      0.00
   15    3    2     -1.89      0.00
   15    4    2     -3.12      0.00
   15    5    2      0.08      0.00
   15    6    2      2.15      0.00
   15    7    2      1.10      0.00
   15    8    2      1.40      0.00
   15    9    2      0.38      0.00
   15   10    2      1.50      0.00
   15   11    2      0.57      0.00
   15    0    3      5.53      0.00
   15    1    3     -1.60      0.00
   15    2    3      1.29      0.00
   15    3    3      0.54      0.00
   15    4    3     -0.56      0.00
   15    5    3      0.99      0.00
   15    6    3      0.04      0.00
   15    7    3     -1.89      0.00
   15    8    3     -0.99      0.00
   15    9    3     -0.54      0.00
   15   10    3     -0.79      0.00
   15   11    3      1.87      0.00
   15    1    4      0.32      0.00
   15    2    4     -2.89      0.00
   15    3    4     -0.07      0.00
   15    4    4     -0.80      0.00
   15    5    4     -0.58      0.00
   15    6    4      3.01      0.00
   15    7    4      2.47      0.00
   15    8    4     -0.77      0.00
   15    9    4      0.27      0.00
   15   10    4     -2.42      0.00
   15   11    4     -1.37      0.00
   15    0    5      0.53      0.00
   15    1    5      2.35      0.00
   15    2    5     -0.62      0.00
   15    3    5     -0.67      0.00
   15    4    5     -0.99      0.00
   15    5    5     -1.37      0.00
   15    6    5     -1.31      0.00
   15    7    5     -0.43      0.00
   15    8    5      0.61      0.00
   15    9    5      3.28      0.00
   15   10    5     -1.63      0.00
   15   11    5     -1.96      0.00
   15    1    6      0.59      0.00
   15    2    6      0.13      0.00
   15    3    6      0.34      0.00
   15    4    6     -0.66      0.00
   15    5    6     -1.29      0.00
   15    6    6      1.23      0.00
   15    7    6     -1.09      0.00
   15    8    6     -3.02      0.00
   15    9    6     -0.59      0.00
   15   10    6      4.19      0.00
   15    0    7      1.36      0.00
   15    1    7      0.04      0.00
   15    2    7      1.27      0.00
   15    3    7     -0.82      0.00
   15    4    7      0.86      0.00
   15    5    7     -1.63      0.00
   15    6    7     -0.88      0.00
   15    7    7      1.96      0.00
   15    8    7      0.69      0.00
   15    9    7     -0.92      0.00
   15   10    7      1.14      0.00
   15    1    8      1.27      0.00
   15    2    8     -0.43      0.00
   15    3    8      0.96      0.00
   15    4    8     -0.21      0.00
   15    5    8     -0.58      0.00
   15    6    8     -1.88      0.00
   15    7    8     -1.01      0.00
   15    8    8     -2.65      0.00
   15    9    8      0.60      0.00
   15    0    9      0.13      0.00
   15    1    9     -0.16      0.00
   15    2    9      1.00      0.00
   15    3    9     -0.96      0.00
   15    4    9      0.24      0.00
   15    5    9      0.37      0.00
   15    6    9     -0.62      0.00
   15    7    9      0.15      0.00
   15    8    9     -0.85      0.00
   15    9    9     -1.08      0.00
   15    1   10      1.77      0.00
   15    2   10      0.67      0.00
   15    3   10      0.53      0.00
   15    4   10      0.34      0.00
   15    5   10     -2.14      0.00
   15    6   10      0.35      0.00
   15    7   10      0.60      0.00
   15    8   10     -3.77      0.00
   15    0   11     -3.58      0.00
   15    1   11     -1.18      0.00
   15    2   11      1.26      0.00
   15    3   11      0.32      0.00
   15    4   11      1.46      0.00
   15    5   11     -0.26      0.00
   15    6   11     -0.85      0.00
   15    7   11     -0.07      0.00
   15    1   12     -4.07      0.00
   15    2   12      2.86      0.00
   15    3   12     -2.92      0.00
   15    4   12      1.94      0.00
   15    5   12      0.28      0.00
   15    6   12      0.01      0.00
   15    0   13      2.81      0.00
   15    1   13     -1.85      0.00
   15    2   13     -1.37      0.00
   15    3   13      2.40      0.00
   15    4   13     -3.50      0.00
   15    1   14      0.98      0.00
   16    0    0      3.23      0.00
   16    1    0      0.84      0.00
   16    2    0      0.84      0.00
   16    3    0     -2.12      0.00
   16    4    0      1.14      0.00
   16    5    0     -6.86      0.00
   16    6    0     -0.92      0.00
   16    7    0     -2.49      0.00
   16    8    0     -0.25      0.00
   16    9    0      0.89      0.00
   16   10    0      0.61      0.00
   16   11    0      6.20      0.00
   16    1    1      1.46      0.00
   16    2    1      1.30      0.00
   16    3    1      0.34      0.00
   16    4    1      1.53      0.00
   16    5    1      0.76      0.00
   16    6    1      0.21      0.00
   16    7    1     -0.07      0.00
   16    8    1     -0.73      0.00
   16    9    1     -0.23      0.00
   16   10    1     -3.18      0.00
   16   11    1      0.87      0.00
   16    0    2     -0.83      0.00
   16    1    2      0.09      0.00
   16    2    2      0.92      0.00
   16    3    2     -1.41      0.00
   16    4    2     -0.74      0.00
   16    5    2     -4.80      0.00
   16    6    2     -0.93      0.00
   16    7    2      1.20      0.00
   16    8    2      1.69      0.00
   16    9    2      2.76      0.00
   16   10    2      0.07      0.00
   16   11    2     -2.23      0.00
   16    1    3     -0.45      0.00
   16    2    3      3.63      0.00
   16    3    3      0.28      0.00
   16    4    3      3.43      0.00
   16    5    3     -0.97      0.00
   16    6    3     -3.09      0.00
   16    7    3     -3.85      0.00
   16    8    3     -1.06      0.00
   16    9    3      1.92      0.00
   16   10    3      3.02      0.00
   16   11    3     -0.49      0.00
   16    0    4     -2.07      0.00
   16    1    4     -1.51      0.00
   16    2    4      0.22      0.00
   16    3    4      0.96      0.00
   16    4    4      0.71      0.00
   16    5    4      1.18      0.00
   16    6    4      1.27      0.00
   16    7    4      1.46      0.00
   16    8    4     -1.84      0.00
   16    9    4     -3.75      0.00
   16   10    4      3.11      0.00
   16    1    5     -1.11      0.00
   16    2    5     -1.21      0.00
   16    3    5      1.17      0.00
   16    4    5     -0.47      0.00
   16    5    5      1.63      0.00
   16    6    5     -1.79      0.00
   16    7    5     -0.51      0.00
   16    8    5      2.35      0.00
   16    9    5      0.14      0.00
   16   10    5     -2.10      0.00
   16    0    6      1.18      0.00
   16    1    6     -1.40      0.00
   16    2    6     -0.31      0.00
   16    3    6      0.89      0.00
   16    4    6     -0.62      0.00
   16    5    6      0.23      0.00
   16    6    6      1.49      0.00
   16    7    6      0.05      0.00
   16    8    6     -1.81      0.00
   16    9    6     -0.73      0.00
   16   10    6      1.18      0.00
   16    1    7      0.31      0.00
   16    2    7     -1.13      0.00
   16    3    7      0.46      0.00
   16    4    7      1.54      0.00
   16    5    7     -0.54      0.00
   16    6    7      0.74      0.00
   16    7    7     -0.41      0.00
   16    8    7      3.05      0.00
   16    9    7      0.06      0.00
   16    0    8     -2.05      0.00
   16    1    8      0.07      0.00
   16    2    8     -1.08      0.00
   16    3    8      0.15      0.00
   16    4    8      1.90      0.00
   16    5    8     -0.30      0.00
   16    6    8      1.72      0.00
   16    7    8     -2.38      0.00
   16    8    8     -0.03      0.00
   16    9    8     -0.96      0.00
   16    1    9     -0.91      0.00
   16    2    9     -1.62      0.00
   16    3    9     -0.44      0.00
   16    4    9     -1.85      0.00
   16    5    9      3.55      0.00
   16    6    9      1.02      0.00
   16    7    9      0.86      0.00
   16    8    9      3.75      0.00
   16    0   10      0.48      0.00
   16    1   10      0.31      0.00
   16    2   10     -0.19      0.00
   16    3   10     -0.16      0.00
   16    4   10     -0.27      0.00
   16    5   10     -1.42      0.00
   16    6   10      0.35      0.00
   16    7   10      0.84      0.00
   16    1   11     -0.38      0.00
   16    2   11     -1.35      0.00
   16    3   11      0.51      0.00
   16    4   11     -1.50      0.00
   16    5   11      0.98      0.00
   16    6   11     -0.87      0.00
   16    0   12      0.26      0.00
   16    1   12      2.24      0.00
   16    2   12     -0.28      0.00
   16    3   12     -1.93      0.00
   16    4   12      2.59      0.00
   16    5   12     -2.01      0.00
   16    1   13      1.60      0.00
   16    2   13     -0.49      0.00
   16    3   13      1.04      0.00
   17    0    1     -4.05      0.00
   17    1    1      1.79      0.00
   17    2    1     -2.25      0.00
   17    3    1      2.86      0.00
   17    4    1      0.25      0.00
   17    5    1      4.62      0.00
   17    6    1      1.45      0.00
   17    7    1     -0.01      0.00
   17    8    1      0.74      0.00
   17    9    1     -4.64      0.00
   17   10    1      1.43      0.00
   17    1    2     -1.18      0.00
   17    2    2     -3.38      0.00
   17    3    2      0.67      0.00
   17    4    2     -2.54      0.00
   17    5    2     -0.35      0.00
   17    6    2     -0.86      0.00
   17    7    2      2.73      0.00
   17    8    2      3.31      0.00
   17    9    2     -1.25      0.00
   17   10    2     -0.57      0.00
   17    0    3      1.94      0.00
   17    1    3      2.39      0.00
   17    2    3     -1.28      0.00
   17    3    3     -0.88      0.00
   17    4    3      0.96      0.00
   17    5    3      1.44      0.00
   17    6    3     -0.98      0.00
   17    7    3     -2.01      0.00
   17    8    3     -0.57      0.00
   17    9    3      1.59      0.00
   17   10    3     -1.88      0.00
   17    1    4      1.18      0.00
   17    2    4      0.00      0.00
   17    3    4     -0.71      0.00
   17    4    4     -0.61      0.00
   17    5    4     -0.70      0.00
   17    6    4      2.37      0.00
   17    7    4      2.02      0.00
   17    8    4      1.27      0.00
   17    9    4     -2.26      0.00
   17   10    4     -0.71      0.00
   17    0    5     -0.02      0.00
   17    1    5      0.74      0.00
   17    2    5      0.37      0.00
   17    3    5     -2.17      0.00
   17    4    5      0.73      0.00
   17    5    5     -0.49      0.00
   17    6    5     -1.30      0.00
   17    7    5     -0.78      0.00
   17    8    5      3.73      0.00
   17    9    5      0.24      0.00
   17   10    5     -2.72      0.00
   17    1    6     -0.02      0.00
   17    2    6      1.56      0.00
   17    3    6     -1.89      0.00
   17    4    6     -1.21      0.00
   17    5    6      0.95      0.00
   17    6    6     -1.21      0.00
   17    7    6      1.64      0.00
   17    8    6     -2.27      0.00
   17    9    6      1.99      0.00
   17    0    7     -1.42      0.00
   17    1    7      0.39      0.00
   17    2    7      1.05      0.00
   17    3    7     -0.09      0.00
   17    4    7     -0.73      0.00
   17    5    7      1.41      0.00
   17    6    7     -1.80      0.00
   17    7    7      1.24      0.00
   17    8    7      0.39      0.00
   17    9    7      1.25      0.00
   17    1    8     -1.60      0.00
   17    2    8      1.42      0.00
   17    3    8     -1.82      0.00
   17    4    8     -0.93      0.00
   17    5    8     -0.17      0.00
   17    6    8     -0.73      0.00
   17    7    8      0.36      0.00
   17    8    8     -2.71      0.00
   17    0    9      1.46      0.00
   17    1    9     -0.26      0.00
   17    2    9      0.56      0.00
   17    3    9      1.52      0.00
   17    4    9     -2.18      0.00
   17    5    9      0.75      0.00
   17    6    9     -1.52      0.00
   17    7    9      0.43      0.00
   17    1   10      0.77      0.00
   17    2   10      2.14      0.00
   17    3   10      0.10      0.00
   17    4   10      2.69      0.00
   17    5   10     -2.30      0.00
   17    6   10     -1.58      0.00
   17    0   11     -0.74      0.00
   17    1   11     -1.41      0.00
   17    2   11     -0.21      0.00
   17    3   11      0.39      0.00
   17    4   11      0.87      0.00
   17    5   11      3.15      0.00
   17    1   12      2.45      0.00
   17    2   12     -0.42      0.00
   17    3   12      1.15      0.00
   18    0    0      7.07      0.00
   18    1    0     -4.05      0.00
   18    2    0      3.87      0.00
   18    3    0     -2.94      0.00
   18    4    0     -0.17      0.00
   18    5    0     -1.51      0.00
   18    6    0     -3.04      0.00
   18    7    0     -2.59      0.00
   18    8    0     -3.64      0.00
   18    9    0      8.34      0.00
   18   10    0     -0.13      0.00
   18    1    1      1.50      0.00
   18    2    1      1.87      0.00
   18    3    1     -0.14      0.00
   18    4    1      1.76      0.00
   18    5    1     -0.51      0.00
   18    6    1      3.82      0.00
   18    7    1     -1.75      0.00
   18    8    1     -2.38      0.00
   18    9    1     -0.69      0.00
   18   10    1      1.98      0.00
   18    0    2      1.22      0.00
   18    1    2     -3.61      0.00
   18    2    2      2.58      0.00
   18    3    2     -1.44      0.00
   18    4    2     -1.33      0.00
   18    5    2     -2.72      0.00
   18    6    2      0.19      0.00
   18    7    2      0.71      0.00
   18    8    2      1.78      0.00
   18    9    2     -0.54      0.00
   18   10    2      1.75      0.00
   18    1    3      0.25      0.00
   18    2    3      0.54      0.00
   18    3    3      1.97      0.00
   18    4    3     -0.57      0.00
   18    5    3      0.27      0.00
   18    6    3     -2.04      0.00
   18    7    3     -0.96      0.00
   18    8    3     -2.69      0.00
   18    9    3      3.98      0.00
   18    0    4     -1.06      0.00
   18    1    4     -0.24      0.00
   18    2    4     -1.27      0.00
   18    3    4      2.80      0.00
   18    4    4     -1.23      0.00
   18    5    4      0.49      0.00
   18    6    4      0.89      0.00
   18    7    4      1.12      0.00
   18    8    4     -2.09      0.00
   18    9    4      1.27      0.00
   18    1    5     -0.49      0.00
   18    2    5     -1.02      0.00
   18    3    5     -1.45      0.00
   18    4    5      0.57      0.00
   18    5    5     -0.90      0.00
   18    6    5      1.81      0.00
   18    7    5     -1.21      0.00
   18    8    5     -0.35      0.00
   18    9    5     -0.48      0.00
   18    0    6      0.99      0.00
   18    1    6     -0.13      0.00
   18    2    6      1.09      0.00
   18    3    6      1.43      0.00
   18    4    6     -2.18      0.00
   18    5    6     -3.01      0.00
   18    6    6      1.78      0.00
   18    7    6      0.64      0.00
   18    8    6     -1.47      0.00
   18    1    7     -0.71      0.00
   18    2    7     -1.29      0.00
   18    3    7      2.96      0.00
   18    4    7      2.61      0.00
   18    5    7     -1.53      0.00
   18    6    7      0.58      0.00
   18    7    7     -1.09      0.00
   18    8    7      1.66      0.00
   18    0    8      1.42      0.00
   18    1    8     -0.74      0.00
   18    2    8     -2.44      0.00
   18    3    8      0.11      0.00
   18    4    8      1.68      0.00
   18    5    8      0.94      0.00
   18    6    8      1.60      0.00
   18    7    8     -1.44      0.00
   18    1    9      2.63      0.00
   18    2    9     -2.42      0.00
   18    3    9      0.39      0.00
   18    4    9     -0.67      0.00
   18    5    9     -0.02      0.00
   18    6    9      4.27      0.00
   18    0   10     -3.00      0.00
   18    1   10      0.26      0.00
   18    2   10     -0.18      0.00
   18    3   10     -0.57      0.00
   18    4   10      1.30      0.00
   18    5   10     -2.24      0.00
   18    1   11     -2.66      0.00
   18    2   11      0.76      0.00
   18    3   11     -1.65      0.00
   18    4   11     -1.12      0.00
   18    0   12      3.47      0.00
   18    1   12     -0.43      0.00
   19    0    1     -3.99      0.00
   19    1    1      3.84      0.00
   19    2    1     -4.19      0.00
   19    3    1      2.20      0.00
   19    4    1      1.49      0.00
   19    5    1      1.70      0.00
   19    6    1      0.46      0.00
   19    7    1      2.45      0.00
   19    8    1      1.25      0.00
   19    9    1     -2.14      0.00
   19    1    2     -0.47      0.00
   19    2    2      1.11      0.00
   19    3    2     -3.90      0.00
   19    4    2     -1.10      0.00
   19    5    2      0.88      0.00
   19    6    2     -2.32      0.00
   19    7    2      0.50      0.00
   19    8    2      1.69      0.00
   19    9    2      0.44      0.00
   19    0    3      0.41      0.00
   19    1    3      0.84      0.00
   19    2    3      2.08      0.00
   19    3    3      0.03      0.00
   19    4    3      0.16      0.00
   19    5    3     -0.98      0.00
   19    6    3      0.06      0.00
   19    7    3     -0.86      0.00
   19    8    3     -0.87      0.00
   19    9    3      0.09      0.00
   19    1    4     -0.83      0.00
   19    2    4      0.54      0.00
   19    3    4      1.20      0.00
   19    4    4      1.66      0.00
   19    5    4      0.18      0.00
   19    6    4     -0.17      0.00
   19    7    4      0.46      0.00
   19    8    4      2.21      0.00
   19    0    5      1.27      0.00
   19    1    5     -0.66      0.00
   19    2    5     -0.53      0.00
   19    3    5     -2.24      0.00
   19    4    5      1.18      0.00
   19    5    5      1.76      0.00
   19    6    5     -1.23      0.00
   19    7    5     -0.56      0.00
   19    8    5      1.86      0.00
   19    1    6      1.35      0.00
   19    2    6     -1.18      0.00
   19    3    6      0.92      0.00
   19    4    6     -2.10      0.00
   19    5    6      1.26      0.00
   19    6    6     -0.19      0.00
   19    7    6      0.66      0.00
   19    8    6      1.01      0.00
   19    0    7     -1.96      0.00
   19    1    7      1.53      0.00
   19    2    7     -0.61      0.00
   19    3    7     -1.76      0.00
   19    4    7      1.89      0.00
   19    5    7      0.84      0.00
   19    6    7     -1.02      0.00
   19    7    7      0.92      0.00
   19    1    8      0.08      0.00
   19    2    8      1.93      0.00
   19    3    8     -3.47      0.00
   19    4    8     -1.21      0.00
   19    5    8      0.80      0.00
   19    6    8     -1.89      0.00
   19    0    9     -1.06      0.00
   19    1    9     -0.96      0.00
   19    2    9      3.94      0.00
   19    3    9     -0.60      0.00
   19    4    9     -0.74      0.00
   19    5    9      0.97      0.00
   19    1   10     -2.16      0.00
   19    2   10     -0.37      0.00
   19    3   10      2.02      0.00
   19    4   10      0.30      0.00
   19    0   11      2.07      0.00
   19    1   11      1.08      0.00
   19    2   11     -0.61      0.00
   20    1    0     -1.35      0.00
   20    2    0      4.79      0.00
   20    3    0      0.07      0.00
   20    4    0     -2.62      0.00
   20    5    0     -3.84      0.00
   20    6    0      2.48      0.00
   20    7    0     -2.12      0.00
   20    8    0     -1.83      0.00
   20    1    1     -0.28      0.00
   20    2    1     -1.34      0.00
   20    3    1      4.25      0.00
   20    4    1      2.09      0.00
   20    5    1     -1.18      0.00
   20    6    1      0.86      0.00
   20    7    1      1.60      0.00
   20    8    1      1.23      0.00
   20    0    2      0.04      0.00
   20    1    2     -0.94      0.00
   20    2    2     -1.21      0.00
   20    3    2     -1.23      0.00
   20    4    2     -0.59      0.00
   20    5    2      0.66      0.00
   20    6    2     -1.82      0.00
   20    7    2      0.25      0.00
   20    8    2      0.09      0.00
   20    1    3      1.55      0.00
   20    2    3     -1.49      0.00
   20    3    3      1.51      0.00
   20    4    3      0.08      0.00
   20    5    3     -0.83      0.00
   20    6    3      1.73      0.00
   20    7    3     -1.30      0.00
   20    8    3     -1.50      0.00
   20    0    4     -1.18      0.00
   20    1    4      1.55      0.00
   20    2    4     -1.60      0.00
   20    3    4     -0.87      0.00
   20    4    4      1.00      0.00
   20    5    4      0.31      0.00
   20    6    4      0.60      0.00
   20    7    4      1.26      0.00
   20    8    4      0.97      0.00
   20    1    5      0.72      0.00
   20    2    5      2.53      0.00
   20    3    5     -2.91      0.00
   20    4    5     -0.90      0.00
   20    5    5     -0.10      0.00
   20    6    5     -0.48      0.00
   20    7    5      0.69      0.00
   20    0    6     -1.56      0.00
   20    1    6     -0.29      0.00
   20    2    6      1.29      0.00
   20    3    6      1.34      0.00
   20    4    6     -0.79      0.00
   20    5    6     -1.37      0.00
   20    6    6      0.62      0.00
   20    7    6     -0.43      0.00
   20    1    7     -1.82      0.00
   20    2    7      0.05      0.00
   20    3    7      1.57      0.00
   20    4    7     -1.31      0.00
   20    5    7      1.59      0.00
   20    6    7     -0.69      0.00
   20    0    8      3.11      0.00
   20    1    8      0.12      0.00
   20    2    8     -2.51      0.00
   20    3    8      2.28      0.00
   20    4    8     -1.72      0.00
   20    5    8     -1.53      0.00
   20    1    9      1.62      0.00
   20    2    9      0.09      0.00
   20    3    9      1.32      0.00
   20    4    9     -0.24      0.00
   20    0   10     -1.32      0.00
   20    1   10      0.82      0.00
   20    2   10     -3.16      0.00
   21    1    1     -2.88      0.00
   21    2    1      1.08      0.00
   21    3    1     -0.78      0.00
   21    4    1      2.45      0.00
   21    5    1      1.68      0.00
   21    6    1      0.23      0.00
   21    7    1     -0.53      0.00
   21    1    2     -0.23      0.00
   21    2    2      0.67      0.00
   21    3    2     -3.01      0.00
   21    4    2     -2.15      0.00
   21    5    2      0.74      0.00
   21    6    2      0.71      0.00
   21    7    2     -1.81      0.00
   21    0    3      0.15      0.00
   21    1    3     -0.31      0.00
   21    2    3      1.52      0.00
   21    3    3      1.88      0.00
   21    4    3     -0.96      0.00
   21    5    3     -0.72      0.00
   21    6    3      1.93      0.00
   21    7    3     -1.01      0.00
   21    1    4     -0.66      0.00
   21    2    4      0.12      0.00
   21    3    4      1.12      0.00
   21    4    4     -1.24      0.00
   21    5    4      0.85      0.00
   21    6    4     -0.22      0.00
   21    7    4      2.01      0.00
   21    0    5      2.77      0.00
   21    1    5     -2.43      0.00
   21    2    5      0.59      0.00
   21    3    5      1.93      0.00
   21    4    5     -1.69      0.00
   21    5    5     -0.31      0.00
   21    6    5     -1.82      0.00
   21    1    6      0.68      0.00
   21    2    6     -1.06      0.00
   21    3    6      0.13      0.00
   21    4    6      4.44      0.00
   21    5    6     -3.41      0.00
   21    6    6      2.33      0.00
   21    0    7      1.63      0.00
   21    1    7     -0.88      0.00
   21    2    7      1.85      0.00
   21    3    7     -2.11      0.00
   21    4    7      0.20      0.00
   21    5    7      2.28      0.00
   21    1    8     -0.15      0.00
   21    2    8      0.76      0.00
   21    3    8     -0.80      0.00
   21    4    8      3.98      0.00
   21    0    9      0.39      0.00
   21    1    9     -0.57      0.00
   21    2    9      2.33      0.00
   22    3    0      1.52      0.00
   22    4    0     -3.20      0.00
   22    5    0      0.41      0.00
   22    6    0     -2.19      0.00
   22    2    1      3.08      0.00
   22    3    1      0.63      0.00
   22    4    1     -0.75      0.00
   22    5    1      1.46      0.00
   22    6    1     -1.75      0.00
   22    2    2     -1.69      0.00
   22    3    2      1.77      0.00
   22    4    2     -0.93      0.00
   22    5    2     -1.86      0.00
   22    6    2     -1.73      0.00
   22    1    3      1.35      0.00
   22    2    3      0.12      0.00
   22    3    3      0.29      0.00
   22    4    3      2.74      0.00
   22    5    3     -1.13      0.00
   22    6    3     -1.69      0.00
   22    0    4     -1.67      0.00
   22    1    4     -0.24      0.00
   22    2    4      1.09      0.00
   22    3    4     -2.00      0.00
   22    4    4      2.76      0.00
   22    5    4      1.14      0.00
   22    1    5     -0.21      0.00
   22    2    5     -0.28      0.00
   22    3    5      1.83      0.00
   22    4    5     -1.39      0.00
   22    5    5      1.33      0.00
   22    0    6     -3.27      0.00
   22    1    6      4.23      0.00
   22    2    6     -5.24      0.00
   22    3    6     -1.02      0.00
   22    4    6      1.99      0.00
   22    1    7      2.93      0.00
   22    2    7      1.62      0.00
   22    3    7      0.13      0.00
   22    0    8     -3.25      0.00
   22    1    8      1.18      0.00
   23    3    1     -0.42      0.00
   23    4    1      3.06      0.00
   23    5    1     -0.31      0.00
   23    3    2      0.66      0.00
   23    4    2      0.62      0.00
   23    5    2     -1.64      0.00
   23    2    3     -1.85      0.00
   23    3    3     -1.51      0.00
   23    4    3     -0.32      0.00
   23    1    4      0.09      0.00
   23    2    4      3.67      0.00
   23    3    4     -2.28      0.00
   23    4    4     -2.65      0.00
   23    0    5      1.13      0.00
   23    1    5     -3.09      0.00
   23    2    5      2.72      0.00
   23    3    5      2.43      0.00
   23    1    6     -1.10      0.00
   23    2    6     -0.46      0.00
   20    0    0      0.00      0.00
   22    0    0     -4.68      0.00
   22    1    0      7.17      0.00
   22    2    0     -3.92      0.00
   22    7    0      3.50      0.00
   22    8    0     -2.68      0.00
    0    9    0     -2.66      0.00
    2    9    0     -0.73      0.00
   20    9    0     -2.65      0.00
   22    9    0     -4.89      0.00
   20   10    0      4.38      0.00
   22   10    0      2.80      0.00
   18   11    0     -0.42      0.00
   20   11    0     -3.18      0.00
   22   11    0     -0.05      0.00
   16   12    0     -2.21      0.00
   18   12    0     -3.42      0.00
   20   12    0      1.19      0.00
   14   13    0      1.71      0.00
   16   13    0     -1.32      0.00
   18   13    0     -1.04      0.00
   10   14    0      4.56      0.00
   12   14    0      2.31      0.00
   14   14    0     -5.53      0.00
   16   14    0     -2.85      0.00
    1    0    1   -206.11      0.00
   21    0    1      2.28      0.00
   23    0    1      1.48      0.00
   22    1    1      0.08      0.00
   23    1    1     -4.51      0.00
   23    2    1      3.50      0.00
   23    6    1      1.97      0.00
   10    7    1     -0.73      0.00
   22    7    1      3.22      0.00
   23    7    1     -3.26      0.00
   21    8    1      2.27      0.00
   22    8    1      2.15      0.00
   23    8    1      1.33      0.00
   20    9    1     -2.26      0.00
   21    9    1      2.57      0.00
   22    9    1     -0.01      0.00
   23    9    1      1.71      0.00
   19   10    1     -2.84      0.00
   20   10    1      0.81      0.00
   21   10    1     -3.68      0.00
   22   10    1     -3.14      0.00
   23   10    1     -0.26      0.00
   17   11    1     -0.52      0.00
   18   11    1      3.07      0.00
   19   11    1      2.21      0.00
   20   11    1     -0.58      0.00
   21   11    1      0.42      0.00
   22   11    1      0.05      0.00
   15   12    1      2.64      0.00
   16   12    1      3.59      0.00
   17   12    1      1.28      0.00
   18   12    1      0.02      0.00
   19   12    1     -0.07      0.00
   20   12    1      0.36      0.00
   21   12    1     -1.11      0.00
   13   13    1      1.03      0.00
   14   13    1      3.60      0.00
   15   13    1     -1.08      0.00
   16   13    1      1.34      0.00
   17   13    1      1.20      0.00
   18   13    1     -1.59      0.00
   19   13    1      0.62      0.00
    9   14    1     -1.05      0.00
   10   14    1     -0.30      0.00
   11   14    1     -4.24      0.00
   12   14    1     -3.08      0.00
   13   14    1      0.96      0.00
   14   14    1      0.24      0.00
   15   14    1      3.27      0.00
   16   14    1     -0.02      0.00
   17   14    1      0.18      0.00
   22    0    2     -1.85      0.00
   22    1    2      0.23      0.00
   23    1    2     -0.74      0.00
   23    2    2     -4.38      0.00
   23    6    2      2.64      0.00
   22    7    2      1.07      0.00
   23    7    2     -1.37      0.00
   21    8    2     -2.35      0.00
   22    8    2     -0.90      0.00
   23    8    2     -1.06      0.00
   20    9    2      1.56      0.00
   21    9    2      2.51      0.00
   22    9    2      3.18      0.00
   23    9    2     -0.09      0.00
   19   10    2     -0.75      0.00
   20   10    2      1.97      0.00
   21   10    2      1.59      0.00
   22   10    2      1.23      0.00
   23   10    2      1.51      0.00
   17   11    2     -2.78      0.00
   18   11    2     -2.89      0.00
   19   11    2     -1.89      0.00
   20   11    2      0.32      0.00
   21   11    2      0.03      0.00
   22   11    2      0.27      0.00
   15   12    2     -3.95      0.00
   16   12    2     -1.38      0.00
   17   12    2     -0.98      0.00
   18   12    2      4.23      0.00
   19   12    2      0.75      0.00
   20   12    2     -0.58      0.00
   21   12    2     -0.41      0.00
   12   13    2     -0.01      0.00
   13   13    2     -0.45      0.00
   14   13    2      2.15      0.00
   15   13    2     -2.55      0.00
   16   13    2      1.21      0.00
   17   13    2      0.26      0.00
   18   13    2     -1.39      0.00
   19   13    2      0.91      0.00
    9   14    2     -1.48      0.00
   10   14    2      1.05      0.00
   11   14    2      2.00      0.00
   12   14    2      2.57      0.00
   13   14    2      0.42      0.00
   14   14    2      0.92      0.00
   15   14    2      0.29      0.00
   16   14    2     -0.11      0.00
   17   14    2      0.45      0.00
   23    0    3     -0.40      0.00
   23    1    3      3.14      0.00
   23    5    3      2.36      0.00
   23    6    3     -0.93      0.00
   22    7    3     -0.64      0.00
   23    7    3      0.22      0.00
   21    8    3     -0.20      0.00
   22    8    3      0.51      0.00
   23    8    3     -0.36      0.00
   20    9    3     -1.08      0.00
   21    9    3     -4.99      0.00
   22    9    3     -2.68      0.00
   23    9    3     -2.17      0.00
   18   10    3     -1.05      0.00
   19   10    3     -2.13      0.00
   20   10    3     -2.07      0.00
   21   10    3      0.02      0.00
   22   10    3      0.37      0.00
   23   10    3     -0.43      0.00
   17   11    3      3.01      0.00
   18   11    3      0.64      0.00
   19   11    3     -0.05      0.00
   20   11    3      2.43      0.00
   21   11    3     -1.27      0.00
   22   11    3     -0.34      0.00
   15   12    3      5.27      0.00
   16   12    3     -0.47      0.00
   17   12    3     -4.35      0.00
   18   12    3     -1.17      0.00
   19   12    3     -2.71      0.00
   20   12    3     -0.43      0.00
   12   13    3     -4.64      0.00
   13   13    3     -1.38      0.00
   14   13    3     -2.88      0.00
   15   13    3     -3.09      0.00
   16   13    3      0.40      0.00
   17   13    3      0.59      0.00
   18   13    3      0.29      0.00
   19   13    3      0.66      0.00
    8   14    3      1.93      0.00
    9   14    3      0.19      0.00
   10   14    3     -0.75      0.00
   11   14    3     -0.96      0.00
   12   14    3      1.26      0.00
   13   14    3     -1.91      0.00
   14   14    3     -0.76      0.00
   15   14    3     -1.71      0.00
   16   14    3     -1.27      0.00
   17   14    3     -0.45      0.00
    0    0    4    -63.58      0.00
   23    5    4      0.10      0.00
   22    6    4      0.39      0.00
   23    6    4      1.28      0.00
   22    7    4      0.04      0.00
   23    7    4      1.16      0.00
   21    8    4      2.27      0.00
   22    8    4      0.62      0.00
   23    8    4      0.75      0.00
   19    9    4     -2.45      0.00
   20    9    4      2.27      0.00
   21    9    4      1.02      0.00
   22    9    4      1.29      0.00
   23    9    4      1.94      0.00
   18   10    4      2.26      0.00
   19   10    4      2.95      0.00
   20   10    4      0.50      0.00
   21   10    4     -0.54      0.00
   22   10    4     -0.08      0.00
   23   10    4     -1.47      0.00
   16   11    4      1.08      0.00
   17   11    4      1.80      0.00
   18   11    4      0.29      0.00
   19   11    4     -1.23      0.00
   20   11    4     -0.61      0.00
   21   11    4     -1.74      0.00
   22   11    4      0.71      0.00
   14   12    4     -2.29      0.00
   15   12    4      1.42      0.00
   16   12    4     -0.01      0.00
   17   12    4      0.33      0.00
   18   12    4      2.04      0.00
   19   12    4      0.31      0.00
   20   12    4      0.41      0.00
   11   13    4      3.00      0.00
   12   13    4     -0.01      0.00
   13   13    4      5.85      0.00
   14   13    4      3.61      0.00
   15   13    4      2.34      0.00
   16   13    4      0.89      0.00
   17   13    4     -0.98      0.00
   18   13    4     -1.32      0.00
    7   14    4     -2.25      0.00
    8   14    4      0.04      0.00
    9   14    4      1.65      0.00
   10   14    4      0.48      0.00
   11   14    4     -1.34      0.00
   12   14    4     -0.38      0.00
   13   14    4     -1.27      0.00
   14   14    4      0.31      0.00
   15   14    4      0.55      0.00
   16   14    4      0.79      0.00
   23    4    5     -1.90      0.00
   23    5    5     -1.89      0.00
   22    6    5     -1.01      0.00
   23    6    5     -0.66      0.00
   21    7    5     -0.55      0.00
   22    7    5      0.26      0.00
   23    7    5     -0.71      0.00
   20    8    5     -2.91      0.00
   21    8    5     -1.76      0.00
   22    8    5     -1.47      0.00
   23    8    5     -0.45      0.00
   19    9    5     -2.34      0.00
   20    9    5      1.02      0.00
   21    9    5      2.34      0.00
   22    9    5      0.20      0.00
   23    9    5      0.76      0.00
   18   10    5     -0.33      0.00
   19   10    5     -1.27      0.00
   20   10    5      0.30      0.00
   21   10    5     -0.42      0.00
   22   10    5     -0.15      0.00
   16   11    5      0.61      0.00
   17   11    5     -2.13      0.00
   18   11    5     -0.70      0.00
   19   11    5      0.80      0.00
   20   11    5      1.03      0.00
   21   11    5      0.92      0.00
   14   12    5     -1.65      0.00
   15   12    5      1.27      0.00
   16   12    5      0.38      0.00
   17   12    5      1.33      0.00
   18   12    5      2.16      0.00
   19   12    5     -0.66      0.00
   20   12    5      0.21      0.00
   11   13    5      1.30      0.00
   12   13    5     -3.52      0.00
   13   13    5     -0.79      0.00
   14   13    5     -2.94      0.00
   15   13    5     -1.89      0.00
   16   13    5     -0.47      0.00
   17   13    5      0.53      0.00
   18   13    5      0.74      0.00
    6   14    5      1.75      0.00
    7   14    5     -0.26      0.00
    8   14    5     -0.19      0.00
    9   14    5     -1.49      0.00
   10   14    5      0.20      0.00
   11   14    5      0.91      0.00
   12   14    5      0.36      0.00
   13   14    5      2.24      0.00
   14   14    5      0.32      0.00
   15   14    5      0.29      0.00
   16   14    5      0.54      0.00
   23    3    6     -0.56      0.00
   23    4    6      3.63      0.00
   22    5    6      0.02      0.00
   23    5    6     -2.56      0.00
   22    6    6      2.33      0.00
   23    6    6      0.08      0.00
   21    7    6     -3.25      0.00
   22    7    6      0.05      0.00
   23    7    6     -1.09      0.00
   20    8    6      0.44      0.00
   21    8    6      1.52      0.00
   22    8    6      0.90      0.00
   23    8    6     -0.28      0.00
   18    9    6      0.14      0.00
   19    9    6      1.20      0.00
   20    9    6     -1.84      0.00
   21    9    6     -2.28      0.00
   22    9    6     -2.86      0.00
   23    9    6     -0.65      0.00
   17   10    6      1.75      0.00
   18   10    6      1.31      0.00
   19   10    6     -3.41      0.00
   20   10    6      0.90      0.00
   21   10    6      0.48      0.00
   22   10    6      0.11      0.00
   15   11    6     -3.19      0.00
   16   11    6      0.69      0.00
   17   11    6     -1.83      0.00
   18   11    6     -1.92      0.00
   19   11    6      0.05      0.00
   20   11    6     -1.04      0.00
   21   11    6     -0.76      0.00
   13   12    6      0.33      0.00
   14   12    6      0.19      0.00
   15   12    6      0.83      0.00
   16   12    6     -2.49      0.00
   17   12    6     -2.99      0.00
   18   12    6     -0.34      0.00
   19   12    6     -1.87      0.00
    9   13    6      1.79      0.00
   10   13    6      1.24      0.00
   11   13    6      2.71      0.00
   12   13    6     -0.74      0.00
   13   13    6      0.36      0.00
   14   13    6      0.61      0.00
   15   13    6     -0.03      0.00
   16   13    6      0.79      0.00
   17   13    6      0.01      0.00
    3   14    6      1.20      0.00
    4   14    6     -3.64      0.00
    5   14    6     -0.44      0.00
    6   14    6      0.29      0.00
    7   14    6     -0.58      0.00
    8   14    6      0.74      0.00
    9   14    6      0.00      0.00
   10   14    6     -1.26      0.00
   11   14    6     -0.01      0.00
   12   14    6     -1.45      0.00
   13   14    6     -0.64      0.00
   14   14    6     -0.90      0.00
   15   14    6     -1.73      0.00
   23    0    7      3.95      0.00
   23    1    7     -2.60      0.00
   23    2    7      4.21      0.00
   23    3    7     -1.74      0.00
   22    4    7     -7.14      0.00
   23    4    7     -1.13      0.00
   22    5    7      3.80      0.00
   23    5    7      2.87      0.00
   21    6    7     -1.11      0.00
   22    6    7     -3.13      0.00
   23    6    7     -1.70      0.00
   20    7    7      1.18      0.00
   21    7    7      0.97      0.00
   22    7    7      3.71      0.00
   23    7    7     -0.02      0.00
   19    8    7      0.25      0.00
   20    8    7     -0.29      0.00
   21    8    7     -0.38      0.00
   22    8    7      0.89      0.00
   23    8    7     -0.19      0.00
   18    9    7     -2.17      0.00
   19    9    7      3.26      0.00
   20    9    7      0.28      0.00
   21    9    7      1.51      0.00
   22    9    7      2.11      0.00
   23    9    7      0.17      0.00
   16   10    7     -2.71      0.00
   17   10    7     -1.34      0.00
   18   10    7      1.67      0.00
   19   10    7     -0.55      0.00
   20   10    7      0.65      0.00
   21   10    7      0.09      0.00
   14   11    7      2.27      0.00
   15   11    7     -0.57      0.00
   16   11    7      4.42      0.00
   17   11    7      4.43      0.00
   18   11    7      0.52      0.00
   19   11    7      1.07      0.00
   20   11    7      0.40      0.00
    0   12    7     -0.84      0.00
   12   12    7      3.41      0.00
   13   12    7     -1.46      0.00
   14   12    7     -0.25      0.00
   15   12    7      1.98      0.00
   16   12    7     -0.41      0.00
   17   12    7     -0.07      0.00
   18   12    7      1.83      0.00
    8   13    7     -0.46      0.00
    9   13    7     -4.29      0.00
   10   13    7     -1.75      0.00
   11   13    7     -1.08      0.00
   12   13    7     -1.46      0.00
   13   13    7      0.99      0.00
   14   13    7      0.61      0.00
   15   13    7     -0.94      0.00
   16   13    7     -0.35      0.00
   17   13    7     -0.64      0.00
    0   14    7     -0.07      0.00
    1   14    7      0.77      0.00
    2   14    7      0.16      0.00
    3   14    7      2.70      0.00
    4   14    7      0.66      0.00
    5   14    7     -0.34      0.00
    6   14    7      0.78      0.00
    7   14    7     -0.35      0.00
    8   14    7      0.22      0.00
    9   14    7      2.01      0.00
   10   14    7      0.49      0.00
   11   14    7      0.98      0.00
   12   14    7      1.21      0.00
   13   14    7      0.19      0.00
   14   14    7      0.75      0.00
   23    1    8     -1.90      0.00
   22    2    8     -1.08      0.00
   23    2    8      0.55      0.00
   22    3    8      4.02      0.00
   23    3    8      1.26      0.00
   22    4    8     -0.20      0.00
   23    4    8      2.88      0.00
   21    5    8     -3.06      0.00
   22    5    8     -4.70      0.00
   23    5    8     -2.73      0.00
   20    6    8      1.63      0.00
   21    6    8      0.88      0.00
   22    6    8      0.65      0.00
   23    6    8      3.47      0.00
   19    7    8      0.82      0.00
   20    7    8     -1.18      0.00
   21    7    8     -1.96      0.00
   22    7    8     -1.44      0.00
   23    7    8     -3.20      0.00
   18    8    8     -0.37      0.00
   19    8    8     -0.81      0.00
   20    8    8     -0.24      0.00
   21    8    8     -0.71      0.00
   22    8    8     -0.02      0.00
   23    8    8     -0.44      0.00
   17    9    8      0.86      0.00
   18    9    8     -2.99      0.00
   19    9    8     -0.14      0.00
   20    9    8     -1.40      0.00
   21    9    8     -0.46      0.00
   22    9    8      0.76      0.00
   15   10    8      2.28      0.00
   16   10    8      0.99      0.00
   17   10    8     -0.71      0.00
   18   10    8      0.64      0.00
   19   10    8      0.25      0.00
   20   10    8     -0.98      0.00
   21   10    8      0.23      0.00
   13   11    8      1.20      0.00
   14   11    8      1.69      0.00
   15   11    8     -2.57      0.00
   16   11    8     -2.55      0.00
   17   11    8     -1.29      0.00
   18   11    8     -2.69      0.00
   19   11    8     -0.96      0.00
    0   12    8     -1.31      0.00
   10   12    8      1.42      0.00
   11   12    8     -1.35      0.00
   12   12    8      2.50      0.00
   13   12    8     -1.96      0.00
   14   12    8     -1.18      0.00
   15   12    8      1.88      0.00
   16   12    8      0.66      0.00
   17   12    8      0.93      0.00
   18   12    8      0.82      0.00
    0   13    8      0.04      0.00
    6   13    8      0.49      0.00
    7   13    8     -0.01      0.00
    8   13    8      4.58      0.00
    9   13    8     -0.85      0.00
   10   13    8      3.23      0.00
   11   13    8      1.92      0.00
   12   13    8     -0.29      0.00
   13   13    8      0.95      0.00
   14   13    8      0.12      0.00
   15   13    8     -0.78      0.00
   16   13    8      0.28      0.00
    0   14    8     -0.86      0.00
    1   14    8     -0.81      0.00
    2   14    8     -0.65      0.00
    3   14    8      0.67      0.00
    4   14    8      1.92      0.00
    5   14    8      0.21      0.00
    6   14    8      0.68      0.00
    7   14    8     -1.58      0.00
    8   14    8     -2.89      0.00
    9   14    8     -0.17      0.00
   10   14    8     -1.28      0.00
   11   14    8     -1.13      0.00
   12   14    8      0.57      0.00
   13   14    8     -1.67      0.00
   23    0    9      2.09      0.00
   22    1    9      0.27      0.00
   23    1    9      0.45      0.00
   22    2    9     -1.71      0.00
   23    2    9     -0.92      0.00
   21    3    9     -4.66      0.00
   22    3    9      1.61      0.00
   23    3    9     -2.59      0.00
   21    4    9      0.69      0.00
   22    4    9     -1.45      0.00
   23    4    9      0.64      0.00
   20    5    9     -0.97      0.00
   21    5    9      4.38      0.00
   22    5    9      3.35      0.00
   23    5    9      1.52      0.00
   19    6    9     -1.88      0.00
   20    6    9      1.51      0.00
   21    6    9     -1.22      0.00
   22    6    9     -3.40      0.00
   23    6    9      1.07      0.00
   18    7    9      0.01      0.00
   19    7    9     -0.23      0.00
   20    7    9      0.85      0.00
   21    7    9      1.72      0.00
   22    7    9      1.71      0.00
   23    7    9      1.19      0.00
   17    8    9     -0.29      0.00
   18    8    9      1.39      0.00
   19    8    9      0.71      0.00
   20    8    9      0.39      0.00
   21    8    9     -0.26      0.00
   22    8    9     -0.17      0.00
   16    9    9     -2.89      0.00
   17    9    9      0.85      0.00
   18    9    9      0.15      0.00
   19    9    9     -0.11      0.00
   20    9    9      0.55      0.00
   21    9    9     -0.48      0.00
   14   10    9     -1.21      0.00
   15   10    9     -0.52      0.00
   16   10    9      0.74      0.00
   17   10    9     -1.22      0.00
   18   10    9     -1.23      0.00
   19   10    9      0.89      0.00
   20   10    9     -1.77      0.00
   12   11    9     -1.59      0.00
   13   11    9     -1.05      0.00
   14   11    9      0.27      0.00
   15   11    9      0.10      0.00
   16   11    9      0.11      0.00
   17   11    9      1.30      0.00
   18   11    9      0.21      0.00
    0   12    9     -1.72      0.00
    8   12    9     -1.31      0.00
    9   12    9      0.34      0.00
   10   12    9     -1.71      0.00
   11   12    9     -2.00      0.00
   12   12    9      1.99      0.00
   13   12    9     -0.35      0.00
   14   12    9     -0.38      0.00
   15   12    9     -0.47      0.00
   16   12    9     -1.89      0.00
   17   12    9     -1.20      0.00
    0   13    9      0.51      0.00
    1   13    9     -1.31      0.00
    2   13    9      2.28      0.00
    3   13    9     -0.14      0.00
    4   13    9      4.43      0.00
    5   13    9     -0.21      0.00
    6   13    9      0.84      0.00
    7   13    9     -1.37      0.00
    8   13    9     -0.75      0.00
    9   13    9     -2.35      0.00
   10   13    9      0.25      0.00
   11   13    9     -0.85      0.00
   12   13    9     -0.72      0.00
   13   13    9     -0.38      0.00
   14   13    9      0.10      0.00
   15   13    9     -0.45      0.00
    0   14    9     -0.87      0.00
    1   14    9      0.71      0.00
    2   14    9     -0.63      0.00
    3   14    9     -2.88      0.00
    4   14    9     -1.01      0.00
    5   14    9     -1.73      0.00
    6   14    9      1.48      0.00
    7   14    9      2.08      0.00
    8   14    9      1.81      0.00
    9   14    9      1.41      0.00
   10   14    9      0.78      0.00
   11   14    9      0.14      0.00
   12   14    9      0.96      0.00
   22    0   10      1.00      0.00
   21    1   10     -0.94      0.00
   22    1   10      0.50      0.00
   23    1   10      0.45      0.00
   21    2   10      1.23      0.00
   22    2   10     -1.44      0.00
   23    2   10      2.42      0.00
   20    3   10      2.95      0.00
   21    3   10     -1.01      0.00
   22    3   10      1.89      0.00
   23    3   10     -1.52      0.00
   20    4   10      0.67      0.00
   21    4   10     -0.68      0.00
   22    4   10     -0.86      0.00
   23    4   10     -0.13      0.00
   19    5   10      1.52      0.00
   20    5   10     -3.74      0.00
   21    5   10     -1.88      0.00
   22    5   10     -2.57      0.00
   23    5   10     -1.47      0.00
   18    6   10      1.86      0.00
   19    6   10     -2.46      0.00
   20    6   10      1.57      0.00
   21    6   10      2.13      0.00
   22    6   10      0.58      0.00
   23    6   10      0.62      0.00
   17    7   10      0.50      0.00
   18    7   10      2.41      0.00
   19    7   10     -1.01      0.00
   20    7   10      0.42      0.00
   21    7   10     -1.36      0.00
   22    7   10     -1.24      0.00
   16    8   10      1.92      0.00
   17    8   10     -3.11      0.00
   18    8   10     -1.26      0.00
   19    8   10      0.32      0.00
   20    8   10      0.15      0.00
   21    8   10      1.24      0.00
   14    9   10      3.53      0.00
   15    9   10      4.44      0.00
   16    9   10      2.40      0.00
   17    9   10      1.63      0.00
   18    9   10      1.37      0.00
   19    9   10     -1.46      0.00
   20    9   10      0.75      0.00
   12   10   10      0.43      0.00
   13   10   10      1.40      0.00
   14   10   10      1.08      0.00
   15   10   10     -0.92      0.00
   16   10   10      1.10      0.00
   17   10   10      0.36      0.00
   18   10   10     -0.08      0.00
   19   10   10      1.47      0.00
   10   11   10      2.20      0.00
   11   11   10      1.08      0.00
   12   11   10      1.93      0.00
   13   11   10      1.14      0.00
   14   11   10     -0.22      0.00
   15   11   10      0.43      0.00
   16   11   10      0.26      0.00
   17   11   10      0.79      0.00
    5   12   10      1.91      0.00
    6   12   10     -2.30      0.00
    7   12   10     -0.82      0.00
    8   12   10      2.09      0.00
    9   12   10      0.60      0.00
   10   12   10     -0.02      0.00
   11   12   10      0.17      0.00
   12   12   10     -0.83      0.00
   13   12   10     -0.14      0.00
   14   12   10     -0.38      0.00
   15   12   10      0.63      0.00
   16   12   10      0.18      0.00
    0   13   10      0.38      0.00
    1   13   10     -0.81      0.00
    2   13   10      0.58      0.00
    3   13   10     -0.14      0.00
    4   13   10      1.77      0.00
    5   13   10     -1.30      0.00
    6   13   10     -0.44      0.00
    7   13   10      0.49      0.00
    8   13   10     -1.51      0.00
    9   13   10      0.32      0.00
   10   13   10      1.15      0.00
   11   13   10     -0.68      0.00
   12   13   10      1.17      0.00
   13   13   10     -0.12      0.00
    0   14   10     -0.86      0.00
    1   14   10      0.66      0.00
    2   14   10      1.48      0.00
    3   14   10      0.77      0.00
    4   14   10      1.29      0.00
    5   14   10      0.65      0.00
    6   14   10     -1.10      0.00
    7   14   10     -1.50      0.00
    8   14   10     -0.51      0.00
    9   14   10     -1.17      0.00
   10   14   10     -0.48      0.00
   21    0   11      0.76      0.00
   23    0   11     -0.27      0.00
   20    1   11      0.56      0.00
   21    1   11      0.69      0.00
   22    1   11      1.24      0.00
   23    1   11     -0.67      0.00
   20    2   11     -1.19      0.00
   21    2   11      1.90      0.00
   22    2   11     -1.73      0.00
   23    2   11      1.55      0.00
   19    3   11     -2.84      0.00
   20    3   11     -1.10      0.00
   21    3   11     -1.58      0.00
   22    3   11      0.87      0.00
   23    3   11     -0.08      0.00
   19    4   11      0.21      0.00
   20    4   11      0.81      0.00
   21    4   11     -1.50      0.00
   22    4   11      0.77      0.00
   23    4   11     -0.09      0.00
   18    5   11     -0.60      0.00
   19    5   11      3.25      0.00
   20    5   11      0.99      0.00
   21    5   11      1.90      0.00
   22    5   11      1.20      0.00
   23    5   11      1.25      0.00
   17    6   11     -1.15      0.00
   18    6   11     -0.14      0.00
   19    6   11     -0.29      0.00
   20    6   11     -2.21      0.00
   21    6   11     -1.40      0.00
   22    6   11     -0.93      0.00
   16    7   11     -2.63      0.00
   17    7   11     -2.32      0.00
   18    7   11      0.57      0.00
   19    7   11     -1.96      0.00
   20    7   11      1.67      0.00
   21    7   11      0.27      0.00
   15    8   11     -3.88      0.00
   16    8   11      3.41      0.00
   17    8   11      0.36      0.00
   18    8   11      1.15      0.00
   19    8   11      0.19      0.00
   20    8   11     -1.28      0.00
   13    9   11     -3.01      0.00
   14    9   11     -1.03      0.00
   15    9   11     -2.33      0.00
   16    9   11     -2.01      0.00
   17    9   11     -3.62      0.00
   18    9   11      0.36      0.00
   19    9   11     -1.48      0.00
   11   10   11     -0.12      0.00
   12   10   11     -1.68      0.00
   13   10   11     -0.72      0.00
   14   10   11      1.70      0.00
   15   10   11      0.03      0.00
   16   10   11      1.03      0.00
   17   10   11     -0.26      0.00
   18   10   11     -0.47      0.00
    7   11   11      2.08      0.00
    8   11   11      0.41      0.00
    9   11   11      0.72      0.00
   10   11   11      0.16      0.00
   11   11   11     -1.67      0.00
   12   11   11     -0.61      0.00
   13   11   11     -0.30      0.00
   14   11   11      0.00      0.00
   15   11   11     -0.32      0.00
   16   11   11     -0.23      0.00
    0   12   11     -2.08      0.00
    1   12   11      0.67      0.00
    2   12   11     -2.28      0.00
    3   12   11      4.27      0.00
    4   12   11     -1.74      0.00
    5   12   11      5.21      0.00
    6   12   11      0.45      0.00
    7   12   11     -1.66      0.00
    8   12   11      0.07      0.00
    9   12   11     -1.86      0.00
   10   12   11      0.34      0.00
   11   12   11      2.97      0.00
   12   12   11      1.62      0.00
   13   12   11      0.81      0.00
   14   12   11      0.33      0.00
    0   13   11      0.78      0.00
    1   13   11      0.18      0.00
    2   13   11     -1.41      0.00
    3   13   11     -0.68      0.00
    4   13   11     -0.78      0.00
    5   13   11     -0.44      0.00
    6   13   11      0.52      0.00
    7   13   11      2.95      0.00
    8   13   11     -0.92      0.00
    9   13   11      1.48      0.00
   10   13   11      0.50      0.00
   11   13   11     -1.97      0.00
   12   13   11      1.21      0.00
    0   14   11     -0.86      0.00
    1   14   11      0.68      0.00
    2   14   11     -0.16      0.00
    3   14   11     -0.68      0.00
    4   14   11     -0.76      0.00
    5   14   11      0.00      0.00
    6   14   11     -0.76      0.00
    7   14   11     -0.04      0.00
    8   14   11      0.87      0.00
   20    0   12      1.99      0.00
   22    0   12     -1.18      0.00
   19    1   12      3.62      0.00
   20    1   12     -1.81      0.00
   21    1   12     -1.41      0.00
   22    1   12      0.93      0.00
   23    1   12     -1.01      0.00
   18    2   12     -0.38      0.00
   19    2   12      1.85      0.00
   20    2   12      0.44      0.00
   21    2   12      2.49      0.00
   22    2   12     -1.11      0.00
   23    2   12     -0.11      0.00
   18    3   12      2.14      0.00
   19    3   12      0.51      0.00
   20    3   12      1.45      0.00
   21    3   12      0.64      0.00
   22    3   12     -0.44      0.00
   23    3   12      0.15      0.00
   17    4   12     -0.38      0.00
   18    4   12     -1.27      0.00
   19    4   12     -0.55      0.00
   20    4   12     -1.44      0.00
   21    4   12     -0.32      0.00
   22    4   12      1.02      0.00
   17    5   12      1.07      0.00
   18    5   12     -2.35      0.00
   19    5   12     -0.28      0.00
   20    5   12     -0.51      0.00
   21    5   12     -0.89      0.00
   22    5   12     -1.67      0.00
   16    6   12      2.12      0.00
   17    6   12      0.57      0.00
   18    6   12      0.74      0.00
   19    6   12      2.23      0.00
   20    6   12      0.44      0.00
   21    6   12      1.25      0.00
   15    7   12      4.11      0.00
   16    7   12     -1.53      0.00
   17    7   12      1.18      0.00
   18    7   12      0.97      0.00
   19    7   12     -1.40      0.00
   20    7   12      0.90      0.00
   13    8   12      2.06      0.00
   14    8   12      1.75      0.00
   15    8   12     -0.36      0.00
   16    8   12      0.72      0.00
   17    8   12     -1.45      0.00
   18    8   12     -1.12      0.00
   19    8   12     -0.03      0.00
   11    9   12      3.25      0.00
   12    9   12      4.37      0.00
   13    9   12     -1.04      0.00
   14    9   12      1.22      0.00
   15    9   12     -1.13      0.00
   16    9   12      2.72      0.00
   17    9   12      0.70      0.00
   18    9   12      2.09      0.00
    8   10   12     -0.93      0.00
    9   10   12     -0.87      0.00
   10   10   12     -0.59      0.00
   11   10   12     -2.49      0.00
   12   10   12      0.12      0.00
   13   10   12     -1.64      0.00
   14   10   12      0.14      0.00
   15   10   12     -1.12      0.00
   16   10   12      0.04      0.00
   17   10   12     -0.60      0.00
    1   11   12      0.43      0.00
    2   11   12      2.46      0.00
    3   11   12     -1.12      0.00
    4   11   12      1.85      0.00
    5   11   12     -3.07      0.00
    6   11   12     -1.71      0.00
    7   11   12     -2.71      0.00
    8   11   12     -0.76      0.00
    9   11   12     -0.43      0.00
   10   11   12      0.13      0.00
   11   11   12      0.30      0.00
   12   11   12     -0.29      0.00
   13   11   12     -0.11      0.00
   14   11   12      0.46      0.00
   15   11   12     -0.63      0.00
    0   12   12     -2.83      0.00
    1   12   12      0.91      0.00
    2   12   12     -2.06      0.00
    3   12   12      1.28      0.00
    4   12   12     -1.43      0.00
    5   12   12     -0.22      0.00
    6   12   12      0.05      0.00
    7   12   12     -0.44      0.00
    8   12   12      2.01      0.00
    9   12   12     -0.96      0.00
   10   12   12     -0.93      0.00
   11   12   12     -1.46      0.00
   12   12   12     -2.01      0.00
   13   12   12     -1.11      0.00
    0   13   12     -0.48      0.00
    1   13   12      0.38      0.00
    2   13   12     -0.78      0.00
    3   13   12      2.13      0.00
    4   13   12     -0.28      0.00
    5   13   12      0.27      0.00
    6   13   12     -0.31      0.00
    7   13   12     -0.96      0.00
    8   13   12     -1.31      0.00
    9   13   12     -0.62      0.00
   10   13   12      0.93      0.00
    0   14   12      0.05      0.00
    1   14   12      0.72      0.00
    2   14   12     -0.56      0.00
    3   14   12      0.18      0.00
    4   14   12     -0.24      0.00
    5   14   12      0.71      0.00
   17    0   13     -1.90      0.00
   19    0   13     -7.22      0.00
   21    0   13      0.01      0.00
   17    1   13     -1.49      0.00
   18    1   13     -1.36      0.00
   19    1   13      1.22      0.00
   20    1   13     -0.39      0.00
   21    1   13      0.13      0.00
   22    1   13      0.26      0.00
   17    2   13     -0.75      0.00
   18    2   13     -0.79      0.00
   19    2   13      1.38      0.00
   20    2   13     -3.34      0.00
   21    2   13     -0.27      0.00
   22    2   13     -0.92      0.00
   17    3   13      2.42      0.00
   18    3   13      0.32      0.00
   19    3   13     -1.66      0.00
   20    3   13      0.33      0.00
   21    3   13     -0.39      0.00
   22    3   13     -1.08      0.00
   16    4   13     -1.86      0.00
   17    4   13     -3.25      0.00
   18    4   13      1.91      0.00
   19    4   13      2.06      0.00
   20    4   13      0.09      0.00
   21    4   13      0.92      0.00
   15    5   13      1.69      0.00
   16    5   13     -0.21      0.00
   17    5   13      4.90      0.00
   18    5   13     -1.81      0.00
   19    5   13     -0.23      0.00
   20    5   13     -0.29      0.00
   21    5   13     -0.26      0.00
   14    6   13     -1.12      0.00
   15    6   13     -1.73      0.00
   16    6   13      1.22      0.00
   17    6   13     -2.99      0.00
   18    6   13     -0.93      0.00
   19    6   13      0.61      0.00
   20    6   13     -0.50      0.00
   13    7   13     -5.55      0.00
   14    7   13      0.22      0.00
   15    7   13      0.44      0.00
   16    7   13     -2.69      0.00
   17    7   13      1.84      0.00
   18    7   13      0.06      0.00
   19    7   13      0.06      0.00
   11    8   13     -2.03      0.00
   12    8   13     -0.95      0.00
   13    8   13      3.31      0.00
   14    8   13     -1.81      0.00
   15    8   13      0.87      0.00
   16    8   13      0.72      0.00
   17    8   13      0.12      0.00
   18    8   13     -0.19      0.00
    8    9   13      4.08      0.00
    9    9   13      0.05      0.00
   10    9   13     -2.77      0.00
   11    9   13     -0.51      0.00
   12    9   13     -1.35      0.00
   13    9   13     -1.15      0.00
   14    9   13      3.05      0.00
   15    9   13     -0.42      0.00
   16    9   13      0.54      0.00
   17    9   13     -1.77      0.00
    3   10   13      0.46      0.00
    4   10   13     -0.74      0.00
    5   10   13      0.26      0.00
    6   10   13     -0.94      0.00
    7   10   13      1.17      0.00
    8   10   13     -1.20      0.00
    9   10   13      1.19      0.00
   10   10   13      3.70      0.00
   11   10   13      0.72      0.00
   12   10   13      3.57      0.00
   13   10   13      0.59      0.00
   14   10   13     -0.30      0.00
   15   10   13     -0.23      0.00
    0   11   13      1.68      0.00
    1   11   13     -1.90      0.00
    2   11   13      1.66      0.00
    3   11   13     -2.70      0.00
    4   11   13      2.00      0.00
    5   11   13      2.93      0.00
    6   11   13      3.01      0.00
    7   11   13      0.73      0.00
    8   11   13      1.71      0.00
    9   11   13     -1.23      0.00
   10   11   13     -0.87      0.00
   11   11   13      1.33      0.00
   12   11   13      0.09      0.00
   13   11   13      0.21      0.00
    0   12   13      0.05      0.00
    1   12   13      0.51      0.00
    2   12   13      0.80      0.00
    3   12   13      0.26      0.00
    4   12   13      0.86      0.00
    5   12   13     -0.24      0.00
    6   12   13     -0.35      0.00
    7   12   13     -0.73      0.00
    8   12   13      0.16      0.00
    9   12   13      0.06      0.00
   10   12   13      1.44      0.00
   11   12   13      0.40      0.00
    0   13   13     -0.22      0.00
    1   13   13     -0.14      0.00
    2   13   13     -0.58      0.00
    3   13   13      0.79      0.00
    4   13   13     -0.49      0.00
    5   13   13      0.23      0.00
    6   13   13      0.28      0.00
    7   13   13      0.08      0.00
   16    0   14     -2.19      0.00
   18    0   14      4.57      0.00
   20    0   14      3.64      0.00
   16    1   14      1.41      0.00
   17    1   14     -0.79      0.00
   18    1   14      0.86      0.00
   19    1   14     -2.35      0.00
   20    1   14      0.83      0.00
   21    1   14      0.14      0.00
   15    2   14      0.77      0.00
   16    2   14      2.14      0.00
   17    2   14      0.99      0.00
   18    2   14     -0.30      0.00
   19    2   14      1.83      0.00
   20    2   14     -0.87      0.00
   21    2   14      1.26      0.00
   15    3   14     -0.96      0.00
   16    3   14     -3.66      0.00
   17    3   14     -1.69      0.00
   18    3   14     -2.96      0.00
   19    3   14     -0.36      0.00
   20    3   14      0.93      0.00
   14    4   14      0.11      0.00
   15    4   14      2.32      0.00
   16    4   14      5.09      0.00
   17    4   14      0.83      0.00
   18    4   14      2.68      0.00
   19    4   14     -0.98      0.00
   20    4   14     -2.28      0.00
   13    5   14     -0.37      0.00
   14    5   14      2.95      0.00
   15    5   14     -2.66      0.00
   16    5   14     -5.27      0.00
   17    5   14      0.58      0.00
   18    5   14     -2.87      0.00
   19    5   14      2.46      0.00
   12    6   14     -2.96      0.00
   13    6   14      3.76      0.00
   14    6   14     -3.83      0.00
   15    6   14     -0.78      0.00
   16    6   14      3.85      0.00
   17    6   14     -0.81      0.00
   18    6   14      1.28      0.00
   19    6   14     -0.44      0.00
   10    7   14     -4.48      0.00
   11    7   14      3.97      0.00
   12    7   14      3.52      0.00
   13    7   14     -3.39      0.00
   14    7   14      4.46      0.00
   15    7   14      1.46      0.00
   16    7   14     -1.64      0.00
   17    7   14      0.95      0.00
   18    7   14     -0.53      0.00
    8    8   14     -2.73      0.00
    9    8   14     -3.12      0.00
   10    8   14      2.87      0.00
   11    8   14     -3.71      0.00
   12    8   14     -0.33      0.00
   13    8   14      2.07      0.00
   14    8   14     -3.93      0.00
   15    8   14      0.33      0.00
   16    8   14     -0.70      0.00
   17    8   14      0.16      0.00
    3    9   14     -0.69      0.00
    4    9   14      2.28      0.00
    5    9   14      0.27      0.00
    6    9   14      0.64      0.00
    7    9   14     -3.49      0.00
    8    9   14      0.76      0.00
    9    9   14     -0.83      0.00
   10    9   14     -0.88      0.00
   11    9   14      1.18      0.00
   12    9   14     -0.83      0.00
   13    9   14     -1.62      0.00
   14    9   14      1.54      0.00
   15    9   14     -0.16      0.00
    0   10   14      5.18      0.00
    1   10   14      0.87      0.00
    2   10   14      0.17      0.00
    3   10   14      0.97      0.00
    4   10   14     -2.46      0.00
    5   10   14     -2.02      0.00
    6   10   14     -0.55      0.00
    7   10   14      1.12      0.00
    8   10   14     -1.29      0.00
    9   10   14      0.18      0.00
   10   10   14     -0.24      0.00
   11   10   14     -3.35      0.00
   12   10   14     -0.02      0.00
   13   10   14     -0.42      0.00
    0   11   14     -1.33      0.00
    1   11   14     -3.11      0.00
    2   11   14      1.39      0.00
    3   11   14     -1.37      0.00
    4   11   14      0.25      0.00
    5   11   14     -1.19      0.00
    6   11   14     -2.22      0.00
    7   11   14     -1.11      0.00
    8   11   14      0.25      0.00
    9   11   14     -0.06      0.00
   10   11   14      0.11      0.00
   11   11   14      1.06      0.00
    0   12   14      0.97      0.00
    1   12   14     -0.79      0.00
    2   12   14      0.44      0.00
    3   12   14     -1.77      0.00
    4   12   14     -0.28      0.00
    5   12   14      0.55      0.00
    6   12   14      0.66      0.00
    7   12   14      0.38      0.00
    8   12   14      0.02      0.00
    0   13   14     -0.09      0.00
    1   13   14      0.26      0.00
   15    0   15     -1.78      0.00
   17    0   15     -0.13      0.00
   19    0   15     -0.38      0.00
   14    1   15     -2.35      0.00
   15    1   15     -0.33      0.00
   16    1   15     -1.45      0.00
   17    1   15     -1.06      0.00
   18    1   15      2.76      0.00
   19    1   15     -1.44      0.00
   20    1   15      1.47      0.00
   13    2   15      0.68      0.00
   14    2   15      2.19      0.00
   15    2   15     -0.15      0.00
   16    2   15     -0.01      0.00
   17    2   15     -1.02      0.00
   18    2   15     -0.46      0.00
   19    2   15     -0.02      0.00
   13    3   15     -0.20      0.00
   14    3   15     -4.40      0.00
   15    3   15      0.38      0.00
   16    3   15      2.66      0.00
   17    3   15      3.41      0.00
   18    3   15      1.09      0.00
   19    3   15      0.73      0.00
   12    4   15      1.25      0.00
   13    4   15      2.12      0.00
   14    4   15      1.51      0.00
   15    4   15      0.61      0.00
   16    4   15     -2.34      0.00
   17    4   15     -4.69      0.00
   18    4   15     -0.18      0.00
   19    4   15     -1.29      0.00
   11    5   15     -3.10      0.00
   12    5   15     -1.53      0.00
   13    5   15     -5.39      0.00
   14    5   15      0.70      0.00
   15    5   15      0.93      0.00
   16    5   15      1.21      0.00
   17    5   15      4.10      0.00
   18    5   15     -0.90      0.00
    0    6   15      2.11      0.00
    9    6   15     -2.20      0.00
   10    6   15      5.73      0.00
   11    6   15     -1.58      0.00
   12    6   15     -1.03      0.00
   13    6   15      4.77      0.00
   14    6   15     -0.74      0.00
   15    6   15     -0.07      0.00
   16    6   15     -0.34      0.00
   17    6   15     -2.03      0.00
    7    7   15     -3.01      0.00
    8    7   15     -1.21      0.00
    9    7   15     -0.23      0.00
   10    7   15     -6.06      0.00
   11    7   15      2.84      0.00
   12    7   15      0.93      0.00
   13    7   15     -3.78      0.00
   14    7   15      0.90      0.00
   15    7   15     -2.16      0.00
   16    7   15     -1.15      0.00
    0    8   15      0.81      0.00
    1    8   15      0.84      0.00
    2    8   15     -0.60      0.00
    3    8   15      0.60      0.00
    4    8   15      0.72      0.00
    5    8   15     -1.74      0.00
    6    8   15      1.02      0.00
    7    8   15      2.57      0.00
    8    8   15     -0.77      0.00
    9    8   15      1.69      0.00
   10    8   15      1.60      0.00
   11    8   15     -1.73      0.00
   12    8   15      0.65      0.00
   13    8   15      1.29      0.00
   14    8   15     -0.34      0.00
   15    8   15      1.72      0.00
    0    9   15     -1.08      0.00
    1    9   15      4.76      0.00
    2    9   15      1.15      0.00
    3    9   15     -0.39      0.00
    4    9   15      0.53      0.00
    5    9   15      0.60      0.00
    6    9   15      0.54      0.00
    7    9   15     -0.10      0.00
    8    9   15      1.86      0.00
    9    9   15     -0.81      0.00
   10    9   15      0.09      0.00
   11    9   15      1.23      0.00
   12    9   15      0.63      0.00
   13    9   15     -0.31      0.00
    0   10   15     -3.15      0.00
    1   10   15     -1.93      0.00
    2   10   15     -2.82      0.00
    3   10   15      2.71      0.00
    4   10   15      1.69      0.00
    5   10   15      1.16      0.00
    6   10   15      2.02      0.00
    7   10   15     -0.59      0.00
    8   10   15     -0.96      0.00
    9   10   15      0.14      0.00
   10   10   15      0.25      0.00
   11   10   15     -0.41      0.00
    0   11   15      2.46      0.00
    1   11   15      1.65      0.00
    2   11   15      0.79      0.00
    3   11   15      0.32      0.00
    4   11   15      0.99      0.00
    5   11   15      0.03      0.00
    6   11   15      0.68      0.00
    7   11   15      0.62      0.00
    8   11   15      0.12      0.00
    0   12   15     -0.13      0.00
    1   12   15     -1.47      0.00
    2   12   15      0.70      0.00
    3   12   15      0.88      0.00
   12    0   16      0.05      0.00
   14    0   16      3.33      0.00
   16    0   16      2.51      0.00
   18    0   16     -1.22      0.00
   11    1   16     -0.19      0.00
   12    1   16      1.78      0.00
   13    1   16      1.15      0.00
   14    1   16     -0.82      0.00
   15    1   16      1.24      0.00
   16    1   16      0.25      0.00
   17    1   16     -0.31      0.00
   18    1   16      1.24      0.00
   11    2   16      1.90      0.00
   12    2   16     -1.48      0.00
   13    2   16     -1.35      0.00
   14    2   16      1.00      0.00
   15    2   16     -1.11      0.00
   16    2   16     -0.97      0.00
   17    2   16     -0.77      0.00
   18    2   16      0.32      0.00
   10    3   16     -1.27      0.00
   11    3   16     -0.36      0.00
   12    3   16     -0.27      0.00
   13    3   16      3.74      0.00
   14    3   16     -0.36      0.00
   15    3   16      0.97      0.00
   16    3   16     -0.38      0.00
   17    3   16     -0.95      0.00
    9    4   16      2.98      0.00
   10    4   16     -0.15      0.00
   11    4   16      2.23      0.00
   12    4   16     -0.24      0.00
   13    4   16     -2.37      0.00
   14    4   16     -2.50      0.00
   15    4   16     -0.16      0.00
   16    4   16      1.12      0.00
   17    4   16      1.80      0.00
    0    5   16     -2.64      0.00
    7    5   16      1.05      0.00
    8    5   16     -0.02      0.00
    9    5   16      0.35      0.00
   10    5   16      0.70      0.00
   11    5   16      1.13      0.00
   12    5   16      3.18      0.00
   13    5   16      1.42      0.00
   14    5   16      2.21      0.00
   15    5   16     -0.66      0.00
   16    5   16     -0.96      0.00
    0    6   16      0.51      0.00
    1    6   16     -0.28      0.00
    4    6   16      0.55      0.00
    5    6   16      1.14      0.00
    6    6   16      1.82      0.00
    7    6   16      0.93      0.00
    8    6   16     -0.08      0.00
    9    6   16     -2.88      0.00
   10    6   16      2.48      0.00
   11    6   16     -2.25      0.00
   12    6   16     -1.45      0.00
   13    6   16     -0.17      0.00
   14    6   16     -1.38      0.00
   15    6   16      0.37      0.00
    0    7   16      2.58      0.00
    1    7   16      0.29      0.00
    2    7   16      3.18      0.00
    3    7   16      1.90      0.00
    4    7   16     -1.56      0.00
    5    7   16      2.49      0.00
    6    7   16     -2.71      0.00
    7    7   16     -0.74      0.00
    8    7   16      4.20      0.00
    9    7   16      1.10      0.00
   10    7   16      0.66      0.00
   11    7   16      1.63      0.00
   12    7   16     -1.15      0.00
   13    7   16      0.98      0.00
   14    7   16      2.22      0.00
    0    8   16     -0.04      0.00
    1    8   16     -1.29      0.00
    2    8   16     -0.99      0.00
    3    8   16     -0.06      0.00
    4    8   16      0.85      0.00
    5    8   16     -1.58      0.00
    6    8   16      0.94      0.00
    7    8   16     -0.64      0.00
    8    8   16     -2.60      0.00
    9    8   16      0.72      0.00
   10    8   16     -0.83      0.00
   11    8   16     -0.16      0.00
   12    8   16      1.11      0.00
   13    8   16      0.03      0.00
    0    9   16     -1.89      0.00
    1    9   16      0.98      0.00
    2    9   16     -0.28      0.00
    3    9   16     -2.34      0.00
    4    9   16     -1.95      0.00
    5    9   16     -0.83      0.00
    6    9   16     -1.85      0.00
    7    9   16      0.00      0.00
    8    9   16      0.30      0.00
    9    9   16     -0.35      0.00
   10    9   16      0.08      0.00
   11    9   16     -0.44      0.00
    0   10   16     -0.03      0.00
    1   10   16      2.98      0.00
    2   10   16     -0.02      0.00
    3   10   16     -0.05      0.00
    4   10   16     -0.48      0.00
    5   10   16     -1.04      0.00
    6   10   16      0.43      0.00
    7   10   16      0.50      0.00
    8   10   16      0.22      0.00
    0   11   16     -1.64      0.00
    1   11   16     -1.22      0.00
    2   11   16     -1.45      0.00
    3   11   16      0.02      0.00
    4   11   16      0.67      0.00
    7    0   17     -2.25      0.00
    9    0   17     -0.84      0.00
   11    0   17      1.23      0.00
   13    0   17     -0.98      0.00
   15    0   17     -2.87      0.00
    7    1   17      0.16      0.00
    8    1   17     -1.60      0.00
    9    1   17     -0.25      0.00
   10    1   17     -0.09      0.00
   11    1   17     -2.87      0.00
   12    1   17      0.35      0.00
   13    1   17     -0.63      0.00
   14    1   17      0.82      0.00
   15    1   17      0.52      0.00
   16    1   17      0.33      0.00
    6    2   17     -1.80      0.00
    7    2   17     -1.03      0.00
    8    2   17     -0.03      0.00
    9    2   17     -1.29      0.00
   10    2   17      0.47      0.00
   11    2   17      1.79      0.00
   12    2   17      0.82      0.00
   13    2   17     -1.22      0.00
   14    2   17      1.09      0.00
   15    2   17     -0.41      0.00
   16    2   17      1.51      0.00
    5    3   17     -1.95      0.00
    6    3   17     -1.64      0.00
    7    3   17      1.73      0.00
    8    3   17     -0.44      0.00
    9    3   17      0.93      0.00
   10    3   17     -0.15      0.00
   11    3   17     -1.09      0.00
   12    3   17     -1.62      0.00
   13    3   17      0.76      0.00
   14    3   17     -0.14      0.00
   15    3   17      0.46      0.00
   16    3   17     -0.38      0.00
    0    4   17      0.60      0.00
    2    4   17      0.27      0.00
    3    4   17      2.23      0.00
    4    4   17     -0.80      0.00
    5    4   17      1.10      0.00
    6    4   17     -0.71      0.00
    7    4   17     -2.82      0.00
    8    4   17     -1.20      0.00
    9    4   17     -0.34      0.00
   10    4   17     -2.48      0.00
   11    4   17      0.31      0.00
   12    4   17     -0.68      0.00
   13    4   17      0.88      0.00
   14    4   17      0.24      0.00
   15    4   17      0.57      0.00
    0    5   17      2.23      0.00
    1    5   17      1.21      0.00
    2    5   17      1.66      0.00
    3    5   17     -2.44      0.00
    4    5   17     -0.53      0.00
    5    5   17     -2.34      0.00
    6    5   17     -0.25      0.00
    7    5   17      0.46      0.00
    8    5   17     -0.07      0.00
    9    5   17      0.09      0.00
   10    5   17     -0.64      0.00
   11    5   17     -0.94      0.00
   12    5   17     -0.81      0.00
   13    5   17     -1.21      0.00
   14    5   17     -1.35      0.00
    0    6   17     -2.97      0.00
    1    6   17      0.21      0.00
    2    6   17     -0.81      0.00
    3    6   17      1.55      0.00
    4    6   17      2.16      0.00
    5    6   17     -1.77      0.00
    6    6   17      1.19      0.00
    7    6   17     -0.38      0.00
    8    6   17     -1.00      0.00
    9    6   17     -0.13      0.00
   10    6   17      0.66      0.00
   11    6   17     -0.17      0.00
   12    6   17      2.33      0.00
   13    6   17      0.53      0.00
    0    7   17     -0.85      0.00
    1    7   17     -1.62      0.00
    2    7   17     -1.09      0.00
    3    7   17     -1.54      0.00
    4    7   17     -0.82      0.00
    5    7   17      2.69      0.00
    6    7   17     -0.33      0.00
    7    7   17      0.40      0.00
    8    7   17     -0.19      0.00
    9    7   17     -3.44      0.00
   10    7   17      0.49      0.00
   11    7   17      0.13      0.00
   12    7   17     -0.93      0.00
    0    8   17      3.05      0.00
    1    8   17     -0.24      0.00
    2    8   17      0.59      0.00
    3    8   17      0.37      0.00
    4    8   17     -0.15      0.00
    5    8   17     -1.13      0.00
    6    8   17      0.48      0.00
    7    8   17     -0.18      0.00
    8    8   17      0.82      0.00
    9    8   17      1.56      0.00
   10    8   17     -0.15      0.00
    0    9   17     -0.16      0.00
    1    9   17     -1.24      0.00
    2    9   17      0.57      0.00
    3    9   17      1.33      0.00
    4    9   17      0.72      0.00
    5    9   17      2.13      0.00
    6    9   17     -0.03      0.00
    7    9   17      0.46      0.00
    0   10   17     -2.45      0.00
    1   10   17     -0.03      0.00
    2   10   17     -0.50      0.00
    0    0    0      0.00      0.00
# SQUEEZE RESULTS (Version =  21116)
# Note: Data are Listed for all Voids in the P1 Unit Cell
# i.e. Centre of Gravity, Solvent Accessible Volume,
# Recovered number of Electrons in the Void and
# Details about the Squeezed Material
loop_
  _platon_squeeze_void_nr
  _platon_squeeze_void_average_x
  _platon_squeeze_void_average_y
  _platon_squeeze_void_average_z
  _platon_squeeze_void_volume
  _platon_squeeze_void_count_electrons
  _platon_squeeze_void_content
   1  0.500 -0.030  0.000       632       175 ' '
   2  0.000 -0.037  0.500       632       175 ' '
   3  0.121  0.136  0.067        11        -1 ' '
   4  0.879  0.136  0.067        11        -1 ' '
   5  0.379  0.136  0.433        12        -1 ' '
   6  0.621  0.136  0.433        12        -1 ' '
   7  0.379  0.863  0.567        11        -1 ' '
   8  0.621  0.864  0.567        11        -1 ' '
   9  0.121  0.863  0.933        12        -1 ' '
  10  0.879  0.863  0.933        12        -1 ' '
# Missing Reflections Below sin(th)/lambda = 0.25
loop_
  _platon_missing_refln_index_h
  _platon_missing_refln_index_k
  _platon_missing_refln_index_l
  _platon_missing_refln_theta
    1    0    1     1.572
    0    0    4     5.123
_platon_squeeze_void_probe_radius                  1.20
_platon_squeeze_details
)
TITL mo_20210320_40_0ma_a.res in Pmna
CELL   22.2900   13.4780   15.9190     90.00     90.00     90.00
SPGR Pmna
# Solvent Accessible Volume =      1346
# Electrons Found in S.A.V. =       349
# Note: Atoms in Void as Cxxx and Qxxx all others
Q101 0.393 0.612 0.155 !       1.70 eA-3
Q102 1.000 0.629 0.077 !       1.60 eA-3
C103 1.000 0.077 0.628 !       1.53 eA-3
Q104 0.055 0.100 0.579 !       1.49 eA-3
C105 0.888 0.526 0.374 !       1.41 eA-3
C106 0.865 0.614 0.391 !       1.31 eA-3
Q107 1.000 0.623 0.158 !       1.27 eA-3
Q108 0.500 0.588 0.377 !       1.26 eA-3
C109 0.134 0.299 0.630 !       1.25 eA-3
Q110 0.500 0.705 0.381 !       1.19 eA-3
C111 0.885 0.775 0.363 !       1.18 eA-3
C112 0.345 0.452 0.909 !       1.17 eA-3
C113 0.170 0.500 0.500 !       1.11 eA-3
Q114 0.436 0.645 0.174 !       1.09 eA-3
C115 0.876 0.515 0.431 !       1.08 eA-3
C116 0.338 0.623 0.059 !       1.04 eA-3
C117 0.845 0.488 0.456 !       1.03 eA-3
C118 0.642 0.510 0.169 !       1.01 eA-3
C119 0.500 0.937 0.046 !       1.00 eA-3
C120 0.122 0.751 0.394 !       1.00 eA-3
C121 0.839 0.417 0.507 !       0.98 eA-3
C122 0.601 0.848 0.123 !       0.97 eA-3
C123 0.640 0.478 0.123 !       0.96 eA-3
Q124 1.000 0.403 0.440 !       0.96 eA-3
Q125 1.000 0.642 0.388 !       0.94 eA-3
C126 0.984 0.455 0.485 !       0.93 eA-3
C127 0.324 0.558 0.029 !       0.93 eA-3
C128 0.900 0.677 0.396 !       0.93 eA-3
Q129 0.500 0.292 0.007 !       0.92 eA-3
Q130 1.000 0.643 0.257 !       0.90 eA-3
C131 0.547 0.587 0.045 !       0.87 eA-3
C132 1.000 0.842 0.351 !       0.87 eA-3
C133 0.530 0.669 0.041 !       0.86 eA-3
C134 0.383 0.500 0.000 !       0.86 eA-3
C135 0.500 0.595 0.036 !       0.85 eA-3
C136 0.500 0.405 0.964 !       0.85 eA-3
C137 1.000 1.000 0.500 !       0.84 eA-3
C138 0.492 0.365 0.991 !       0.84 eA-3
C139 0.068 0.892 0.326 !       0.81 eA-3
Q140 0.500 0.028 0.396 !       0.80 eA-3
C141 0.662 0.769 0.129 !       0.80 eA-3
Q142 1.000 0.548 0.048 !       0.80 eA-3
Q143 0.750 0.203 0.249 !       0.79 eA-3
C144 0.046 0.833 0.343 !       0.77 eA-3
C145 1.000 0.966 0.335 !       0.77 eA-3
C146 0.397 0.430 0.955 !       0.77 eA-3
Q147 0.109 0.634 0.279 !       0.76 eA-3
Q148 0.250 0.625 0.244 !       0.76 eA-3
Q149 0.755 0.942 0.709 !       0.75 eA-3
C150 0.596 0.453 0.096 !       0.73 eA-3
C151 0.445 0.500 0.000 !       0.72 eA-3
C152 0.624 0.542 0.951 !       0.71 eA-3
Q153 0.250 0.297 0.750 !       0.70 eA-3
Q154 0.630 0.894 0.116 !       0.70 eA-3
Q155 0.962 0.838 0.445 !       0.68 eA-3
C156 0.124 0.599 0.470 !       0.67 eA-3
C157 0.038 0.860 0.297 !       0.65 eA-3
Q158 0.071 0.541 0.349 !       0.64 eA-3
Q159 0.250 0.531 0.249 !       0.64 eA-3
Q160 0.550 0.311 0.001 !       0.62 eA-3
Q161 0.931 0.448 0.357 !       0.61 eA-3
Q162 0.748 0.140 0.324 !       0.61 eA-3
Q163 0.940 0.986 0.913 !       0.61 eA-3
Q164 0.142 0.412 0.424 !       0.61 eA-3
Q165 0.250 0.266 0.249 !       0.60 eA-3
Q166 0.875 0.349 0.472 !       0.60 eA-3
C167 0.178 0.452 0.404 !       0.59 eA-3
Q168 0.126 0.047 0.382 !       0.59 eA-3
Q169 0.337 0.758 0.066 !       0.58 eA-3
Q170 0.272 0.938 0.393 !       0.58 eA-3
Q171 0.331 0.152 0.238 !       0.57 eA-3
Q172 0.586 0.485 0.798 !       0.57 eA-3
Q173 0.472 0.244 0.985 !       0.56 eA-3
Q174 0.472 1.006 0.032 !       0.56 eA-3
Q175 0.324 0.209 0.808 !       0.56 eA-3
C176 0.068 0.644 0.456 !       0.56 eA-3
Q177 1.000 0.713 0.187 !       0.55 eA-3
Q178 0.858 0.592 0.309 !       0.55 eA-3
Q179 0.347 0.670 0.226 !       0.54 eA-3
Q180 0.500 0.332 0.122 !       0.54 eA-3
Q181 0.500 0.797 0.616 !       0.54 eA-3
Q182 0.078 0.714 0.460 !       0.54 eA-3
Q183 1.000 0.877 0.944 !       0.53 eA-3
Q184 0.500 0.122 0.266 !       0.53 eA-3
Q185 0.523 0.410 0.139 !       0.53 eA-3
C186 0.557 0.471 0.059 !       0.53 eA-3
Q187 0.625 0.416 0.191 !       0.53 eA-3
Q188 0.711 0.017 0.383 !       0.53 eA-3
Q189 0.500 0.955 0.874 !       0.53 eA-3
Q190 0.623 0.393 0.110 !       0.52 eA-3
Q191 0.103 0.649 0.484 !       0.52 eA-3
Q192 0.094 0.120 0.744 !       0.52 eA-3
Q193 0.342 0.911 0.823 !       0.52 eA-3
Q194 0.648 0.313 0.251 !       0.51 eA-3
Q195 0.008 0.125 0.134 !       0.51 eA-3
C196 0.930 0.566 0.501 !       0.50 eA-3
Q197 1.000 0.186 0.183 !       0.50 eA-3
)
;
_shelx_fab_checksum              39604
_olex2_submission_special_instructions 'No special instructions were received'
loop_
_space_group_symop_operation_xyz
'x, y, z'
'-x+1/2, -y, z+1/2'
'-x+1/2, y, -z+1/2'
'x, -y, -z'
'-x, -y, -z'
'x-1/2, y, -z-1/2'
'x-1/2, -y, z-1/2'
'-x, y, z'
loop_
_atom_site_label
_atom_site_type_symbol
_atom_site_fract_x
_atom_site_fract_y
_atom_site_fract_z
_atom_site_U_iso_or_equiv
_atom_site_adp_type
_atom_site_occupancy
_atom_site_site_symmetry_order
_atom_site_calc_flag
_atom_site_refinement_flags_posn
_atom_site_refinement_flags_adp
_atom_site_refinement_flags_occupancy
_atom_site_disorder_assembly
_atom_site_disorder_group
Mn2 Mn 0.500000 0.63954(8) 0.37866(9) 0.0309(4) Uani 1 2 d S T P . .
Co1 Co 0.750000 1.14342(9) 0.250000 0.0533(5) Uani 1 2 d S T P . .
S1 S 0.64153(11) 1.1458(2) 0.1051(2) 0.0893(9) Uani 1 1 d . U . . .
N7 N 0.500000 0.4951(5) 0.3925(5) 0.0401(19) Uani 1 2 d S T P . .
N5 N 0.500000 0.7842(5) 0.3778(5) 0.0399(19) Uani 1 2 d S T P . .
N6 N 0.5886(2) 0.6390(4) 0.3746(4) 0.0426(14) Uani 1 1 d . . . . .
N3 N 0.7110(3) 0.2557(4) 0.3288(5) 0.0533(17) Uani 1 1 d . . . . .
O1 O 0.6697(3) 1.1422(5) 0.1799(4) 0.0841(19) Uani 1 1 d . . . . .
N1 N 0.7112(3) 1.0276(4) 0.3257(5) 0.0613(19) Uani 1 1 d . . . . .
C5 C 0.5493(3) 0.4329(5) 0.4035(4) 0.0428(17) Uani 1 1 d . . . . .
C7 C 0.6250(3) 0.5579(5) 0.3673(5) 0.0456(18) Uani 1 1 d . . . . .
C4 C 0.5305(3) 0.3376(4) 0.4292(5) 0.0482(18) Uani 1 1 d . . . . .
H4 H 0.555284 0.284714 0.443543 0.058 Uiso 1 1 calc R U . . .
C2 C 0.6544(3) 0.3810(5) 0.3798(5) 0.0481(19) Uani 1 1 d . . . . .
C15 C 0.6564(3) 0.8954(5) 0.3687(5) 0.053(2) Uani 1 1 d . . . . .
C6 C 0.6087(3) 0.4604(5) 0.3844(5) 0.0460(18) Uani 1 1 d . . . . .
C12 C 0.5494(3) 0.8465(5) 0.3841(4) 0.0449(17) Uani 1 1 d . . . . .
C11 C 0.6094(3) 0.8184(5) 0.3725(5) 0.0483(18) Uani 1 1 d . . . . .
C10 C 0.6255(3) 0.7198(5) 0.3623(5) 0.0483(19) Uani 1 1 d . . . . .
C13 C 0.5307(3) 0.9465(5) 0.3979(5) 0.055(2) Uani 1 1 d . . . . .
H13 H 0.555569 1.001266 0.405371 0.065 Uiso 1 1 calc R U . . .
N2 N 0.7389(4) 0.9815(6) 0.3897(5) 0.090(3) Uani 1 1 d . . . . .
H2 H 0.772506 0.999711 0.411387 0.108 Uiso 1 1 calc R U . . .
C16 C 0.6617(3) 0.9754(5) 0.3133(6) 0.062(2) Uani 1 1 d . . . . .
H16 H 0.633510 0.990329 0.272195 0.075 Uiso 1 1 calc R U . . .
C9 C 0.6843(3) 0.6857(6) 0.3403(6) 0.064(2) Uani 1 1 d . . . . .
H9 H 0.716884 0.725572 0.326470 0.076 Uiso 1 1 calc R U . . .
C3 C 0.6639(3) 0.3128(6) 0.3163(6) 0.070(3) Uani 1 1 d . . . . .
H3 H 0.639355 0.307785 0.269265 0.084 Uiso 1 1 calc R U . . .
C8 C 0.6842(3) 0.5883(5) 0.3430(6) 0.062(2) Uani 1 1 d . . . . .
H8 H 0.716450 0.546759 0.331331 0.074 Uiso 1 1 calc R U . . .
N4 N 0.7319(4) 0.2853(6) 0.4018(5) 0.099(3) Uani 1 1 d . . . . .
H4A H 0.762648 0.259947 0.426310 0.119 Uiso 1 1 calc R U . . .
O5 O 0.500000 0.6283(10) 0.2235(9) 0.184(7) Uani 1 2 d S T P . .
H5A H 0.500000 0.575774 0.193932 0.276 Uiso 1 2 d R U P . .
H5B H 0.500000 0.675254 0.187882 0.276 Uiso 1 2 d R U P . .
O2B O 0.6802(9) 1.1131(17) 0.0395(14) 0.151(7) Uani 0.625(12) 1 d . U P A 2
C14 C 0.7064(5) 0.9026(7) 0.4150(7) 0.094(3) Uani 1 1 d . . . . .
H14 H 0.717018 0.859587 0.458213 0.113 Uiso 1 1 calc R U . . .
C1 C 0.6989(6) 0.3605(8) 0.4335(7) 0.120(5) Uani 1 1 d . . . . .
H1 H 0.705978 0.392691 0.484254 0.144 Uiso 1 1 calc R U . . .
N9 N 0.500000 1.239(2) 0.1794(15) 0.198(12) Uani 1 2 d S T P . .
H9A H 0.532149 1.227357 0.147712 0.238 Uiso 0.5 1 calc R U P . .
H9B H 0.467851 1.227357 0.147712 0.238 Uiso 0.5 1 calc R U P . .
C17 C 0.500000 1.3422(17) 0.2019(15) 0.164(9) Uani 1 2 d S T P . .
H17A H 0.501290 1.384199 0.153249 0.246 Uiso 0.5 1 d R U P B -1
H17B H 0.534510 1.354849 0.236419 0.246 Uiso 0.5 1 d R U P B -1
H17C H 0.464200 1.355909 0.233419 0.246 Uiso 0.5 1 d R U P B -1
O4B O 0.5844(6) 1.0994(13) 0.1036(11) 0.135(5) Uani 0.625(12) 1 d . U P A 2
O3B O 0.6300(6) 1.2556(11) 0.0997(10) 0.139(6) Uani 0.625(12) 1 d . U P A 2
O4A O 0.6330(12) 1.0328(16) 0.0938(17) 0.131(8) Uani 0.375(12) 1 d . U P A 1
O2A O 0.6819(12) 1.1711(18) 0.0297(18) 0.095(7) Uani 0.375(12) 1 d . U P A 1
O3A O 0.5872(9) 1.184(2) 0.0807(16) 0.118(7) Uani 0.375(12) 1 d . U P A 1
C18 C 0.500000 1.160(2) 0.2545(16) 0.25(2) Uani 1 2 d S T P . .
H18A H 0.484860 1.191043 0.304434 0.369 Uiso 0.5 1 d R U P C -1
H18B H 0.540200 1.137082 0.264334 0.369 Uiso 0.5 1 d R U P C -1
H18C H 0.474940 1.104502 0.240104 0.369 Uiso 0.5 1 d R U P C -1
loop_
_atom_site_aniso_label
_atom_site_aniso_U_11
_atom_site_aniso_U_22
_atom_site_aniso_U_33
_atom_site_aniso_U_23
_atom_site_aniso_U_13
_atom_site_aniso_U_12
Mn2 0.0182(7) 0.0135(7) 0.0609(9) -0.0001(6) 0.000 0.000
Co1 0.0298(8) 0.0253(7) 0.1047(13) 0.000 0.0219(7) 0.000
S1 0.0418(14) 0.091(2) 0.136(3) -0.0030(18) 0.0062(15) -0.0023(14)
N7 0.033(4) 0.029(4) 0.058(5) -0.004(4) 0.000 0.000
N5 0.022(4) 0.023(4) 0.075(6) 0.005(4) 0.000 0.000
N6 0.036(3) 0.025(3) 0.067(4) 0.000(3) 0.008(3) 0.000(3)
N3 0.035(4) 0.032(3) 0.093(5) -0.009(3) 0.011(3) 0.004(3)
O1 0.043(3) 0.099(5) 0.110(5) 0.003(4) 0.004(3) -0.007(3)
N1 0.043(4) 0.036(3) 0.105(6) 0.003(4) 0.022(4) -0.004(3)
C5 0.030(4) 0.027(3) 0.071(5) -0.005(3) 0.002(3) 0.004(3)
C7 0.029(4) 0.036(4) 0.072(5) -0.009(4) 0.005(3) 0.005(3)
C4 0.051(4) 0.014(3) 0.079(5) 0.004(3) 0.005(4) 0.004(3)
C2 0.033(4) 0.027(4) 0.084(5) -0.001(4) 0.003(4) 0.004(3)
C15 0.029(4) 0.032(4) 0.097(6) 0.009(4) 0.010(4) -0.007(3)
C6 0.036(4) 0.028(4) 0.075(5) -0.008(3) -0.001(4) 0.011(3)
C12 0.041(4) 0.031(4) 0.063(4) 0.002(3) 0.003(3) -0.002(3)
C11 0.037(4) 0.032(4) 0.075(5) 0.002(3) 0.007(4) -0.009(3)
C10 0.030(4) 0.029(4) 0.086(5) 0.008(4) 0.005(4) -0.002(3)
C13 0.043(4) 0.031(4) 0.089(6) -0.002(4) 0.000(4) -0.010(3)
N2 0.081(6) 0.073(5) 0.116(7) 0.020(5) -0.009(5) -0.045(5)
C16 0.029(4) 0.049(5) 0.109(7) 0.015(4) 0.009(4) -0.006(4)
C9 0.029(4) 0.045(5) 0.117(7) 0.005(5) 0.022(4) -0.003(3)
C3 0.036(5) 0.059(5) 0.115(7) -0.027(5) -0.007(5) 0.016(4)
C8 0.035(4) 0.041(5) 0.110(7) 0.004(4) 0.019(4) 0.006(4)
N4 0.095(6) 0.096(6) 0.107(6) -0.027(5) -0.026(5) 0.071(5)
O5 0.30(2) 0.126(11) 0.127(11) -0.002(8) 0.000 0.000
O2B 0.088(10) 0.232(18) 0.133(11) -0.009(15) 0.011(9) 0.069(13)
C14 0.071(7) 0.081(7) 0.132(9) 0.040(6) -0.013(6) -0.031(6)
C1 0.137(10) 0.124(9) 0.100(8) -0.051(7) -0.038(7) 0.101(8)
N9 0.057(9) 0.27(3) 0.27(3) -0.16(2) 0.000 0.000
C17 0.18(2) 0.16(2) 0.147(19) -0.034(16) 0.000 0.000
O4B 0.046(7) 0.133(12) 0.226(14) -0.009(11) -0.002(8) -0.031(8)
O3B 0.089(9) 0.129(11) 0.200(12) 0.049(9) -0.064(9) -0.024(8)
O4A 0.114(15) 0.081(13) 0.199(17) -0.029(12) -0.052(14) 0.002(12)
O2A 0.068(11) 0.118(13) 0.098(11) -0.020(11) 0.003(9) -0.064(11)
O3A 0.037(9) 0.148(14) 0.169(13) 0.011(12) -0.018(9) 0.033(11)
C18 0.34(5) 0.27(4) 0.13(2) 0.07(2) 0.000 0.000
loop_
_atom_type_symbol
_atom_type_description
_atom_type_scat_dispersion_real
_atom_type_scat_dispersion_imag
_atom_type_scat_source
C C 0.0033 0.0016 'International Tables Vol C Tables 4.2.6.8 and 6.1.1.4'
H H 0.0000 0.0000 'International Tables Vol C Tables 4.2.6.8 and 6.1.1.4'
Co Co 0.3494 0.9721 'International Tables Vol C Tables 4.2.6.8 and 6.1.1.4'
Mn Mn 0.3368 0.7283 'International Tables Vol C Tables 4.2.6.8 and 6.1.1.4'
N N 0.0061 0.0033 'International Tables Vol C Tables 4.2.6.8 and 6.1.1.4'
O O 0.0106 0.0060 'International Tables Vol C Tables 4.2.6.8 and 6.1.1.4'
S S 0.1246 0.1234 'International Tables Vol C Tables 4.2.6.8 and 6.1.1.4'
loop_
_geom_angle_atom_site_label_1
_geom_angle_atom_site_label_2
_geom_angle_atom_site_label_3
_geom_angle
_geom_angle_site_symmetry_1
_geom_angle_site_symmetry_3
_geom_angle_publ_flag
N7 Mn2 N6 90.02(14) . . ?
N7 Mn2 N6 90.02(14) . 8_655 ?
N7 Mn2 O5 93.0(4) . . ?
N5 Mn2 N7 173.9(3) . . ?
N5 Mn2 N6 90.18(14) . 8_655 ?
N5 Mn2 N6 90.18(14) . . ?
N5 Mn2 O5 93.1(4) . . ?
N6 Mn2 N6 176.2(3) . 8_655 ?
N6 Mn2 O5 88.12(17) . . ?
N6 Mn2 O5 88.12(17) 8_655 . ?
N3 Co1 N3 90.5(3) 1_565 3_665 ?
N3 Co1 N1 91.2(2) 1_565 . ?
N3 Co1 N1 91.2(2) 3_665 3_655 ?
N3 Co1 N1 178.2(2) 1_565 3_655 ?
N3 Co1 N1 178.2(2) 3_665 . ?
O1 Co1 N3 88.3(3) . 1_565 ?
O1 Co1 N3 88.3(3) 3_655 3_665 ?
O1 Co1 N3 92.3(3) 3_655 1_565 ?
O1 Co1 N3 92.3(3) . 3_665 ?
O1 Co1 O1 179.1(3) . 3_655 ?
O1 Co1 N1 92.2(3) . 3_655 ?
O1 Co1 N1 92.2(3) 3_655 . ?
O1 Co1 N1 87.1(3) 3_655 3_655 ?
O1 Co1 N1 87.1(3) . . ?
N1 Co1 N1 87.1(3) 3_655 . ?
O1 S1 O2B 110.8(9) . . ?
O1 S1 O4B 114.7(8) . . ?
O1 S1 O3B 99.6(7) . . ?
O1 S1 O4A 97.2(9) . . ?
O1 S1 O2A 115.2(10) . . ?
O1 S1 O3A 132.4(11) . . ?
O2B S1 O3B 111.4(12) . . ?
O4B S1 O2B 113.2(12) . . ?
O4B S1 O3B 106.2(8) . . ?
O2A S1 O4A 101.5(14) . . ?
O3A S1 O4A 103.4(15) . . ?
O3A S1 O2A 102.1(16) . . ?
C5 N7 Mn2 127.8(4) . . ?
C5 N7 Mn2 127.8(4) 8_655 . ?
C5 N7 C5 104.1(7) . 8_655 ?
C12 N5 Mn2 127.2(4) 8_655 . ?
C12 N5 Mn2 127.2(4) . . ?
C12 N5 C12 104.9(7) 8_655 . ?
C7 N6 Mn2 126.8(4) . . ?
C7 N6 C10 105.4(5) . . ?
C10 N6 Mn2 126.7(4) . . ?
C3 N3 Co1 130.3(6) . 1_545 ?
N4 N3 Co1 125.9(5) . 1_545 ?
N4 N3 C3 103.8(7) . . ?
S1 O1 Co1 149.7(4) . . ?
N2 N1 Co1 125.1(5) . . ?
C16 N1 Co1 129.6(7) . . ?
C16 N1 N2 104.5(7) . . ?
N7 C5 C4 110.5(6) . . ?
N7 C5 C6 123.7(6) . . ?
C6 C5 C4 125.5(6) . . ?
N6 C7 C6 125.7(6) . . ?
N6 C7 C8 109.9(6) . . ?
C6 C7 C8 124.3(6) . . ?
C5 C4 H4 126.4 . . ?
C4 C4 C5 107.2(4) 8_655 . ?
C4 C4 H4 126.4 8_655 . ?
C3 C2 C6 128.4(7) . . ?
C1 C2 C6 129.0(7) . . ?
C1 C2 C3 102.5(7) . . ?
C16 C15 C11 129.0(7) . . ?
C14 C15 C11 128.2(7) . . ?
C14 C15 C16 102.7(7) . . ?
C5 C6 C2 117.9(6) . . ?
C7 C6 C5 122.5(6) . . ?
C7 C6 C2 119.6(6) . . ?
N5 C12 C11 125.7(6) . . ?
N5 C12 C13 110.6(6) . . ?
C11 C12 C13 123.6(6) . . ?
C12 C11 C15 119.5(6) . . ?
C10 C11 C15 119.1(6) . . ?
C10 C11 C12 121.4(6) . . ?
N6 C10 C11 125.9(6) . . ?
N6 C10 C9 109.1(6) . . ?
C11 C10 C9 125.0(6) . . ?
C12 C13 H13 126.5 . . ?
C13 C13 C12 106.9(4) 8_655 . ?
C13 C13 H13 126.5 8_655 . ?
N1 N2 H2 125.0 . . ?
N1 N2 C14 110.1(8) . . ?
C14 N2 H2 125.0 . . ?
N1 C16 C15 112.9(8) . . ?
N1 C16 H16 123.6 . . ?
C15 C16 H16 123.6 . . ?
C10 C9 H9 125.9 . . ?
C8 C9 C10 108.1(7) . . ?
C8 C9 H9 125.9 . . ?
N3 C3 C2 113.6(8) . . ?
N3 C3 H3 123.2 . . ?
C2 C3 H3 123.2 . . ?
C7 C8 H8 126.4 . . ?
C9 C8 C7 107.2(7) . . ?
C9 C8 H8 126.4 . . ?
N3 N4 H4A 124.3 . . ?
N3 N4 C1 111.5(7) . . ?
C1 N4 H4A 124.3 . . ?
Mn2 O5 H5A 127.1 . . ?
Mn2 O5 H5B 128.3 . . ?
H5A O5 H5B 104.5 . . ?
C15 C14 N2 109.9(9) . . ?
C15 C14 H14 125.1 . . ?
N2 C14 H14 125.1 . . ?
C2 C1 N4 108.6(8) . . ?
C2 C1 H1 125.7 . . ?
N4 C1 H1 125.7 . . ?
H9A N9 H9B 107.2 . . ?
C17 N9 H9A 108.0 . . ?
C17 N9 H9B 108.0 . . ?
C17 N9 C18 117(2) . . ?
C18 N9 H9A 108.0 . . ?
C18 N9 H9B 108.0 . . ?
N9 C17 H17A 111.7 . . ?
N9 C17 H17B 108.3 . . ?
N9 C17 H17C 108.4 . . ?
H17A C17 H17B 109.5 . . ?
H17A C17 H17C 109.5 . . ?
H17B C17 H17C 109.5 . . ?
N9 C18 H18A 109.1 . . ?
N9 C18 H18B 109.5 . . ?
N9 C18 H18C 109.8 . . ?
H18A C18 H18B 109.5 . . ?
H18A C18 H18C 109.5 . . ?
H18B C18 H18C 109.5 . . ?
loop_
_geom_bond_atom_site_label_1
_geom_bond_atom_site_label_2
_geom_bond_distance
_geom_bond_site_symmetry_2
_geom_bond_publ_flag
Mn2 N7 1.959(8) . ?
Mn2 N5 1.949(7) . ?
Mn2 N6 1.976(6) 8_655 ?
Mn2 N6 1.976(6) . ?
Mn2 O5 2.475(14) . ?
Co1 N3 2.150(6) 3_665 ?
Co1 N3 2.150(6) 1_565 ?
Co1 O1 2.110(7) . ?
Co1 O1 2.110(7) 3_655 ?
Co1 N1 2.153(6) 3_655 ?
Co1 N1 2.153(6) . ?
S1 O1 1.346(7) . ?
S1 O2B 1.42(2) . ?
S1 O4B 1.419(12) . ?
S1 O3B 1.505(15) . ?
S1 O4A 1.55(2) . ?
S1 O2A 1.54(3) . ?
S1 O3A 1.376(17) . ?
N7 C5 1.394(8) . ?
N7 C5 1.394(8) 8_655 ?
N5 C12 1.388(8) . ?
N5 C12 1.388(8) 8_655 ?
N6 C7 1.367(8) . ?
N6 C10 1.378(8) . ?
N3 C3 1.316(9) . ?
N3 N4 1.315(9) . ?
N1 N2 1.345(10) . ?
N1 C16 1.322(9) . ?
C5 C4 1.411(9) . ?
C5 C6 1.408(10) . ?
C7 C6 1.390(9) . ?
C7 C8 1.434(10) . ?
C4 C4 1.361(14) 8_655 ?
C4 H4 0.9300 . ?
C2 C6 1.479(9) . ?
C2 C3 1.383(10) . ?
C2 C1 1.338(12) . ?
C15 C11 1.476(9) . ?
C15 C16 1.398(10) . ?
C15 C14 1.340(12) . ?
C12 C11 1.402(10) . ?
C12 C13 1.428(9) . ?
C11 C10 1.385(9) . ?
C10 C9 1.433(10) . ?
C13 C13 1.370(14) 8_655 ?
C13 H13 0.9300 . ?
N2 H2 0.8600 . ?
N2 C14 1.350(10) . ?
C16 H16 0.9300 . ?
C9 H9 0.9300 . ?
C9 C8 1.314(10) . ?
C3 H3 0.9300 . ?
C8 H8 0.9300 . ?
N4 H4A 0.8600 . ?
N4 C1 1.349(10) . ?
O5 H5A 0.8498 . ?
O5 H5B 0.8499 . ?
C14 H14 0.9300 . ?
C1 H1 0.9300 . ?
N9 H9A 0.8900 . ?
N9 H9B 0.8900 . ?
N9 C17 1.44(2) . ?
N9 C18 1.60(3) . ?
C17 H17A 0.9600 . ?
C17 H17B 0.9600 . ?
C17 H17C 0.9600 . ?
C18 H18A 0.9600 . ?
C18 H18B 0.9600 . ?
C18 H18C 0.9600 . ?
loop_
_geom_torsion_atom_site_label_1
_geom_torsion_atom_site_label_2
_geom_torsion_atom_site_label_3
_geom_torsion_atom_site_label_4
_geom_torsion
_geom_torsion_site_symmetry_1
_geom_torsion_site_symmetry_2
_geom_torsion_site_symmetry_3
_geom_torsion_site_symmetry_4
_geom_torsion_publ_flag
Mn2 N7 C5 C4 167.2(6) . . . . ?
Mn2 N7 C5 C6 -17.6(11) . . . . ?
Mn2 N5 C12 C11 16.0(12) . . . . ?
Mn2 N5 C12 C13 -168.5(6) . . . . ?
Mn2 N6 C7 C6 -19.0(10) . . . . ?
Mn2 N6 C7 C8 163.8(5) . . . . ?
Mn2 N6 C10 C11 18.2(11) . . . . ?
Mn2 N6 C10 C9 -164.0(6) . . . . ?
Co1 N3 C3 C2 -176.4(5) 1_545 . . . ?
Co1 N3 N4 C1 176.8(8) 1_545 . . . ?
Co1 N1 N2 C14 -170.1(7) . . . . ?
Co1 N1 C16 C15 169.8(5) . . . . ?
N7 C5 C4 C4 3.9(6) . . . 8_655 ?
N7 C5 C6 C7 12.0(12) . . . . ?
N7 C5 C6 C2 -165.9(7) . . . . ?
N5 C12 C11 C15 170.9(7) . . . . ?
N5 C12 C11 C10 -7.4(12) . . . . ?
N5 C12 C13 C13 -1.6(6) . . . 8_655 ?
N6 C7 C6 C5 6.8(12) . . . . ?
N6 C7 C6 C2 -175.3(7) . . . . ?
N6 C7 C8 C9 3.3(10) . . . . ?
N6 C10 C9 C8 -2.9(10) . . . . ?
N3 N4 C1 C2 0.4(14) . . . . ?
N1 N2 C14 C15 -0.4(13) . . . . ?
C5 N7 C5 C4 -6.1(10) 8_655 . . . ?
C5 N7 C5 C6 169.1(4) 8_655 . . . ?
C7 N6 C10 C11 -172.9(8) . . . . ?
C7 N6 C10 C9 4.8(8) . . . . ?
C4 C5 C6 C7 -173.6(7) . . . . ?
C4 C5 C6 C2 8.5(11) . . . . ?
C15 C11 C10 N6 171.3(7) . . . . ?
C15 C11 C10 C9 -6.1(12) . . . . ?
C6 C5 C4 C4 -171.1(6) . . . 8_655 ?
C6 C7 C8 C9 -173.9(8) . . . . ?
C6 C2 C3 N3 175.8(7) . . . . ?
C6 C2 C1 N4 -176.4(8) . . . . ?
C12 N5 C12 C11 -173.0(5) 8_655 . . . ?
C12 N5 C12 C13 2.5(10) 8_655 . . . ?
C12 C11 C10 N6 -10.4(12) . . . . ?
C12 C11 C10 C9 172.2(8) . . . . ?
C11 C15 C16 N1 -177.2(7) . . . . ?
C11 C15 C14 N2 177.3(8) . . . . ?
C11 C12 C13 C13 174.0(6) . . . 8_655 ?
C11 C10 C9 C8 174.9(8) . . . . ?
C10 N6 C7 C6 172.2(7) . . . . ?
C10 N6 C7 C8 -5.0(8) . . . . ?
C10 C9 C8 C7 -0.2(10) . . . . ?
C13 C12 C11 C15 -4.0(11) . . . . ?
C13 C12 C11 C10 177.7(7) . . . . ?
N2 N1 C16 C15 0.2(9) . . . . ?
C16 N1 N2 C14 0.2(11) . . . . ?
C16 C15 C11 C12 -58.5(11) . . . . ?
C16 C15 C11 C10 119.8(9) . . . . ?
C16 C15 C14 N2 0.5(11) . . . . ?
C3 N3 N4 C1 -1.0(12) . . . . ?
C3 C2 C6 C5 76.3(11) . . . . ?
C3 C2 C6 C7 -101.7(10) . . . . ?
C3 C2 C1 N4 0.3(12) . . . . ?
C8 C7 C6 C5 -176.4(8) . . . . ?
C8 C7 C6 C2 1.5(12) . . . . ?
N4 N3 C3 C2 1.2(10) . . . . ?
O2B S1 O1 Co1 24.6(15) . . . . ?
C14 C15 C11 C12 125.5(10) . . . . ?
C14 C15 C11 C10 -56.2(13) . . . . ?
C14 C15 C16 N1 -0.4(10) . . . . ?
C1 C2 C6 C5 -107.8(12) . . . . ?
C1 C2 C6 C7 74.2(13) . . . . ?
C1 C2 C3 N3 -1.0(11) . . . . ?
O4B S1 O1 Co1 154.3(10) . . . . ?
O3B S1 O1 Co1 -92.8(10) . . . . ?
O4A S1 O1 Co1 97.6(14) . . . . ?
O2A S1 O1 Co1 -8.7(15) . . . . ?
O3A S1 O1 Co1 -146.8(18) . . . . ?
