#------------------------------------------------------------------------------
#$Date: 2021-05-05 11:02:42 +0300 (Wed, 05 May 2021) $
#$Revision: 264865 $
#$URL: file:///home/coder/svn-repositories/cod/cif/7/12/80/7128076.cif $
#------------------------------------------------------------------------------
#
# This file is available in the Crystallography Open Database (COD),
# http://www.crystallography.net/
#
# All data on this site have been placed in the public domain by the
# contributors.
#
data_7128076
loop_
_publ_author_name
'Voigt, Laura'
'Wugt Larsen, Ren\'e'
'Kubus, Mariusz'
'Pedersen, Kasper S.'
_publ_section_title
;
 Zero-valent metals in metal-organic frameworks:
 fac-M(CO)<sub>3</sub>(pyrazine)<sub>3/2</sub>.
;
_journal_issue                   32
_journal_name_full
'Chemical communications (Cambridge, England)'
_journal_page_first              3861
_journal_page_last               3864
_journal_paper_doi               10.1039/d1cc00864a
_journal_volume                  57
_journal_year                    2021
_chemical_formula_moiety         'C9 H6 N3 O3 W1'
_chemical_formula_sum            'C9 H6 N3 O3 W'
_chemical_formula_weight         388.02
_space_group_crystal_system      cubic
_space_group_IT_number           220
_space_group_name_Hall           'I -4bd 2c 3'
_space_group_name_H-M_alt        'I -4 3 d'
_atom_sites_solution_hydrogens   geom
_atom_sites_solution_primary     direct
_audit_creation_date             2020-10-18
_audit_creation_method
;
Olex2 1.3
(compiled 2020.07.31 svn.rc2a77460 for OlexSys, GUI svn.r6145)
;
_audit_update_record
;
2021-02-15 deposited with the CCDC.	2021-03-25 downloaded from the CCDC.
;
_cell_angle_alpha                90
_cell_angle_beta                 90
_cell_angle_gamma                90
_cell_formula_units_Z            16
_cell_length_a                   16.13834(17)
_cell_length_b                   16.13834(17)
_cell_length_c                   16.13834(17)
_cell_measurement_reflns_used    8679
_cell_measurement_temperature    120.00(10)
_cell_measurement_theta_max      28.2520
_cell_measurement_theta_min      3.9620
_cell_volume                     4203.17(8)
_computing_cell_refinement       'CrysAlisPro 1.171.39.46 (Rigaku OD, 2018)'
_computing_data_collection       'CrysAlisPro 1.171.39.46 (Rigaku OD, 2018)'
_computing_data_reduction        'CrysAlisPro 1.171.39.46 (Rigaku OD, 2018)'
_computing_molecular_graphics    'Olex2 1.3 (Dolomanov et al., 2009)'
_computing_publication_material  'Olex2 1.3 (Dolomanov et al., 2009)'
_computing_structure_refinement  'SHELXL 2018/3 (Sheldrick, 2015)'
_computing_structure_solution    'SHELXS  (Sheldrick, 2008)'
_diffrn_ambient_environment      N~2~
_diffrn_ambient_temperature      120.00(10)
_diffrn_detector                 'CCD plate'
_diffrn_detector_area_resol_mean 5.3073
_diffrn_detector_type            Atlas
_diffrn_measured_fraction_theta_full 0.997
_diffrn_measured_fraction_theta_max 0.973
_diffrn_measurement_details
;
List of Runs (angles in degrees, time in seconds):

  # Type    Start    End  Width  t~exp~   \w     \q     \k     \f   Frames
#--------------------------------------------------------------------------
  1  \w    -22.00  87.00   1.00    5.00    --   10.87  77.00  60.00  109
  2  \w    -58.00  15.00   1.00    5.00    --   10.87 -38.00 120.00   73
  3  \w    -17.00  52.00   1.00    5.00    --   10.87 -99.00 -90.00   69
  4  \w    -12.00  52.00   1.00    5.00    --   10.87  38.00 -90.00   64
  5  \w     -7.00  22.00   1.00    5.00    --  -11.58 -99.00 -90.00   29
;
_diffrn_measurement_device       'four-circle diffractometer'
_diffrn_measurement_device_type  'SuperNova, Dual, Cu at home/near, Atlas'
_diffrn_measurement_method       '\w scans'
_diffrn_orient_matrix_type
'CrysAlisPro convention (1999,Acta A55,543-557)'
_diffrn_orient_matrix_UB_11      -0.0173202000
_diffrn_orient_matrix_UB_12      -0.0321911000
_diffrn_orient_matrix_UB_13      -0.0243597000
_diffrn_orient_matrix_UB_21      -0.0404012000
_diffrn_orient_matrix_UB_22      0.0138448000
_diffrn_orient_matrix_UB_23      0.0104149000
_diffrn_orient_matrix_UB_31      0.0000604000
_diffrn_orient_matrix_UB_32      0.0265217000
_diffrn_orient_matrix_UB_33      -0.0350666000
_diffrn_radiation_monochromator  mirror
_diffrn_radiation_probe          x-ray
_diffrn_radiation_type           'Mo K\a'
_diffrn_radiation_wavelength     0.71073
_diffrn_reflns_av_R_equivalents  0.0567
_diffrn_reflns_av_unetI/netI     0.0258
_diffrn_reflns_Laue_measured_fraction_full 0.997
_diffrn_reflns_Laue_measured_fraction_max 0.973
_diffrn_reflns_limit_h_max       21
_diffrn_reflns_limit_h_min       -20
_diffrn_reflns_limit_k_max       21
_diffrn_reflns_limit_k_min       -21
_diffrn_reflns_limit_l_max       21
_diffrn_reflns_limit_l_min       -19
_diffrn_reflns_number            18475
_diffrn_reflns_point_group_measured_fraction_full 0.997
_diffrn_reflns_point_group_measured_fraction_max 0.962
_diffrn_reflns_theta_full        25.242
_diffrn_reflns_theta_max         29.691
_diffrn_reflns_theta_min         3.571
_diffrn_source                   'micro-focus sealed X-ray tube'
_diffrn_source_type              'SuperNova (Mo) X-ray Source'
_exptl_absorpt_coefficient_mu    10.987
_exptl_absorpt_correction_T_max  1.00000
_exptl_absorpt_correction_T_min  0.60379
_exptl_absorpt_correction_type   multi-scan
_exptl_absorpt_process_details
;
CrysAlisPro 1.171.39.46 (Rigaku Oxford Diffraction, 2018)
Empirical absorption correction using spherical harmonics,
 implemented in SCALE3 ABSPACK scaling algorithm.
;
_exptl_crystal_colour            'metallic yellowish black'
_exptl_crystal_colour_lustre     metallic
_exptl_crystal_colour_modifier   yellowish
_exptl_crystal_colour_primary    black
_exptl_crystal_density_diffrn    2.453
_exptl_crystal_description       hexagonal
_exptl_crystal_F_000             2864
_exptl_crystal_size_max          0.4
_exptl_crystal_size_mid          0.4
_exptl_crystal_size_min          0.4
_refine_diff_density_max         0.475
_refine_diff_density_min         -0.534
_refine_diff_density_rms         0.093
_refine_ls_abs_structure_details
;
 Flack x determined using 374 quotients [(I+)-(I-)]/[(I+)+(I-)]
 (Parsons, Flack and Wagner, Acta Cryst. B69 (2013) 249-259).
;
_refine_ls_abs_structure_Flack   -0.031(10)
_refine_ls_extinction_method     none
_refine_ls_goodness_of_fit_ref   1.113
_refine_ls_hydrogen_treatment    constr
_refine_ls_matrix_type           full
_refine_ls_number_parameters     49
_refine_ls_number_reflns         972
_refine_ls_number_restraints     0
_refine_ls_restrained_S_all      1.113
_refine_ls_R_factor_all          0.0232
_refine_ls_R_factor_gt           0.0170
_refine_ls_shift/su_max          0.005
_refine_ls_shift/su_mean         0.000
_refine_ls_structure_factor_coef Fsqd
_refine_ls_weighting_details
'w=1/[\s^2^(Fo^2^)+(0.0041P)^2^+5.8686P] where P=(Fo^2^+2Fc^2^)/3'
_refine_ls_weighting_scheme      calc
_refine_ls_wR_factor_gt          0.0238
_refine_ls_wR_factor_ref         0.0252
_reflns_Friedel_coverage         0.803
_reflns_Friedel_fraction_full    0.997
_reflns_Friedel_fraction_max     0.950
_reflns_number_gt                874
_reflns_number_total             972
_reflns_threshold_expression     'I > 2\s(I)'
_cod_data_source_file            d1cc00864a2.cif
_cod_data_source_block           lv195_wco3pyz2_cubic
_cod_depositor_comments
'Adding full bibliography for 7128075--7128079.cif.'
_cod_original_cell_volume        4203.17(13)
_cod_database_code               7128076
_shelx_shelxl_version_number     2018/3
_chemical_oxdiff_formula         'W1 C9 H6 N3 O3'
_shelx_space_group_comment
;
The symmetry employed for this shelxl refinement is uniquely defined
by the following loop, which should always be used as a source of
symmetry information in preference to the above space-group names.
They are only intended as comments.
;
_shelx_estimated_absorpt_t_max   0.096
_shelx_estimated_absorpt_t_min   0.096
_reflns_odcompleteness_completeness 99.36
_reflns_odcompleteness_iscentric 1
_reflns_odcompleteness_theta     26.32
_olex2_refinement_description
;
1. Fixed Uiso
 At 1.2 times of:
  All C(H) groups
2.a Aromatic/amide H refined with riding coordinates:
 C5(H5), C6(H6)
;
_shelx_res_file
;
TITL LV195_WCo3pyz2_cubic in I-43d #220
    lv195_wco3pyz2_cubic.res
    created by SHELXL-2018/3 at 10:07:51 on 18-Oct-2020
REM reset to I-43d #220
CELL 0.71073 16.13834 16.13834 16.13834 90 90 90
ZERR 16 0.00017 0.00017 0.00017 0 0 0
LATT -2
SYMM 0.25+Y,0.75-X,0.25-Z
SYMM -X,0.5-Y,+Z
SYMM 0.25-Y,0.25+X,0.75-Z
SYMM 0.25-X,0.25+Z,0.75-Y
SYMM +X,-Y,0.5-Z
SYMM 0.75-X,0.25-Z,0.25+Y
SYMM 0.75-Z,0.25-Y,0.25+X
SYMM 0.5-X,+Y,-Z
SYMM 0.25+Z,0.75-Y,0.25-X
SYMM +Z,+X,+Y
SYMM +Y,+Z,+X
SYMM -Y,0.5-Z,+X
SYMM +Z,-X,0.5-Y
SYMM 0.5-Y,+Z,-X
SYMM -Z,0.5-X,+Y
SYMM 0.5-Z,+X,-Y
SYMM +Y,-Z,0.5-X
SYMM 0.75-Y,0.25-X,0.25+Z
SYMM 0.25+Y,0.25+X,0.25+Z
SYMM 0.25+X,0.75-Z,0.25-Y
SYMM 0.25+X,0.25+Z,0.25+Y
SYMM 0.25-Z,0.25+Y,0.75-X
SYMM 0.25+Z,0.25+Y,0.25+X
SFAC C H N O W
UNIT 144 96 48 48 15.99984

L.S. 4
PLAN  5
SIZE 0.4 0.4 0.4
CONF
BOND
fmap 2
acta
MORE -1
BOND $H
REM <olex2.extras>
REM <HklSrc "%./LV195_WCo3pyz2_cubic.hkl">
REM </olex2.extras>

WGHT    0.004100    5.868600
FVAR       0.36366
W1    5    0.975793    0.475793    0.024207    10.33333    0.01045    0.01045 =
         0.01045    0.00045    0.00045   -0.00045
C3    1    0.995328    0.465735   -0.094128    11.00000    0.01625    0.01958 =
         0.02076    0.00004   -0.00161   -0.00021
N4    3    0.988187    0.336858    0.041711    11.00000    0.01437    0.01371 =
         0.00880   -0.00054    0.00018   -0.00001
O2    4    1.009811    0.462919   -0.165245    11.00000    0.04835    0.04715 =
         0.01253   -0.00158    0.00958   -0.00127
C5    1    0.925219    0.283273    0.043281    11.00000    0.01105    0.01490 =
         0.02961   -0.00334    0.00020    0.00226
AFIX  43
H5    2    0.871421    0.303913    0.044037    11.00000   -1.20000
AFIX   0
C6    1    1.063463    0.301076    0.043822    11.00000    0.01408    0.01602 =
         0.03017   -0.00061   -0.00283   -0.00312
AFIX  43
H6    2    1.109984    0.335031    0.045736    11.00000   -1.20000
AFIX   0
HKLF 4




REM  LV195_WCo3pyz2_cubic in I-43d #220
REM wR2 = 0.0252, GooF = S = 1.113, Restrained GooF = 1.113 for all data
REM R1 = 0.0170 for 874 Fo > 4sig(Fo) and 0.0232 for all 972 data
REM 49 parameters refined using 0 restraints

END

WGHT      0.0041      5.8686

REM Highest difference peak  0.475,  deepest hole -0.534,  1-sigma level  0.093
Q1    1   1.0281  0.4760 -0.0296  11.00000  0.05    0.47
Q2    1   0.9243  0.5251 -0.0697  11.00000  0.05    0.37
Q3    1   0.9388  0.2915  0.0036  11.00000  0.05    0.34
Q4    1   1.0706  0.4767 -0.0751  11.00000  0.05    0.33
Q5    1   0.9855  0.3999  0.0715  11.00000  0.05    0.32
;
_shelx_res_checksum              37289
_shelx_hkl_file
;
  -2   2   2-1.29724 37.8839   3
   2  -2   2 59.3544 58.1305   1
   2   2  -2 10.8987 40.2101   4
  -2  -2  -2 64.4486 51.7298   1
   2   2  -2 34.3471 59.6056   5
  -2   2   2-29.9686 54.1873   1
   2   2  -2 26.6075 59.9075   3
  -2  -2  -2-14.6956 37.2523   2
  -2  -2  -2-1.47409 43.5251   4
   0   2  -2 127398. 2714.10   3
  -2  -2   0 136082. 2599.15   1
   0  -2  -2 110843. 2707.75   2
  -2   2   0 114186. 2695.84   1
   2   0  -2 127777. 2723.04   5
   2   2   0 133300. 2605.43   1
  -2   0  -2 136389. 2584.21   4
   0   2   2 131212. 2750.62   2
   0  -2   2 129567. 2710.95   3
   0  -2   2 133100. 2646.04   2
  -2  -2   0 130459. 2722.68   4
   2   0   2 134242. 2789.24   1
   2   0  -2 129688. 2726.61   3
   2   0   2 140652. 2585.89   4
   0   2  -2 131662. 2631.22   2
   2  -2   0 137299. 2725.31   1
   2  -2  -2 79.3309 44.2360   5
  -2   2  -2-24.7376 31.0218   2
  -2   2  -2-11.7904 49.0653   1
  -2  -2   2 25.9136 36.0852   4
   2  -2  -2 9.30499 33.8906   3
   2   2   2 17.7732 47.7854   2
   2   2   2 39.0818 55.0640   1
  -3   0  -1 17154.8 508.719   4
   0   1   3 14138.5 516.641   3
   1   3   0 17861.2 606.861   2
   3  -1   0 18299.6 597.565   1
   0   3  -1 18084.8 606.560   2
   0   1  -3 18024.1 583.835   3
  -1   0   3 16147.9 554.613   3
   0   3  -1 17514.6 505.272   3
   0  -3   1 16987.0 493.575   3
   0   1   3 16962.7 499.789   2
   0   3   1 18165.7 641.481   2
   3   0  -1 17654.5 587.868   1
   3   0   1 18322.3 599.754   1
   1   0  -3 18668.5 574.163   3
   0   3  -1 17317.5 488.628   1
   0  -3   1 16818.2 491.247   5
   0  -3   1 18003.1 606.471   2
  -3  -1   0 17694.3 550.249   1
   3   1   0 18438.5 569.765   1
   3   0   1 17872.4 515.224   4
  -1   3   0 18189.9 607.740   2
   0  -3   1 17820.5 473.916   1
  -1   3   0 18797.7 518.879   1
   1   3   0 18069.5 518.792   3
   1  -3   0 18010.0 496.567   1
  -3  -1   0 17962.3 549.934   4
   1   0   3 17939.4 624.852   1
   2   1  -3 1092.98 140.199   5
   1   3  -2 1174.10 134.508   5
  -2  -1  -3 1076.97 99.4913   4
   1   2  -3 1149.08 144.623   3
  -3  -2  -1 1169.41 121.655   1
  -2  -3  -1 1178.71 90.6308   1
  -1   2   3 1046.24 107.432   3
   2   1  -3 839.800 95.5613   4
   1   2  -3 1070.10 101.199   4
   3  -1   2 1192.79 156.594   1
  -2   1   3 771.946 107.348   3
   1  -3   2 909.696 115.399   1
   1   3  -2 1307.73 142.949   3
   3  -2   1 1327.71 156.422   1
   1  -3   2 1247.14 128.648   2
   2   3  -1 1132.07 139.031   3
  -3  -2  -1 1139.64 135.016   4
  -2   1   3 1328.02 139.088   5
   1  -2   3 1225.20 86.4437   2
  -1   2   3 1081.68 129.942   2
   3   2  -1 1225.45 124.922   1
  -3  -1  -2 1328.34 119.237   4
  -1  -3  -2 949.983 146.863   2
   1  -2   3 1208.51 151.128   1
   1  -3   2 1300.33 131.482   3
  -1  -2  -3 1074.49 134.655   2
  -2   3   1 945.076 118.363   1
   3   1  -2 1157.91 120.148   4
   2   1  -3 1083.14 142.017   3
   2  -1   3 974.267 149.201   1
  -3  -1  -2 1009.56 131.761   1
  -2  -1  -3 1077.38 140.857   1
   2  -3   1 1137.74 131.196   1
  -3   2   1 1032.98 131.765   1
   3  -1   2 1024.19 94.8915   4
   2   3  -1 1193.30 138.158   5
   1  -2   3 1237.05 139.775   3
  -2   3   1 978.133 139.003   2
  -2  -1  -3 1158.57 108.145   2
  -1   3   2 1346.05 157.969   2
  -2  -3  -1 1169.97 146.607   4
   3   1  -2 1196.32 160.879   3
  -2   3  -1 2007.26 169.999   2
  -3  -2   1 1803.05 147.556   1
   3   1   2 1707.87 173.681   1
   3   2   1 1922.76 156.376   1
  -1   2  -3 1797.76 108.884   2
  -2  -3   1 1706.62 164.141   4
   3  -2  -1 1649.00 168.134   1
   3   1   2 1769.86 142.351   4
  -1   3  -2 1369.56 147.597   1
  -1   3  -2 1744.02 162.149   2
   2  -3  -1 1745.34 161.520   1
  -1  -2   3 1789.34 126.106   4
   1  -2  -3 1755.32 133.144   3
  -2   3  -1 1475.65 149.871   1
  -1  -3   2 1732.26 157.302   5
   2  -1  -3 1833.08 156.057   5
  -3  -1   2 1716.33 164.719   1
  -2  -1   3 1810.89 135.724   4
  -1  -3   2 1652.78 154.981   2
   3  -1  -2 2074.88 180.564   3
   2   3   1 2081.01 119.795   1
   3   2   1 1894.39 166.543   4
  -1  -3   2 1754.89 153.346   4
   2   1   3 1879.42 187.687   1
  -3  -2   1 1870.77 163.979   4
  -1  -3   2 1654.51 154.281   3
   1   3   2 2000.19 200.547   2
  -1   2  -3 1918.57 191.122   1
  -3  -1   2 1532.89 141.150   4
   2   3   1 1579.62 169.539   2
   2  -1  -3 1640.52 151.529   3
   1   2   3 1771.93 165.677   2
   3  -2   3 4842.13 337.913   1
  -2   3   3 4774.29 235.241   5
  -3  -3  -2 5314.82 316.187   4
  -3  -3  -2 5246.62 274.726   1
  -3  -2  -3 5306.72 285.432   4
  -2  -3  -3 4971.10 327.742   2
  -2   3   3 4676.07 236.080   3
   3   2  -3 4841.45 326.528   5
   3  -3   2 4922.52 324.361   1
   3   2  -3 4659.78 277.420   4
  -2   3   3 5105.41 329.591   2
   3   2  -3 5227.45 343.407   3
   3   3  -2 4447.77 313.290   5
  -3   2   3 4642.13 282.002   3
  -3  -2  -3 4869.13 281.205   2
  -3   3   2 5265.75 329.885   1
   2   3  -3 5449.98 292.616   4
   2  -3   3 4826.16 320.359   1
  -3  -3  -2 4993.58 316.718   2
  -3  -2  -3 4795.20 304.932   1
   3   3  -2 4850.45 295.473   4
   2  -3   3 4970.85 237.390   2
   3   3  -2 4864.81 333.917   3
   2   3  -3 4780.75 320.976   3
  -3   2   3 4681.57 324.170   1
   2   3  -3 4834.77 319.006   5
  -3   3   0-31.7632 53.6685   1
   0  -3   3-16.8029 63.4254   1
   3  -3   0 39.9198 61.2674   1
   0  -3   3 18.8112 37.2371   2
   0   3  -3 163.877 78.2065   3
   3   0  -3 56.5577 46.0142   4
  -3   0  -3 33.6485 30.3802   4
   0  -3   3 75.9565 51.6600   3
  -3   0   3 13.1646 53.1389   3
   0  -3  -3-18.3057 54.4329   2
  -3  -3   0 59.6948 32.6851   1
   3   3   0-5.92138 38.1390   1
   0   3   3 15.8186 61.6043   2
   3   0  -3 66.9478 64.0820   5
   0   3  -3 12.9466 38.4449   2
  -3  -3   0-23.3113 54.6966   4
   3   0   3-16.2642 62.6011   1
   3   0  -3 8.68681 74.9519   3
   3   0   3 29.7058 27.1063   4
   2  -3  -3 4013.44 203.580   3
  -3  -3   2 4050.54 296.467   3
   3  -2  -3 4143.03 248.415   5
   3  -3  -2 4249.24 226.074   3
  -2  -3   3 4609.35 261.074   4
   3  -2  -3 4048.76 250.156   3
   3  -3  -2 4129.74 286.038   1
  -2   3  -3 4143.92 308.339   1
   2   3   3 4608.48 281.914   1
   3   2   3 4337.82 299.459   1
   2   3   3 4543.34 299.648   2
  -2  -3   3 3919.31 283.758   5
  -3  -2   3 4592.07 263.297   4
  -2   3  -3 4190.95 230.720   2
  -2  -3   3 4386.99 300.296   3
   3   3   2 4204.64 249.836   1
  -3   3  -2 4396.77 314.038   1
  -3   3  -2 4168.28 253.342   2
  -3  -3   2 4229.29 275.612   4
   4   0   0 199938. 4065.74   4
   0   0  -4 207831. 4142.66   3
  -4   0   0 189603. 4132.93   1
   0   0   4 195108. 4131.67   3
   0   4   0 201174. 3901.43   5
   0  -4   0 207475. 3907.12   3
   0   4   0 200380. 3902.24   3
   0   4   0 198478. 4259.93   2
  -4   0   0 183725. 4035.93   4
   4   0   0 195476. 4155.85   1
   4   1  -1-31.7409 67.5148   1
  -1  -1  -4 2.98270 34.0044   2
  -4  -1  -1 100.515 59.8238   4
   1  -4   1-24.6615 66.6825   2
  -1   4   1 51.8019 42.7665   1
   1   4  -1 66.2697 46.3719   3
   1   4  -1-16.8233 65.4438   2
   1   4  -1-20.0470 38.1963   5
   1  -4   1 8.90187 43.0834   1
   4  -1   1-26.3477 63.5515   1
   1  -1   4 70.2853 72.7445   1
  -4  -1  -1-2.73216 51.8807   1
  -1   1   4 32.3382 41.1412   3
   1   1  -4 85.1667 68.0980   3
   1  -4   1 11.4206 32.5768   3
   1   1  -4 9.65006 26.0057   4
  -1   4   1 37.4218 65.1630   2
   4  -1   1 25.1065 43.5890   4
  -1   4  -1 12.6448 64.7902   2
   1  -1  -4 14.4848 49.0423   3
  -1  -4   1-20.3793 62.9161   2
  -4  -1   1 1.05954 45.9505   4
  -1  -4   1 41.0467 46.4830   3
   4  -1  -1 188.533 89.2331   1
   1   1   4 58.7523 46.8923   2
  -4  -1   1-19.4679 55.9667   1
   4   1   1 64.5537 72.9278   1
   4   1   1 22.1827 35.8285   4
   1   4   1 39.3418 92.2890   2
  -1  -4   1 62.8422 58.7757   5
  -1   4  -1 28.9875 42.7991   1
   1  -4  -1 21.9770 35.7227   1
   4  -2   2 47180.0 1347.69   1
   2   4  -2 46237.7 1272.10   3
   2  -4   2 47381.7 1246.53   1
  -4  -2  -2 48325.2 1253.01   1
   2  -2   4 47964.9 1361.15   1
   4   2  -2 45578.8 1234.20   4
  -2   4   2 45317.2 1316.08   2
   2   2  -4 46090.6 1144.78   4
  -4  -2  -2 46366.7 1216.90   4
  -2  -2  -4 46482.0 1239.13   2
  -2   2   4 45195.3 1205.24   3
   4   2  -2 44328.4 1338.17   3
   2   2  -4 46481.1 1308.67   3
   2  -4   2 47976.4 1232.26   2
  -2  -4  -2 45123.9 1341.09   2
   2   4  -2 46648.9 1267.99   5
  -2   4   2 45009.3 1223.53   1
  -2   2   4 49569.0 1220.85   5
  -2  -4   0 1224.11 172.962   4
   0  -2   4 1376.70 90.6905   4
   0  -4   2 1452.49 167.659   2
   0  -4   2 1096.76 118.007   1
   0   4   2 1281.79 181.247   2
   4  -2   0 1242.62 165.649   1
  -4  -2   0 1220.93 148.832   4
   0  -2  -4 1210.19 135.400   2
   0  -4   2 1217.50 130.987   3
   4   0  -2 1264.96 168.199   3
   0   4  -2 1340.11 163.227   2
   2   4   0 1038.52 174.967   2
   4   0   2 1164.15 120.415   4
   2  -4   0 1245.50 156.164   2
   4   0   2 1153.89 162.117   1
  -2   4   0 1338.14 144.029   1
  -2   0   4 1226.04 157.653   5
  -4  -2   0 1161.32 130.312   1
   4   0  -2 883.305 142.345   1
   0   2  -4 1344.71 169.470   3
   2  -4   0 1247.30 133.398   1
  -4   0  -2 1325.10 131.935   4
   2   0   4 1422.54 188.077   1
   2   0  -4 1607.68 175.860   3
   0  -4   2 1222.89 127.903   5
   4   2   0 1108.78 139.208   1
   0   2   4 1490.05 149.008   2
   0   2   4 1040.37 126.349   3
  -4   0  -2 1196.46 166.264   1
  -2   0   4 1111.33 149.899   3
  -2   4   0 1126.25 158.836   2
   0   4  -2 1449.77 148.937   3
  -4   0   2 1256.57 166.416   1
   4   2   2 45527.6 1245.04   1
  -2  -4   2 43111.9 1225.46   4
   2   4   2 44609.3 1309.80   2
  -2  -4   2 45849.9 1234.02   5
   2   4   2 43323.6 1075.56   1
  -2   4  -2 44974.8 1229.94   2
  -4  -2   2 45520.6 1220.10   4
  -4  -2   2 44610.5 1205.50   1
   2   2   4 45725.0 1167.24   2
  -2  -4   2 46233.2 1244.66   3
   2  -2  -4 44824.4 1156.03   3
   4   2   2 44946.8 1192.08   4
  -2  -2   4 45937.6 1118.37   4
  -2   2  -4 46453.9 1361.81   1
  -2  -4   2 46634.0 1263.50   2
   4  -2  -2 45204.6 1288.38   1
   2   2   4 47122.8 1308.27   1
  -2   4  -2 44478.0 1241.22   1
  -3   3   4 4.41036 45.2000   3
   3   3  -4-49.3155 81.2601   3
   3   3  -4 43.4128 51.7125   4
  -3   3   4 67.6530 60.3337   5
   4  -3   3 3.17022 61.6408   1
  -3  -3  -4 90.0933 65.0096   2
  -4   3   3 83.4906 76.5882   1
  -3   4   3 59.6991 74.9139   1
  -4  -3  -3-0.99190 58.6880   2
   4   3  -3 9.64608 80.1926   3
   4   3  -3 55.9196 50.4864   4
   4   3  -3-43.7876 60.7870   5
   3   4  -3-8.26989 74.0694   3
   3  -4   3-14.7786 72.8209   1
  -4  -3  -3-17.1657 53.7921   1
  -4  -3  -3-3.77446 61.0948   4
   3  -3   4-29.9650 83.6295   1
  -3  -4  -3 9.26503 37.3924   1
  -3  -4  -3 38.4760 78.3682   4
  -3   4   3 76.9958 76.9321   2
   3   4  -3-21.5331 54.6245   4
  -3  -3  -4-23.6373 50.9514   4
   3   4  -3 109.547 82.4490   5
  -3  -4  -3-6.65232 71.7410   2
   3   3  -4 42.3387 74.4781   5
  -4  -1  -3 10979.9 430.650   4
  -3  -1  -4 10806.8 411.292   2
   4  -3   1 11329.9 534.498   1
  -4  -3  -1 11138.2 503.387   4
   3   1  -4 11103.2 533.105   3
  -3   4   1 11068.0 499.458   1
  -3  -1  -4 11426.0 558.075   1
  -4  -1  -3 12485.1 555.476   1
   1  -3   4 11222.5 392.679   2
  -1   3   4 11118.7 429.263   3
  -4  -3  -1 11786.8 449.157   1
   4   1  -3 11846.9 483.247   4
  -3   1   4 11189.6 516.155   3
   3  -1   4 11442.5 575.440   1
   4   3  -1 11214.2 454.385   1
   3   4  -1 11281.4 528.969   3
  -1   4   3 11674.7 353.433   3
  -3   4   1 10940.4 538.685   2
  -1  -4  -3 12178.1 589.345   2
   3  -4   1 11629.2 505.182   1
  -1   3   4 11357.5 514.100   2
  -3  -4  -1 11954.5 548.633   4
   4  -1   3 11889.5 579.741   1
   1   3  -4 11831.4 435.032   4
   4   1  -3 11585.8 554.302   5
   1  -4   3 11555.0 498.141   1
   3   1  -4 11133.0 528.317   5
  -3   1   4 10627.9 496.677   5
  -3  -4  -1 11950.4 378.068   1
   3  -1   4 11633.7 335.205   4
  -3  -1  -4 11372.2 396.441   4
   3   1  -4 11879.5 456.994   4
   1  -4   3 11675.8 485.533   2
   4  -1   3 11619.8 400.825   4
  -4   3   1 11210.6 529.324   1
  -1  -3  -4 12231.0 546.903   2
   1  -3   4 11223.9 533.771   1
  -1   4   3 11013.2 538.478   2
   4   1  -3 11232.5 555.750   3
   1   3  -4 11059.6 522.812   3
   1   4  -3 11114.0 508.915   3
   1  -3   4 11758.6 535.498   3
   1  -4   3 11992.5 491.797   3
  -1  -4   3 11914.6 512.495   5
   1  -4  -3 12321.8 575.403   2
  -3   4  -1 11566.3 519.177   2
  -1   4  -3 11532.1 529.639   1
  -1   3  -4 11945.0 389.232   2
   3   4   1 12517.3 400.567   1
  -3  -4   1 12041.8 389.720   1
   1   3   4 11358.8 533.657   2
   3  -1  -4 11789.9 510.225   3
  -3  -4   1 11971.0 536.136   4
   4   1   3 10621.4 540.354   1
   1   4   3 11984.2 587.146   2
  -1   4  -3 12198.1 507.107   2
  -4   3  -1 12118.8 565.743   1
  -4  -3   1 11816.6 453.741   1
   4  -1  -3 12279.7 529.293   5
  -3   4  -1 12006.3 538.205   1
   4   1   3 11710.0 448.755   4
  -1  -4   3 12369.1 492.429   4
   4  -1  -3 12634.8 540.971   3
   4   3   1 12927.4 539.873   4
  -4  -3   1 12440.3 530.756   4
   3   1   4 10939.2 551.721   1
  -1  -3   4 11723.7 422.378   4
   4  -3  -1 10765.8 521.765   1
   4   3   1 12234.6 478.264   1
   3  -4  -1 11624.3 499.223   1
   3  -1  -4 12273.4 513.513   5
  -4  -1   3 12092.9 488.021   4
  -1  -4   3 11528.1 507.474   3
  -4  -1   3 12079.0 547.133   1
  -1  -3   4 12205.4 544.513   5
  -1  -3   4 11783.0 542.424   3
  -1  -4   3 12402.1 504.586   2
  -3  -3   4 7.58078 53.3406   4
   3   4   3-2.47025 52.2548   1
  -3  -4   3 73.0667 56.2546   3
  -4  -3   3 8.84983 50.7091   4
  -3   4  -3-9.33195 63.6922   1
   4  -3  -3 16.3720 54.2698   3
   4  -3  -3 118.940 57.1751   5
   3  -4  -3-12.6352 34.1469   3
   3   4   3 145.521 87.0026   2
   4   3   3 12.6135 64.2934   1
  -3   3  -4-20.3795 42.1100   2
   3  -3  -4 75.9071 53.8637   3
   3   3   4 40.8958 82.7276   1
   3  -3  -4 34.9617 41.7241   5
  -3   4  -3-22.0970 48.3639   2
  -3  -4   3 1.86434 54.1197   4
  -4   3  -3-37.7135 72.4403   1
   3  -4  -3-22.9057 35.4482   5
  -3   3  -4 9.70475 66.9056   1
   3   3   4-54.7016 63.4818   2
  -4  -4  -4 15419.7 647.432   1
  -4  -4  -4 15463.9 674.145   4
   4   4  -4 15231.9 735.404   3
   4  -4   4 14389.8 711.944   1
   4   4  -4 14838.3 725.488   5
  -4   4   4 15221.3 721.882   1
  -4  -4  -4 15317.8 697.771   2
   4   4  -4 15898.1 663.440   4
   4   4  -2 75.2442 90.4307   5
  -4  -2  -4-23.1808 78.5873   1
  -2  -4  -4 55.2095 75.2367   2
  -2   4   4 28.3050 44.3069   3
  -2   4   4 13.5393 39.2287   5
  -4  -4  -2-1.04922 43.9690   1
   4  -2   4 59.5299 100.414   1
   4   2  -4-19.7149 53.3659   5
   2   4  -4 46.0216 55.1647   4
   2   4  -4-24.3770 73.4686   3
   4   2  -4-59.7438 47.7975   4
  -4  -4  -2 11.3780 67.2112   4
  -4   2   4 52.0672 68.3824   3
   4   2  -4-19.3150 85.9136   3
   4   4  -2 3.25646 47.8489   4
  -4  -2  -4-25.9792 43.7882   2
   2  -4   4 36.7735 63.2782   3
   4   4  -2 24.0088 78.1562   3
  -4   4   2 170.310 94.4861   1
   4  -4   2-1.17713 61.7870   1
   2  -4   4 58.1175 50.1773   2
   2  -4   4-34.4726 70.6699   1
  -4  -2  -4-16.2860 41.0894   4
  -4  -4  -2-1.75678 58.9187   2
  -2   4   4 55.4463 65.6174   2
  -4   0  -4 47429.7 1093.38   4
   0   4   4 45090.7 1130.16   3
   0  -4  -4 45109.1 1348.06   2
  -4  -4   0 43596.4 1309.96   4
   4   0  -4 45425.2 1324.50   3
   4   4   0 45749.8 1126.32   1
   0  -4   4 45399.1 1289.40   3
   4   0  -4 43611.0 1303.26   5
   0  -4   4 44893.4 1157.97   4
   0   4  -4 46692.7 1315.37   3
   4   0   4 46938.7 1408.98   1
   4  -4   0 44356.9 1286.00   1
  -4  -4   0 44318.6 1107.45   1
   0  -4   4 42725.4 1273.42   1
   4   0   4 46133.8 1089.37   4
   4   0  -4 43464.5 1210.47   4
   0  -4   4 43522.2 1190.51   2
   0   4   4 45115.3 1340.47   2
  -4   4   0 44103.7 1319.64   1
  -4   0   4 49334.5 1378.79   3
  -4   0  -4 44689.5 1381.89   1
   2   4   4-32.8363 57.1664   1
   4   4   2-20.6784 48.7452   1
  -2  -4   4-60.9404 56.6298   4
  -4  -4   2-40.1878 70.9696   4
  -2  -4   4-18.5615 71.1116   3
   4   2   4 22.6610 77.5392   1
  -2   4  -4-1.98729 49.5430   2
   4  -2  -4-15.0663 51.3385   5
  -4  -4   2-22.3231 43.5369   1
  -2   4  -4 16.2453 66.0564   1
  -4  -2   4 11.1366 44.2167   4
   4   2   4 33.3149 52.3231   4
  -4   4  -2-6.24383 60.0451   2
  -4   4  -2 10.8811 60.3202   1
   4  -4  -2-55.1530 79.2307   1
   2  -4  -4 22.8227 40.0093   3
   2   4   4 10.9659 68.5330   2
  -2  -4   4 31.8462 74.4903   5
   4  -2  -4-4.61466 53.7915   3
  -4  -4   4 13976.9 617.307   4
  -4   4  -4 14172.6 737.546   1
   4   4   4 13873.8 641.138   1
  -4   4  -4 14263.9 556.620   2
   4  -4  -4 15177.5 547.575   5
   4  -4  -4 15963.1 558.728   3
   1   0   5 29386.5 973.045   3
   5   0   1 31445.0 1010.58   1
   5  -1   0 29721.6 895.988   4
   5   0  -1 27876.5 969.472   1
  -1   5   0 29948.3 1035.30   2
   0   5  -1 28843.9 777.159   1
   0   1  -5 29800.9 684.780   4
   1   0  -5 30627.2 955.995   3
   0   1   5 31151.8 963.471   3
   1  -5   0 30998.3 709.133   5
   0   5   1 29229.3 733.262   1
   0   5  -1 30837.2 1046.85   2
  -5   0  -1 30580.4 888.176   4
   1   0   5 31110.0 721.712   2
   1  -5   0 31190.4 711.716   3
   0   5   1 26088.8 1023.24   2
  -1   5   0 30177.4 826.071   1
   5   1   0 30361.0 977.328   1
   0   5   1 30708.7 697.493   3
   1   5   0 32368.9 832.699   3
   1  -5   0 30585.0 790.023   1
  -5   0   1 29664.6 968.846   1
   0   1   5 29462.2 817.907   2
   1   5   0 30327.6 1051.95   2
   0  -5   1 30556.3 811.367   3
   0  -5   1 31334.2 754.594   1
   1   5   0 30937.7 820.224   5
  -1   0   5 30984.5 975.085   3
  -5  -1   0 30761.5 953.818   1
   0   5  -1 29942.7 823.119   3
   0  -5   1 31085.1 808.504   5
   5  -1   0 28634.3 989.722   1
   5   1   0 31345.6 931.919   4
   1  -5   0 30181.9 1025.96   2
   0  -5   1 30975.2 1037.09   2
   5   0   1 30930.8 896.653   4
   0   1  -5 30150.4 977.525   3
  -5   0  -1 28819.1 972.830   1
  -5  -1   0 29992.6 914.348   4
  -2   1   5 16342.7 655.487   5
   5  -1   2 17723.6 589.308   4
  -5  -2  -1 15969.1 624.431   4
  -2   5   1 17169.3 725.943   2
  -5  -1  -2 17408.5 688.809   1
   2  -1   5 17130.0 749.015   1
   2  -5   1 16268.8 586.850   1
   2   1  -5 16267.0 534.402   4
  -1   5   2 16802.6 729.589   2
   5   2  -1 16351.2 646.982   1
   2   5  -1 16789.5 626.990   3
  -5  -2  -1 16037.4 627.964   1
  -1   5   2 16593.6 568.611   1
  -1   2   5 15948.8 619.965   3
   2  -5   1 17433.2 689.063   2
  -2  -1  -5 16707.1 545.434   2
  -1   2   5 16633.0 612.995   2
  -2   5   1 16016.2 591.571   1
   2   1  -5 17082.2 688.069   3
   5  -2   1 17843.9 724.666   1
   2   5  -1 16151.0 613.080   5
  -5  -1  -2 16269.6 599.261   4
   1  -5   2 16874.6 574.376   3
   1   5  -2 17006.4 684.261   2
   5   1  -2 17742.3 696.272   1
   1   5  -2 16834.2 624.759   3
  -2   1   5 17056.2 663.808   3
  -1  -2  -5 16575.5 594.196   2
   2   5  -1 16890.6 705.214   2
   2  -5   1 17080.3 529.031   3
   5  -1   2 16475.9 713.344   1
   1  -2   5 16147.5 720.625   1
   1   2  -5 16874.6 505.160   4
   1  -5   2 16441.4 575.411   1
  -2  -1  -5 15977.0 493.999   4
   1   2  -5 16349.6 684.189   3
   1  -5   2 17021.1 687.975   2
   1   2   5 14489.3 564.423   2
   1  -2  -5 15521.9 574.170   3
  -1   5  -2 14711.4 571.065   1
   2  -5  -1 15129.5 540.107   1
  -5  -1   2 14506.2 583.399   4
   2   1   5 15229.1 476.708   2
  -2   5  -1 15058.2 582.201   1
   1   5   2 14617.6 706.543   2
   5   1   2 14520.1 554.985   4
  -2   5  -1 15173.0 649.905   2
  -2  -5   1 15011.2 654.523   4
  -2  -5   1 14812.0 658.652   2
  -1  -2   5 14792.0 447.278   4
   5   2   1 14999.3 613.681   1
  -1  -5   2 14444.6 639.896   2
  -1  -5   2 15221.9 576.476   3
   2   1   5 14176.6 668.954   1
   2   5   1 14223.9 667.098   2
   2  -1  -5 14058.4 583.057   3
  -1   5  -2 13656.5 638.228   2
   5   2   1 14351.6 580.337   4
   5  -2  -1 14984.8 660.357   1
   5  -1  -2 15864.4 671.095   1
   5   1   2 14916.3 648.739   1
  -1  -5   2 15236.0 480.316   1
  -5  -2   1 15290.7 592.818   1
  -5  -1   2 15456.1 634.984   1
  -5  -2   1 15650.2 620.809   4
  -1  -5   2 14589.2 557.758   5
  -3   2   5 1360.26 175.367   3
   5   3  -2 1054.83 155.714   4
  -5  -2  -3 1566.71 197.421   1
  -3  -5  -2 1180.05 196.916   4
  -2   3   5 1222.80 158.268   5
   2   5  -3 1674.63 196.868   3
  -2   3   5 1112.81 171.377   2
  -5   3   2 1146.94 181.733   1
   2   3  -5 1127.41 132.980   4
   5  -2   3 1042.49 182.994   1
   2  -5   3 1236.66 171.660   1
   5  -3   2 1067.95 186.517   1
  -3  -2  -5 1296.28 164.102   2
  -5  -3  -2 1374.38 168.479   1
   2  -3   5 1177.97 177.958   3
  -3   2   5 1260.77 167.740   5
   3  -2   5 1293.95 81.6686   4
   3   5  -2 1234.69 177.890   5
   2   5  -3 1358.52 182.269   5
  -5  -3  -2 1042.27 154.665   4
  -2   5   3 1415.65 176.026   1
   2   3  -5 1333.33 197.278   3
  -3   5   2 1310.44 177.085   1
   5   2  -3 1133.88 158.165   4
   5   2  -3 1273.83 209.321   3
  -2   5   3 1317.05 209.441   2
  -2  -5  -3 1083.11 197.299   2
   2  -3   5 1121.71 192.716   1
  -3  -5  -2 966.207 175.410   2
  -3   5   2 1474.34 208.571   2
   2  -5   3 1330.67 168.016   2
  -2  -3  -5 1233.72 177.787   2
   5   3  -2 1719.06 237.366   3
   3   2  -5 1458.66 211.566   3
   2  -5   3 1261.28 157.500   3
   3   2  -5 1381.28 150.244   4
  -5  -2  -3 1468.72 170.116   4
  -2   3   5 1223.59 155.066   3
   3   5  -2 1367.21 187.270   3
   3  -2   5 1180.52 194.491   1
  -3  -2  -5 1122.21 135.290   4
   3  -5   2 1109.79 157.901   1
   5   2  -3 1331.23 199.841   5
   3   2  -5 1272.38 185.831   5
  -3   0   5 25128.9 889.085   5
  -3   0  -5 24888.3 962.900   1
   3   0   5 23583.1 933.777   1
   3   0  -5 24558.7 867.252   5
   5  -3   0 24321.0 896.754   1
   0  -3   5 24965.1 638.244   4
  -5  -3   0 24460.2 777.879   1
   0   5  -3 24184.4 838.387   2
   0  -5  -3 22575.3 923.046   2
   0  -3  -5 24744.6 831.823   2
  -3  -5   0 22618.4 881.176   4
   0  -3   5 23621.1 667.904   2
  -3   0   5 24501.7 885.530   3
   0   3  -5 25567.2 896.325   3
  -3   5   0 23875.9 832.333   1
   0   5  -3 25066.3 827.914   3
  -3   0  -5 23634.9 593.597   4
  -5   0  -3 24005.1 730.612   4
  -5   3   0 26032.5 924.612   1
   0  -5   3 23987.0 789.297   5
   0  -5   3 24675.5 865.353   2
   0  -3   5 23104.4 886.558   1
   3   0  -5 22603.0 846.498   3
   0   3   5 25115.9 841.984   2
  -5   0   3 24888.1 906.675   1
   0   3   5 22092.3 772.499   3
  -3   0  -5 23430.0 623.172   2
   5   0  -3 25356.0 922.157   3
   3   0  -5 23878.3 743.798   4
   5   0  -3 24230.5 817.255   4
   0  -5   3 23697.5 760.272   1
   5   3   0 25041.5 807.173   1
  -5   0  -3 23823.5 902.198   1
  -5  -3   0 23876.8 843.442   4
  -3   5   0 24422.0 896.842   2
  -3  -5   0 23259.7 571.362   1
   0  -5   3 23924.6 794.059   3
   5   0   3 23179.7 913.631   1
   0   5   3 23356.0 926.114   2
   0  -3   5 24353.6 880.522   3
   5   0   3 22862.8 718.384   4
   3  -5   0 24246.5 796.106   1
   3  -5  -2 1583.04 183.620   1
   2   3   5 1443.40 205.072   1
  -2  -5   3 1387.90 182.011   4
  -2   5  -3 1507.12 194.371   2
  -5  -3   2 2086.96 202.911   1
   3   2   5 1397.58 208.193   1
   3   5   2 1623.61 228.003   2
  -2  -3   5 1570.47 153.364   4
  -3   5  -2 1414.16 193.484   1
   5   2   3 1112.34 184.209   1
   2  -5  -3 1803.50 98.3987   3
   3  -5  -2 1616.81 110.583   3
  -3  -2   5 1445.96 155.806   4
  -5  -2   3 1590.39 194.016   4
  -2  -5   3 1608.93 196.565   5
   2   5   3 1631.59 161.289   1
  -2   3  -5 1341.46 209.571   1
  -3  -5   2 1419.23 193.864   4
  -3   5  -2 1265.09 177.408   2
   5  -3  -2 1455.76 203.910   1
  -5   3  -2 1355.88 206.730   1
  -3  -5   2 1777.91 211.574   2
   2  -3  -5 1643.82 167.557   3
  -5  -2   3 1479.18 186.943   1
   3  -2  -5 1627.70 180.382   3
  -2   5  -3 1252.62 183.474   1
   5  -2  -3 1337.04 173.908   3
  -2  -5   3 1522.52 195.826   2
   3   5   2 1350.60 127.930   1
   2   5   3 1521.49 224.598   2
   5   3   2 1760.25 197.817   4
   5   3   2 1378.24 181.352   1
  -2  -5   3 1431.70 184.933   3
   5   2   3 1799.65 188.323   4
  -2   3  -5 1558.93 109.501   2
  -5  -3   2 1569.00 191.847   4
  -3  -5   2 1578.63 195.942   3
   2   3   5 1741.92 198.914   2
   3   5  -4 17734.0 787.025   3
  -3  -5  -4 18128.7 830.654   2
  -4   5   3 16928.4 791.943   2
  -3   4   5 16818.3 647.274   3
  -4  -3  -5 17662.6 773.919   1
   5   3  -4 19413.6 854.402   5
   3  -4   5 16045.1 771.162   1
  -3   4   5 18386.4 788.405   2
  -5   4   3 18794.9 821.770   1
  -5  -4  -3 18365.3 699.752   1
   4   5  -3 18775.8 819.982   3
   5   3  -4 16863.2 711.227   4
   5   3  -4 18410.0 840.337   3
  -5  -3  -4 18332.4 760.243   1
   4   3  -5 18829.7 832.006   3
  -5  -3  -4 18871.0 716.263   4
   4   3  -5 18126.5 693.902   4
  -4  -3  -5 17974.4 692.082   4
  -3   5   4 18640.4 823.874   2
   3   5  -4 17536.3 726.055   4
   5   4  -3 18999.6 762.344   4
  -5  -4  -3 17671.5 755.977   2
   3   4  -5 18159.7 806.442   3
   5  -4   3 18505.2 821.242   1
   4   3  -5 17892.1 809.962   5
   5   4  -3 18693.5 842.831   5
  -4  -5  -3 17597.9 780.858   4
   4  -5   3 16722.4 757.599   1
   4   5  -3 18709.8 772.097   4
   5   4  -3 18479.0 839.834   3
  -5  -3  -4 16760.9 697.874   2
  -4   5   3 17178.6 763.081   1
  -4   3   5 17671.9 718.203   3
   4   5  -3 18898.0 814.287   5
  -4  -3  -5 18178.0 730.032   2
  -4  -5  -3 17687.9 642.153   1
   5  -3   4 18665.0 848.656   1
   4  -3   5 15658.1 788.047   1
   3   5  -4 16499.0 759.945   5
  -4  -5  -3 18243.3 806.349   2
  -3  -4  -5 18105.6 793.966   2
  -3   5   4 16342.2 739.182   1
   3   4  -5 17876.8 689.796   4
   3  -5   4 17147.1 757.646   1
   3   4  -5 18048.5 805.862   5
  -5  -4  -3 17790.9 749.383   4
  -3   4   5 17750.0 654.704   5
  -5  -4  -1 14089.8 535.135   1
   1  -4   5 13836.4 503.853   2
   4   5  -1 13044.3 636.831   3
  -4  -1  -5 13829.0 475.314   4
  -5  -1  -4 13690.6 519.136   4
   5  -1   4 13444.3 697.357   1
  -4  -5  -1 12088.1 626.671   4
   5  -1   4 13383.7 478.111   4
   1   4  -5 14121.0 658.811   3
   4   1  -5 12316.2 534.353   4
  -1   5   4 13465.1 671.582   2
   1  -5   4 13828.2 578.110   2
   1  -4   5 13457.3 645.445   1
  -1  -5  -4 13349.1 693.632   2
  -4   5   1 13166.8 654.396   2
   1   5  -4 13160.8 617.793   3
   5   4  -1 13174.3 534.393   1
  -5   4   1 12935.8 642.276   1
   4  -1   5 13210.1 408.523   4
  -4  -1  -5 13824.7 689.811   1
  -4   1   5 12844.3 626.769   5
   4   1  -5 12203.0 622.369   3
  -1   4   5 14291.0 646.217   2
   4   1  -5 13788.2 657.250   5
   1  -5   4 13144.7 594.868   1
  -1   4   5 13570.3 522.957   3
   4  -1   5 14016.7 710.252   1
  -4  -1  -5 13124.6 489.396   2
   5  -4   1 12540.8 622.341   1
   5   1  -4 13746.7 675.176   3
   5   1  -4 13174.0 577.021   4
  -4   5   1 13292.1 624.534   1
  -5  -4  -1 13266.3 619.508   4
   1  -4   5 13315.3 624.672   3
   5   1  -4 14475.0 686.171   5
   4  -5   1 13792.3 616.978   1
  -4  -5  -1 13567.9 451.087   1
  -1   5   4 13404.5 438.283   3
  -1  -4  -5 14032.5 657.683   2
  -4   1   5 12611.8 626.239   3
   1  -5   4 13586.3 604.095   3
  -5  -1  -4 14625.8 689.418   1
  -1   5  -4 13876.7 664.979   1
  -5  -4   1 14279.5 646.524   4
  -5  -1   4 13964.4 667.879   1
  -4   5  -1 15058.6 662.644   2
   4  -1  -5 14578.5 641.419   3
  -1  -4   5 15212.7 531.049   4
   1   5   4 14364.7 717.984   2
  -5  -4   1 13313.1 527.890   1
  -1   5  -4 14253.4 598.524   2
  -1  -5   4 14814.4 638.365   3
   5   4   1 14706.7 578.905   1
  -4   5  -1 14574.4 675.368   1
  -1  -4   5 14798.0 671.038   5
   5   1   4 15272.5 550.578   4
   1  -5  -4 14888.9 709.625   2
  -4  -5   1 13088.7 639.369   4
   4   1   5 14488.1 715.018   1
  -1  -5   4 15440.8 634.398   2
  -1  -5   4 13861.6 621.047   5
  -1  -5   4 14841.3 591.574   4
   5   1   4 13874.5 692.050   1
   5  -1  -4 14830.6 664.362   3
   1   4   5 13933.6 668.045   2
   1  -4  -5 14097.1 655.063   2
  -5   4  -1 15034.4 708.677   1
   4  -5  -1 14054.8 623.394   1
  -1   4  -5 14717.6 490.474   2
   4   5   1 14008.5 481.032   1
   4  -1  -5 14079.3 624.050   5
  -4  -5   1 14879.2 476.849   1
  -1  -4   5 14290.4 549.329   2
   5  -4  -1 13794.9 655.353   1
   5  -1  -4 14171.8 639.593   5
   4   1   5 14162.9 509.504   4
  -1  -5   4 14309.4 603.270   1
  -1  -4   5 13752.7 651.963   3
  -4  -5   3 20547.7 851.804   3
  -3  -5   4 18923.7 822.440   3
  -3  -5   4 18480.5 810.184   5
   3   4   5 18602.3 776.686   2
   4  -5  -3 19922.0 611.498   3
   3  -4  -5 19864.3 664.419   3
  -5  -3   4 21053.2 778.392   4
  -5   4  -3 19096.1 870.648   1
  -4  -3   5 19114.2 727.718   4
   3   4   5 19764.8 805.007   1
   5   3   4 20031.1 830.879   1
   3   5   4 19212.1 837.156   2
  -4   5  -3 19059.0 844.094   1
  -3   5  -4 19976.4 740.221   2
   4   5   3 22335.3 735.802   1
   4  -3  -5 19533.2 716.347   5
   4  -5  -3 19642.6 608.100   5
   5  -4  -3 19523.4 699.973   3
  -4   5  -3 20584.6 767.777   2
   3   5   4 22579.5 777.794   1
  -3  -5   4 19994.4 791.198   2
   3  -5  -4 20119.5 588.700   3
  -3   4  -5 19715.2 649.723   2
  -5  -4   3 18397.4 764.046   4
   5   3   4 19537.8 758.090   4
  -3   4  -5 20375.7 919.442   1
   5   4   3 19780.0 763.277   1
   4  -3  -5 20549.2 731.156   3
  -3  -5   4 19525.6 754.428   4
   4   3   5 21308.1 869.832   1
   5  -3  -4 20063.3 739.644   5
  -3  -4   5 19859.5 717.117   4
   5  -3  -4 20450.8 752.537   3
  -4  -5   3 18780.7 781.584   4
  -4   3  -5 19880.0 596.428   2
  -3   5  -4 19996.8 876.030   1
  -5  -4   3 19476.8 729.908   1
   5  -5   4 74.2263 116.317   1
   4   5  -5-27.9845 54.6806   4
   5   5  -4 34.5725 87.8801   3
   5   4  -5 32.9661 94.1931   3
  -5   5   4 102.648 93.9044   1
  -4   5   5-34.9846 93.5189   2
  -5  -4  -5 31.0725 71.4412   1
  -5  -4  -5 36.6909 58.1669   2
  -4  -5  -5-31.2029 75.9623   4
   4   5  -5-23.1960 101.700   3
   5   4  -5-18.5539 79.4731   5
   5  -4   5-30.8813 94.5787   1
  -4  -5  -5 3.35847 70.2859   2
  -5  -5  -4 72.9214 74.6417   4
  -5  -5  -4 37.9249 65.2533   2
   5   5  -4 16.9139 69.2375   4
  -5  -4  -5 41.3956 61.8307   4
   5   4  -5-41.8757 71.6396   4
   5   5  -4 71.0106 58.9304   5
   4  -5   5 10.9185 89.4321   1
   4   5  -5 11.1245 73.1098   5
  -5  -5  -4-60.0081 63.6227   1
  -4   5   5 43.5467 95.8237   1
   2  -5   5 31803.5 944.477   2
  -5  -2  -5 32779.4 1004.25   2
  -5   5   2 31115.7 1150.22   1
   2  -5   5 33244.1 1150.08   1
   2  -5   5 31523.9 1110.52   3
   5   2  -5 32400.1 1184.66   3
  -5   2   5 29678.2 1101.76   3
  -2   5   5 32639.6 916.052   3
  -2  -5  -5 32575.6 1212.33   2
  -5  -5  -2 32861.8 956.363   1
  -5  -5  -2 34021.9 1166.48   4
  -5  -2  -5 34333.9 1204.35   1
  -5  -2  -5 34237.3 990.069   4
   5   2  -5 34780.0 1209.09   5
   5   2  -5 34375.1 1065.87   4
  -2   5   5 32935.6 1171.53   2
   5  -2   5 33238.4 1255.83   1
   5  -2   5 32866.5 863.370   4
  -2   5   5 32675.8 911.572   5
   5   5  -2 29753.8 1163.60   3
   5  -5   2 33451.2 1160.96   1
   2   5  -5 34340.8 1185.91   3
   5   0  -5 127.592 77.9254   4
  -5   0   5-9.89034 76.6629   3
  -5   0  -5 69.0634 46.2679   4
   5   0   5 62.1395 46.5168   4
   5   0   5 110.754 131.474   1
   0   5   5 76.6466 101.450   2
   5   0  -5 101.939 65.0290   5
   0  -5   5-74.4867 77.0626   3
   0  -5   5 36.5981 85.4786   1
   5   5   0-19.8196 49.9579   1
  -5   5   0 50.2769 79.7235   1
  -5  -5   0 38.6125 72.6786   4
   5  -5   0 208.724 114.216   1
   0   5   5 68.0406 58.1959   3
   0  -5   5-24.3978 56.4021   2
   0   5  -5-12.1611 74.0962   3
  -5   5   0 170.089 102.581   2
   0  -5   5 71.0722 54.7045   4
  -5  -5   0-17.4553 48.4490   1
   0  -5  -5 307.582 130.881   2
   5   0  -5 16.6191 101.773   3
   5  -5  -2 31547.8 1081.14   1
  -2  -5   5 29493.5 973.074   2
   5   2   5 29176.7 917.303   4
  -2  -5   5 27362.1 1026.85   5
   5  -2  -5 29802.9 1006.55   3
   2   5   5 30252.0 1016.35   1
  -2   5  -5 29383.4 1139.05   1
  -5   5  -2 28256.6 1004.48   2
   5   2   5 27264.6 1086.51   1
  -5   5  -2 28500.0 1095.75   1
  -5  -5   2 28251.9 1021.28   4
  -5  -2   5 29640.8 956.539   4
  -5  -5   2 28906.4 869.741   1
  -2  -5   5 25990.7 1020.45   3
   5  -2  -5 28632.1 991.836   5
  -2  -5   5 28674.1 920.455   4
   2   5   5 27869.9 1075.94   2
   5   5   2 27279.1 886.029   1
  -2   5  -5 28774.5 917.062   2
  -5  -4   5 48.0171 78.4428   4
   5  -5  -4-2.87255 46.6357   5
  -4   5  -5-26.8265 89.7840   1
  -5  -5   4 61.3089 74.6598   4
   5  -4  -5 58.3475 53.9998   5
  -5   5  -4-30.7173 114.167   1
   5  -4  -5 13.6738 58.1191   3
   5   5   4 82.3950 78.0133   1
   4   5   5 8.11097 78.1999   2
  -4  -5   5 133.028 88.6303   4
  -5   5  -4-57.1964 57.3603   2
  -4   5  -5 150.563 81.8965   2
  -5   4  -5-22.4212 49.7646   2
   5  -5  -4 70.6018 56.1871   3
   5   4   5 147.427 109.564   1
   4   5   5 67.7149 82.2338   1
   4  -5  -5 54.3829 49.8159   3
   0   0   6 49.6899 65.0248   3
   0   6   0-0.92666 31.3418   3
   6   0   0-11.6231 43.9398   4
   0  -6   0 25.9345 25.2253   1
   0  -6   0 122.705 93.2751   2
   6   0   0 2.55477 73.1000   1
   0   0   6 30.1530 31.9220   2
  -6   0   0 37.3329 66.9275   1
   0   6   0 27.1897 99.2121   2
   0   6   0 35.9475 31.7079   1
   0  -6   0 4.73817 37.8549   3
  -1   1   6 13635.1 617.485   3
   1   6  -1 13417.2 518.448   5
   1   1  -6 13475.6 431.581   4
   1  -6   1 13241.7 478.158   1
  -1   6   1 12639.4 677.420   2
   1   1  -6 13981.7 636.313   3
  -6  -1  -1 13951.9 583.861   4
   6   1  -1 13205.3 634.865   1
   1  -6   1 13938.1 673.325   2
   1  -6   1 13763.0 459.965   3
   1  -1   6 13308.5 690.876   1
   6  -1   1 12699.7 644.751   1
   6  -1   1 13514.1 562.857   4
   1  -6   1 13109.3 452.320   5
  -6  -1  -1 12550.8 602.461   1
   1   6  -1 13804.1 683.237   2
  -1   6   1 13621.9 486.916   1
   1   6  -1 13299.0 517.756   3
  -6  -1   1 14489.0 617.366   4
  -1  -6   1 16631.3 409.958   1
   1   1   6 15494.2 682.052   3
   1   6   1 13725.9 721.708   2
  -1   6  -1 14514.1 721.388   2
  -1   6  -1 14692.6 541.382   1
   1  -6  -1 14790.2 496.407   1
  -1  -6   1 15861.5 743.682   2
   1   6   1 14669.2 495.230   3
   6  -1  -1 14639.6 695.578   1
  -6  -1   1 15481.8 662.383   1
  -1  -6   1 14101.0 549.513   3
   1  -1  -6 15632.6 644.904   3
   1   1   6 15415.0 520.937   2
   6   1   1 14642.9 606.509   4
   6   1   1 14711.9 674.287   1
   2   6  -2 11.6765 67.4742   3
   2   6  -2-6.83622 52.1210   5
  -6  -2  -2 77.6593 73.1426   1
   6  -2   2-10.3658 90.2315   1
   6   2  -2 72.4826 89.3211   1
  -6  -2  -2 44.1561 66.9933   4
   2  -6   2 81.3745 64.1918   1
   2  -2   6-62.0477 99.9537   1
  -2   6   2-13.6294 42.8157   1
  -2   2   6-30.6607 56.9560   3
  -2   6   2 6.09665 91.6477   2
   6  -2   2-28.0627 55.6340   4
   2  -6   2 50.1000 44.6483   3
  -2  -2  -6-10.7694 50.8509   2
   2   2  -6 37.4236 45.9439   4
  -2   2   6 10.1476 63.3112   5
   2   2  -6-7.45792 82.3657   3
   2   6  -2-18.8590 86.9306   2
   2  -6   2 23.8623 52.6866   2
   2   6   0 75055.5 1827.79   3
  -6  -2   0 78683.6 1926.07   1
   2  -6   0 73474.7 1595.03   3
   0   6  -2 75418.5 2042.37   2
   6   2   0 75378.3 1952.64   1
  -6   0   2 75661.9 1999.61   1
  -6   0  -2 74960.9 2015.75   1
   0  -6   2 74325.6 1783.33   3
   2   6   0 73030.8 1811.05   5
   0   2   6 74997.9 1931.68   3
   6   0  -2 73683.4 2010.91   1
   2  -6   0 77256.1 2043.82   2
   0  -6   2 73982.2 1709.50   1
   2   0  -6 74269.7 1951.19   3
   0   6  -2 77313.3 1831.30   3
  -6  -2   0 73488.3 1909.17   4
  -2   0   6 76064.8 1984.88   5
   2   6   0 69287.2 2030.24   2
   0   2   6 78691.0 1827.96   2
  -2   6   0 74774.4 1830.84   1
   0   6   2 72877.2 2105.88   2
   0   2  -6 74879.3 1589.12   4
   6  -2   0 74965.4 2020.03   1
   6   0   2 72749.4 2011.47   1
   0  -6   2 76379.1 1785.45   5
  -6   0  -2 76592.7 1833.49   4
   0   6   2 75341.0 1680.68   1
   2   0   6 75812.3 2096.32   1
   0   6  -2 74513.9 1772.36   1
   0   2  -6 72020.0 1979.16   3
  -2   6   0 73763.8 2035.44   2
   6   0   2 74121.0 1833.42   4
   2  -6   0 78167.2 1780.99   1
  -2   0   6 76330.0 1984.23   3
   0  -6   2 76121.7 2035.76   2
  -2   6  -2-10.1297 65.9824   1
  -2  -6   2-3.60176 70.9922   3
   6   2   2 36.3015 52.6009   4
  -2  -6   2-9.11047 66.7693   2
   2   6   2 21.8481 30.6227   1
   2   2   6 70.5980 94.4734   1
  -6  -2   2 67.2616 60.9476   1
  -6  -2   2 31.5347 64.2826   4
  -2   6  -2 13.9306 86.6646   2
   2   6   2 98.4200 100.011   2
  -2  -6   2 17.8706 33.1259   1
  -2  -6   2-17.2398 76.5669   4
   2  -2  -6 62.7257 74.7323   3
   2   2   6 26.4837 56.3070   2
   6   2   2 65.2045 80.5546   1
   6  -2  -2-1.42492 92.8447   1
   6  -3   3 19318.7 878.239   1
   3  -6   3 18258.2 704.464   3
  -3   6   3 19086.6 868.643   2
   3  -6   3 18441.2 760.875   1
  -3   3   6 18314.8 740.805   5
  -6  -3  -3 19791.1 790.759   1
   3  -3   6 19166.8 881.728   1
   3   3  -6 18881.5 682.166   4
   3   3  -6 18349.9 834.781   3
  -3  -3  -6 19219.3 773.555   2
  -3   6   3 18821.4 768.258   1
  -3  -3  -6 18378.6 704.968   4
   6   3  -3 19165.9 893.631   3
   3   6  -3 19499.4 811.544   3
   3   6  -3 17865.5 780.789   5
  -3   3   6 18524.7 738.804   3
  -6  -3  -3 20382.0 775.542   4
   3  -6   3 17449.2 727.191   2
  -3   1   6 4480.31 353.338   3
   6  -1   3 3709.94 356.873   1
  -6  -3  -1 4090.02 327.951   4
   6  -1   3 4357.36 280.107   4
  -3   6   1 4004.44 307.363   1
   1   3  -6 4597.57 376.810   3
   3   6  -1 3865.37 309.145   5
   1  -3   6 4123.88 194.940   2
  -3  -6  -1 4482.36 380.021   4
   3  -6   1 3870.11 290.539   1
   3   6  -1 4114.92 321.438   3
   3   1  -6 4129.44 265.986   4
   6  -3   1 4545.38 376.986   1
  -1  -3  -6 3235.81 290.513   2
  -1   3   6 4234.79 310.324   3
  -6  -1  -3 4308.36 298.183   4
  -3   6   1 4034.47 366.302   2
  -1   6   3 3664.51 357.427   2
  -1   6   3 3989.29 276.351   1
   3  -1   6 4248.83 388.064   1
   6   1  -3 3794.39 361.792   3
   1  -6   3 3485.57 268.016   3
   6   3  -1 3859.13 309.221   1
   1  -6   3 3745.25 277.281   1
  -1   3   6 4145.92 318.340   2
   3   1  -6 4044.46 348.350   3
   1  -3   6 3436.11 341.113   1
   1  -3   6 3971.78 163.758   4
  -3   1   6 4614.55 356.262   5
  -6  -3  -1 4520.87 319.678   1
  -3  -1  -6 4288.75 219.640   4
   1   6  -3 3948.45 329.001   2
   1   6  -3 3446.71 289.405   3
   1  -6   3 4470.88 353.402   2
   1   3  -6 4028.83 237.658   4
  -3  -1  -6 4330.18 258.688   2
  -6  -1  -3 4080.67 346.869   1
   3  -6   1 4078.65 343.202   2
   3   6   1 4280.09 384.031   2
   6   1   3 5573.05 422.640   1
  -1  -6   3 5096.16 292.820   1
   3  -1  -6 5140.05 364.507   3
  -6  -1   3 5063.52 385.128   1
  -1  -3   6 5151.63 253.269   4
  -3  -6   1 5107.70 193.551   1
   1   6   3 5348.31 442.188   2
  -3   6  -1 4458.81 341.451   1
   6   3   1 5199.17 363.017   1
  -6  -3   1 5092.48 340.607   1
  -1  -6   3 5162.42 388.250   2
   6   1   3 4907.73 317.739   4
   6  -3  -1 5275.96 407.539   1
   6  -1  -3 4662.44 374.178   3
   1   3   6 5130.88 356.253   2
   3   1   6 5766.73 445.722   1
   3  -6  -1 4670.84 315.042   1
  -3  -6   1 5381.64 407.812   4
  -6  -3   1 5516.27 382.021   4
  -1   6  -3 4901.19 349.713   1
   6  -1  -3 5178.86 412.933   1
  -3   6  -1 4960.77 387.520   2
  -1  -6   3 5317.44 347.591   3
  -1  -6   3 5742.45 364.048   5
  -1   6  -3 4917.64 391.628   2
  -6  -3   3 19103.7 783.011   4
  -3   6  -3 19211.9 829.733   1
   3  -3  -6 19103.0 720.018   3
  -3  -3   6 19446.7 669.556   4
   6   3   3 17608.9 785.821   1
   6  -3  -3 18729.6 847.081   1
  -3  -6   3 20476.8 847.181   2
   3  -6  -3 19410.4 479.838   3
   6   3   3 20094.8 776.003   4
  -3  -6   3 18723.8 796.239   4
   6  -3  -3 19082.2 765.481   3
   3   3   6 19327.3 723.812   2
   3   3   6 18960.1 845.685   1
  -3  -6   3 18055.1 785.743   3
   3   6   3 18080.7 625.097   1
   3   6   3 18549.2 867.333   2
  -6  -3   3 19554.7 782.378   1
  -3   6  -3 18261.1 780.930   2
  -4   4   6-44.6704 70.5727   5
   4   6  -4 109.900 119.397   3
  -6  -4  -4 65.6472 77.7942   4
   6   4  -4 79.5077 111.128   5
  -4  -4  -6-33.4899 61.7369   4
   6   4  -4 11.3546 98.2217   3
   4  -6   4-36.3252 91.4873   1
   4   6  -4-11.0932 56.4592   4
   6  -4   4-45.1152 97.0106   1
   4   4  -6-25.1755 57.6758   4
   4   6  -4 28.2914 82.3774   5
  -6  -4  -4 22.6522 68.3293   2
   6   4  -4 56.7861 64.6770   4
   4   4  -6 79.4230 117.767   3
  -4  -6  -4-55.3089 87.8054   4
  -4   4   6-23.0916 63.1436   3
  -4   6   4 125.668 94.6148   1
  -4  -4  -6 89.2952 100.256   2
   4  -4   6-68.9054 92.8800   1
  -6  -4  -4 3.34156 64.4460   1
  -4  -6  -4-45.0973 103.668   2
  -4   6   4 13.3951 95.9160   2
   4   4  -6-57.3812 94.5273   5
   6   2  -4 27278.2 1092.67   5
   6  -2   4 27641.6 1119.87   1
  -6  -2  -4 25296.4 1008.97   1
   2  -6   4 27183.3 966.641   1
   2  -4   6 27394.3 1076.37   1
   2  -6   4 28023.4 944.132   2
  -2   6   4 26936.4 690.601   3
  -4   6   2 27468.3 1083.80   2
   6  -2   4 27025.6 831.687   4
   4   2  -6 26940.7 1053.07   5
  -2   6   4 27721.8 963.085   1
  -6  -4  -2 27514.8 997.054   4
   4  -2   6 26993.0 661.274   4
   2  -6   4 28499.5 965.181   3
   4   2  -6 28134.6 909.263   4
   6  -4   2 26933.9 1063.96   1
  -2  -6  -4 27551.8 1130.19   2
  -2   6   4 26393.8 1076.94   2
  -4  -6  -2 29531.6 1103.84   4
  -2   4   6 27121.0 904.042   3
  -2   4   6 25836.8 888.268   5
   6   2  -4 26113.5 952.830   4
   4   6  -2 26667.3 1019.56   5
  -4  -6  -2 28959.3 775.697   1
  -4  -2  -6 28253.2 910.038   2
   4  -2   6 27311.9 1122.48   1
   6   2  -4 28068.5 1108.66   3
   2   4  -6 26530.3 863.771   4
  -4   2   6 28037.1 1018.88   3
   2   4  -6 26591.1 1046.01   3
  -6  -4  -2 27672.7 926.020   1
   4   6  -2 28102.9 1047.32   3
  -2  -4  -6 26332.5 1008.44   2
   2  -4   6 26924.2 716.321   2
  -4   6   2 26171.3 982.474   1
   2   6  -4 28379.8 1028.56   3
   6   4  -2 27384.6 1116.64   3
  -4  -2  -6 28270.7 838.033   4
  -6  -2  -4 29394.4 935.167   4
  -4  -2  -6 28146.4 1095.99   1
  -4   2   6 27147.1 1004.96   5
  -2   4   6 26465.6 999.840   2
   4  -6   2 27751.9 991.180   1
   4   2  -6 27175.7 1057.98   3
  -6  -4   0 137.160 100.630   4
   6  -4   0 32.2108 86.3281   1
   4   0  -6 53.5316 46.9740   4
   0  -6   4 28.1069 58.7327   1
   0  -4  -6-37.1537 66.1641   2
  -6   0  -4 28.4586 52.8492   4
   6   0   4 7.60832 44.5420   4
   0   6  -4 89.3409 81.6099   3
  -4   0  -6 43.2872 36.7688   4
   0   4   6 93.3735 92.4998   2
   4  -6   0 15.4519 67.4318   1
   6   4   0 81.0517 68.9727   1
  -4   0   6 91.5851 84.9254   3
   4   0  -6-8.87160 80.3256   3
   0   4  -6-3.65038 75.0670   3
  -6  -4   0 32.0383 52.9537   1
  -4   6   0 50.3500 94.3891   2
   4   0   6 88.3981 114.985   1
   0  -6   4-15.2571 65.5510   5
   0   6  -4 1.78879 63.6885   2
   6   0  -4 55.0632 57.1073   5
  -4   0   6-51.4979 105.952   5
   0  -4   6 70.4538 53.0499   2
   6   0   4 24.3925 102.835   1
   0  -4   6 137.473 106.734   1
  -4   0  -6 45.7512 34.8710   2
   0  -6   4 132.117 86.1774   2
   6   0  -4-30.9122 94.6653   3
   0   4   6 61.3274 61.4955   3
  -4   6   0-41.3738 80.1718   1
   0  -4   6 74.6257 40.8961   4
   0  -6   4 12.5457 65.7517   3
   0   6   4 41.6094 92.5962   2
  -4  -6   0-47.1378 85.1972   4
  -4  -6   0 10.9794 27.5017   1
   4   0  -6-30.0239 71.2353   5
  -2  -6   4 25856.4 945.531   4
   6   4   2 27862.5 957.226   1
  -2  -6   4 27773.8 989.647   5
   4  -6  -2 26669.6 948.768   1
   2   6   4 26632.7 1093.96   2
  -2  -4   6 28019.7 840.067   4
  -4  -6   2 27060.6 762.419   1
  -2  -6   4 26303.6 977.865   3
   2  -4  -6 28372.5 865.779   3
  -4  -6   2 27295.5 1023.31   4
  -4   6  -2 26648.4 1021.00   1
  -2  -6   4 26061.0 980.089   2
   4   2   6 25795.5 1068.41   1
   4   6   2 27315.1 767.371   1
  -6  -4   2 26735.5 899.836   1
   6  -2  -4 26832.3 984.646   5
  -2   6  -4 26512.8 982.101   2
  -6  -2   4 26871.7 944.512   4
   6  -2  -4 27867.8 1004.48   3
   6   2   4 28029.2 917.869   4
   6   4   2 29184.6 1018.10   4
   2   4   6 25139.1 1008.26   1
  -2   6  -4 27142.1 1035.38   1
   2   4   6 27266.3 1000.42   2
  -6  -2   4 26789.4 1017.01   1
  -6  -4   2 26010.4 982.990   4
   6   2   4 26947.8 1057.09   1
  -2   4  -6 26219.4 703.685   2
   2   6   4 25822.9 861.463   1
  -4   6  -2 24801.8 974.421   2
   4  -2  -6 26689.8 947.927   3
   6  -4  -2 28797.1 1064.90   1
  -4  -6   4 57.6874 71.1220   2
  -4   6  -4 39.2479 77.5276   1
   6   4   4 49.5701 71.0637   4
   6   4   4-39.3525 77.0569   1
   4   6   4 37.1734 73.6441   2
   4  -4  -6-22.7543 60.3648   3
  -4   4  -6 21.1438 50.8807   2
   4   6   4-6.90273 60.9141   1
   4   4   6-43.4542 61.4502   2
  -6  -4   4-45.3607 81.4429   4
   4   4   6-100.497 101.967   1
  -4  -6   4 125.517 93.8735   4
  -4   6  -4-48.5463 58.2467   2
  -4  -4   6-3.79112 57.8233   4
   6  -4  -4-16.8446 48.4863   5
  -4  -6   4 40.9857 73.6618   3
  -6  -4   4 35.1845 65.7432   1
   4  -6  -4 15.7468 35.4915   3
   6  -4  -4 43.7943 68.7213   3
  -5  -5  -6 18385.7 842.625   4
   6   5  -5 19175.2 966.659   5
   5   5  -6 21093.7 872.224   4
  -5  -6  -5 19154.1 909.107   4
   5   5  -6 22195.0 1014.80   3
  -6  -5  -5 20150.8 884.745   4
  -5   5   6 19277.1 930.132   2
   5   5  -6 20807.9 989.854   5
   6   5  -5 19473.0 981.905   3
  -6  -5  -5 19760.1 903.360   2
  -6  -5  -5 21689.6 885.758   1
   6  -5   5 19249.7 964.287   1
   5  -5   6 19600.5 974.160   1
   5  -6   5 20108.4 954.196   1
   5   6  -5 19362.5 955.600   5
   5   6  -5 19111.1 955.416   3
  -5   6   5 18245.1 945.231   2
  -5  -5  -6 19253.9 907.093   2
   5  -3   6 839.289 208.873   1
  -5  -3  -6 662.854 126.749   4
  -6  -5  -3 806.007 174.401   2
   6   5  -3 689.456 173.403   5
   3   6  -5 1029.76 194.782   3
   6   3  -5 664.117 183.747   3
   5   6  -3 582.563 169.175   3
  -6  -5  -3 927.310 181.462   4
   6   3  -5 939.592 206.787   5
  -5   3   6 806.653 162.448   3
   3  -5   6 666.874 166.345   3
  -5  -6  -3 887.373 131.332   1
   3  -6   5 729.618 129.087   2
   5   3  -6 779.086 143.961   4
  -6  -3  -5 806.202 148.816   2
  -3   6   5 745.808 105.543   3
  -3   5   6 764.191 133.918   3
  -3   6   5 670.572 154.556   1
   6  -5   3 808.958 195.151   1
   6   3  -5 527.423 128.600   4
   6   5  -3 775.587 192.058   3
   5   6  -3 805.572 185.401   5
  -3   5   6 864.372 191.587   2
   5  -6   3 526.894 150.737   1
   3   5  -6 1218.20 218.436   3
  -5  -3  -6 685.037 140.190   2
  -5  -6  -3 462.077 132.713   4
   6  -3   5 940.847 125.110   4
   5   3  -6 526.265 159.127   5
   5   3  -6 780.348 187.919   3
   3  -6   5 1069.89 201.158   1
  -5  -3  -6 500.131 139.052   1
  -5   6   3 531.091 163.246   2
   3   5  -6 879.255 151.054   4
  -6   5   3 799.343 178.499   1
  -6  -5  -3 698.018 128.886   1
  -3  -6  -5 560.088 163.037   2
  -3   6   5 958.950 197.633   2
  -5   6   3 963.357 186.792   1
  -6  -3  -5 765.611 152.186   4
  -6  -3  -5 652.670 156.199   1
  -3   5   6 734.108 130.014   5
   3  -6   5 669.611 145.922   3
   3  -5   6 351.255 116.986   1
  -3  -5  -6 845.614 189.400   2
   5  -3   6 816.663 97.0512   4
   6  -3   5 743.062 205.610   1
   5  -1   6 14089.9 795.475   1
  -1  -5  -6 16293.1 789.507   2
   5  -6   1 15755.3 723.934   1
   6   1  -5 15586.4 781.286   5
   1  -5   6 15469.9 752.836   1
  -5   6   1 14614.0 737.852   1
   1  -5   6 16432.3 760.448   3
  -1   6   5 15206.9 781.378   2
   1  -5   6 14664.5 587.626   2
   5   6  -1 14757.1 762.119   3
  -6   5   1 14742.4 767.304   1
  -1   6   5 15409.3 523.756   3
  -6  -5  -1 15245.3 605.124   1
   1  -6   5 16167.4 714.519   1
   1  -5   6 15771.0 561.417   4
  -6  -5  -1 13601.8 702.393   4
  -5  -1  -6 16656.9 832.995   1
  -1  -6  -5 14755.6 800.015   2
   1  -6   5 14326.8 691.059   3
   6   1  -5 16064.0 794.247   3
  -5   1   6 16049.0 775.773   3
  -1   5   6 15484.9 754.254   2
   5   1  -6 15857.1 771.972   5
   1   6  -5 16086.3 754.834   3
  -5  -6  -1 15484.8 526.502   1
   5   1  -6 14352.1 643.204   4
  -5  -1  -6 15425.2 553.826   4
  -1   5   6 15963.7 614.241   3
   1   5  -6 16129.0 778.253   3
  -6  -1  -5 15600.3 789.268   1
  -5  -1  -6 16643.5 587.493   2
   1  -6   5 15894.4 676.405   2
  -5  -6  -1 14985.6 760.902   4
   5   1  -6 15644.3 771.903   3
   6  -1   5 14851.0 546.431   4
   5  -1   6 15265.8 492.817   4
   6  -5   1 15545.8 751.812   1
   6   1  -5 15978.9 697.621   4
  -6  -1  -5 15284.0 592.219   4
   6  -1   5 14493.5 802.615   1
   6   5  -1 15844.1 630.037   1
  -5   6   1 17597.4 817.169   2
   6   1   5 15658.2 599.451   4
   5  -1  -6 13982.6 687.958   5
   6   5   1 14344.0 608.094   1
   6   1   5 15802.6 811.796   1
   6  -1  -5 14310.7 664.736   4
   5   6   1 15740.8 538.999   1
  -6   5  -1 15457.1 789.427   1
   6  -5  -1 14575.1 725.455   1
  -1  -5   6 15739.0 751.495   3
  -6  -5   1 14228.6 575.898   1
  -1  -6   5 13923.8 684.791   5
   6  -1  -5 15553.8 739.718   3
  -5   6  -1 14112.0 739.715   1
  -5   6  -1 14140.7 721.699   2
   5  -6  -1 14394.0 693.030   1
  -5  -6   1 14450.0 731.516   4
  -1  -6   5 15239.5 643.645   4
  -6  -1   5 15017.7 761.335   1
  -5  -6   1 14449.5 508.922   1
  -1   6  -5 14532.1 633.363   2
   5   1   6 14877.2 557.452   4
  -1  -5   6 15403.3 578.680   4
  -1  -5   6 14749.1 726.341   5
  -1  -6   5 14002.8 695.558   3
   5  -1  -6 15088.7 709.842   3
   1  -6  -5 14774.9 783.337   2
   1   6   5 16251.0 818.718   2
   1   5   6 14338.2 735.678   2
  -1  -5   6 14277.4 604.195   2
   6  -1  -5 16004.5 747.385   5
  -6  -5   1 14641.7 715.461   4
   5   1   6 14517.5 790.513   1
  -1  -6   5 15910.4 687.963   1
   1  -5  -6 15630.4 755.350   2
  -1  -6   5 14575.6 670.121   2
   5   3   6 484.209 152.223   1
  -5  -6   3 804.212 131.529   1
   5   6   3 752.235 130.500   1
   3   6   5 660.579 145.714   1
  -3  -5   6 705.512 132.766   4
   6  -3  -5 706.903 146.008   5
  -3   5  -6 996.608 222.142   1
   5  -3  -6 895.388 157.501   3
   3   5   6 532.604 156.753   1
  -3  -6   5 654.009 154.029   3
  -5   3  -6 647.718 100.485   2
  -5  -3   6 628.704 132.005   4
  -3   6  -5 465.863 116.234   2
   6   5   3 721.134 148.376   1
   6  -3  -5 865.345 157.508   3
   5  -3  -6 409.869 109.751   5
  -3   5  -6 593.490 118.070   2
  -6  -5   3 565.502 152.990   4
   6   3   5 570.536 156.929   1
  -3  -6   5 685.147 160.419   5
   3  -5  -6 745.149 122.427   3
   6  -5  -3 850.943 192.881   1
  -6  -5   3 544.718 124.209   1
   3  -6  -5 755.059 98.7492   3
  -3  -6   5 731.823 153.907   4
   6  -5  -3 418.700 115.341   3
  -5   6  -3 639.313 148.121   2
  -6  -3   5 621.408 146.107   1
   3   6   5 684.949 174.839   2
  -5   6  -3 577.981 149.582   1
  -5  -6   3 587.739 140.186   4
  -6   5  -3 663.400 145.039   2
  -6  -3   5 479.668 117.421   4
  -3   6  -5 693.836 170.720   1
   5  -6  -3 777.427 118.805   3
  -3  -6   5 965.932 172.448   2
   6   3   5 800.507 154.874   4
   3   5   6 508.849 137.784   2
   5  -6  -5 17089.0 635.081   5
   6   5   5 17836.5 832.809   1
  -6  -5   5 18494.6 824.206   4
   5  -5  -6 18797.4 717.864   3
   5   6   5 16679.3 765.913   1
  -5   5  -6 17592.0 674.124   2
  -5   6  -5 18187.0 758.847   2
  -6   5  -5 17966.2 726.776   2
   5  -6  -5 18202.7 648.070   3
  -5  -6   5 21151.9 875.774   4
   5   5   6 18250.6 864.428   1
  -6  -5   5 19085.8 819.874   1
  -5  -6   5 19126.8 938.713   3
  -5  -5   6 20190.0 823.172   4
   6  -5  -5 17544.4 709.793   5
   6  -5  -5 17698.2 712.154   3
   6   6  -6 151.319 114.290   3
  -6  -6  -6 42.6854 78.6240   4
   6  -6   6 3.37288 115.338   1
  -6   6   6 217.886 137.121   2
  -6   6   6-1.12180 82.5551   1
   6   6  -6 173.709 127.537   5
   6   6  -6-23.1507 45.9116   4
   4  -6   6 18570.7 864.188   3
   6   6  -4 17328.7 914.927   5
  -6  -6  -4 17789.2 738.633   1
  -4   6   6 16947.9 676.996   3
  -6  -4  -6 18721.7 879.758   1
   4  -6   6 17106.3 873.011   1
   4   6  -6 18062.3 811.302   4
   6   4  -6 18584.9 948.176   5
   6  -6   4 16831.3 880.203   1
   6   6  -4 17358.5 913.854   3
   6   4  -6 16987.2 908.945   3
   6  -4   6 18759.6 961.651   1
  -6  -4  -6 16813.7 795.180   2
  -4   6   6 18313.3 909.354   2
  -6  -4  -6 17130.3 757.191   4
  -6  -6  -4 18129.6 876.826   4
   4   6  -6 17747.0 903.734   3
  -6   6   4 16736.5 880.515   2
  -4  -6  -6 19041.1 947.075   2
  -4  -6  -6 16976.2 849.899   4
  -6   6   2 59.6614 78.0859   1
  -6  -2  -6 68.5405 54.7215   2
   2  -6   6 0.81844 75.3195   1
  -2  -6  -6-63.2523 100.056   2
   2   6  -6 58.0426 85.8272   3
   6   6  -2 35.8240 114.309   3
  -2   6   6 32.7209 48.7660   3
   6  -6   2 5.04023 72.2521   1
  -6  -2  -6-46.8008 88.2402   1
  -6   6   2 125.694 118.975   2
   6  -2   6 0.97800 36.1553   4
   6   2  -6-31.3934 58.6013   4
  -2   6   6-18.8293 50.2508   5
   6   2  -6-24.2289 84.5441   5
   6   2  -6-157.879 140.886   3
   6  -2   6-57.2841 123.962   1
   2  -6   6 9.19316 54.4049   2
  -6  -6  -2 36.4170 47.9186   1
   2  -6   6-26.1964 68.8044   3
  -6  -2  -6 36.6830 57.3998   4
  -6  -6  -2 6.93039 80.0361   4
  -2   6   6-70.6505 78.8371   2
   6   0  -6 23575.9 993.757   5
  -6   0  -6 23418.2 740.886   4
   0  -6   6 23770.8 981.193   3
   0  -6   6 24283.3 967.164   1
   0   6   6 23435.8 1029.05   2
  -6  -6   0 22239.8 976.192   4
   0  -6   6 23618.7 880.998   2
   0   6   6 22852.5 790.726   3
  -6   6   0 24989.9 1023.94   2
   6   6   0 23371.4 778.566   1
   0  -6  -6 24212.4 1059.91   2
   6   0   6 26164.0 1138.65   1
  -6  -6   0 23499.7 763.181   1
   0   6  -6 24527.7 1007.67   3
  -6   6   0 23188.0 1023.84   1
   6  -6   0 22937.0 964.797   1
   6   0  -6 24014.4 1001.94   3
   0  -6   6 23200.0 811.940   4
   6   0  -6 23930.2 913.637   4
   6   0   6 24430.0 759.973   4
   6  -2  -6-87.1096 88.0406   3
  -6  -6   2 10.7412 85.8451   4
   2   6   6 29.6400 94.5521   2
  -2  -6   6-66.9903 101.311   3
   6   2   6-25.9911 87.1204   1
  -2  -6   6 30.7657 54.7975   4
   6  -6  -2 52.4028 103.177   1
  -2   6  -6-3.06193 59.6458   2
  -6  -6   2 66.1299 62.1943   1
  -6   6  -2-11.0498 65.5600   2
   6   6   2-15.7159 57.7895   1
  -2  -6   6 80.9175 63.3076   2
   6   2   6 16.4606 52.4662   4
  -2  -6   6-30.3694 83.1877   5
   6  -2  -6-0.73237 67.8840   5
   2   6   6 86.4683 98.7283   1
  -4  -6   6 19992.9 825.174   4
  -6  -6   4 18748.5 768.095   1
  -6   6  -4 18435.2 811.947   2
  -4   6  -6 18741.3 768.245   2
   6  -4  -6 17889.3 771.064   5
   6   4   6 19395.0 934.328   1
  -6   4  -6 18823.0 683.670   2
   6  -4  -6 19014.4 786.220   3
   6   6   4 18495.7 797.047   1
  -4  -6   6 19320.1 932.473   5
   6  -6  -4 18591.9 693.311   5
  -6  -6   4 20054.3 886.474   4
   6  -6  -4 18916.4 698.430   3
   4   6   6 19429.4 855.782   1
  -4  -6   6 19952.6 965.722   3
  -6  -4   6 23043.4 888.565   4
   4  -6  -6 18038.1 652.979   3
   6  -6  -6 37.6342 50.4223   5
  -6   6  -6 80.9372 78.9792   2
   6  -6  -6 42.4793 67.1264   3
  -6  -6   6-35.0934 70.3649   4
  -6  -6   6 3.45743 80.9889   3
   6   6   6 13.4315 85.8331   1
  -6   6  -6 57.8285 131.886   1
   7   0   1 35391.9 1098.13   4
   0   1  -7 34036.3 794.910   4
   7   0  -1 33702.5 1215.55   1
   1   0   7 34348.8 849.016   2
   0  -7   1 34601.3 947.727   3
   0   7  -1 32919.1 894.185   1
   0   7  -1 33327.5 1265.52   2
   1   7   0 36076.9 1307.97   2
  -7  -1   0 33246.1 1095.33   4
   1   7   0 33943.3 942.608   3
  -1   7   0 34716.5 953.398   1
  -7  -1   0 32896.9 1159.56   1
   0  -7   1 36379.3 862.608   1
   1  -7   0 34320.3 900.862   1
   1   0  -7 35983.1 1172.89   3
   7  -1   0 33935.5 1218.45   1
   1  -7   0 36121.8 837.292   5
   0   7   1 36029.5 1327.53   2
   0   7   1 33582.1 817.379   3
  -1   0   7 35314.2 1193.91   3
   0   1   7 34371.0 953.694   2
   0  -7   1 34875.2 1271.04   2
   0   7   1 33613.5 855.497   1
   7   1   0 33025.6 1181.29   1
   1  -7   0 32535.9 825.744   3
   0   1   7 34249.4 1171.53   3
  -1   7   0 34792.0 1297.26   2
   0  -7   1 32170.9 923.649   5
   7   0   1 31849.3 1187.49   1
   1   7   0 34488.1 945.299   5
   0   7  -1 32842.4 948.542   3
  -2  -1  -7 22818.3 684.945   2
  -2   1   7 25216.0 961.033   3
   2   7  -1 25161.8 1035.59   2
   2  -7   1 23731.0 706.208   3
   1  -7   2 24982.3 781.031   5
   1   2  -7 24516.6 974.432   3
   2  -7   1 25508.2 1013.90   2
   1  -2   7 24221.8 1043.16   1
   7   2  -1 25010.8 967.145   1
  -1   7   2 24763.0 1063.17   2
   7  -2   1 23269.5 985.855   1
   7  -1   2 24860.8 1021.86   1
  -2   7   1 23880.7 812.875   1
  -7  -2  -1 26190.4 956.963   1
   1  -7   2 24726.8 999.819   2
   2   7  -1 24296.6 841.079   3
   2   1  -7 25275.2 740.817   4
  -7  -1  -2 23723.2 954.526   1
  -1   2   7 23924.3 925.526   3
  -1   7   2 23166.8 756.940   1
   7  -2   1 24630.0 870.133   4
  -7  -2  -1 25581.9 921.721   4
   1   7  -2 25418.0 854.967   3
   1   7  -2 24285.6 1010.25   2
   2  -7   1 24312.5 791.027   1
   2   1  -7 23840.7 956.799   3
   1   2  -7 24861.6 689.217   4
  -2   7   1 24999.2 1044.70   2
  -1   2   7 24710.7 837.048   2
   7   1  -2 25098.9 994.362   1
   7  -1   2 24417.5 850.738   4
   1  -7   2 23813.8 763.381   1
  -2   1   7 25839.9 964.460   5
   2   7  -1 23905.4 832.006   5
   1  -7   2 24411.3 775.522   3
   2  -1   7 23475.8 1035.78   1
  -7  -1  -2 25178.8 880.072   4
   7   1   2 26054.2 1019.84   1
  -1  -7   2 24222.4 842.170   3
   2  -1  -7 25776.3 946.936   3
  -7  -2   1 26480.8 957.500   1
  -2   7  -1 24077.6 850.090   1
   2   1   7 25178.8 718.831   2
  -1   7  -2 24799.3 837.531   1
   7  -1  -2 23941.4 1001.34   1
  -1  -7   2 25487.7 1034.63   2
   7   2   1 24715.6 910.622   4
   2   7   1 25799.3 1074.94   2
   2  -7  -1 24240.0 791.953   1
   7   1   2 25157.0 885.811   4
   1   7   2 25185.6 644.908   1
   2   7   1 25345.6 817.678   3
  -7  -1   2 24154.0 962.226   1
  -7  -1   2 24827.9 913.782   4
  -1  -7   2 25505.3 685.370   1
  -1  -7   2 24200.5 834.703   5
   1   2   7 23259.4 813.398   2
   2   1   7 26090.6 1078.90   1
   1   2   7 24669.0 964.203   3
   7   2   1 24495.1 965.646   1
  -7  -2   1 24630.8 920.437   4
  -2   7  -1 26122.8 1051.52   2
  -1   7  -2 24912.5 1041.54   2
   1   7   2 26420.9 1115.33   2
   7  -2  -1 25198.3 1012.35   1
  -7  -2  -3 21398.5 897.903   1
   3  -7   2 21294.9 886.203   2
   2   7  -3 19837.4 831.864   3
   3   7  -2 20427.7 840.082   3
   3   2  -7 21426.5 729.040   4
  -3  -2  -7 21024.6 752.650   2
  -7  -3  -2 20278.7 838.282   4
  -7  -2  -3 21825.1 828.078   4
  -2   3   7 21387.9 843.197   3
  -3   2   7 22345.6 882.931   5
  -2  -3  -7 21181.3 806.503   2
   2   3  -7 21259.7 701.357   4
   7  -2   3 21079.1 763.391   4
   7  -2   3 21354.5 969.029   1
  -2   3   7 21652.7 843.873   5
  -2   3   7 21164.6 839.948   2
   2  -3   7 21737.1 980.909   1
   7   2  -3 21529.6 990.629   3
  -3   7   2 21427.1 965.519   2
   3  -7   2 20436.4 790.179   1
   2   3  -7 21244.8 935.605   3
  -3   7   2 21039.6 812.313   1
  -3  -2  -7 22387.9 702.413   4
  -2   7   3 21192.8 970.447   2
  -7  -3  -2 22523.8 869.459   1
   3  -2   7 18496.3 934.115   1
   3  -7   2 20316.3 708.662   3
   3   7  -2 20518.0 836.416   5
   7  -3   2 20482.6 945.047   1
   3   2  -7 22383.6 941.774   3
   2  -7   3 21426.3 764.771   3
   2  -7   3 20437.2 785.814   1
   7   3  -2 20568.8 860.618   1
   2  -7   3 21273.0 884.267   2
  -3   2   7 21555.9 882.258   3
  -2   7   3 19846.7 768.243   1
   3   7   0 9430.85 609.560   2
   7   0   3 10544.0 645.846   1
   7   0   3 10399.5 505.407   4
  -3   0   7 10118.0 598.233   5
  -3   0  -7 10672.3 333.115   2
  -3   0  -7 10910.5 305.751   4
   3  -7   0 10752.7 506.024   1
  -3  -7   0 10953.6 650.507   4
   0  -7   3 10193.4 499.845   3
   0   7  -3 10327.8 608.576   2
   0  -7   3 10498.3 502.910   5
   3   0  -7 11181.2 482.405   4
   0   3   7 10148.8 554.449   3
  -3   7   0 10962.8 553.064   1
   0   3   7 10376.6 530.092   2
   0   3  -7 10272.8 608.792   3
  -3   0   7 10860.7 620.498   3
   0  -7   3 10830.3 625.174   2
   0  -7   3 10705.4 460.995   1
   3  -7   0 11262.9 640.672   2
   0   7   3 10198.1 666.074   2
   0  -3   7 10621.2 343.701   4
   3   7   0 11036.3 547.623   3
   3   0   7 10543.1 665.332   1
   3   0  -7 10761.3 592.511   3
   7   0  -3 10645.1 629.833   1
   7  -3   0 11354.5 650.482   1
   0   7   3 9917.95 435.155   1
   7   0  -3 10526.5 634.716   3
  -7  -3   0 10670.5 550.169   1
  -3   7   0 10061.2 625.042   2
   3  -7   0 10431.4 368.351   3
   7   3   0 11190.6 592.038   1
  -7  -3   0 9555.83 551.868   4
   0   7  -3 10285.9 527.349   3
   0  -3   7 10874.1 385.761   2
  -7  -3   2 20628.5 827.317   1
  -2  -7   3 20628.6 809.466   5
  -2  -7   3 19237.0 858.894   4
   7   2   3 20892.2 917.427   1
   2   7   3 20292.3 969.419   2
  -2  -7   3 23120.0 691.674   1
  -7  -2   3 21316.8 877.437   1
  -2  -7   3 20738.3 821.570   3
   7   2   3 19520.7 781.925   4
  -2  -7   3 20241.2 900.786   2
   3   2   7 20628.9 954.205   1
  -2   7  -3 19489.1 890.984   2
  -2   7  -3 19522.3 824.126   1
  -3   7  -2 20092.9 836.388   1
   3  -7  -2 21171.0 771.034   1
   2   3   7 18663.3 897.808   1
   7  -2  -3 20436.3 926.729   1
  -3  -7   2 19890.8 889.324   4
  -7  -2   3 19928.9 824.623   4
   7   3   2 21196.9 839.361   4
  -3   7  -2 19152.6 881.499   2
   3   7   2 21742.3 986.330   2
  -7  -3   2 20025.3 843.402   4
   7   3   2 19824.2 854.606   1
   2   3   7 21503.8 802.940   2
   2   7   3 20424.3 636.126   1
   3  -2  -7 22195.0 841.753   3
   7  -3  -2 20354.7 924.581   1
   3   2   7 20417.8 690.404   2
  -3  -7   2 21790.3 951.995   2
  -2  -3   7 20510.0 655.550   4
   3   7   2 20219.7 533.491   1
   2  -3  -7 19960.5 780.570   3
   4   7  -3 9007.83 571.378   3
   4  -3   7 8843.19 271.471   4
   7   3  -4 8597.81 612.227   5
  -7  -3  -4 8728.86 553.086   1
   4   3  -7 8511.33 465.816   4
  -4   3   7 8650.01 535.608   3
   3   7  -4 8022.95 534.963   3
   7  -4   3 8682.92 600.452   1
   3   4  -7 8216.03 572.868   3
  -3   4   7 7398.09 507.997   2
  -4   7   3 9093.04 547.174   1
  -3   7   4 8713.74 525.796   1
  -4   3   7 9446.40 548.390   5
  -3   4   7 8233.35 484.503   5
   7   4  -3 8627.01 621.534   3
   4   3  -7 8367.48 580.777   3
  -7  -3  -4 9535.85 525.979   4
   3  -7   4 8212.76 511.351   1
  -4  -7  -3 8110.89 583.236   4
   4   7  -3 8465.28 558.733   5
   3  -7   4 9274.20 513.142   3
  -3   4   7 8459.83 494.039   3
   3  -4   7 7764.91 575.824   1
   7  -3   4 8021.04 597.796   1
   3   4  -7 9119.24 472.095   4
  -3   7   4 8537.53 600.154   2
  -7  -4  -3 9225.98 529.497   1
   4  -3   7 7496.50 577.487   1
  -4  -3  -7 8431.31 506.131   2
   3   7  -4 8059.36 543.596   5
  -7  -4  -3 9473.02 551.350   4
   7  -3   4 8837.34 447.858   4
  -3  -4  -7 9462.72 566.319   2
  -4  -3  -7 8343.90 449.641   4
   4  -7   3 8729.70 530.867   1
   7   3  -4 8767.97 622.445   3
   3  -7   4 8718.78 510.956   2
  -4   7   3 9610.46 634.916   2
   4   7  -1 26328.7 1007.55   3
   1  -7   4 25424.9 902.923   1
   1  -4   7 25271.5 729.358   2
  -4   7   1 25882.8 986.447   1
  -4  -1  -7 25254.4 807.918   2
   4   7  -1 26074.2 1006.40   5
  -1   7   4 26489.0 898.872   1
   7   1  -4 25971.9 1095.92   3
   1   7  -4 26263.1 990.021   3
   4  -7   1 26362.1 948.091   1
  -1   4   7 26562.7 994.694   2
  -1   7   4 26259.9 1119.55   2
   1   4  -7 26328.0 1068.21   3
   4  -1   7 25437.3 1120.96   1
   7   4  -1 26960.0 970.290   1
  -7  -1  -4 27235.2 1080.52   1
   7  -1   4 26195.2 861.762   4
  -7  -4  -1 26738.0 947.594   1
   1  -4   7 26649.0 677.203   4
  -7  -1  -4 25583.4 886.612   4
   1   7  -4 25873.8 997.883   2
  -4  -1  -7 25565.1 725.750   4
  -7  -4  -1 25894.3 1004.58   4
   4   1  -7 25309.5 1034.20   3
   1  -4   7 26475.1 1093.04   1
  -4   1   7 27879.9 1066.47   5
   1  -7   4 26134.4 1002.75   2
  -4   1   7 24312.0 1020.95   3
  -1   4   7 25232.0 925.424   3
   4   1  -7 27489.3 894.655   4
   1  -7   4 26094.4 933.408   3
  -4  -7  -1 26613.5 1096.22   4
   7  -4   1 25563.6 1058.25   1
  -1  -4  -7 26430.9 988.937   2
  -4   7   1 27602.6 1114.46   2
   7  -1   4 27730.8 1139.65   1
   1   7   4 27671.9 1174.42   2
  -4  -7   1 25487.0 1064.99   4
   1   4   7 27908.7 1026.38   2
  -1  -7   4 28046.0 995.013   3
  -1  -7   4 26418.5 1003.06   4
  -1  -7   4 28840.7 910.689   1
   4   1   7 26599.6 1134.65   1
  -1  -7   4 27950.8 1069.48   2
   7  -1  -4 26097.1 1065.53   3
   7   1   4 26570.2 905.392   4
  -1   7  -4 25848.5 1003.35   1
   4   7   1 27460.3 649.270   1
  -1  -7   4 26182.6 958.503   5
  -1  -4   7 27157.4 835.606   2
   7   1   4 26819.8 1119.86   1
  -4  -7   1 28016.7 678.287   1
   4  -7  -1 26927.0 957.018   1
   7   4   1 26838.5 988.591   1
  -1  -4   7 27913.2 789.963   4
  -1   7  -4 25416.0 1027.43   2
  -7  -1   4 30111.2 1125.98   1
   7  -4  -1 26960.3 1087.36   1
  -4   7  -1 26148.0 1071.12   2
  -4   7  -1 25857.6 1019.42   1
  -7  -4   1 26831.3 943.961   1
  -7  -4   1 27420.8 1034.85   4
   1   4   7 25378.8 965.095   3
   4  -1  -7 26854.3 1020.66   3
   7   4   3 9070.22 544.112   4
  -4   7  -3 8788.38 573.388   1
  -7  -4   3 8263.87 499.502   1
  -4  -7   3 9344.79 598.316   2
   4   7   3 8892.17 609.247   2
  -7  -3   4 8371.72 533.379   1
   4  -7  -3 8623.87 290.043   3
   7   3   4 9140.33 516.627   4
   4   7   3 8654.09 389.176   1
   7   4   3 8714.12 546.583   1
  -3   7  -4 8610.89 550.864   2
   3   7   4 8487.33 597.492   2
  -4  -3   7 8496.04 444.264   4
  -3  -7   4 8438.35 541.048   3
   4  -7  -3 8425.51 287.200   5
   3   7   4 7929.83 419.384   1
   4   3   7 9393.25 621.402   1
  -4  -7   3 8891.83 560.790   4
   7  -4  -3 8037.54 563.611   1
   7   3   4 8450.22 567.835   1
   7  -3  -4 8574.53 525.157   3
  -3  -4   7 8254.17 424.365   4
   3  -4  -7 8501.17 462.656   3
  -3  -7   4 8996.23 546.331   5
  -7  -4   3 9283.89 560.542   4
   3   4   7 8451.38 503.130   2
   3   4   7 8503.94 576.322   1
  -4   7  -3 7511.38 516.486   2
  -7  -3   4 8121.59 511.243   4
  -3  -7   4 7496.17 525.428   2
  -3   7  -4 7880.90 547.496   1
   4  -3  -7 8175.92 484.870   3
  -3  -7   4 8349.52 527.843   4
   4  -5   7 18236.9 896.606   1
  -5  -4  -7 17228.3 714.272   4
   7  -5   4 18650.3 914.444   1
   7   4  -5 17019.1 898.131   3
  -5   4   7 17997.7 782.953   3
   5  -7   4 18477.4 849.741   1
   5   7  -4 16840.7 854.508   5
   7  -4   5 17626.6 914.311   1
  -4  -5  -7 18660.6 800.235   4
  -4  -7  -5 17254.8 861.003   4
   4  -7   5 18988.9 797.596   3
   5   4  -7 17853.1 904.608   3
  -7  -5  -4 16926.3 736.571   1
  -7  -4  -5 17873.9 761.973   4
  -4   7   5 17241.3 813.551   1
  -4   5   7 20161.9 895.974   2
   4   7  -5 18339.2 873.104   5
   5  -4   7 17944.5 918.927   1
  -7  -4  -5 20371.8 864.291   1
  -4   7   5 18619.5 917.646   2
   4   5  -7 18958.5 915.132   3
  -5   7   4 17092.5 881.609   2
   7   5  -4 18896.2 946.528   5
   5   7  -4 18699.8 891.735   3
  -5  -7  -4 18198.1 887.339   4
   7   5  -4 16799.6 906.890   3
  -4   5   7 17730.3 718.536   5
   4  -7   5 12408.1 708.657   1
  -7  -4  -5 17136.6 769.126   2
   5   4  -7 17618.6 893.438   5
  -4   5   7 16305.1 701.273   3
   5   4  -7 17670.7 738.935   4
  -7  -5  -4 18394.8 812.660   4
  -5  -4  -7 16935.8 782.536   2
   4   5  -7 18116.2 742.539   4
   4  -5   7 17564.8 848.609   3
   4   7  -5 18360.6 872.807   3
   7   4  -5 18986.3 945.772   5
  -4  -5  -7 18124.9 854.818   2
  -2   7   5 1606.95 128.672   5
  -2   7   5 1658.27 276.818   2
  -5  -2  -7 2050.15 302.468   1
  -7  -2  -5 1528.62 192.344   4
   2  -7   5 1397.47 211.465   3
   7  -5   2 1437.81 246.082   1
   2  -5   7 1443.70 140.151   2
   7   5  -2 1434.79 265.054   3
   5   7  -2 1611.89 250.596   5
  -5   2   7 1217.08 214.537   5
   2  -5   7 1582.21 249.276   3
  -2  -5  -7 1313.26 215.670   2
   2  -7   5 1213.04 188.633   2
   5   2  -7 933.719 208.348   3
  -5   7   2 1602.13 265.000   2
   7  -2   5 1205.97 250.214   1
  -7  -5  -2 1260.04 214.086   4
  -2   5   7 1311.25 178.390   3
   2  -5   7 1372.08 134.521   4
  -5   2   7 1386.61 231.255   3
  -5  -2  -7 1387.02 185.536   2
   2   5  -7 1455.11 255.455   3
   5   7  -2 1254.12 229.661   3
  -5   7   2 1141.52 204.854   1
   2  -5   7 1549.64 248.401   1
  -7  -5  -2 1436.49 190.507   1
   7  -2   5 1636.11 176.072   4
   5  -2   7 1428.46 112.342   4
  -2   5   7 1403.09 237.752   2
  -2   5   7 1652.64 205.281   5
   7   2  -5 1398.90 246.196   3
   2   7  -5 1328.18 234.455   3
  -2   7   5 1387.52 119.590   3
   5   2  -7 1587.12 203.279   4
   5  -2   7 1293.23 255.798   1
   5   2  -7 1419.72 235.387   5
   2  -7   5 1111.32 200.012   1
   5  -7   2 1233.99 207.922   1
  -7  -2  -5 1577.58 247.539   1
  -2   7   5 1752.19 229.701   1
  -5  -7  -2 1125.92 224.829   4
  -5  -7  -2 1331.73 135.319   1
   7   2  -5 1242.58 233.644   5
  -5  -2  -7 1171.73 147.830   4
   7   0  -5 24206.6 1036.41   5
   5  -7   0 21825.0 915.275   1
  -7   0  -5 25390.5 825.581   4
   0  -5   7 24274.8 812.315   2
   0  -7   5 26156.1 933.491   1
  -7  -5   0 23430.7 848.936   1
   5   0  -7 25602.2 906.490   4
   0  -5   7 24845.2 1043.17   1
   7   0   5 24284.3 813.890   4
  -5  -7   0 22754.4 1019.03   4
   0  -7   5 26005.0 1003.68   2
   5   0  -7 24798.6 1015.28   5
   7   5   0 23500.4 884.951   1
  -5   0  -7 23854.3 677.611   4
   7   0   5 21843.4 1056.37   1
   0   5  -7 23599.6 1023.04   3
   5   7   0 24650.9 1005.55   3
   0  -5   7 25606.0 747.319   4
   0   7  -5 25436.2 999.306   3
   0   5   7 23789.6 880.522   3
   5   0  -7 23887.9 1002.17   3
   0   7  -5 25323.7 944.503   2
   0  -7   5 25083.6 954.624   5
  -5   7   0 24031.7 1012.17   1
  -7  -5   0 23725.5 993.521   4
   7   0  -5 24109.6 1036.42   3
   5   0   7 25317.8 1132.62   1
   0   7   5 23092.8 1066.96   2
   7  -5   0 24987.9 1036.42   1
   0  -7   5 23779.3 943.277   3
   0   5   7 23717.2 993.082   2
   0   7   5 22702.5 710.783   3
  -5   7   0 26101.3 1078.29   2
  -5   0  -7 22342.1 702.157   2
   0  -5  -7 24575.0 1008.98   2
  -5  -7   0 24259.5 667.954   1
   5  -2  -7 949.356 183.812   3
  -2   7  -5 1026.78 182.549   2
   2   7   5 771.942 141.405   1
  -2   7  -5 1019.94 204.522   1
   7   2   5 1292.63 178.441   4
  -2  -7   5 730.721 160.261   5
  -2  -5   7 882.502 145.348   2
   7   2   5 920.266 205.630   1
  -2  -5   7 858.236 128.891   4
   5  -7  -2 860.123 168.189   1
   2   5   7 1068.71 203.426   1
   7  -2  -5 669.783 160.850   3
  -7  -5   2 782.159 167.721   4
  -2  -7   5 659.697 134.640   1
  -7  -5   2 1174.33 170.822   1
  -5  -7   2 1065.64 124.787   1
   7  -2  -5 1118.69 202.957   5
  -2  -7   5 939.138 180.331   3
  -2  -7   5 856.997 164.979   4
  -5   7  -2 987.202 200.979   1
   2   7   5 956.654 218.350   2
   7   5   2 1071.24 196.612   4
  -7  -2   5 1111.81 213.837   1
   7   5   2 1146.02 187.876   1
   5   2   7 845.638 200.142   1
   5   7   2 960.469 125.502   1
  -2  -7   5 1049.75 188.140   2
  -5   7  -2 1040.20 203.045   2
  -5  -7   2 996.978 197.491   4
   2   5   7 814.946 178.629   2
   7  -5  -2 732.620 173.958   1
   5   7   4 17382.3 704.042   1
  -5  -7   4 17483.2 691.606   1
   5  -4  -7 19272.0 777.554   3
  -4   7  -5 17386.8 806.138   2
   4  -5  -7 19211.2 725.674   3
   5  -7  -4 17981.9 575.008   3
  -4   5  -7 17886.2 632.387   2
   5   4   7 17296.2 894.788   1
  -4  -7   5 17864.7 823.299   4
  -5   4  -7 18388.7 593.773   2
   4   5   7 17653.9 869.236   1
   7  -5  -4 16749.8 734.570   3
  -7  -5   4 17579.6 841.128   4
   7  -4  -5 19668.1 817.877   3
  -4  -7   5 18582.1 876.573   2
  -7  -4   5 18607.4 852.958   1
  -4  -5   7 17966.9 746.313   4
  -7  -4   5 18045.7 825.928   4
  -5  -4   7 16703.8 731.101   4
   4  -7  -5 19246.3 566.021   3
  -5   7  -4 17564.4 819.802   2
  -5  -7   4 21824.0 964.255   2
   7  -4  -5 17356.2 778.561   5
   4   7   5 17864.3 910.114   2
   5  -7  -4 17971.5 577.879   5
  -4  -7   5 17284.8 886.950   3
   4   7   5 18625.8 764.449   1
   7   4   5 17471.6 878.238   1
   4   5   7 17382.4 807.490   2
   7   5   4 18463.4 843.101   1
  -5  -7   4 16429.4 821.654   4
  -7  -5   4 18057.2 792.420   1
  -5  -6  -7 1872.38 276.314   4
  -7  -6  -5 2071.69 290.109   4
  -7   6   5 1697.25 289.428   1
  -6   7   5 1667.83 285.624   2
   6   5  -7 2552.65 367.964   3
   6   5  -7 2280.95 336.360   5
   7   6  -5 1762.29 271.761   4
   7   5  -6 1959.89 315.612   5
   6   7  -5 2094.69 319.299   3
   5  -7   6 2050.73 313.419   1
   7   6  -5 1954.49 314.836   3
   5   7  -6 1874.85 302.817   3
  -7  -6  -5 2175.54 268.945   1
  -7  -5  -6 2330.35 288.675   4
   5   6  -7 2053.26 322.879   3
  -6   7   5 2015.62 304.273   1
   6  -7   5 1800.95 295.457   1
  -6  -7  -5 2481.21 331.907   4
  -5   6   7 1943.67 313.423   1
  -5   7   6 2316.48 338.868   2
  -6  -7  -5 2514.91 348.158   2
   6  -5   7 1688.20 314.563   1
   7   5  -6 2263.78 293.465   4
  -7   5   6 2159.20 331.257   1
  -6   5   7 1981.08 311.450   1
  -7  -5  -6 1743.87 261.903   1
   6   7  -5 2300.03 334.367   5
  -6  -5  -7 2620.36 320.954   2
   5  -7   6 2239.59 291.277   3
  -5  -7  -6 2385.25 331.912   4
   6   7  -5 2803.47 341.430   4
   7  -6   5 1893.34 305.637   1
   5   7  -6 2304.65 340.038   5
   7   6  -5 2793.26 381.660   5
  -5   6   7 2227.50 319.476   2
   7   5  -6 2693.38 372.320   3
  -6  -5  -7 2187.78 272.242   4
   5  -6   7 2403.61 334.282   1
   7  -5   6 2166.92 344.341   1
   6   3  -7 26039.1 1121.38   3
  -7  -6  -3 28172.3 909.968   1
  -3  -6  -7 29674.5 1168.53   2
  -6  -7  -3 27174.2 1114.91   4
  -6  -7  -3 25817.0 1120.18   2
  -3   7   6 29757.4 1086.00   1
  -7  -3  -6 30234.1 1154.64   1
   6  -7   3 29150.7 1098.84   1
  -7  -3  -6 27751.8 955.474   2
   6   3  -7 30058.6 1199.24   5
   6  -3   7 24867.8 1145.88   1
  -3   7   6 28385.6 1161.72   2
  -6   7   3 27567.1 1144.33   2
   6   7  -3 28088.6 1149.06   3
  -7  -6  -3 27170.7 1070.77   4
  -6   3   7 28241.9 1078.59   3
  -7  -3  -6 27967.7 932.983   4
  -3   6   7 28255.1 872.781   5
   7   6  -3 28772.2 1197.84   3
   7  -6   3 27731.6 1122.98   1
   6  -3   7 28320.5 693.711   4
   7  -3   6 27562.2 1201.24   1
   7   3  -6 28066.1 1171.81   3
   7  -3   6 29848.8 806.280   4
   3  -7   6 24284.6 1003.21   1
  -6  -3  -7 28118.3 960.875   2
  -3   7   6 27478.1 753.457   3
   7   3  -6 28584.5 1176.07   5
  -6  -3  -7 27032.0 877.750   4
   3  -6   7 26798.4 1094.42   1
   3  -6   7 27693.8 1107.57   3
  -3   6   7 28054.0 1116.25   2
   7   6  -3 26609.7 1154.65   5
   6   7  -3 27772.3 1145.82   5
   3  -7   6 29554.6 1080.14   3
  -6  -7  -3 27968.4 828.454   1
  -6  -3  -7 29757.8 1177.18   1
   6   7  -3 27360.6 1099.61   4
  -3   6   7 26499.0 858.327   3
   3   6  -7 28755.2 1147.74   3
   3   7  -6 27438.1 1103.35   3
   3  -7   6 28125.4 881.106   2
   1  -7   6 21054.1 850.185   2
   6   1  -7 21786.6 869.217   4
  -7  -6  -1 21113.6 957.548   4
  -1  -6  -7 20099.5 973.001   2
   1   6  -7 20799.3 976.155   3
   6  -1   7 21141.2 1060.31   1
   1  -6   7 19415.2 749.448   2
   6  -1   7 20867.7 645.790   4
  -6  -7  -1 21036.2 673.270   1
  -6  -1  -7 20091.5 719.673   2
  -1   7   6 20230.5 674.871   3
  -6  -1  -7 21283.3 703.597   4
  -6  -1  -7 21643.5 1049.00   1
  -6  -7  -1 21179.9 985.639   4
   7  -1   6 22081.3 719.709   4
   1  -6   7 21054.3 955.209   3
   1  -6   7 19822.5 697.119   4
  -1   6   7 15836.0 863.436   2
   6   7  -1 20440.0 978.035   3
   7  -6   1 18352.7 913.076   1
  -1   7   6 20784.3 1001.68   2
  -7  -1  -6 21301.8 1020.42   1
   7   6  -1 20592.4 1013.41   3
   7  -1   6 19893.6 1030.03   1
   1  -7   6 20677.1 909.167   3
   1  -7   6 21008.6 899.025   1
   7   1  -6 19688.2 969.068   5
   1  -6   7 25280.1 1057.50   1
  -6   7   1 20928.4 992.152   2
  -1   6   7 20664.4 772.098   3
  -7  -1  -6 20826.3 753.190   4
   6   1  -7 19902.7 955.770   3
  -7  -6  -1 22405.9 781.430   1
   1   7  -6 20900.5 952.876   3
   7   1  -6 21350.4 1000.05   3
   6   1  -7 21111.8 974.542   5
  -1  -7   6 20774.8 884.216   1
  -1   7  -6 21177.1 830.588   2
   7   1   6 19699.5 1017.55   1
   6   1   7 21118.6 1050.24   1
  -7  -6   1 20804.6 951.197   4
   7  -6  -1 20978.2 958.695   1
   6  -1  -7 21987.6 954.146   3
  -6   7  -1 20549.6 962.126   2
   6  -1  -7 22337.3 955.413   5
   6   7   1 20580.6 691.709   1
   7  -1  -6 21470.6 954.266   3
   1   7   6 21420.1 1031.01   2
  -1  -6   7 21152.1 752.629   4
   6  -7  -1 21191.9 918.743   1
  -1  -7   6 20050.2 814.706   4
   7   1   6 21386.5 773.258   4
  -1  -6   7 21047.2 821.358   2
  -7  -1   6 20582.9 989.133   1
   7   6   1 20455.8 788.231   1
  -1  -6   7 21291.0 964.272   3
  -1  -7   6 20562.4 925.013   3
   1   6   7 20943.8 980.793   2
  -1  -6   7 21053.9 943.171   1
  -1  -7   6 21638.6 925.468   5
  -7  -6   1 19680.3 749.791   1
  -6  -7   1 20110.8 684.764   1
  -1  -7   6 19440.1 862.790   2
  -1  -6   7 19917.0 921.668   5
  -6  -7   1 20675.1 964.153   4
   7  -1  -6 20221.5 940.674   5
  -3  -6   7 30208.1 1189.85   3
  -7   6  -3 28882.2 1075.75   2
  -7  -6   3 31417.1 1160.44   4
   7   3   6 30593.0 1229.09   1
  -7  -3   6 29389.1 1149.84   1
  -6   7  -3 29805.3 1105.49   2
  -3  -7   6 29688.4 1146.96   5
   3   6   7 27585.6 1082.34   1
   3   7   6 29602.9 1190.94   2
   6   7   3 28908.6 910.865   1
   6   3   7 28088.7 1189.81   1
  -6  -7   3 30197.3 886.477   1
  -6  -3   7 27672.0 971.785   4
   7  -3  -6 28665.5 1047.69   3
  -6  -7   3 31727.3 1215.95   2
   7  -6  -3 29769.9 945.271   3
  -3  -6   7 30097.1 1024.32   2
   7  -6  -3 29231.2 1152.54   1
   6  -3  -7 30580.8 1060.94   3
   7  -3  -6 29114.8 1054.46   5
   7   3   6 29545.3 1005.38   4
   6  -7  -3 28894.8 1098.36   1
  -3  -7   6 31288.5 1191.59   3
  -3  -6   7 29109.3 1159.46   5
   6  -7  -3 29208.7 827.220   3
  -3  -7   6 29930.3 1087.03   2
  -7  -6   3 27366.8 926.153   1
  -3   6  -7 28663.9 849.134   2
   6  -3  -7 27905.2 1026.13   5
   3   7   6 27740.8 999.808   1
  -3  -7   6 29645.9 1016.82   4
  -3   7  -6 27818.7 998.747   2
  -6  -7   3 29225.7 1133.73   4
  -7  -3   6 29409.9 1038.11   4
   3   6   7 29699.5 1145.83   2
   7   6   3 26412.1 964.681   1
  -3  -6   7 29456.3 959.108   4
   7  -6  -5 2146.88 234.402   5
  -5   7  -6 1832.88 318.576   1
  -6   5  -7 1740.14 197.026   2
  -7   6  -5 1954.40 250.075   2
   7   5   6 1448.97 253.255   1
  -6   7  -5 2010.74 331.584   1
  -7  -5   6 1869.39 268.260   1
   6  -5  -7 1462.74 204.691   3
  -7  -6   5 2249.07 268.317   1
   5   7   6 2248.03 278.180   1
   7  -5  -6 1790.76 229.178   3
   6   5   7 1412.21 262.900   1
  -6  -7   5 2050.18 243.874   1
   5   7   6 1147.49 240.395   2
  -7   5  -6 1993.62 229.000   2
   7  -5  -6 1772.79 223.752   5
  -7   5  -6 2167.87 345.205   1
  -5  -7   6 2289.95 303.558   2
  -7  -6   5 1853.89 268.614   4
  -6  -7   5 1637.62 250.391   4
   5  -6  -7 1698.01 198.400   3
   5   6   7 1694.18 264.505   1
  -5  -6   7 2281.77 335.842   3
   6   7   5 1341.96 209.631   1
   7  -6  -5 1727.24 211.129   3
  -6   7  -5 1720.26 239.132   2
  -5   6  -7 2265.36 364.408   1
  -5   6  -7 1845.91 214.900   2
   6  -7  -5 2177.94 205.821   3
  -6   5  -7 1523.62 307.034   1
   5  -7  -6 2266.34 199.172   3
  -7  -5   6 1881.03 263.437   4
   7   6   5 1801.85 261.643   1
  -5  -6   7 1943.34 250.326   4
  -5  -7   6 2437.74 291.367   4
   6  -7  -5 1842.87 188.221   5
  -5  -6   7 1964.42 304.629   5
  -5  -7   6 2084.14 311.403   3
  -6  -5   7 1986.03 256.199   4
  -7   6  -5 2063.80 339.935   1
  -5   7  -6 1792.43 239.430   2
   7   7  -6 18051.1 935.845   4
   7   6  -7 17300.2 1016.90   3
   7   7  -6 17132.0 1003.95   5
  -6   7   7 18156.6 1005.20   1
  -7   6   7 16568.5 948.772   2
  -7   7   6 17973.4 1007.22   1
  -6  -7  -7 17524.2 923.211   4
  -7  -7  -6 17204.9 967.274   2
   7   7  -6 18203.4 1030.47   3
   7   6  -7 18442.7 913.963   4
   6  -7   7 17108.3 967.966   1
  -7   7   6 18634.2 1023.91   2
  -7   6   7 16986.6 1003.21   1
  -6   7   7 17223.3 976.387   2
   7  -7   6 16883.6 969.971   1
  -7  -6  -7 17498.2 881.593   4
   6   7  -7 19428.2 1067.13   5
  -6  -7  -7 16861.8 967.644   2
   6   7  -7 18177.5 917.068   4
   7  -6   7 16709.1 997.753   1
   7   6  -7 17131.8 1013.70   5
   6   7  -7 18705.1 1043.33   3
  -7  -7  -6 17579.7 935.665   4
  -4   7   7 115.090 74.5047   3
  -7   7   4 1.15288 122.808   2
  -4   7   7-36.5296 119.150   2
  -4   7   7 140.786 84.9590   1
   7   4  -7-47.0459 143.006   5
   7   7  -4 61.8785 102.291   3
  -7  -4  -7 73.8853 105.722   1
   4  -7   7 103.548 114.628   1
   7  -4   7 52.5599 125.243   1
  -7   7   4-11.3166 122.392   1
   4   7  -7 177.139 142.959   3
  -7  -7  -4 97.6652 77.9908   2
  -7  -4  -7 24.1925 69.8451   4
  -7  -7  -4-106.268 69.0876   1
  -7  -4  -7-33.7860 73.0974   2
  -7  -7  -4-35.9548 95.5795   4
   7   4  -7 14.5173 67.7229   4
   4  -7   7 38.2512 90.6561   3
   7  -7   4-54.4048 132.792   1
   7   4  -7 31.5316 133.017   3
  -7   4   7-62.0990 99.8727   1
   7   7  -4-46.8262 98.9307   5
   7  -4   7 39.2618 52.6057   4
   7   7  -4-77.7399 75.9390   4
  -7  -2  -7 18337.9 977.745   1
  -2   7   7 17127.4 668.849   5
  -2   7   7 18035.0 692.148   3
  -2   7   7 18730.4 971.059   2
   7   7  -2 19830.4 1012.45   3
   7  -2   7 19760.0 1059.59   1
  -7  -7  -2 19997.4 722.988   1
  -7  -7  -2 17598.8 923.539   4
   2  -7   7 20036.4 938.688   3
   2  -7   7 18721.6 905.893   1
  -7  -2  -7 17744.3 746.674   2
  -7  -2  -7 18902.8 740.480   4
   7  -7   2 18054.3 910.686   1
   7   2  -7 19359.9 989.535   5
  -7  -7  -2 18830.9 972.081   2
   7   2  -7 19569.1 992.584   3
   2  -7   7 19393.3 751.550   2
   2   7  -7 19026.3 963.739   3
   7  -2   7 17644.1 623.476   4
  -7   7   2 18423.5 968.576   2
  -7   0  -7-38.0098 96.0020   1
   7   0  -7 74.9289 104.023   3
   7   0  -7 94.1147 89.4018   5
   0  -7   7 183.139 109.897   1
  -7   7   0 178.934 131.986   2
   0  -7   7 5.52407 72.4983   3
  -7  -7   0 169.193 127.544   4
   0  -7   7 179.945 100.191   4
   0   7   7 73.0845 109.550   2
   7  -7   0 251.219 145.059   1
   7   0   7 178.066 145.232   1
  -7  -7   0 156.228 75.8561   1
  -7   0   7 51.1040 95.0386   3
   7   7   0 149.343 76.4322   1
   0   7  -7 130.760 119.791   3
   0   7   7 128.372 67.3216   3
   7   0   7 192.710 82.0359   4
   0  -7   7 137.176 82.7289   2
   0  -7   7 249.652 128.770   5
   7   7   2 16983.5 668.833   1
  -7  -7   2 18514.2 662.901   1
   2   7   7 19164.2 849.094   1
   7  -2  -7 17515.5 832.243   3
   2   7   7 17292.6 908.195   2
  -7  -7   2 16044.8 838.469   4
  -2  -7   7 16489.7 805.433   1
   7   2   7 16662.1 928.646   1
   7  -7  -2 17223.2 846.349   1
  -2   7  -7 16785.6 663.258   2
  -2  -7   7 17526.1 717.178   4
  -2  -7   7 17058.5 852.056   5
  -2  -7   7 18455.0 893.308   3
   7  -2  -7 18336.1 846.744   5
  -2  -7   7 16930.1 767.377   2
  -7   7  -2 18583.6 888.241   2
   7   7   4-7.86904 57.4545   1
   4   7   7 78.6227 96.7419   2
  -4   7  -7 1.34692 71.4737   2
  -7   4  -7-52.0687 133.302   1
  -4  -7   7 10.6164 74.7638   4
  -7   7  -4 14.0342 77.0362   2
  -7  -7   4 57.1589 111.328   4
  -7  -4   7 32.7057 84.5258   4
   7  -4  -7 47.1194 75.9074   3
  -4  -7   7 117.391 95.6973   2
  -4  -7   7-11.9833 91.9120   5
   4   7   7 249.320 119.760   1
   7  -7  -4 51.8302 50.1866   5
  -4   7  -7 104.711 107.911   1
  -7  -7   4-41.5088 68.2479   1
   7   4   7 89.6646 129.083   1
  -7   4  -7 35.7994 48.4977   2
   7  -7  -4 30.1588 54.7884   3
   4  -7  -7 64.2574 55.8738   3
  -4  -7   7-276.678 128.626   3
  -7   7  -4-63.2477 114.079   1
   7  -4  -7 10.9741 74.2554   5
   7  -7  -6 17489.8 713.499   3
   7  -6  -7 18335.4 792.678   5
  -7  -7   6 17896.6 840.434   1
  -6   7  -7 17763.0 1089.79   1
   6  -7  -7 17313.0 700.792   3
   7   6   7 17935.6 939.426   1
  -7   7  -6 17650.6 1071.68   1
   7  -6  -7 16697.5 756.537   3
  -7  -7   6 16452.6 877.774   4
   7   7   6 16978.1 857.319   1
   6   7   7 18674.8 915.300   1
  -7  -6   7 16783.3 1013.98   3
  -7   6  -7 18574.3 1107.09   1
   7  -7  -6 18099.6 722.113   5
  -7   6  -7 18098.4 753.221   2
  -6  -7   7 16669.6 846.920   4
  -7   7  -6 17267.1 806.544   2
  -6   7  -7 16790.4 775.551   2
  -7  -6   7 19051.0 905.405   4
  -6  -7   7 17727.0 1015.57   3
   0  -8   0 3883.74 189.605   1
   0   8   0 3436.57 393.595   2
   8   0   0 3490.84 366.438   1
   0   0   8 3812.64 230.174   2
   0   8   0 3718.91 205.996   1
   0   8   0 4218.60 239.431   3
   8  -1   1 12.0642 61.3723   4
  -1   8   1 29.8761 39.7777   1
   1  -8   1 7.22772 39.5125   3
  -8  -1  -1 50.7656 97.8477   1
   1   8  -1 21.8366 95.4299   2
   1   1  -8 37.9177 76.8566   3
   1   1  -8 7.63386 29.3239   4
  -1   1   8 69.9634 81.4563   3
   1   8  -1 31.0844 43.9824   3
  -1   8   1-38.3832 84.1313   2
   1  -8   1 30.0936 45.0890   1
  -8  -1  -1-23.5521 66.7512   4
   1  -1   8 20.9817 26.8988   2
  -1   1   8-5.01838 44.9540   2
   1  -8   1-7.72669 40.6233   5
   8  -1   1 17.2424 99.6608   1
   8   1  -1 31.9945 101.747   1
   1  -1   8 6.13951 93.6279   1
   1  -8   1 31.2258 71.7264   2
   1   8   1 21.7924 44.1267   3
  -1   8  -1 45.5170 109.632   2
  -1  -8   1 63.7507 63.9621   3
   1   8   1 80.5954 121.585   2
   1   1   8 18.6990 49.5454   2
  -8  -1   1 44.9489 74.1319   4
  -1   8  -1 2.56932 49.0308   1
  -8  -1   1 177.450 105.349   1
   1   1   8 249.568 128.847   3
   8   1   1 6.55926 62.8704   4
   8  -1  -1 46.9865 112.090   1
  -1  -8   1 4.25472 22.6356   1
  -1  -8   1 25.7663 105.177   2
   8   1   1-19.1137 102.462   1
   1   8   1 73.3605 52.7863   5
  -2   2   8 12692.9 662.301   5
   2   8  -2 11474.5 697.356   2
  -2   8   2 10907.0 519.917   1
  -2  -2  -8 10986.5 484.172   2
   8  -2   2 11885.4 583.912   4
   2  -8   2 11867.6 492.854   3
   2   8  -2 11307.3 571.659   3
  -2   2   8 12073.2 581.934   2
  -8  -2  -2 12700.0 626.281   4
   2   8  -2 10853.5 559.091   5
   8  -2   2 11266.8 695.049   1
   2   2  -8 11583.8 464.575   4
   2  -2   8 10681.7 705.970   1
  -8  -2  -2 12366.2 666.378   1
  -2   2   8 10700.1 620.801   3
   2   2  -8 10418.1 644.938   3
  -2   8   2 11569.5 729.127   2
   8   2  -2 10913.0 648.770   1
   2  -8   2 9326.07 483.750   1
   2  -8   2 11836.6 684.513   2
   8   2   0 193.151 113.853   1
   8  -2   0 244.147 110.012   4
  -2   8   0 58.7136 104.346   2
   8   0  -2 54.1108 107.003   1
   2   0   8 62.3291 29.5752   2
   0   8  -2 129.461 130.174   2
   2   0  -8 125.714 102.406   3
   2   8   0 23.4111 100.413   2
   2  -8   0 300.449 128.819   2
   8   0   2 206.086 111.721   1
   2  -8   0 35.3812 27.7206   5
   2   8   0 4.91049 47.5840   3
   2   0   8 70.9612 109.804   1
   2  -8   0 70.3045 33.9170   3
  -2   0   8 39.8808 72.9465   3
   0   8   2 86.0627 40.9445   1
   0   8   2 110.205 31.6630   3
   0   2   8 30.3989 52.5520   2
   8   0   2 75.6166 63.4281   4
   2  -8   0 59.8805 56.8972   1
   0  -8   2 72.3322 57.3782   1
   0   2  -8 105.644 37.0766   4
   2   0  -8 111.037 65.0801   4
   0  -8   2 170.852 75.6272   3
   0   8  -2 66.4098 76.0204   3
  -8  -2   0 77.8498 90.8765   4
   0   2   8 158.954 102.957   3
  -8  -2   0 102.076 85.4835   1
   0  -8   2 83.0485 77.2598   2
   0   8   2 7.51284 116.423   2
   2   8   0-10.1656 50.0745   5
   8  -2   0 21.0648 77.3074   1
  -2   8   0 47.3197 58.7020   1
   0  -8   2 174.260 81.4990   5
   2   2   8 10814.2 496.706   2
   2   2   8 11272.0 714.455   1
  -2   8  -2 10053.8 535.962   1
  -2  -8   2 10711.6 658.648   4
  -2   8  -2 10514.1 678.577   2
   8   2   2 10421.0 655.905   1
   2   8   2 11136.4 483.216   3
   8  -2  -2 10889.4 680.960   1
   2  -2  -8 10934.2 591.720   3
   2   8   2 10863.3 718.273   2
  -2  -8   2 11098.7 701.368   2
  -8  -2   2 10782.4 619.111   1
  -8  -2   2 10794.5 606.861   4
  -2  -8   2 10489.4 538.617   3
  -2  -8   2 11397.9 360.743   1
   8   2   2 11759.4 598.930   4
   8   3  -3 18.9529 111.126   3
   3   8  -3 20.1720 60.6511   5
   3  -8   3 17.3418 46.7857   3
   3  -3   8 66.5232 111.870   1
   8  -3   3-74.7012 61.9290   4
   3   3  -8-15.6028 56.9431   4
  -3   8   3 30.7201 68.1494   1
  -3   8   3 73.4546 122.830   2
  -3   3   8 100.592 66.9976   5
   3  -8   3 18.9442 66.2320   2
   8  -3   3-153.792 142.036   1
   3   8  -3 16.3315 66.1071   3
  -3  -3  -8-129.860 77.2970   2
  -8  -3  -3-48.8897 74.5564   4
   3  -8   3 64.3966 79.0286   1
  -3   3   8-21.5094 78.2867   2
  -8  -3  -3-34.0153 74.3355   1
   3   3  -8 57.3540 93.1156   3
  -3   3   8 41.2089 78.3759   3
   3  -8   1 8355.23 574.711   2
  -8  -3  -1 8792.06 540.935   4
   1   3  -8 8316.80 571.788   3
   8   1  -3 8251.37 604.484   3
  -3   8   1 8373.72 602.765   2
  -3  -1  -8 7721.63 343.777   2
   8  -1   3 7005.83 556.658   1
   3   8  -1 7478.94 471.121   3
  -1   8   3 7957.61 414.441   1
   1  -8   3 8049.87 436.342   5
   1  -3   8 7401.36 576.554   1
  -1   3   8 8674.29 533.602   3
  -8  -1  -3 7986.30 473.309   4
  -8  -3  -1 8702.94 534.949   1
   3   8  -1 8420.20 502.286   5
  -8  -1  -3 8937.58 584.004   1
   8   1  -3 8122.05 568.385   1
  -1   3   8 7906.39 480.711   2
  -3  -1  -8 8490.67 328.438   4
   1   8  -3 8310.42 572.407   2
   3   1  -8 7798.83 405.262   4
   8   3  -1 8863.47 563.312   1
   1  -8   3 7845.74 558.768   2
   1  -8   3 8424.95 428.958   1
  -3   1   8 7816.94 541.600   3
   3  -8   1 8317.00 365.189   3
   8  -1   3 8172.91 466.263   4
   1  -8   3 7791.66 433.233   3
   1   3  -8 8288.22 361.295   4
   3  -1   8 8129.48 609.867   1
  -1   8   3 8062.96 606.835   2
   8  -3   1 8791.95 605.962   1
   3   1  -8 8642.82 571.485   3
   3   8  -1 7615.36 572.281   2
   3  -8   1 8019.66 446.541   1
   1   8  -3 8103.92 486.860   3
  -3   8   1 8162.17 482.130   1
   8   1   3 7219.11 451.517   4
  -1  -8   3 7833.90 456.585   5
   1   8   3 7190.31 592.969   2
  -1   8  -3 9172.86 498.052   1
  -1  -8   3 7839.85 567.066   2
   8   1   3 8083.21 580.086   1
   3  -1  -8 8402.40 531.871   3
   3   1   8 7138.26 568.883   1
   1   8   3 8085.42 343.588   1
   1   3   8 7908.34 470.222   2
   8  -1  -3 8232.04 590.016   1
  -3   8  -1 7916.19 485.945   1
  -8  -3   1 7414.84 506.319   4
  -8  -3   1 7545.71 493.738   1
   3   8   1 7684.12 447.879   3
  -1   8  -3 7694.18 562.604   2
  -3   8  -1 7865.11 573.862   2
  -1  -8   3 7803.52 460.239   3
  -1  -8   3 7632.75 361.340   1
   3   8   1 7162.35 573.549   2
   8   3   1 8196.56 544.996   1
  -3  -8   1 7108.69 543.160   4
   3  -8  -1 7719.88 432.821   1
   8  -3  -1 7534.55 559.769   1
   1   3   8 7265.39 506.432   3
  -8  -1   3 7865.03 547.018   1
   3  -3  -8 40.9187 78.6992   3
   3   8   3 32.0015 42.3172   1
  -3  -8   3-7.16331 85.2418   4
  -3  -8   3 55.2897 94.3558   2
  -3   8  -3 50.2473 79.1563   1
  -8  -3   3 30.6624 88.0142   1
  -8  -3   3 78.8466 75.0986   4
  -3   8  -3-1.89738 78.5273   2
   3   8   3 14.1761 110.587   2
   8  -3  -3-20.8627 95.3178   1
  -3  -8   3-35.8229 71.5168   3
   8   3   3 124.392 109.967   1
  -3  -8   3 12.2465 42.4568   1
   8   3   3-9.37387 72.9861   4
   3   3   8-44.3348 89.1841   1
   3   3   8-4.94322 57.7073   2
   4   4  -8 8786.22 637.176   3
  -4  -4  -8 8938.16 515.140   4
   4   8  -4 9191.32 615.855   5
   8   4  -4 9437.35 694.712   5
  -4   4   8 8623.30 582.222   2
  -4  -8  -4 8458.13 638.546   4
   8   4  -4 9080.54 686.249   3
   4  -4   8 9015.04 663.559   1
   8  -4   4 9143.42 671.551   1
  -4  -4  -8 9237.69 580.724   2
   4  -8   4 9330.92 577.718   1
  -8  -4  -4 8745.89 560.638   4
   4   4  -8 9090.08 507.973   4
  -4   8   4 8719.65 658.018   2
   4  -8   4 9093.12 525.728   3
   4  -4   8 9159.39 273.405   4
   4   8  -4 7820.40 576.504   3
  -4   4   8 8879.62 559.140   5
  -4   8   4 8351.95 557.197   1
   8   4  -4 9055.39 588.664   4
  -4  -8  -4 9417.78 700.389   2
  -4   4   8 8602.67 553.737   3
  -8  -4  -4 9329.41 587.590   1
   4   2  -8 138.707 95.2710   3
   4   8  -2 155.222 109.744   5
   2  -4   8 112.553 25.6482   4
   4  -2   8 78.9196 112.825   1
   4  -8   2 42.7391 61.9028   3
   8   4  -2 20.6162 83.4594   1
  -4   2   8 18.5019 76.9795   3
   4   8  -2 8.95195 69.8519   3
   2  -4   8-6.28020 116.570   1
  -8  -4  -2 16.7329 66.5664   1
   4   2  -8 130.215 65.7222   4
  -4   8   2 224.232 97.5020   1
   2   8  -4 91.9164 85.6793   3
  -2   4   8 116.808 101.948   2
   2   4  -8 50.3010 59.8044   4
  -2   4   8 114.515 87.0199   3
  -2   8   4 28.3244 95.0867   2
   8  -4   2 89.8125 97.4552   1
   8   2  -4 300.055 154.885   3
   8  -2   4 31.4612 51.1446   4
   2  -8   4 54.0720 70.9762   1
  -2   4   8-26.8003 78.5249   5
  -4   8   2 34.8899 95.6301   2
  -8  -2  -4 40.7589 90.9103   1
  -4  -2  -8 95.1123 47.6503   4
   4  -8   2 72.0142 77.5355   1
   2   4  -8 11.6922 94.5291   3
   2  -8   4 17.4525 52.9079   3
   2  -8   4-17.9620 88.8822   2
  -4  -8  -2 64.4348 89.4354   4
  -2  -4  -8 16.9424 80.9005   2
   8  -2   4 248.733 158.964   1
  -8  -4  -2 43.8667 73.9009   4
  -8  -2  -4 18.7113 57.1918   4
  -4  -2  -8 128.297 85.8803   2
  -2   8   4 20.4377 66.4598   1
   0   8  -4 2781.57 290.198   3
   4   0  -8 3094.38 268.663   4
   0  -4   8 3120.37 181.637   4
   8   0   4 2798.97 263.241   4
   0  -8   4 3353.49 301.602   3
   0  -8   4 2924.61 334.443   2
  -4   0  -8 3014.26 172.704   2
   0  -8   4 2748.01 250.249   1
   4   0   8 2715.66 362.619   1
   8   0  -4 3234.50 368.097   3
   8   0   4 3423.39 393.429   1
   4   8   0 2405.60 280.648   3
  -8  -4   0 3248.44 304.715   1
   4   0  -8 2696.83 325.792   3
   4  -8   0 2525.61 268.968   1
  -4   8   0 2626.02 293.266   1
   0   8  -4 2847.25 326.702   2
   8   4   0 3139.26 318.904   1
   0   4   8 3213.86 323.555   2
  -4   8   0 3091.29 365.466   2
   8  -4   0 3320.26 373.034   1
   0   4   8 3384.13 323.593   3
  -4  -8   0 3052.81 368.464   4
   0   8   4 2586.68 231.078   1
  -4   0  -8 3088.56 150.019   4
   0   8   4 2797.17 373.450   2
   0  -4   8 3122.37 212.703   2
   0   4  -8 3351.17 364.888   3
   0  -4   8 3049.99 361.177   1
  -8  -4   0 2978.17 324.165   4
   0  -8   4 3053.29 287.815   5
  -4   8  -2 81.3563 107.509   1
  -2  -8   4 296.005 117.113   2
  -4  -8   2 2.02316 72.1555   2
   2   8   4 105.909 66.4955   1
  -2  -8   4 165.919 76.0135   1
  -8  -2   4 36.4030 60.6118   4
  -4  -8   2 25.7047 99.9753   4
   4   8   2 84.9834 32.2126   1
  -2  -8   4 143.508 93.9715   5
  -4  -8   2 64.5527 34.1933   1
   4  -2  -8 51.9151 82.3154   3
   4  -8  -2 205.324 106.690   1
   8  -2  -4 118.375 97.7459   3
  -2  -8   4 139.183 104.175   3
  -2   8  -4 12.1917 90.7570   2
  -8  -4   2 151.454 84.4515   1
   8   2   4 165.486 87.4882   4
  -2  -8   4 301.246 130.798   4
   8  -4  -2 69.7644 106.030   1
   8   4   2 0.82023 78.9480   1
   8   4   2 62.9752 46.6662   4
   2   4   8 181.102 116.074   1
  -4   8  -2 34.1499 93.3655   2
   4   2   8-48.4297 114.230   1
   2   4   8 135.706 91.9815   2
   2   8   4 121.059 127.444   2
   4   8   2 177.254 119.327   2
   8   2   4 52.1498 90.8639   1
  -8  -4   2 52.7685 100.102   4
  -2  -4   8 11.3387 38.1814   4
  -2   8  -4 75.8158 74.7792   1
  -8  -2   4 154.047 84.4109   1
   4   8   4 7703.34 611.115   2
  -4   8  -4 8424.76 600.797   1
   8  -4  -4 8158.37 535.361   3
   4   8   4 9341.46 438.879   1
  -4   8  -4 8525.96 585.717   2
  -4  -4   8 9105.11 478.748   4
  -4  -8   4 9500.63 640.518   2
  -4  -8   4 7880.94 557.743   3
  -8  -4   4 8997.24 571.667   1
  -4  -8   4 8064.52 566.520   4
   4   4   8 8847.87 639.426   1
   4   4   8 8493.32 502.649   2
   8   4   4 8452.08 551.951   4
   4  -4  -8 9239.18 529.355   3
   8   4   4 8314.08 582.670   1
  -4   4  -8 9346.21 729.159   1
  -8  -4   4 9011.57 581.630   4
   8   5  -5 200.111 113.103   4
   5  -8   5-63.8933 108.373   1
  -5  -8  -5 89.1138 105.126   2
  -8  -5  -5-20.3936 70.5049   1
   5   8  -5 78.6644 103.386   5
  -5  -5  -8 94.3515 92.5081   4
   8   5  -5 53.0847 118.930   5
   8   5  -5 51.0240 106.580   3
   5   5  -8 86.4562 106.209   3
  -5   5   8 157.363 92.2253   3
  -5   8   5 211.593 162.605   2
  -8   5   5 64.9733 122.221   1
  -5  -5  -8-16.8032 76.9736   2
   5   8  -5-22.2226 104.021   3
  -5   5   8-18.6688 116.459   2
   5  -5   8 18.2639 101.541   1
   8  -5   5 83.6570 96.8158   1
  -5  -8  -5 51.6848 115.150   4
  -8  -5  -5 16.9541 83.0083   4
   5  -8   5 67.8886 67.8291   3
  -3   5   8 14021.6 668.618   3
  -3   8   5 13684.1 816.314   2
   3   5  -8 15598.0 655.576   4
   5   8  -3 14975.7 792.108   3
  -5   8   3 14545.2 749.096   1
   5  -3   8 13339.9 831.044   1
   3  -8   5 14079.0 685.135   3
   8  -3   5 13925.8 846.603   1
   5   8  -3 13300.7 751.619   5
  -8  -5  -3 15807.7 781.922   4
   3  -5   8 15508.4 822.853   3
  -3  -8  -5 14424.7 872.554   2
  -8  -3  -5 15317.4 791.306   1
  -5  -3  -8 12896.9 562.486   4
  -5  -3  -8 14222.5 679.654   2
   3   8  -5 14285.1 767.020   3
  -3   5   8 14547.2 674.212   5
   3  -8   5 14004.2 680.019   2
   3   5  -8 14233.5 807.725   3
  -8  -3  -5 15258.7 699.453   4
  -8  -5  -3 15504.4 707.639   1
   5   3  -8 13711.0 638.250   4
  -5  -8  -3 14872.1 860.632   2
  -5   8   3 15423.7 864.805   2
   8  -3   5 14283.9 594.327   4
  -3   5   8 14289.9 754.043   2
   8   3  -5 15563.3 873.840   3
   3  -5   8 13888.9 801.592   1
   5  -8   3 10972.5 643.707   1
   8   5  -3 16574.0 916.012   3
   8  -5   3 14780.8 829.908   1
   3  -8   5 14814.8 724.175   1
   8   3  -5 13811.0 824.905   5
   5   3  -8 14351.3 823.082   3
  -5   3   8 13643.2 742.608   3
   8   3  -5 14698.9 739.114   4
  -3   8   5 13896.7 703.334   1
   5  -3   8 14782.3 364.232   4
  -8   5   3 14700.3 841.266   1
  -5  -8  -3 14277.0 821.906   4
   3  -5   8 14606.0 428.632   4
  -3  -5  -8 14486.8 762.402   2
  -8  -5  -1 6807.88 438.528   1
   8  -1   5 5839.77 371.213   4
  -5  -8  -1 5882.96 511.153   4
   1  -8   5 5135.63 435.320   2
  -8  -1  -5 5731.61 496.760   1
   1  -5   8 6058.07 504.217   3
  -1   8   5 5589.23 391.898   1
  -5   8   1 6146.24 477.335   1
   5  -8   1 4976.60 405.331   1
   8   5  -1 5411.17 418.715   1
   8   1  -5 5480.10 495.141   3
   1  -8   5 6330.64 446.440   3
  -5   8   1 6127.65 520.848   2
   5   8  -1 5418.75 457.421   3
   1   8  -5 5802.80 458.360   3
   1  -5   8 5504.31 264.956   4
   8  -5   1 5880.78 502.798   1
  -8  -1  -5 5218.24 372.865   4
   8   1  -5 3190.95 343.431   4
   5   8  -1 5953.76 473.241   5
   1  -5   8 5512.02 491.015   1
   1  -5   8 5955.44 314.446   2
   1   5  -8 4998.51 468.743   3
   5   1  -8 5670.12 393.945   4
   8   1  -5 5952.32 517.069   5
  -1   8   5 5847.04 235.367   3
   5   1  -8 5630.23 477.657   3
  -1  -5  -8 5014.87 430.827   2
   5  -1   8 4908.20 493.333   1
  -5  -1  -8 4881.77 324.677   2
  -1   5   8 5397.51 399.676   3
   8  -1   5 5941.77 537.940   1
   1  -8   5 5636.26 406.615   1
  -5  -8  -1 5335.23 226.774   1
  -1   8   5 5892.19 235.168   5
  -1   5   8 5532.18 449.643   2
  -1   8   5 5899.19 537.081   2
  -8  -5  -1 5610.85 460.849   4
  -5  -1  -8 5944.73 296.382   4
   5  -1  -8 5036.31 431.667   3
  -1  -8   5 6250.30 404.218   1
  -5   8  -1 4850.74 437.490   1
  -5  -1   8 2186.45 327.994   3
   1   5   8 4219.18 373.852   3
  -8  -5   1 5308.01 389.489   1
   5  -8  -1 4604.15 388.214   1
  -8  -1   5 5495.69 488.344   1
  -1  -8   5 5362.09 423.429   3
  -5   1  -8 4902.37 222.430   2
  -1  -8   5 5552.09 426.049   5
  -5  -8   1 5418.57 479.746   4
   8  -5  -1 5070.66 465.887   1
   8   1   5 5499.84 509.993   1
  -8  -5   1 5537.24 456.428   4
   8   1   5 5818.07 386.360   4
  -1  -8   5 4255.25 376.323   4
  -1  -5   8 4947.48 327.578   2
  -1   8  -5 4874.21 425.128   2
   1   5   8 5206.05 443.880   2
   8   5   1 5526.94 420.268   1
   8  -1  -5 4950.38 448.053   5
  -1  -8   5 5003.51 439.363   2
  -1  -5   8 5741.26 314.679   4
   5   1   8 4933.91 501.873   1
  -5   8  -1 5542.93 483.857   2
  -5  -8   1 4948.45 229.375   1
   1   8   5 5447.98 515.777   2
   8  -1  -5 4908.08 450.014   3
  -5  -8   3 16262.0 571.484   1
   5  -8  -3 15466.5 467.140   3
  -3  -5   8 14768.1 630.309   4
   5  -3  -8 16040.8 762.757   3
   8  -5  -3 15566.8 856.216   1
   5   8   3 14988.1 552.563   1
   3   8   5 15012.0 647.683   1
   3   8   5 15592.4 892.365   2
   3  -5  -8 14865.5 656.873   3
   8   5   3 15554.7 779.395   1
  -3  -8   5 14468.0 780.178   5
  -8   5  -3 15328.7 902.510   1
   5   3   8 14060.1 842.471   1
  -8  -3   5 16218.6 782.905   4
  -3  -8   5 15090.6 811.724   2
  -3   8  -5 15119.1 836.470   1
  -8  -3   5 15287.9 807.723   1
  -8  -5   3 15430.1 804.825   4
   8   3   5 16209.3 751.741   4
   8   5   3 15664.9 807.655   4
  -8  -5   3 15238.1 726.970   1
  -5   8  -3 14457.7 793.387   2
   8  -3  -5 10090.5 656.800   3
  -5  -8   3 16279.4 876.099   2
   3   5   8 14611.7 749.892   2
   8   3   5 16129.2 872.024   1
   5  -8  -3 15268.3 464.861   5
   8  -3  -5 14474.1 762.410   5
  -3   8  -5 15685.9 809.990   2
   3   5   8 14363.6 823.283   1
  -3  -8   5 15437.9 809.480   3
  -3  -8   5 14506.1 756.855   4
  -5  -8   3 14671.5 807.533   4
  -5   5  -8 57.6414 51.1414   2
  -5  -5   8 22.7701 77.1951   4
   5   8   5-38.7847 114.409   2
   5   8   5-11.9009 66.9497   1
   8   5   5 84.7059 97.8156   1
  -5   8  -5 83.1026 97.4990   2
   5  -5  -8 45.9610 69.7753   3
  -5  -8   5 85.6195 114.377   2
  -8  -5   5 55.1848 91.4470   1
  -8   5  -5 150.407 133.897   1
   8  -5  -5-15.2258 71.9549   3
  -5  -5   8-13.2624 118.279   3
   8  -5  -5-46.7565 80.5386   5
  -5  -8   5 29.8987 88.0203   3
  -5  -8   5-0.93207 79.3783   4
  -5   5  -8 12.8693 102.415   1
  -8  -5   5-82.1889 100.902   4
   5  -8  -5 34.7984 36.8567   3
   5   5   8 3.25132 91.7829   1
   6   8  -6 26120.6 1259.29   3
  -6  -8  -6 28016.7 1256.23   4
   6  -8   6 27032.6 1223.42   1
   8   6  -6 27131.7 1323.46   5
  -8  -6  -6 25140.0 1185.11   2
  -6  -6  -8 25031.5 1092.20   4
  -8  -6  -6 28334.9 1154.79   1
  -6   8   6 27242.6 1247.46   1
   6   6  -8 26444.7 1120.18   4
   6   6  -8 26858.1 1294.07   3
   6   8  -6 26436.4 1270.61   5
  -8  -6  -6 27025.0 1157.08   4
   6   8  -6 26595.3 1203.44   4
  -8   6   6 27161.4 1313.00   1
  -6   6   8 27761.6 1311.56   1
   8   6  -6 26342.5 1301.52   3
   8   6  -6 27269.2 1185.03   4
   6  -6   8 26099.7 1277.10   1
  -6   8   6 26046.8 1275.10   2
  -6  -8  -6 27259.5 1310.68   2
  -6   6   8 27463.4 1258.00   2
   8  -6   6 24988.0 1263.12   1
  -6  -8  -4-9.81230 107.104   2
  -6  -4  -8 104.126 87.6809   2
   8   6  -4 69.8730 95.9825   4
  -8   6   4 57.9955 98.9543   1
   6   8  -4-64.1978 110.150   3
  -4  -6  -8 11.1721 86.1868   4
  -4   6   8 111.774 88.9570   5
   4  -6   8 92.8860 85.9133   3
  -4   6   8 214.788 102.889   3
   6   4  -8-95.9695 131.839   3
   4   6  -8 80.2343 125.619   3
   6  -4   8 103.732 41.3458   4
  -4   6   8 95.1987 118.405   2
   4  -8   6 14.3523 85.2694   3
   6  -8   4 82.4647 93.7679   1
  -8  -4  -6 154.653 107.231   1
   4  -8   6 50.1125 84.5847   1
  -6  -4  -8 45.9978 88.3767   4
  -8  -6  -4 10.7194 68.8177   1
   4   6  -8-34.4133 82.6454   4
   8   6  -4 103.486 95.7037   5
   4  -6   8 30.1821 104.968   1
   6   8  -4 46.4933 102.117   5
   8  -4   6-3.88579 122.943   1
  -4  -8  -6-42.1712 95.4004   2
  -6   8   4 103.138 101.814   2
   6  -4   8 82.3867 127.612   1
  -8  -4  -6 131.460 103.868   4
   8  -4   6 53.6633 53.0465   4
  -8  -6  -4 48.7712 83.4086   2
  -6  -8  -4-10.4232 104.541   4
   8   6  -4-30.9547 97.0102   3
   6   4  -8 143.146 108.265   5
  -8  -6  -4 2.96742 95.8150   4
  -6   4   8 44.9052 118.707   1
  -8   4   6 194.557 151.330   1
   8   4  -6 131.123 114.158   3
   8  -6   4 43.4670 109.373   1
   8   4  -6 96.1727 67.7230   4
   4   8  -6 21.0888 100.467   3
  -4   8   6-61.9282 132.257   2
   8   4  -6 130.074 118.780   5
   8   2  -6 9639.06 600.138   4
   2  -6   8 8725.88 629.487   3
   8  -6   2 8452.23 630.452   1
   2  -6   8 8414.31 620.271   1
   2   8  -6 8328.94 604.011   3
  -6  -2  -8 8819.14 445.635   4
   6   8  -2 8695.67 628.647   5
  -8  -6  -2 8473.42 606.381   4
   2  -6   8 8533.93 399.773   2
  -2   6   8 7930.41 482.867   5
   6  -2   8 8271.81 665.540   1
   2  -8   6 7768.32 542.826   3
   6  -8   2 8107.63 566.048   1
  -6  -8  -2 8549.88 388.986   1
   6  -2   8 9193.67 346.385   4
   8  -2   6 10930.3 770.730   1
  -2   6   8 8543.56 499.626   3
   2  -6   8 8956.60 397.260   4
  -2   8   6 8386.41 654.337   2
  -2  -8  -6 8574.35 679.178   2
  -8  -2  -6 8195.79 489.830   4
   6   8  -2 9223.61 648.625   3
  -2   8   6 7806.93 340.990   3
   8   2  -6 9183.14 672.722   5
  -2   6   8 9625.73 644.252   2
   6   2  -8 8206.09 622.063   5
  -8  -6  -2 8537.36 500.357   1
  -8  -2  -6 8273.49 628.970   1
   6   2  -8 9511.46 670.500   3
   8   2  -6 8911.99 661.435   3
   8   6  -2 8565.94 682.518   3
  -6  -2  -8 9639.83 702.718   1
   2  -8   6 8290.46 525.182   2
  -6   8   2 8990.37 665.702   2
  -8   6   2 8843.71 658.679   1
  -2   8   6 9018.06 358.936   5
  -2   8   6 9005.61 566.809   1
  -6  -2  -8 8775.53 494.348   2
  -8  -6  -2 9697.23 657.984   2
   2  -8   6 9096.77 577.064   1
   8  -2   6 8845.92 452.306   4
   2   6  -8 9280.74 662.407   3
  -6  -8  -2 9152.29 662.478   4
   0  -8   6 84.3091 76.2325   5
   0   6  -8 71.2809 91.3160   3
  -6   0   8 185.071 107.795   3
  -6  -8   0 146.212 48.6270   1
   0   8  -6-24.2887 101.188   3
   6   8   0 159.456 122.668   3
  -8  -6   0 105.161 62.1475   1
   8   0  -6 70.2175 72.5981   4
   8   0   6 169.407 66.2390   4
   0  -8   6 159.932 90.4767   2
   0  -8   6 202.502 118.755   1
  -6   8   0 118.445 133.520   2
   0  -6   8 24.0677 49.7816   4
   6   0   8 90.2262 139.865   1
  -8  -6   0 162.597 106.512   4
   0  -6   8 197.683 74.7625   3
   6   0  -8 52.5780 98.0502   3
   0   6   8 31.4349 66.0448   3
  -8   6   0 12.5523 67.4168   1
  -6  -8   0 335.111 147.216   4
   0   8   6-31.6909 125.118   2
   6  -8   0 1.69213 80.0284   1
   8   0  -6 279.184 161.624   3
   6   0  -8 140.499 108.584   5
   8  -6   0 15.2521 102.420   1
  -8   0  -6 181.759 121.235   1
   0   6   8 121.692 113.494   2
   8   0   6 220.228 134.318   1
   0   8   6 158.724 58.9400   3
   0  -8  -6-8.60588 88.9840   2
   0  -6   8 141.068 119.422   1
  -6   0  -8 175.980 68.6934   2
   8   6   0 128.827 91.8948   1
   0  -8   6 95.4409 94.5919   3
   0  -6   8 58.4585 50.4966   2
   0  -8   6 72.5382 76.3743   4
   8   0  -6 144.337 101.832   5
   2   6   8 5541.03 505.144   2
  -8  -6   2 7802.16 475.774   1
   6   2   8 6833.46 594.317   1
   8  -2  -6 8591.90 591.642   3
  -2  -6   8 8665.60 457.703   4
  -8   6  -2 8233.50 657.169   1
  -2  -8   6 8513.30 586.129   3
  -8  -2   6 8912.82 634.886   1
   8   2   6 8273.30 496.755   4
  -2  -8   6 7977.10 512.556   1
   6  -8  -2 7688.56 546.029   1
   6  -2  -8 8721.96 577.881   3
   8  -2  -6 7989.02 570.411   5
   2   8   6 7582.70 485.547   1
  -2  -8   6 8596.27 544.850   4
   8   6   2 8798.62 614.873   4
  -2  -8   6 7776.86 562.350   2
  -2   8  -6 7520.62 517.387   2
   2   6   8 9151.29 623.254   1
  -2  -8   6 7655.32 550.031   5
  -2  -6   8 8421.86 491.938   2
   8   6   2 9163.87 547.333   1
  -2  -6   8 8356.98 603.930   5
   8   2   6 8229.19 643.478   1
  -6  -8   2 8303.96 382.123   1
   6   8   2 8871.22 395.326   1
  -6  -8   2 9387.16 644.578   4
  -6   8  -2 8059.93 594.583   2
   2  -8  -6 8068.17 648.058   2
  -8  -6   2 7758.34 579.949   4
   8  -6  -2 8126.49 606.506   1
  -2  -6   8 9647.74 663.513   3
   2   8   6 8444.64 648.075   2
  -4  -6   8 7.50009 77.2546   4
  -4  -8   6-78.3245 103.108   5
  -8   4  -6 105.013 118.357   1
  -4  -6   8 70.7054 98.3647   5
   6   4   8 158.524 124.187   1
  -4  -8   6 51.3288 98.5561   2
   8   6   4 26.7467 90.9276   1
  -8   6  -4 49.5974 80.2594   2
  -6  -8   4 99.4897 118.085   2
   8   4   6 4.53118 103.846   1
   6   8   4 75.3261 66.3133   1
   4  -6  -8 49.1128 68.0145   3
  -6   8  -4 14.5272 82.4099   1
   8  -6  -4 80.4618 83.1844   3
   6  -8  -4 85.1760 49.1260   3
   8  -4  -6 147.174 111.307   5
  -6   8  -4 14.1055 75.7685   2
  -8  -6   4 29.3237 66.9998   1
   4   8   6 68.0057 79.6993   1
  -4  -8   6 7.51134 83.8674   3
  -8  -4   6 83.3108 76.0647   1
  -8  -4   6 41.9666 80.6025   4
  -6  -8   4 88.8350 55.8806   1
  -6  -4   8 120.150 74.1789   4
  -4   6  -8-19.5438 43.7029   2
  -6   4  -8 29.5162 39.1523   2
  -4  -8   6 46.2981 77.3314   4
  -4   8  -6 80.3716 90.7435   2
  -6   4  -8 116.374 121.924   1
   4   6   8-18.6910 97.1607   2
   6  -8  -4 78.9274 47.0383   5
   4   6   8-1.01881 93.6134   1
   8  -4  -6 21.7151 80.8535   3
  -4   6  -8 60.1948 118.947   1
  -4  -6   8-14.0107 119.684   3
  -6  -8   4-60.3439 104.056   4
   6  -4  -8 17.2089 67.0581   3
   4   8   6 38.2582 103.315   2
  -8   6  -4 32.8825 139.530   1
  -8  -6   4 8.91319 101.785   4
   8  -6  -6 25204.0 978.778   5
   6  -6  -8 24890.8 957.095   3
  -8   6  -6 26074.7 1012.78   2
   6   8   6 27194.9 1051.60   1
   6  -8  -6 24973.3 808.320   3
  -6  -6   8 27199.8 1305.15   3
   8   6   6 26393.9 1159.48   1
  -8  -6   6 26817.3 1103.86   1
   8  -6  -6 25806.4 988.396   3
  -6  -6   8 24839.2 1037.45   4
  -8  -6   6 25799.4 1123.84   4
  -6  -8   6 26800.6 1193.54   2
  -6  -8   6 25154.0 1218.53   3
  -8   6  -6 24197.8 1296.42   1
  -6   6  -8 25729.9 898.646   2
  -6   8  -6 24415.9 1045.42   2
  -6  -8   6 22349.3 1062.37   4
   6   6   8 24595.6 1152.71   1
  -6   6  -8 25182.1 1344.42   1
  -6   8  -6 24552.8 1276.01   1
   8  -7   7 161.123 182.558   1
  -8  -7  -7-72.8265 109.396   4
  -8   7   7 59.9886 87.0623   1
   7   8  -7 56.5967 103.729   4
   8   7  -7-9.30033 77.7007   4
  -7   7   8-325.426 164.415   2
   7  -7   8-41.4630 133.090   1
  -7  -7  -8-52.2310 91.5430   4
   7   8  -7 180.190 173.059   3
  -7   8   7-16.8527 114.551   2
  -7   7   8 37.2662 97.1154   1
   7   7  -8 6.61605 81.3056   4
   7  -8   7 256.728 172.799   1
  -7  -8  -7 162.495 131.103   4
  -8   7   7 152.779 172.720   2
  -7   8   7-91.5626 106.779   1
   7   7  -8-8.91386 122.398   3
  -8  -7  -7 559.445 177.894   2
  -7  -8  -7-228.862 138.212   2
   8   7  -7-63.2571 139.664   3
  -7  -7  -8 190.425 155.194   2
   7   8  -5 17342.5 1004.73   3
   5   7  -8 15531.4 946.726   3
   8   5  -7 16820.0 1005.44   5
  -5  -7  -8 15435.3 865.839   4
  -5   8   7 17043.9 943.212   1
  -7   8   5 16814.0 977.506   2
   8  -5   7 16155.5 654.312   4
  -7  -8  -5 16595.7 977.296   2
   8  -5   7 16326.1 997.106   1
   7   8  -5 17376.5 1002.96   5
  -8   5   7 17117.0 1016.86   1
  -8  -5  -7 15895.9 809.970   4
   5   8  -7 16522.9 967.821   3
  -5   8   7 16395.1 969.439   2
   8   5  -7 16292.4 997.759   3
  -7  -5  -8 15307.9 772.196   4
   7   5  -8 17983.3 1030.60   3
   5  -8   7 16371.1 874.278   3
   7  -5   8 16492.2 1003.55   1
  -5   7   8 16166.6 736.307   3
  -8  -7  -5 17845.5 934.278   4
   8   7  -5 17554.6 1025.22   3
  -8  -7  -5 17101.5 800.655   1
   5  -7   8 16138.4 946.493   1
  -5  -8  -7 14298.7 869.031   4
   8   7  -5 16708.8 1002.08   5
  -7  -8  -5 16326.8 928.306   4
  -5   7   8 16746.2 964.293   2
   7  -5   8 16388.8 587.842   4
  -7   8   5 16729.2 954.487   1
   7  -8   5 16435.5 931.757   1
   5  -7   8 16896.4 919.783   3
  -8  -7  -5 16770.8 943.604   2
   8   7  -5 15990.3 902.859   4
   5  -8   7 15987.6 906.432   1
  -5   7   8 15811.4 932.909   1
   7   5  -8 17469.9 1015.69   5
   8   5  -7 17268.8 890.486   4
  -7   5   8 17006.6 1011.52   1
  -8   7   5 16279.1 972.925   1
   8  -7   5 14253.7 902.843   1
  -5  -7  -8 16601.0 954.735   2
   7   8  -5 16966.7 927.120   4
  -8   7   5 15333.0 927.372   2
  -8  -5  -7 17280.8 917.651   1
  -5  -8  -7 16422.8 981.522   2
   7   5  -8 17067.3 855.510   4
   8  -3   7 6305.37 363.729   4
  -7   8   3 6425.73 559.206   1
   7   3  -8 6134.29 474.371   4
   3  -8   7 6129.57 417.925   2
  -3   8   7 5957.38 559.994   2
  -7   3   8 6345.87 597.537   1
   3  -8   7 6434.54 526.275   3
  -7  -8  -3 5380.54 521.565   4
  -8  -3  -7 5967.75 432.644   4
   8   3  -7 6589.89 591.466   5
  -8  -7  -3 6508.50 564.907   2
   7   8  -3 5664.78 522.225   4
   7  -8   3 6455.38 541.784   1
  -7  -8  -3 6209.57 565.503   2
   7   3  -8 6872.29 595.841   3
   8   7  -3 5969.37 531.199   4
   8   7  -3 6279.33 589.444   3
  -3   7   8 6827.99 573.560   2
  -8  -3  -7 6093.86 551.565   1
  -8   7   3 5763.25 549.182   1
   3   8  -7 6111.95 545.437   3
  -7   8   3 7006.24 600.360   2
  -8   3   7 5361.36 548.827   1
  -8  -7  -3 6084.99 530.742   4
  -3   8   7 6083.73 345.599   3
   7  -3   8 5798.07 579.557   1
  -7  -3  -8 7007.17 598.955   1
   8  -7   3 6077.70 542.928   1
   3   7  -8 6932.66 588.655   3
  -3  -8  -7 7036.27 627.692   2
  -8  -7  -3 6647.90 435.868   1
   3  -8   7 6100.89 520.742   1
   8   3  -7 6247.19 577.487   3
  -8   7   3 5995.89 547.066   2
   7   3  -8 6900.18 598.607   5
   8  -3   7 7308.00 655.123   1
  -3   7   8 6773.28 422.974   5
  -8  -3  -7 6345.52 460.669   2
   8   7  -3 5992.77 573.244   5
   3  -7   8 6191.43 533.124   3
  -7  -8  -3 5524.69 364.244   1
   3  -7   8 5474.83 513.901   1
  -7  -3  -8 5588.75 436.724   2
   7   8  -3 5384.50 531.721   3
   7  -3   8 6653.92 320.030   4
  -7  -3  -8 5577.66 396.394   4
   8   3  -7 5890.29 480.604   4
   3  -7   8 5838.03 356.149   2
  -3   7   8 5914.71 401.503   3
   7   8  -3 6839.70 589.276   5
   1   7  -8 24283.6 1113.87   3
  -7  -1  -8 25600.0 1212.61   1
  -8  -7  -1 22447.3 1062.60   4
  -1   7   8 23306.2 851.503   3
  -8   7   1 22888.5 1114.86   1
  -7  -1  -8 21542.9 780.338   2
   8  -1   7 20768.0 1130.64   1
   8   1  -7 22791.9 984.296   4
  -1   7   8 20588.8 1031.45   2
   1  -7   8 23533.1 1065.97   1
  -8  -7  -1 23834.1 843.204   1
   1  -8   7 22619.6 1014.36   3
  -1   8   7 22498.3 738.512   3
  -1  -8  -7 23904.4 1180.66   2
   7   1  -8 21435.9 1048.23   3
   8   7  -1 21544.7 1104.82   3
  -8   7   1 23794.0 1101.23   2
   7  -1   8 21576.9 1145.06   1
   1  -7   8 22142.7 836.031   2
  -1   8   7 23036.8 1123.03   2
   7  -1   8 23855.7 723.867   4
   8   1  -7 22687.9 1092.64   3
  -7   1   8 22563.7 1104.69   3
   7  -8   1 23087.5 1025.62   1
  -8  -7  -1 22559.9 1091.54   2
  -7  -1  -8 23006.6 759.715   4
   8  -7   1 21840.3 1047.16   1
   8  -1   7 22793.7 771.881   4
   7   8  -1 23442.4 1107.64   3
  -7  -8  -1 21241.6 1061.67   4
   1  -8   7 23418.5 888.417   4
   1  -8   7 22230.1 918.499   2
   1  -7   8 22441.9 773.327   4
   1  -8   7 22809.7 997.551   1
   7   1  -8 23611.3 1094.70   5
  -8   1   7 23266.7 1142.78   1
  -8  -1  -7 23765.2 830.349   4
   1   8  -7 22919.4 1067.45   3
  -8  -1  -7 21443.1 1102.44   1
  -7   8   1 20953.1 1066.67   2
   1  -7   8 23774.5 1068.71   3
  -7  -8  -1 22382.8 722.090   1
   8   1  -7 23914.1 1110.75   5
  -1  -8   7 22702.7 904.783   4
   8   1   7 21731.8 1149.99   1
  -7   8  -1 23306.8 1097.99   2
   7  -1  -8 23252.6 1054.78   5
   1   7   8 22267.5 1092.70   2
  -8   1  -7 22228.8 1166.30   1
   1   8   7 20933.3 807.827   3
   1  -8  -7 23927.8 1179.53   2
  -8   7  -1 22343.7 1057.35   2
   7  -8  -1 23314.1 1039.27   1
   7  -1  -8 23089.0 995.334   4
   8  -7  -1 23537.2 1079.57   1
   7   8   1 22314.2 756.646   1
   1   8   7 20952.5 1098.53   2
  -1  -7   8 23654.5 840.697   4
  -1  -7   8 22337.2 1037.75   1
  -1  -7   8 21562.2 1030.62   5
  -7  -8   1 23580.1 760.060   1
  -7  -1   8 20931.9 1118.37   3
   8  -1  -7 24247.6 1037.58   4
   7   1   8 20030.2 1112.05   1
   1   7   8 20875.1 870.837   3
  -1  -8   7 24455.8 1013.88   1
  -7  -8   1 23053.8 1095.56   4
  -1  -8   7 20421.0 982.930   5
  -1  -7   8 22494.6 921.354   2
   7  -1  -8 21538.5 1019.04   3
   8   7   1 21653.5 857.299   1
  -7   1  -8 21620.3 1169.71   1
  -7   8  -1 21391.1 1082.88   1
   8   7   1 22087.7 1067.80   4
  -8  -7   1 23441.8 853.053   1
  -8   7  -1 21741.0 1121.73   1
  -1  -7   8 23769.1 1089.21   3
   8  -1  -7 23219.0 1070.44   5
   8  -1  -7 21223.3 1031.15   3
  -8  -7   1 22382.5 1063.70   4
  -8  -1   7 23480.1 1130.52   1
  -1  -8   7 22151.5 1030.08   3
   8   1   7 22914.4 851.965   4
  -1  -8   7 22459.7 987.171   2
  -3  -8   7 4603.50 457.833   5
   3   7   8 5750.98 492.723   1
   7   3   8 6046.77 572.291   1
  -3  -7   8 5091.09 501.275   3
  -3  -7   8 5537.18 439.095   2
   7   8   3 6326.51 399.188   1
   8   7   3 6651.62 453.856   1
  -7   8  -3 5853.71 505.905   2
   7  -8  -3 6047.48 504.819   1
  -8   7  -3 5920.97 497.529   2
   8  -7  -3 5907.84 527.919   1
   8  -3  -7 5688.26 483.689   3
  -8  -3   7 5564.87 514.417   1
  -3  -8   7 5785.83 525.003   3
  -7  -8   3 6139.51 374.000   1
   3   8   7 6528.77 481.444   1
   3   8   7 5758.69 542.390   2
   8  -7  -3 5380.29 396.888   3
   7  -3  -8 5220.74 452.658   5
  -7  -3   8 5772.39 564.515   3
  -8  -7   3 6276.28 532.282   4
   8  -3  -7 5436.06 469.768   5
  -7   8  -3 6260.94 584.150   1
  -3   7  -8 5371.81 344.176   2
  -7  -8   3 6472.80 569.659   2
  -3   8  -7 5563.73 421.770   2
  -3  -8   7 6302.44 499.156   2
  -8  -7   3 5783.84 407.012   1
  -3  -7   8 6095.42 539.209   5
   7  -3  -8 6437.50 493.161   3
  -3  -8   7 6157.05 457.638   4
  -7  -8   3 6166.70 535.624   4
  -7   3  -8 6300.35 624.920   1
  -3  -7   8 5786.26 419.421   4
   7  -8  -3 5134.49 335.395   3
  -8   7  -3 7590.85 661.656   1
   3   7   8 5952.97 526.309   2
   8   3   7 4805.93 511.095   1
   7  -8  -5 16662.1 646.249   3
   7  -8  -5 16531.5 641.087   5
  -7  -5   8 17045.5 1025.47   3
  -8  -7   5 17081.7 800.566   1
  -8  -7   5 15663.1 881.818   4
  -8   5  -7 15432.1 697.243   2
  -8  -5   7 16369.3 843.585   4
  -5  -8   7 17032.2 979.800   3
  -5   7  -8 16851.2 1080.74   1
  -5  -7   8 15853.6 793.070   4
   7  -5  -8 16858.1 797.948   3
   8  -7  -5 16126.0 719.729   5
   8  -5  -7 16621.9 806.048   3
  -7   8  -5 16853.6 854.729   2
  -7   5  -8 16100.9 640.697   2
  -5   7  -8 15052.1 690.752   2
  -7   8  -5 19209.3 1092.09   1
   8  -7  -5 16605.1 729.396   3
   5   7   8 17437.5 915.671   2
  -7  -8   5 19224.4 1009.35   2
   7   8   5 14866.0 742.909   1
   5   8   7 16705.3 826.340   1
  -8   7  -5 16578.3 832.919   2
  -5  -7   8 17469.5 984.455   5
   7   5   8 13615.3 881.071   1
   5   8   7 14243.7 884.979   2
  -5  -8   7 18128.1 919.519   2
  -8   7  -5 17065.3 1054.60   1
  -8  -5   7 17551.1 921.735   1
  -7   5  -8 18526.6 1120.47   1
  -5   8  -7 17711.7 1074.27   1
  -8   5  -7 18098.8 1099.23   1
  -5  -7   8 18104.9 885.890   2
   8  -5  -7 16978.7 813.794   5
  -5   8  -7 15011.4 785.972   2
   8   7   5 15039.2 803.511   1
   5   7   8 16966.2 893.982   1
  -7  -8   5 16083.9 740.195   1
  -5  -8   7 16579.9 839.627   4
   8   5   7 15053.2 917.019   1
  -7  -8   5 18687.2 946.452   4
   5  -7  -8 16752.8 688.660   3
  -7  -5   8 16288.1 811.109   4
   5  -8  -7 16946.1 611.951   3
  -5  -7   8 16598.6 984.453   3
  -7  -8   7 14.0977 77.8592   4
   7   8   7-100.546 110.452   1
   7   7   8 178.016 137.879   1
   8  -7  -7-14.3045 59.4345   3
  -7   7  -8-54.3405 69.5537   2
  -7   8  -7-45.7856 166.328   1
   8  -7  -7 68.7069 67.3957   5
  -7  -8   7 183.437 131.342   2
  -8  -7   7 23.8514 85.9340   1
   7  -7  -8 20.8076 74.0069   3
   8   7   7 119.886 126.989   1
   7  -8  -7 54.1125 52.9835   3
  -7  -7   8 7.02308 86.7434   4
  -8  -7   7 16.2844 88.7750   4
  -7   8  -7 80.8978 82.2982   2
  -8   7  -7 14.4050 65.7911   2
  -7  -8   7-40.7850 87.4285   1
   8   8  -8 56667.8 2214.81   3
  -8  -8  -8 59609.6 2168.54   2
   8  -8   8 53926.4 2129.22   1
  -8  -8  -8 57479.0 2032.12   4
  -8   8   8 60246.4 2202.10   2
  -8   8   6-49.7884 97.4301   1
  -8  -6  -8 27.3737 103.317   4
  -8  -8  -6-84.5468 117.538   4
   6  -8   8 83.8704 82.9087   3
  -8   8   6 90.5284 133.739   2
  -6  -8  -8 92.3187 111.267   4
   6   8  -8 167.659 114.001   4
   8   8  -6-73.4138 130.248   3
   6   8  -8-68.7612 140.782   3
  -6   8   8 38.0383 122.837   2
  -8  -6  -8 3.59265 97.0332   2
   8  -8   6-193.451 161.061   1
   8   6  -8 236.988 159.900   3
   6  -8   8 79.9490 143.961   1
   8   8  -6-70.4878 105.903   4
   8  -6   8 3.69175 59.2102   4
  -8  -8  -6-105.874 106.960   2
   8   6  -8 76.4779 74.9830   4
  -6  -8  -8 167.200 123.892   2
  -6   8   8-74.9499 101.152   1
   8  -6   8 203.021 164.139   1
  -8   4   8 22053.9 1208.88   1
   8  -4   8 22219.1 749.783   4
  -4  -8  -8 23498.4 1217.96   2
  -8   8   4 22682.0 1180.57   2
   8  -8   4 21323.4 1104.85   1
   4   8  -8 22919.4 1170.38   3
  -4   8   8 21273.9 818.745   3
   8   8  -4 20160.4 1132.31   3
  -8  -4  -8 21233.9 1113.74   1
  -4   8   8 19447.7 1098.59   2
   8  -4   8 22146.1 1236.77   1
  -8  -4  -8 21361.1 921.074   4
   8   4  -8 22502.8 1026.84   4
   4  -8   8 22379.3 1115.69   1
  -8  -8  -4 19741.1 1072.18   4
  -8  -8  -4 22898.1 1177.88   2
   8   4  -8 21131.7 1161.49   3
  -8  -8  -4 23340.1 900.309   1
   4  -8   8 24036.3 1122.93   3
  -4   8   8 20999.3 1075.38   1
   8   8  -4 21639.0 1168.10   5
  -8   8   4 22111.8 1158.82   1
   8   8  -4 22349.7 1112.37   4
  -8  -8  -2-2.20673 57.2350   1
  -8  -2  -8 53.9203 71.7167   4
   2   8  -8-14.4885 114.292   3
   2  -8   8-13.0778 56.0991   2
   8   8  -2 92.0409 109.059   4
  -8   8   2 115.067 142.179   2
  -8  -2  -8 65.5803 116.428   1
   8   8  -2-44.6397 152.394   3
   8   2  -8-142.966 131.081   5
  -2   8   8-15.9534 65.7545   5
  -2   8   8 64.6605 73.8814   3
  -2  -8  -8-179.628 122.367   2
  -8   8   2-69.4364 128.265   1
  -8   2   8-130.186 148.416   1
   2  -8   8-33.2240 63.9204   4
   8  -2   8 10.3874 44.6987   4
  -8  -8  -2-27.8090 81.1798   2
  -8  -8  -2-46.7495 122.828   4
   8  -8   2 65.0241 106.587   1
   8  -2   8-62.7133 108.904   1
  -8  -2  -8-13.8869 66.6012   2
   2  -8   8 22.6340 98.4200   1
  -2   8   8-37.8282 125.231   2
   2  -8   8 71.4787 82.3112   3
   8   2  -8 52.8621 103.278   3
   8   2  -8-28.8632 82.2391   4
  -8  -8   0 1750.15 306.352   4
   0  -8   8 1751.01 215.779   4
  -8  -8   0 1448.04 282.037   2
   0  -8   8 1723.94 287.231   3
   8   0   8 1197.69 285.393   1
   0   8  -8 1349.27 263.587   3
   8   0  -8 1278.44 263.066   5
  -8   0   8 1309.78 270.608   1
  -8  -8   0 1441.66 179.038   1
   0  -8   8 1882.90 288.740   1
   8   0  -8 1319.03 259.577   3
   8  -8   0 1653.93 292.279   1
   0  -8  -8 1652.70 308.944   2
   0  -8   8 1360.08 220.774   2
  -8   8   0 2155.85 344.791   1
   8   0   8 1440.70 181.854   4
  -8   8   0 1433.84 276.271   2
   8   0  -8 1831.80 273.374   4
   0   8   8 1039.90 241.097   2
   0  -8   8 2196.70 318.116   5
   0   8   8 1592.09 211.054   3
  -8   0  -8 1082.38 257.136   1
   8  -2  -8 15.5055 71.2179   5
  -8  -8   2 97.1747 69.8952   1
  -8   8  -2 56.3873 113.803   2
  -8   8  -2-85.6552 156.337   1
   2   8   8 164.117 145.085   2
  -2  -8   8 27.0247 70.9423   4
   8  -2  -8 43.5196 103.014   3
  -2  -8   8 69.6143 120.033   1
   8   2   8 88.1404 148.067   1
   8  -8  -2 124.343 120.248   1
  -8  -2   8-72.7059 109.473   3
  -8  -2   8 81.0816 88.7060   1
   8   8   2 26.6758 65.3563   1
  -2  -8   8 79.1720 114.014   3
  -2  -8   8-88.3789 116.620   5
  -2  -8   8 55.3781 70.3808   2
  -8  -8   2 53.3775 113.333   4
  -8   2  -8-340.110 169.384   1
  -8  -8   2 185.973 123.380   2
   2   8   8-11.6213 91.8934   1
   8  -2  -8 20.8686 90.9232   4
   8   8   4 22301.3 922.437   1
   4   8   8 22083.5 1027.91   1
  -8  -4   8 21644.5 1102.97   1
  -4  -8   8 22465.2 1142.75   5
  -4   8  -8 23119.9 1270.43   1
  -8  -8   4 24060.8 925.096   1
   8  -8  -4 24535.8 873.698   3
  -4  -8   8 24332.5 1000.97   4
   8  -8  -4 23001.1 851.383   5
   8  -4  -8 24394.5 1063.94   3
   4   8   8 23278.3 1145.71   2
   8   4   8 23253.6 1201.51   1
  -4  -8   8 23038.0 1168.75   3
  -4  -8   8 22313.4 1029.71   2
  -8   8  -4 23703.1 1090.49   2
   8  -4  -8 21054.0 997.284   5
  -8   4  -8 22379.8 1278.65   1
  -8  -4   8 23950.2 1255.12   3
  -8  -8   4 25055.7 1214.74   2
  -4   8  -8 23270.2 903.994   2
  -8   8  -4 23036.0 1255.86   1
  -8   4  -8 23028.9 802.457   2
  -8  -8   4 21671.1 1097.10   4
  -6   8  -8 52.1002 114.621   1
   8   6   8 61.5269 141.863   1
   6  -8  -8 22.1818 58.1026   3
   6   8   8-2.11464 110.083   1
  -8   6  -8 63.9333 80.4718   2
  -6  -8   8-9.99006 91.8012   4
  -8  -6   8 56.5795 84.1708   1
   8  -6  -8-47.3696 105.681   3
  -8  -6   8 94.6377 121.065   4
  -8  -8   6 42.9206 88.0049   1
   8  -8  -6-44.4163 58.8245   3
  -6  -8   8 47.5944 74.9181   2
   8   8   6 36.1741 63.2632   1
  -8  -8   6-109.911 129.094   4
   8  -8  -6-34.5693 56.8836   5
  -6   8  -8-277.417 120.772   2
  -8   8  -6-43.9835 103.933   1
  -8   8  -6 109.433 93.6842   2
  -8   8  -8 56597.8 1762.90   2
  -8  -8   8 57334.3 1898.70   1
   8   8   8 55743.5 1964.68   1
   8  -8  -8 57596.1 1665.86   3
  -8  -8   8 53261.7 1907.54   4
   1   0  -9 37436.5 991.623   4
   9   0  -1 36348.8 1400.12   1
   0   1  -9 37418.4 888.230   4
   1   0  -9 37358.6 1345.76   3
   0   9  -1 34738.1 1056.57   3
   0   9   1 35108.0 931.305   1
   0   9   1 36678.1 918.606   3
   0   9  -1 35147.5 978.499   1
   1  -9   0 37911.7 993.564   1
   0  -9   1 37164.7 1466.53   2
  -9  -1   0 37097.0 1275.21   4
   0   9   1 37766.1 1518.13   2
   0   9  -1 35116.5 1457.09   2
   0   1   9 38975.4 1081.38   2
  -9   0   1 37924.2 1395.19   1
   0  -9   1 38882.9 935.160   1
   9   0   1 37714.5 1274.74   4
   9   0   1 39727.6 1456.97   1
   1   9   0 36909.2 1497.04   2
   0  -9   1 38157.4 1061.04   3
  -1   9   0 36757.5 1486.15   2
   1   9   0 36337.9 1054.11   3
  -1   9   0 35485.3 1037.21   1
  -9  -1   0 41259.9 1413.17   1
   9   1   0 35833.9 1387.83   1
   1   0   9 38774.2 968.708   2
   9  -1   0 35886.6 1260.18   4
   9  -1   0 34755.1 1385.89   1
  -9   0  -1 35429.8 1372.53   1
   0  -1   9 40175.2 969.892   2
   9  -1   2 17574.1 787.599   4
  -2   9   1 17041.2 701.573   1
  -9  -2  -1 17701.8 825.160   4
   1   2  -9 17887.1 900.025   3
   1   9  -2 17680.4 945.895   2
   1   2  -9 18290.6 578.337   4
  -1   2   9 18341.5 740.076   2
   2  -1   9 17898.9 976.553   1
   1  -9   2 17217.1 916.950   2
  -9  -1  -2 18748.2 918.332   1
   2   9  -1 16348.6 924.190   2
   2   9  -1 17863.9 734.612   3
   1  -9   2 18322.3 673.440   3
   9   1  -2 19451.9 947.161   1
   1  -2   9 18795.8 994.733   1
  -1   9   2 18457.1 1004.66   2
  -2   9   1 15949.2 930.182   2
   1  -9   2 18158.8 666.214   5
   2   1  -9 18883.2 904.543   3
  -1   9   2 17859.4 655.561   1
  -9  -1  -2 18484.6 811.072   4
  -9  -2  -1 17897.1 869.992   1
   2  -9   1 18794.8 680.173   1
   1  -9   2 19181.2 663.519   1
   2   9  -1 17534.8 727.892   5
   9  -2   1 17200.0 920.517   1
   9  -1   2 19322.9 971.096   1
   2   1  -9 17978.3 637.337   4
   2  -9   1 18110.3 940.799   2
   1   9  -2 18110.3 739.469   3
   2  -9   1 18896.6 601.960   5
   9  -2   1 19151.0 829.001   4
   9   2  -1 19328.5 932.574   1
   2  -9   1 18537.6 603.940   3
  -9  -2   1 18425.6 845.076   4
  -1  -9   2 17462.5 707.685   3
  -2   9  -1 16268.9 925.639   2
   2   9   1 18801.1 681.399   3
   9   1   2 18085.8 803.006   4
   1   9   2 16777.5 559.694   5
   9   2   1 17397.7 888.364   1
   2   1   9 18391.4 980.459   1
   9   1   2 18093.1 917.583   1
   1   9   2 17766.0 568.690   3
   2   1   9 17895.5 593.703   2
   2  -9  -1 16545.1 631.614   1
  -1   9  -2 17538.3 956.063   2
   2   9   1 17463.6 658.457   5
  -1  -9   2 17873.3 951.770   2
  -1   9  -2 17474.9 695.637   1
  -9  -1   2 16165.0 846.677   1
   1   9   2 17995.1 989.576   2
  -2   9  -1 16504.0 707.496   1
  -2  -9   1 15585.6 915.947   2
   2  -1  -9 16203.4 816.066   3
   1   9   2 17877.4 487.875   1
  -1  -9   2 17891.5 526.838   1
   9  -1  -2 17088.8 913.336   1
   9  -2  -1 17598.0 919.214   1
   1   2   9 16478.9 679.291   2
  -9  -2   1 17131.6 842.853   1
   9   2   1 18129.0 822.456   4
   2   9   1 18330.5 989.809   2
   3  -9   2 11067.1 487.834   3
  -3  -2  -9 11720.9 470.478   4
   3   2  -9 10249.8 486.754   4
   2  -9   3 10447.5 680.949   2
   3   9  -2 9913.31 583.017   3
  -2  -3  -9 10018.7 523.528   2
  -2   3   9 10995.1 605.242   2
  -2   9   3 9902.45 519.317   1
   9  -2   3 11604.4 601.048   4
   3   2  -9 10576.6 685.975   3
  -9  -3  -2 10959.9 652.730   1
  -3  -2  -9 10101.4 467.604   2
   3  -2   9 11105.6 758.648   1
   2  -9   3 10851.5 535.422   1
   2  -3   9 11272.5 760.675   1
   9   2  -3 10198.4 735.892   3
  -9  -2  -3 10361.3 600.672   4
   2   9  -3 10888.5 711.447   2
   9  -3   2 11372.2 613.513   4
   9   3  -2 10746.4 669.906   1
  -3   9   2 10110.2 562.135   1
   3  -9   2 10061.4 534.431   1
   2   3  -9 9585.82 662.551   3
  -2   3   9 10602.8 640.665   3
   3  -9   2 9986.52 666.276   2
   3   9  -2 9824.58 580.288   5
  -9  -2  -3 10385.3 665.745   1
  -3   9   2 10437.4 735.628   2
   2   9  -3 10531.5 598.483   3
   9  -2   3 9712.57 699.722   1
   2  -9   3 10270.5 515.649   3
  -9  -3  -2 11025.1 637.319   4
   2   3  -9 10699.3 467.041   4
   9  -3   2 9637.97 684.816   1
  -2   9   3 10185.9 729.804   2
   9   0   3 19435.7 815.504   4
  -9  -3   0 18520.8 860.651   1
  -3  -9   0 16761.5 937.106   4
   0   9  -3 17837.5 765.716   3
   3  -9   0 18970.7 729.456   1
   3  -9   0 17684.1 954.097   2
   0   9   3 17744.9 623.122   1
   3   9   0 18527.3 991.975   2
   0  -9   3 18011.6 740.294   3
   3   9   0 18312.0 767.635   3
   3   9   0 18105.0 758.636   5
   0  -3   9 16683.3 944.376   1
   0   3   9 17903.5 766.213   2
  -9   0  -3 18887.9 949.122   1
   9   0  -3 15920.9 894.232   1
  -3   9   0 17587.3 772.387   1
  -3   9   0 17768.2 963.927   2
   3  -9   0 18719.0 531.068   5
   3   0  -9 17506.2 870.614   3
   9   3   0 17727.4 887.581   1
   0  -9   3 17944.9 731.384   5
   3   0  -9 18328.8 694.602   4
   9   0   3 16812.7 928.809   1
  -9   0   3 20671.3 976.812   1
  -9  -3   0 18824.7 872.400   4
   0   9  -3 17139.0 920.294   2
   9  -3   0 18834.9 961.406   1
   0   9   3 16336.2 961.948   2
   3  -9   0 18210.3 530.289   3
   0  -3   9 18524.9 550.761   2
   0  -9   3 17690.5 931.592   2
   0  -9   3 18113.9 651.566   1
   3   0   9 18140.0 988.706   1
   3  -2  -9 10356.5 620.841   3
   2   9   3 10494.4 377.295   1
  -2   9  -3 10349.5 591.817   1
  -3  -9   2 11672.2 764.974   2
   9  -2  -3 12207.8 764.417   1
   9   3   2 10598.3 628.909   4
  -9  -2   3 10488.8 659.725   1
   3   2   9 11014.9 751.658   1
  -3  -9   2 11019.6 313.118   1
   9   3   2 10257.6 665.178   1
  -3  -9   2 9867.93 685.056   4
  -2  -9   3 10188.9 671.245   4
   2   9   3 10527.3 359.409   1
   3   9   2 10141.2 528.654   3
   2   3   9 11403.1 569.903   2
   2   3   9 9017.44 685.532   1
  -2  -9   3 11036.0 731.885   2
   3   2   9 10488.9 471.093   2
   3   9   2 10930.2 758.370   2
  -2  -9   3 11567.9 612.552   3
  -2   9  -3 10075.7 696.583   2
  -2  -9   3 11885.5 431.789   1
   9  -3  -2 11059.4 724.659   1
   2   9   3 10139.3 738.785   2
  -9  -3   2 10203.0 630.655   4
  -9  -2   3 11612.2 653.495   4
   9   2   3 11021.0 711.911   1
  -3  -9   2 10925.7 315.405   1
  -3   9  -2 10215.2 707.046   2
  -3   9  -2 10178.9 593.580   1
   9   2   3 10557.7 601.154   4
  -9  -3   2 10499.3 635.953   1
   3  -9   4 16254.5 760.871   1
   3  -9   4 17177.1 746.101   3
  -3  -4  -9 15222.8 760.366   2
  -9  -3  -4 18797.9 911.365   1
   4  -3   9 16604.1 962.955   1
   4  -9   3 17589.5 722.232   3
   3  -9   4 16859.1 849.205   2
   3   4  -9 15860.8 896.959   3
   4   3  -9 17150.6 922.612   3
  -4   9   3 16113.9 950.566   2
  -4  -3  -9 15647.8 654.011   4
   9  -4   3 15520.3 912.219   1
   3  -4   9 16008.0 939.135   1
   4   9  -3 16649.4 846.384   5
   4   9  -3 16536.0 840.345   3
  -3   4   9 18399.8 865.422   2
  -9  -4  -3 17073.6 844.181   4
  -3   9   4 16688.5 776.757   1
  -9  -4  -3 16124.2 822.259   1
   9  -3   4 17184.1 753.290   4
  -3   4   9 16414.5 822.977   3
  -3   9   4 16791.3 973.430   2
  -9  -3  -4 17368.4 816.586   4
  -4  -9  -3 15058.9 913.644   4
   9  -3   4 16067.7 945.327   1
   3   9  -4 14787.5 802.676   3
  -3  -9  -4 15581.1 958.981   2
   4   3  -9 16582.2 701.335   4
  -4   9   3 16628.3 799.758   1
   4  -9   3 16096.3 767.532   1
   9   3  -4 16874.1 984.194   3
   9   4  -3 15686.9 957.365   3
  -3   4   9 15592.8 808.799   5
   4  -9   3 16543.8 856.454   2
  -4  -3  -9 17469.4 753.752   2
   3   4  -9 17144.5 695.732   4
  -4  -9  -1 23717.9 1154.53   4
  -1   4   9 25313.6 1011.93   2
   1   9  -4 24600.8 1005.46   3
   4   1  -9 25032.9 1103.36   3
  -1   9   4 25293.7 1216.17   2
  -4  -1  -9 25716.6 695.279   4
   4  -9   1 25173.9 781.652   3
   4   9  -1 23799.7 990.400   5
  -4   9   1 23455.0 982.407   1
  -1   4   9 24212.0 1017.82   3
   1  -9   4 24847.7 937.769   3
   9   4  -1 25838.3 1070.97   1
   4  -9   1 23714.6 928.247   1
  -4  -1  -9 24713.6 741.769   2
   4   9  -1 25175.2 1019.12   3
   1  -9   4 24283.0 1094.88   2
   4   1  -9 24678.5 890.391   4
  -1   9   4 23483.5 863.059   1
   1   4  -9 26815.2 1167.68   3
   1   9  -4 24254.4 1098.42   2
  -9  -1  -4 26540.6 1162.49   1
   9  -4   1 25249.4 1159.67   1
  -4   9   1 25381.3 1179.86   2
   1  -9   4 25377.6 935.837   5
   1  -4   9 24075.3 1155.41   1
  -9  -4  -1 24227.4 1050.95   4
  -9  -1  -4 24890.4 958.005   4
   4  -1   9 25478.7 1214.20   1
   1  -4   9 25682.1 660.738   2
   9  -1   4 25816.6 951.266   4
   1  -9   4 24414.1 896.484   1
  -9  -4  -1 26199.2 1035.64   1
   4  -9   1 26699.7 1155.30   2
   9   1  -4 25006.0 1180.45   3
   9  -1   4 22886.3 1145.65   1
  -9  -4   1 26187.4 1097.85   4
  -1  -9   4 27156.0 1010.16   5
   4  -1  -9 26882.5 1102.93   3
   9   1   4 24977.6 1181.32   1
  -1  -9   4 24565.4 1098.67   4
  -1  -9   4 25768.5 851.458   1
   9   4   1 26558.7 1088.74   4
  -4   9  -1 24949.6 1040.56   1
   4  -9  -1 27077.1 643.577   3
  -1  -9   4 24781.1 1145.98   2
  -4  -1   9 25698.2 1176.50   3
   1   4   9 27717.9 1057.97   2
   4  -9  -1 27107.5 975.181   1
   9  -4  -1 26375.6 1186.27   1
   9  -1  -4 27635.3 1192.64   3
   9   4   1 25856.6 1099.01   1
   4   1   9 21467.7 1140.62   1
  -1  -4   9 27953.4 834.684   2
   4   9   1 24563.0 1190.24   2
  -1   9  -4 24823.3 1133.39   2
  -1  -9   4 26123.0 1013.80   3
   1   9   4 25947.5 1254.10   2
  -4   9  -1 25894.6 1179.55   2
  -4  -1   9 25725.3 1167.08   5
  -9  -4   1 25533.7 1036.48   1
  -1  -4   9 26278.5 751.872   4
   9   1   4 27299.2 1002.74   4
  -9  -1   4 27450.6 1181.31   1
   1   9   4 26607.3 821.817   1
   4   9   1 26634.7 1017.29   3
  -4  -9   1 26940.6 1200.93   4
   9   3   4 19337.9 868.630   4
  -9  -4   3 19400.1 889.789   1
   4  -3  -9 19363.3 865.953   3
  -3  -9   4 18089.2 872.560   3
   4   9   3 18275.9 528.935   1
  -3   9  -4 18057.8 894.683   1
   3   4   9 17563.2 969.286   1
  -9  -3   4 18034.1 875.551   4
  -9  -3   4 19579.2 934.312   1
   4   9   3 18081.8 1008.45   2
  -4  -9   3 18145.4 607.954   1
   9   4   3 17823.6 912.808   1
  -3   9  -4 18095.9 948.460   2
   3   9   4 18522.4 1028.41   2
   9  -4  -3 18234.4 981.908   1
  -3  -9   4 18466.9 972.167   2
   9  -3  -4 18909.4 923.266   3
   3   4   9 18177.9 799.612   2
  -3  -4   9 17071.4 669.641   4
  -3  -9   4 18636.6 682.300   1
  -4  -9   3 18193.1 983.003   2
  -4  -9   3 18788.0 950.161   4
  -4   9  -3 17179.8 881.650   1
  -3  -9   4 17193.3 896.234   4
   3  -4  -9 19245.2 826.783   3
   9   4   3 19453.5 898.093   4
  -4   9  -3 18467.5 955.059   2
   3   9   4 19026.5 637.620   1
   9   3   4 19640.3 987.882   1
   4   3   9 16935.7 964.214   1
  -9  -4   3 18278.4 894.860   4
  -4  -9   3 19403.6 590.579   1
  -5   9   4 6556.84 598.029   2
   4  -9   5 6379.13 493.309   2
   9   5  -4 7440.87 567.716   4
   9   4  -5 7109.70 640.905   3
   9   4  -5 7188.78 552.353   4
   9  -5   4 7232.32 622.615   1
  -5  -9  -4 5638.52 557.532   4
  -9   4   5 6644.80 608.804   1
   4   5  -9 6952.11 601.397   3
   5  -9   4 7841.03 554.635   1
  -4   5   9 5985.21 514.430   2
   5   9  -4 6137.64 537.989   3
   4  -9   5 7152.03 526.857   1
  -9  -4  -5 5863.23 509.764   1
   9   4  -5 7616.30 654.618   5
   4   5  -9 6624.61 455.257   4
   4  -9   5 8004.21 528.880   3
  -5  -4  -9 6499.51 438.850   4
  -9  -4  -5 6433.27 501.225   4
  -4   5   9 6912.14 511.946   3
   4   9  -5 6396.89 540.029   3
   9   5  -4 6677.82 627.693   3
  -4   9   5 7461.91 643.148   2
   4  -5   9 6617.77 241.098   4
  -5  -4  -9 6738.07 506.669   2
   4  -5   9 7238.85 604.875   3
  -9  -5  -4 7145.97 538.801   4
  -9   5   4 7459.38 636.532   1
   4  -5   9 6634.74 598.593   1
  -4   5   9 6307.79 481.824   5
   5  -4   9 6428.13 601.351   1
  -4  -5  -9 7009.88 493.494   4
  -5  -9  -4 7140.64 640.639   2
   9   5  -4 7334.39 649.379   5
   9  -4   5 6849.93 448.864   4
  -9  -5  -4 7613.75 576.141   2
  -4  -9  -5 6569.33 622.964   2
   9  -4   5 7552.19 654.737   1
  -9  -5  -4 7099.08 531.260   1
   5  -9   4 7419.01 486.950   3
   5   9  -4 6489.15 552.013   5
  -4  -5  -9 6473.94 519.560   2
   5   4  -9 6235.73 574.291   3
   2   5  -9 14908.2 887.730   3
  -5  -2  -9 16014.1 695.770   2
   2  -5   9 15996.3 906.333   3
  -2   9   5 15928.5 757.620   1
  -2  -5  -9 16262.4 823.095   2
  -5   9   2 16996.7 848.075   1
   2  -5   9 15415.8 911.622   1
   9  -2   5 14726.5 926.739   1
  -9   5   2 17540.4 979.782   1
   9   2  -5 17163.9 969.296   5
   5   2  -9 16638.2 908.343   3
  -9  -5  -2 15778.3 846.667   4
   9   2  -5 17031.6 855.814   4
  -2  -9  -5 16764.4 997.782   2
  -2   5   9 16093.9 786.274   3
  -5   9   2 16069.2 941.937   2
   5  -2   9 15655.1 964.456   1
   2  -9   5 17422.4 783.690   1
  -2   5   9 15805.6 782.296   5
   9   2  -5 16129.0 950.996   3
  -9  -5  -2 18848.6 833.336   1
   2  -5   9 16407.7 452.854   4
   2  -9   5 15422.5 816.820   2
   5   9  -2 16979.6 873.637   3
   9  -2   5 16310.4 714.328   4
  -2   9   5 17764.2 1003.60   2
   9   5  -2 15576.6 963.232   3
   2   9  -5 15712.5 833.834   3
  -5  -9  -2 16559.1 950.114   4
   9  -5   2 16566.4 930.844   1
   5   9  -2 16927.4 869.326   5
   2  -9   5 16301.9 772.194   3
  -9  -2  -5 16967.4 779.344   4
   5  -9   2 18387.0 850.320   1
  -9  -2  -5 15985.4 895.796   1
   5   2  -9 17029.4 742.178   4
  -2   5   9 15677.2 829.571   2
   5  -9   2 18271.5 696.313   3
  -5  -2  -9 16466.2 607.083   4
   0  -9  -5 5443.52 560.432   2
   0  -5   9 6654.23 573.226   1
  -5   9   0 6382.13 562.688   2
   0  -5   9 7126.28 313.604   4
  -5  -9   0 5021.83 514.129   4
   0  -9   5 6131.68 413.935   1
  -9   5   0 6110.09 567.975   1
  -5   9   0 6927.61 526.618   1
   5  -9   0 5890.50 445.626   1
   0   9   5 6377.17 270.171   3
   0   5   9 5909.90 466.301   3
   5   0  -9 6946.00 546.929   3
   9   0   5 6219.16 579.581   1
   0   9  -5 6395.98 491.936   3
   9   0  -5 6636.24 564.732   5
  -9  -5   0 6019.76 445.294   1
  -9  -5   0 5781.81 495.588   4
   0   9   5 6301.05 402.869   1
   0  -9   5 6256.18 464.369   3
  -5   0   9 7134.05 593.554   3
   9   5   0 6592.64 494.050   1
   5   9   0 6405.81 492.664   3
  -9   0   5 7142.60 587.708   1
   9   0   5 6126.22 416.109   4
  -9   0  -5 5741.49 532.479   1
   9  -5   0 7196.99 582.309   1
   0   9   5 6176.31 581.413   2
   0  -9   5 6648.21 526.973   2
   0  -5   9 6510.37 358.580   2
   0   9  -5 6277.36 508.901   2
   9   0  -5 6222.66 548.972   3
   5   0   9 5745.76 562.794   1
  -5   0  -9 6310.57 285.305   2
   9   0  -5 7275.95 532.614   4
  -5   0   9 6858.11 570.669   5
   5   0  -9 6489.82 440.296   4
   0   5   9 6263.30 492.963   2
   0  -9   5 6579.72 470.520   5
   2   5   9 16565.4 823.978   2
   9   5   2 15427.1 833.718   4
   5  -9  -2 16813.1 784.181   1
   5  -2  -9 16605.7 830.408   3
  -5   9  -2 16336.0 906.379   2
   9   5   2 14819.4 787.990   1
   2   5   9 14345.1 860.363   1
  -2  -9   5 16962.4 699.547   1
  -5  -9   2 16170.0 483.751   1
  -9   5  -2 16208.8 954.965   1
   9   2   5 15817.6 743.544   4
   9  -2  -5 13993.4 816.661   3
   5  -9  -2 15503.9 453.756   3
   9  -5  -2 14996.1 878.442   1
  -2  -9   5 14677.4 798.527   4
  -9  -2   5 15765.6 874.790   1
  -9  -5   2 15729.1 768.710   1
  -5  -9   2 16498.6 906.382   4
  -2  -9   5 15662.8 796.393   5
  -2  -5   9 15654.1 662.371   2
   9  -2  -5 15581.9 852.568   5
  -5  -9   2 14986.8 904.729   2
  -2   9  -5 15577.8 851.814   2
   2   9   5 14470.6 914.154   2
  -2   9  -5 15178.4 830.570   1
   5   2   9 15911.7 942.835   1
  -2  -5   9 15799.8 608.896   4
   2   9   5 15136.6 644.017   1
  -5  -2   9 16565.3 942.404   3
   5   9   2 15421.2 417.250   1
  -2  -9   5 15615.4 804.619   3
  -9  -5   2 14880.3 821.823   4
   9   2   5 13856.1 872.601   1
  -2  -9   5 15607.1 876.928   2
  -5  -9   4 8284.58 644.773   2
   5   4   9 6488.65 577.041   1
   9   4   5 6799.86 572.296   1
   4   5   9 6304.74 555.783   1
   9  -4  -5 6390.40 509.645   5
  -5   4  -9 6949.73 675.325   1
  -9   4  -5 6112.53 598.756   1
  -4   9  -5 6794.53 547.572   2
   4  -5  -9 6755.06 456.755   3
  -5   9  -4 6187.41 531.802   2
  -4  -9   5 6655.40 546.754   3
  -9  -4   5 6562.47 532.961   1
   9  -4  -5 6936.82 520.452   3
  -5  -9   4 6461.00 365.209   1
  -4  -5   9 7758.86 635.290   3
   9  -5  -4 5010.83 443.273   3
   9   4   5 7097.14 525.055   4
  -9  -5   4 6622.84 539.136   4
   5   9   4 6433.24 359.083   1
  -9  -5   4 7082.35 518.919   1
  -4  -9   5 6543.48 523.665   4
  -9   5  -4 7634.03 663.606   1
  -4  -5   9 6471.21 572.881   5
   5   9   4 6593.83 589.377   2
   4   9   5 5963.58 565.223   2
  -4  -9   5 6169.48 548.816   2
   9   5   4 7806.83 563.684   4
   4   9   5 6509.74 395.444   1
  -5  -9   4 5757.77 519.899   4
  -9  -4   5 6770.38 527.771   4
  -4  -5   9 6272.55 413.649   4
   5  -4  -9 6569.76 490.134   3
   4   5   9 7345.50 511.422   2
   9   5   4 4783.38 477.123   1
  -5   9   6 15172.4 876.139   1
  -5   9   6 14006.6 927.841   2
  -9  -6  -5 14147.3 839.145   2
   6  -5   9 14739.7 471.256   4
   9  -5   6 14484.4 947.001   1
  -5  -9  -6 14557.8 914.477   4
  -9  -5  -6 13619.5 774.551   4
  -5  -9  -6 15526.2 989.163   2
  -9   6   5 14452.4 934.591   1
  -5   6   9 13723.3 746.650   3
   5  -9   6 15678.4 819.156   3
  -6   5   9 13669.9 851.121   2
   6   5  -9 14282.0 920.970   3
  -5   6   9 14680.7 879.904   2
  -9  -6  -5 13738.3 807.589   4
  -9  -5  -6 13627.7 812.313   1
   6   9  -5 14170.5 883.922   3
   6  -9   5 14620.3 845.526   1
   9  -5   6 15491.4 698.297   4
   9   5  -6 15358.3 858.268   4
  -6  -5  -9 15086.9 753.535   4
   9   5  -6 15153.3 970.238   5
  -5  -6  -9 15583.2 810.442   4
  -6   5   9 14368.6 935.196   1
   5   6  -9 16109.1 975.591   3
  -6   9   5 15845.4 896.924   1
   5   9  -6 12480.5 838.964   3
   9   6  -5 14636.8 965.057   3
  -9  -5  -6 14509.0 813.661   2
   5  -6   9 13907.6 913.803   1
   9   6  -5 13910.3 836.041   4
   9   6  -5 15261.7 973.472   5
   6   9  -5 15049.8 912.090   5
   5  -9   6 15058.7 852.738   1
   9   5  -6 14586.7 959.852   3
  -9   5   6 14729.4 950.882   1
   6  -9   5 14847.1 777.913   3
   6  -5   9 15087.7 957.041   1
  -6  -9  -5 15637.3 946.613   4
   9  -6   5 14161.8 918.980   1
  -6  -9  -5 15792.6 983.201   2
  -9  -6  -5 16351.9 838.435   1
  -6   9   5 14457.1 930.557   2
   5  -6   9 14651.2 883.195   3
   6  -3   9 12692.4 376.278   4
  -6  -9  -3 13376.3 860.234   4
  -9  -6  -3 12012.7 770.590   2
  -6  -3  -9 11696.2 648.278   2
   9   6  -3 11201.4 734.218   4
   3  -9   6 12760.7 690.444   2
   3  -9   6 12246.9 709.663   1
   9  -3   6 11726.2 579.311   4
   3   6  -9 11843.3 796.276   3
  -6   9   3 10995.0 795.130   2
  -6  -9  -3 11801.7 836.416   2
   3  -6   9 12134.6 806.192   1
  -9   6   3 12569.8 839.493   1
   6   3  -9 12723.8 816.704   3
  -9  -3  -6 12065.0 783.702   1
   9   3  -6 13253.7 868.120   5
   3  -6   9 13350.1 825.366   3
  -3   6   9 12236.3 770.107   2
   9   3  -6 11105.7 809.651   3
   6  -9   3 11892.5 718.921   1
  -9   3   6 10115.0 770.001   1
   9   6  -3 11288.8 828.059   3
   6   9  -3 12344.3 778.982   5
   3  -9   6 11952.8 692.625   3
  -9  -6  -3 11615.3 739.840   4
   3  -6   9 12612.3 440.253   4
  -3   6   9 12212.9 653.163   5
   6  -3   9 12600.0 871.885   1
  -6  -3  -9 12384.4 578.866   4
   3   9  -6 12417.6 773.660   3
  -3   9   6 12027.8 830.910   2
  -3  -9  -6 12076.8 864.758   2
   9  -6   3 10957.4 775.367   1
  -3   6   9 12016.5 653.087   3
  -9  -3  -6 12087.1 663.539   4
   6   9  -3 11461.6 762.117   3
  -9  -6  -3 11414.1 650.701   1
   9   3  -6 12533.3 741.423   4
   9  -3   6 11802.1 847.415   1
   6   9  -1 21037.8 1036.64   5
  -1  -9  -6 22550.2 1188.32   2
  -6   9   1 22834.1 1147.74   2
   9   1  -6 23339.1 1148.33   3
  -9  -6  -1 20944.7 1031.24   4
   1  -6   9 21784.0 1083.38   3
  -9  -1  -6 25003.6 1180.04   1
  -6  -9  -1 22591.9 614.866   1
   9  -1   6 23462.8 1206.07   1
  -6  -9  -1 20942.5 1093.15   4
   1   9  -6 22131.5 1032.53   3
   1   6  -9 22942.8 1118.36   3
   6   9  -1 22339.5 1058.58   3
   9   1  -6 22592.7 1130.30   5
   6   1  -9 21347.2 1061.09   3
  -9  -1  -6 22139.0 875.269   4
   9   6  -1 22558.7 951.583   1
  -9  -6  -1 21579.7 899.644   1
   9  -6   1 21616.5 1083.72   1
  -9   1   6 22695.4 1145.08   1
  -6   1   9 21964.1 1109.00   3
  -6  -1  -9 22908.7 712.503   4
  -1   9   6 22640.3 919.703   1
  -1   9   6 22747.6 622.891   5
   1  -9   6 21646.3 927.519   1
   1  -9   6 21894.7 959.392   5
   1  -9   6 22399.7 984.783   3
   1  -6   9 22028.0 680.613   4
  -1   9   6 20989.1 1130.20   2
  -1   9   6 21629.3 617.238   3
   9  -1   6 22936.5 849.977   4
   1  -6   9 21445.0 1080.18   1
   9   1  -6 21813.1 1003.92   4
   1  -6   9 21033.3 751.272   2
   6  -9   1 21708.6 974.753   1
  -1   6   9 22251.4 1044.80   2
   6  -1   9 22134.6 1174.91   1
  -6   1   9 23071.2 1112.94   5
  -6  -1  -9 22459.2 805.581   2
  -1   6   9 19730.6 889.988   3
  -9   6   1 23427.0 1169.50   1
   1  -9   6 21660.8 995.713   2
   9   1   6 19298.9 825.445   4
  -9  -6   1 21625.2 887.114   1
   1   6   9 17508.8 860.283   3
  -6   1  -9 20047.8 599.465   2
  -9  -6   1 21064.1 1027.38   4
  -9   6  -1 22671.3 1155.04   1
  -1  -9   6 22515.5 901.556   1
   6  -9  -1 21291.7 950.135   1
  -6  -9   1 19953.8 593.599   1
  -1  -6   9 20543.5 1046.39   1
   6  -1  -9 20730.5 996.131   3
   9  -1  -6 24077.7 1041.45   4
   9   6   1 20689.7 913.040   1
  -1  -6   9 21921.9 1080.43   3
  -1  -9   6 24836.8 1018.26   4
  -9   1  -6 22292.5 1141.80   1
  -1  -9   6 21578.7 976.466   3
  -1  -6   9 20183.0 718.976   4
   6   1   9 21032.5 1130.59   1
   9  -1  -6 19646.2 1016.60   3
  -9  -1   6 22362.0 1099.07   1
  -6  -1   9 20131.6 1085.84   3
   9  -6  -1 19953.0 1033.61   1
  -1  -6   9 20287.9 1030.67   5
   1   6   9 20837.4 1009.00   2
  -6   1  -9 19832.4 1143.21   1
   9   6   1 21991.9 1042.66   4
  -1   9  -6 20164.1 942.687   2
  -1  -9   6 21856.9 969.241   5
   9  -1  -6 20299.5 1028.63   5
  -6  -9   1 19844.8 1050.05   4
  -6   9  -1 21626.8 1072.42   2
  -6  -1   9 22095.2 1111.66   5
   1  -9  -6 19753.6 1116.27   2
  -1  -9   6 20076.2 990.656   2
  -1  -6   9 22269.6 828.272   2
   1   9   6 18886.9 1067.37   2
  -6  -9   1 21599.2 1120.50   2
   9   1   6 20073.5 1105.25   1
   9  -6  -3 10777.3 755.517   1
  -9   3  -6 12788.8 873.858   1
   9   6   3 13062.8 728.139   1
  -3  -9   6 12028.7 702.175   4
  -6   3  -9 13057.5 923.729   1
   9   3   6 12844.3 837.770   1
  -6   9  -3 10989.3 741.263   2
   6  -3  -9 13074.4 725.922   3
  -3  -6   9 13493.0 846.170   3
   6  -9  -3 13437.1 449.337   3
  -9  -3   6 12098.0 765.856   1
  -9   6  -3 11542.4 833.342   1
  -6  -3   9 13628.8 881.233   3
  -3  -9   6 11878.2 625.351   1
  -6  -9   3 12142.1 806.150   2
  -6  -3   9 10743.8 780.761   5
   3   6   9 11150.8 751.849   1
  -3  -9   6 11543.4 737.441   3
  -6  -9   3 12722.7 505.882   1
  -3  -6   9 13039.5 651.088   2
   6  -9  -3 13406.4 447.583   5
   3   9   6 12123.6 823.235   2
   3   6   9 13772.7 779.026   2
   6   9   3 13212.9 498.655   1
  -9  -6   3 12963.4 679.756   1
  -3  -9   6 11615.9 724.590   5
  -3   9  -6 12222.0 727.625   2
  -3  -9   6 13136.7 784.080   2
  -3  -6   9 11899.1 579.429   4
   9  -3  -6 11683.1 734.404   3
   9  -3  -6 12115.1 733.231   5
   9   6   3 11374.7 730.585   4
  -3  -6   9 12327.4 796.228   5
   9   3   6 12673.1 684.545   4
   6   3   9 10807.6 791.251   1
  -9  -6   3 13101.3 782.367   4
   3   9   6 12062.2 609.694   1
  -6  -9   3 12341.1 784.209   4
   6  -9  -5 14400.1 487.126   3
  -6  -5   9 15280.0 950.153   5
  -9   5  -6 15331.1 1009.71   1
   6  -5  -9 14226.8 734.852   3
  -6  -5   9 14213.5 721.822   4
  -6  -9   5 14681.4 658.755   1
  -9   6  -5 14218.8 763.993   2
  -6   5  -9 16852.0 1093.61   1
   9  -5  -6 14209.2 765.170   3
   9   5   6 14315.2 872.395   1
  -5  -9   6 12998.4 781.586   4
   6   9   5 13049.1 630.308   1
   5  -6  -9 14748.0 701.597   3
  -9  -5   6 14095.2 817.180   1
  -5  -6   9 13541.1 905.659   3
   9  -6  -5 17236.7 810.432   3
  -5   6  -9 14364.2 494.724   2
  -9   6  -5 14450.7 970.407   1
  -6   5  -9 13998.9 488.542   2
  -6  -5   9 14519.9 944.172   3
  -9  -5   6 14380.6 816.188   4
  -6   9  -5 13229.9 796.105   2
   6   5   9 13291.8 865.440   1
   5   9   6 14566.7 692.116   1
   5   9   6 13194.3 871.112   2
   9   6   5 14822.1 835.162   1
  -6  -9   5 12960.0 844.902   2
   9  -6  -5 14206.8 733.709   5
  -5  -9   6 15666.0 894.890   2
  -5   9  -6 15173.8 947.400   1
  -5   6  -9 14683.7 1022.35   1
  -6   9  -5 16617.9 991.939   1
  -5  -6   9 14776.1 725.043   4
   9  -5  -6 14132.9 762.076   5
  -9  -6   5 14560.4 841.371   4
  -9  -6   5 14837.4 785.123   1
  -6  -9   5 14687.8 848.439   4
  -5  -9   6 14628.3 883.245   3
  -5   9  -6 12350.2 769.430   2
  -5  -6   9 14142.2 911.527   5
   5   6   9 15872.9 906.217   1
  -6   9   7 1665.14 309.444   1
  -9  -7  -6 1658.33 288.319   4
  -6  -7  -9 1675.37 312.162   2
  -7   9   6 1307.26 315.498   2
  -7  -6  -9 1666.55 260.093   4
  -7   6   9 1667.72 301.284   2
   6   9  -7 1816.10 344.919   3
  -6   9   7 1897.02 366.708   2
  -9  -6  -7 1365.74 267.402   2
   7  -6   9 1665.72 166.186   4
  -6   7   9 1663.63 326.811   2
   6  -9   7 1467.77 265.921   3
  -7  -6  -9 1758.35 299.649   2
   9  -6   7 1347.86 309.691   1
   6   7  -9 1749.63 342.037   3
   7   6  -9 1713.37 329.174   3
   7   6  -9 2006.39 294.533   4
   9  -7   6 1507.61 318.214   1
  -7  -9  -6 1913.27 335.858   4
   7   9  -6 1594.11 331.721   3
  -7   9   6 816.931 232.137   1
   9   7  -6 1674.27 346.208   3
  -9  -6  -7 1570.44 273.731   4
  -6   7   9 1619.84 324.302   1
  -9  -7  -6 1384.02 240.178   1
  -6  -7  -9 2133.37 320.386   4
   6  -9   7 1614.70 304.809   1
   6  -7   9 1650.01 330.892   1
  -9  -7  -6 2023.58 327.373   2
   7  -6   9 1672.13 323.117   1
  -6  -9  -7 1272.09 281.144   4
   6   7  -9 1574.53 269.983   4
   7   9  -6 738.220 235.029   5
   7  -9   6 1517.92 302.231   1
  -7  -9  -6 1451.27 320.602   2
   6  -7   9 1509.07 296.736   3
   9  -6   7 1727.96 223.237   4
  -9  -6  -7 1401.57 262.979   1
   9   6  -7 1887.16 363.600   3
  -6  -9  -7 855.676 240.748   2
   9   6  -7 1852.57 311.623   4
   4   7  -9 5368.14 563.348   3
  -4  -9  -7 5357.80 572.408   2
  -4   7   9 5641.09 547.036   2
  -7  -9  -4 6609.84 606.389   4
  -9  -7  -4 6107.90 563.731   2
   4   9  -7 6345.54 580.725   3
  -7   9   4 5136.13 556.027   2
   4  -9   7 5814.01 520.339   1
  -4   7   9 5372.94 428.751   3
   7   4  -9 6237.61 605.716   3
   9   7  -4 6851.11 583.009   4
   9   7  -4 5307.46 581.613   3
   4  -7   9 6557.31 581.934   3
  -7  -4  -9 6056.66 435.300   4
  -4   9   7 5929.63 527.841   1
  -7   4   9 6720.58 636.492   1
   9   4  -7 6599.13 631.544   3
   7   9  -4 7014.02 617.580   3
  -4   7   9 6157.40 451.272   5
  -7  -9  -4 6310.49 608.361   2
  -9  -7  -4 5504.32 442.119   1
  -9   4   7 6389.05 627.819   1
   7  -4   9 5271.80 579.807   1
   4  -9   7 6558.86 540.252   3
   4  -7   9 6155.09 582.927   1
  -9  -4  -7 6200.69 483.843   4
   7   9  -4 6016.58 570.789   5
  -7   4   9 5456.14 512.630   3
  -7   9   4 5459.30 538.030   1
   9  -7   4 7552.57 653.232   1
  -4  -7  -9 5440.74 546.050   2
  -9   7   4 5922.49 594.221   1
   7   4  -9 6128.63 491.438   4
  -7  -4  -9 6017.61 495.126   2
  -9  -4  -7 6383.05 586.421   1
   9   7  -4 5900.25 606.888   5
  -4   9   7 5807.57 591.924   2
   7  -9   4 5699.10 524.703   1
   7  -4   9 6235.76 293.571   4
  -9  -7  -4 6895.50 579.631   4
   9  -4   7 6144.53 395.990   4
   9   4  -7 6833.97 556.956   4
   9  -4   7 5186.03 581.831   1
   7  -2   9 4324.63 241.938   4
   9   7  -2 3543.49 418.609   4
   2  -7   9 4303.36 295.057   2
  -2   7   9 3823.65 341.800   3
  -2   9   7 3415.04 440.368   2
   9   2  -7 4410.43 428.757   4
   2   9  -7 3743.33 434.473   3
  -9  -7  -2 3766.86 338.085   1
  -9  -2  -7 3965.93 353.077   2
  -2   9   7 3855.49 236.460   5
   2  -7   9 4203.07 457.724   3
   7   2  -9 4470.00 483.006   5
  -7  -2  -9 3934.64 295.898   4
  -7   9   2 3481.96 439.934   2
  -9  -2  -7 3966.45 349.112   4
  -9  -7  -2 3761.68 427.396   4
   7  -9   2 4411.93 438.902   1
   9   2  -7 3968.91 466.994   3
  -7   9   2 4081.14 448.017   1
  -2   9   7 4452.60 253.761   3
  -9   2   7 4341.20 504.467   1
   2  -9   7 3795.85 399.901   3
  -7  -9  -2 4732.66 515.312   2
  -7  -2  -9 4418.52 498.937   1
  -9  -2  -7 3634.66 446.920   1
  -2   7   9 4288.78 359.305   5
   7   2  -9 5056.73 430.780   4
  -7   2   9 4635.35 496.649   3
  -7  -9  -2 4950.75 513.528   4
   9   2  -7 4264.91 482.990   5
   7   9  -2 3636.73 429.792   3
  -9  -7  -2 3417.23 421.623   2
   9   7  -2 3320.03 453.026   3
  -7  -9  -2 4112.46 267.426   1
   9  -2   7 3994.57 494.974   1
   2  -7   9 4205.02 461.364   1
   2  -9   7 3928.53 400.007   1
   7   2  -9 4228.29 470.323   3
  -9   7   2 3984.63 466.038   1
  -7  -2  -9 3915.56 339.692   2
   7   9  -2 4180.76 464.655   5
  -2  -9  -7 4102.45 497.786   2
   7  -2   9 3468.43 464.603   1
   2   7  -9 3239.48 417.053   3
   2  -7   9 3795.24 262.053   4
   9  -2   7 4293.86 318.630   4
   9  -7   2 3263.05 409.010   1
  -2   7   9 3624.34 434.498   2
   2  -9   7 4041.98 377.161   2
   0   9   7 6580.78 363.728   3
  -7   9   0 7325.43 630.755   2
   0  -9   7 7035.66 497.566   4
   9   0  -7 7028.77 598.138   3
  -9   0   7 6553.44 601.021   1
   9   0  -7 6857.30 593.985   5
   0  -7  -9 5554.12 533.759   2
   9   0   7 6304.07 620.448   1
  -9  -7   0 7037.93 453.592   1
   0  -7   9 7015.14 584.512   1
  -9   0  -7 6094.41 585.858   1
   7   0  -9 7389.91 532.375   4
   9   7   0 6895.12 472.276   1
   7   0  -9 5763.22 528.659   3
   0  -9  -7 5638.23 593.297   2
   9   7   0 6843.10 579.315   4
  -7   0  -9 6756.98 650.533   1
  -7   0   9 7675.42 652.070   3
   7  -9   0 6843.28 537.242   1
   7   9   0 7071.05 584.126   3
   9  -7   0 6219.09 560.324   1
   0  -9   7 5016.93 455.705   1
  -7  -9   0 7396.89 336.711   1
   0  -9   7 7370.80 553.815   5
  -7   9   0 6318.25 568.612   1
   0  -7   9 6079.93 426.637   2
   0  -7   9 7195.47 597.517   3
  -9  -7   0 7494.17 629.871   2
   0   9   7 5532.09 569.530   2
  -9  -7   0 8089.71 621.876   4
   7   0   9 7015.50 658.581   1
  -7  -9   0 6756.29 617.187   2
   9   0   7 6705.70 428.389   4
   9   0  -7 7691.25 570.546   4
  -7   0  -9 6463.50 361.127   2
   0  -9   7 6419.09 515.194   2
   0   7   9 6891.87 580.983   2
   0   9  -7 6305.95 543.158   3
   7   0  -9 7866.47 614.483   5
   0  -9   7 6054.76 510.972   3
  -7  -9   0 6331.73 573.611   4
   0   7   9 6563.84 465.466   3
   0  -7   9 5730.70 360.408   4
  -9   7   0 7601.56 658.316   1
  -7   9  -2 4280.26 462.399   2
   9  -2  -7 4121.86 437.018   3
   9   7   2 3341.11 338.986   1
   9   2   7 4419.37 507.362   1
  -7  -9   2 4827.93 512.512   2
  -9   7  -2 3947.51 425.622   2
  -2   9  -7 3999.56 382.375   2
  -7  -9   2 3182.09 402.206   4
  -9  -2   7 4229.11 460.881   1
   9  -2  -7 4817.00 465.045   5
  -9   7  -2 4034.66 486.792   1
  -7  -2   9 4702.89 525.758   3
  -2  -9   7 4121.85 435.894   3
   7  -9  -2 4801.72 450.154   1
   2   9   7 3742.40 463.825   2
   7   9   2 4252.75 272.649   1
  -7   9  -2 3996.17 469.177   1
   9  -2  -7 4543.05 452.271   4
   7   2   9 3601.33 472.403   1
   2   7   9 4651.46 470.955   2
   2   9   7 3781.62 366.677   1
  -7   2  -9 4025.94 222.474   2
  -2  -7   9 4222.31 370.372   2
  -2  -7   9 4071.78 449.030   1
  -7  -9   2 4661.03 289.862   1
  -2  -9   7 4006.36 421.085   5
  -2  -9   7 4288.23 395.756   4
   2   7   9 4452.78 406.935   3
  -2  -7   9 4255.72 463.439   3
  -9  -7   2 3751.16 437.988   4
   2   7   9 3054.09 380.721   1
  -9   2  -7 3771.40 479.803   1
  -2  -9   7 4456.03 401.144   1
   9   7   2 3555.51 415.884   4
  -2  -7   9 3650.76 312.608   4
   9  -7  -2 4364.21 468.625   1
   7  -2  -9 4671.48 453.864   3
  -2  -7   9 3903.59 440.364   5
  -7   2  -9 4636.35 548.761   1
  -2  -9   7 4473.66 442.895   2
  -9  -7   2 3854.81 343.215   1
   9   2   7 4490.89 385.897   4
   7  -4  -9 7362.09 541.328   3
   9  -4  -7 6865.44 536.949   5
  -9   7  -4 7302.86 569.668   2
  -9  -7   4 6400.38 570.456   4
  -7  -9   4 7893.87 657.025   2
  -7   9  -4 7840.42 682.672   1
  -9  -4   7 6624.49 569.576   1
  -4  -9   7 7882.94 608.640   2
   9  -4  -7 7453.24 558.065   3
   7   9   4 6916.86 423.733   1
  -4  -7   9 5990.57 588.002   3
  -7   9  -4 7170.07 589.287   2
  -4  -9   7 6801.78 595.411   3
   9  -7  -4 7329.54 493.320   3
   4   7   9 6068.39 542.629   1
  -7  -9   4 6876.70 417.612   1
  -9  -7   4 6884.59 493.629   1
  -4   9  -7 5985.60 603.596   1
  -7   4  -9 6448.40 315.482   2
  -9  -4   7 6670.25 528.981   4
  -9   7  -4 6965.70 670.644   1
  -4  -7   9 7143.89 515.680   2
   4   7   9 6750.04 562.628   2
   4   9   7 7301.17 638.008   2
   7   4   9 6624.54 624.999   1
   9   7   4 7421.70 540.687   1
  -4   9  -7 6958.39 529.460   2
   4   9   7 6980.10 494.769   1
  -4  -9   7 6713.61 583.549   5
   7  -9  -4 6942.69 355.534   3
   7  -9  -4 6835.36 354.617   5
  -4  -7   9 6832.38 619.695   5
  -4  -7   9 7048.14 480.696   4
  -7  -9   4 6212.14 558.375   4
  -4  -9   7 7746.63 556.685   4
  -7   4  -9 7088.96 698.158   1
   9   4   7 7279.21 647.107   1
  -6  -9   7 1592.39 314.015   3
  -9   7  -6 1544.33 245.999   2
  -7  -9   6 1115.79 254.431   4
  -6   7  -9 1650.98 206.649   2
  -7  -6   9 2077.82 291.159   4
   6  -9  -7 1895.79 179.130   3
  -7   9  -6 1511.93 267.383   2
   6   9   7 1268.06 225.852   1
   7  -6  -9 1322.54 228.494   3
   7  -9  -6 1766.60 179.747   3
   9  -6  -7 1547.72 240.732   3
  -6  -7   9 1372.66 257.383   4
  -9   6  -7 1920.28 256.040   2
  -6   9  -7 1950.69 292.460   2
  -6   9  -7 1820.37 346.070   1
  -7   9  -6 974.082 253.280   1
   6  -7  -9 1291.59 201.464   3
  -7  -9   6 1597.78 295.398   2
   7   6   9 1326.26 290.831   1
  -7   6  -9 1339.44 180.147   2
   9  -7  -6 1838.91 248.304   5
   9  -7  -6 1493.46 238.207   3
   9   7   6 1177.82 236.755   1
  -9  -7   6 1335.02 273.758   4
  -7  -9   6 1638.54 238.265   1
  -6  -9   7 1471.81 275.538   2
   9  -6  -7 1543.74 242.618   5
  -9  -6   7 1793.43 293.953   4
  -9  -6   7 1118.14 230.982   1
  -6  -9   7 1341.68 248.102   4
   7   9   6 1548.26 236.219   1
  -9  -7   6 1709.15 262.049   1
   9   6   7 1397.58 277.010   1
   6   7   9 2120.16 329.522   1
  -9   7   8 5437.40 591.130   2
  -7   8   9 5188.21 582.539   2
  -8   9   7 4575.02 559.768   2
   7   8  -9 4076.77 534.534   3
   8   7  -9 5211.92 605.602   3
   7  -9   8 4792.05 500.187   3
   9   7  -8 5882.02 648.355   3
   8  -9   7 5467.95 587.732   1
   8  -7   9 5323.31 610.334   1
   7   9  -8 5991.55 643.314   3
   8   7  -9 5492.29 529.755   4
   8   9  -7 5057.89 607.897   3
  -9  -7  -8 6289.30 605.183   2
   9  -8   7 4636.59 554.527   1
  -8  -9  -7 5106.67 550.608   4
   7  -9   8 5284.23 576.256   1
  -9  -8  -7 4564.79 498.606   4
  -9  -8  -7 6039.82 619.117   2
   9   8  -7 5595.78 625.113   3
  -8  -7  -9 5630.56 518.965   4
   7   8  -9 5467.59 529.320   4
  -7  -8  -9 5294.75 578.813   2
   7  -8   9 5559.26 608.313   1
  -9   8   7 5560.93 601.612   2
  -7  -9  -8 5952.43 630.076   2
   9  -7   8 5233.63 614.625   1
  -7  -8  -9 5472.66 534.001   4
  -9  -7  -8 4977.27 507.767   4
  -8   7   9 5433.98 586.939   2
  -8  -7  -9 5237.11 560.285   2
  -7   9   8 5169.42 590.874   2
  -7  -9  -8 5213.08 554.022   4
   8   5  -9 6084.79 639.093   3
  -5   8   9 7694.26 680.751   2
  -5   9   8 6773.34 602.515   1
  -9  -8  -5 7140.72 521.317   1
   5   8  -9 5879.16 603.235   3
   5  -9   8 6767.94 577.532   3
   5   9  -8 6111.50 603.773   3
  -5   9   8 6825.82 653.316   2
   9  -5   8 7041.96 696.304   1
   8   9  -5 6212.08 632.192   3
   9  -8   5 5248.19 566.186   1
   8  -9   5 6508.05 600.255   1
   9   5  -8 6092.02 638.776   3
   9   8  -5 6021.87 636.232   3
   5  -9   8 5014.91 530.881   1
  -9  -5  -8 6753.45 606.594   1
   5  -8   9 7016.49 614.506   3
   5  -8   9 5995.44 594.050   1
  -5   8   9 6325.44 454.777   3
   9  -5   8 6944.60 417.971   4
  -5  -9  -8 6574.39 615.424   4
  -5  -8  -9 6960.08 649.066   2
  -8   9   5 7301.44 653.112   1
  -9  -8  -5 5555.64 562.915   2
  -9  -5  -8 6155.74 541.953   2
   8  -5   9 6568.10 352.510   4
   8   5  -9 6375.35 540.857   4
  -8  -5  -9 8008.22 544.411   4
  -5  -8  -9 6966.69 596.558   4
   8  -5   9 6772.91 676.633   1
  -5   8   9 5830.35 581.267   1
  -8   9   5 6036.65 625.982   2
  -9   8   5 5828.84 599.420   2
  -9  -5  -8 6098.11 498.572   4
  -5  -9  -8 5875.83 615.982   2
  -9  -8  -5 5546.32 568.072   4
   9   5  -8 6520.58 571.425   4
  -8  -9  -5 5612.83 575.238   4
   8  -9   3 15714.0 919.062   1
   8   9  -3 15661.4 986.835   5
   8   3  -9 13659.2 937.496   3
  -9  -8  -3 15414.4 941.522   4
  -8   9   3 15853.5 1000.28   2
  -3   8   9 17124.0 739.463   5
  -9   8   3 15407.9 965.896   2
   3   9  -8 14863.1 942.104   3
  -9  -8  -3 16604.9 751.173   1
   3  -9   8 15591.6 741.512   2
  -9  -3  -8 16047.9 984.020   1
  -9   8   3 16523.1 1008.08   1
   9   8  -3 15693.8 1017.77   5
  -3  -9  -8 17241.6 1062.34   2
   9   3  -8 16799.3 1035.66   3
  -3   9   8 18375.8 955.768   1
  -8   9   3 17281.6 1006.88   1
   3  -8   9 18093.5 996.164   3
  -3   8   9 15862.4 720.179   3
   3  -8   9 15593.2 664.372   4
   8  -3   9 15825.7 1042.50   1
   8   9  -3 16379.9 1006.70   3
  -3   9   8 17026.4 642.549   3
  -3  -8  -9 15754.3 989.893   2
   3   8  -9 14162.9 931.858   3
  -8  -3  -9 15420.0 985.765   1
  -8  -3  -9 14721.5 769.422   2
   3  -9   8 17040.5 934.882   1
  -9  -8  -3 18936.7 1057.53   2
   9   8  -3 15641.3 1016.40   3
   8  -3   9 16976.9 591.357   4
  -8  -9  -3 16764.9 691.505   1
   9  -3   8 16825.3 1079.14   1
   3  -8   9 15527.1 661.626   2
  -9  -3  -8 17148.7 794.328   4
   3  -8   9 16585.5 960.153   1
  -3   9   8 18091.9 1064.59   2
  -8  -3  -9 16412.8 742.866   4
  -3   8   9 16371.0 986.516   2
   3  -9   8 17149.6 936.300   3
   9  -8   3 16323.0 969.862   1
   9  -3   8 16646.2 664.545   4
   9   3  -8 17593.1 915.352   4
   8   3  -9 17042.7 876.752   4
  -8  -9  -3 17199.2 1018.92   4
  -8  -1  -9 17166.8 677.992   4
   8   1  -9 16622.2 980.302   3
   1  -8   9 17022.2 694.283   4
  -1   9   8 17735.9 676.357   3
   8  -1   9 17671.2 645.114   4
  -1  -9  -8 16868.5 1066.93   2
  -8   9   1 17348.6 1016.84   2
   9   1  -8 17652.0 1010.38   5
  -9   8   1 15241.9 951.590   2
  -8  -1  -9 17426.1 1067.52   1
  -9   8   1 15882.2 995.621   1
  -1   9   8 18163.6 680.040   5
   1  -8   9 17421.1 957.251   1
  -1   8   9 17155.4 760.654   3
   1  -9   8 16151.7 908.901   3
   1  -9   8 16738.6 897.848   1
   9   1  -8 15985.9 969.272   3
   1   8  -9 16637.4 982.308   3
   9  -1   8 16486.9 1061.55   1
   9   1  -8 18848.3 946.324   4
   1  -9   8 18548.1 954.913   5
   8  -1   9 15482.7 1032.33   1
  -9  -1  -8 16080.8 1015.65   1
   8   9  -1 15781.3 969.863   3
   9   8  -1 15140.9 980.163   3
   9  -8   1 16192.5 946.653   1
   8  -9   1 16262.7 914.758   1
   1  -8   9 18430.3 1001.93   3
  -8   1   9 16767.8 1017.17   3
   8   1  -9 18080.6 1017.30   5
  -9  -1  -8 16308.2 738.724   2
   1  -9   8 16591.4 822.912   2
  -8  -9  -1 17416.9 1034.24   2
  -8  -1  -9 15446.7 691.167   2
  -8   9   1 17062.3 1005.06   1
  -9  -8  -1 14975.9 924.635   4
  -9  -1  -8 17197.7 729.691   4
   1  -9   8 16455.6 771.516   4
  -8  -9  -1 17215.8 643.376   1
  -9  -8  -1 19093.5 1063.93   2
  -9  -8  -1 18291.7 752.820   1
  -1   9   8 17270.4 1031.62   2
  -1   8   9 16970.9 1000.52   2
  -8  -9  -1 16412.2 986.213   4
   8   1  -9 17710.8 896.958   4
   9  -1   8 17601.5 701.651   4
   1   9  -8 17214.1 978.693   3
  -1  -8  -9 16430.4 1012.45   2
   1  -8   9 16593.1 751.802   2
  -8   9  -1 17422.4 1024.43   1
   9  -1  -8 17194.0 958.151   5
  -1  -8   9 17179.8 958.759   5
   8  -1  -9 17972.9 972.696   5
   1   9   8 16589.7 721.597   3
   1   8   9 16189.5 777.240   3
  -8  -9   1 17193.1 656.011   1
  -1  -9   8 18310.4 916.274   2
  -8  -1   9 18115.2 1058.37   1
   9  -1  -8 18078.8 943.053   4
  -1  -9   8 16050.3 900.969   5
  -1  -9   8 18634.3 975.916   3
  -9  -1   8 17370.5 1033.09   1
   8  -9  -1 16759.7 921.366   1
   9  -8  -1 16941.7 960.046   1
   9   1   8 17571.6 757.511   4
   8  -1  -9 18179.3 971.897   3
   1   8   9 15226.9 942.339   2
  -1  -9   8 17144.4 887.976   1
   8   1   9 17405.6 1076.02   1
  -9   1  -8 17094.7 1061.81   1
   9   8   1 17936.4 766.645   1
  -8   1  -9 16828.9 627.154   2
  -9  -8   1 17395.5 737.140   1
   1   9   8 17034.4 1016.86   2
  -1  -8   9 16720.7 961.070   3
  -1  -8   9 17938.5 844.718   2
  -8  -1   9 17543.1 1061.32   3
  -9  -8   1 17808.6 994.245   4
   8   9   1 17506.2 661.746   1
  -1  -8   9 17390.9 943.740   1
  -1  -8   9 17343.2 733.209   4
  -9   8  -1 17823.1 988.847   2
  -9   8  -1 17059.5 1036.06   1
   8  -1  -9 18967.3 938.717   4
  -8   1  -9 18378.8 1124.89   1
   9  -1  -8 18680.9 994.083   3
   9   1   8 17767.7 1093.76   1
   1  -9  -8 16804.1 1045.11   2
  -8   9  -1 17713.5 999.422   2
  -8  -9   1 17098.7 990.199   4
  -9   8  -3 17246.0 1080.06   1
  -9  -8   3 16747.8 971.148   4
  -3  -8   9 17095.0 987.221   5
  -3  -9   8 17903.5 938.723   2
  -9   8  -3 17347.9 960.166   2
  -3  -9   8 16629.3 875.979   1
   9  -3  -8 17317.4 925.821   5
   3   9   8 16568.8 1001.40   2
   8  -3  -9 16875.6 898.934   3
   9   3   8 15100.0 1007.56   1
   9  -3  -8 17571.1 931.858   3
  -3  -8   9 19186.7 1051.62   3
  -3  -9   8 17948.0 1008.65   3
   8  -3  -9 15304.9 871.090   5
   8   3   9 17637.6 1071.52   1
  -3  -8   9 15311.4 900.591   1
  -8   9  -3 17753.1 1067.74   1
  -3  -9   8 17232.3 838.439   4
   8   9   3 17170.9 711.132   1
   9  -8  -3 17642.1 783.203   3
  -9  -8   3 18381.3 795.671   1
   9   8   3 17596.4 804.214   1
  -3  -8   9 17996.8 882.895   2
   3   8   9 17790.3 996.100   2
   8  -9  -3 17453.8 701.427   3
  -8   9  -3 16475.8 954.970   2
  -3  -9   8 17119.9 967.416   5
   8  -9  -3 16354.7 928.798   1
  -8  -9   3 18842.5 726.877   1
  -3  -8   9 16604.3 791.118   4
   9  -8  -3 16253.4 952.920   1
  -3   9  -8 16453.2 784.310   2
  -8  -9   3 17639.2 993.428   4
  -9  -3   8 18116.0 1025.35   1
   3   8   9 16911.4 917.113   1
   3   9   8 16235.5 842.339   1
  -9   8  -5 5441.86 495.969   2
   5   8   9 5828.95 532.970   1
  -5   9  -8 5408.28 630.677   1
   9   5   8 5619.94 580.917   1
  -5  -8   9 5949.81 517.023   2
   8  -9  -5 5907.22 369.815   5
  -5  -9   8 6236.35 517.331   4
   8  -5  -9 6028.45 494.845   3
  -8   9  -5 6917.39 684.949   1
  -5   8  -9 5954.53 397.190   2
  -9  -5   8 5947.67 558.169   1
   8  -9  -5 6163.23 374.660   3
  -8  -9   5 6274.60 443.961   1
   8   5   9 5889.83 591.649   1
   9  -8  -5 5800.89 421.531   3
  -5   8  -9 6907.19 708.497   1
  -8  -5   9 6044.73 500.213   4
  -9   5  -8 6328.26 424.221   2
   5   8   9 6402.39 583.266   2
   5   9   8 5722.23 584.135   2
  -5  -9   8 5901.76 540.147   2
   9  -5  -8 6309.23 508.360   3
  -5   9  -8 5826.17 474.391   2
  -9  -5   8 6002.08 516.209   4
  -9  -8   5 6657.40 490.554   1
   9  -8  -5 6178.02 430.749   5
   9   8   5 5788.99 481.215   1
  -5  -8   9 6071.04 601.321   5
   5   9   8 6262.58 510.048   1
  -5  -8   9 5897.59 486.270   4
  -9  -8   5 5697.67 549.186   4
  -8   9  -5 5812.67 524.789   2
  -8  -9   5 6237.14 577.910   4
   8   9   5 6240.50 459.366   1
   9  -5  -8 6549.40 521.721   5
  -8   5  -9 6273.73 366.578   2
   9   8   7 6136.49 547.531   1
  -7   8  -9 5415.22 427.922   2
   9  -7  -8 5802.73 460.387   5
   8   7   9 5934.24 584.741   1
   9   7   8 6541.11 595.193   1
   8  -7  -9 6043.48 470.943   3
   8  -9  -7 5424.95 371.191   3
   7   9   8 6050.91 522.980   1
   7  -8  -9 6824.01 448.184   3
  -9  -7   8 5894.33 546.972   1
  -8  -9   7 5833.07 479.411   1
  -8  -7   9 5669.65 512.448   4
  -9  -7   8 5173.19 508.877   4
  -8   9  -7 5781.39 510.119   2
  -9  -8   7 6021.32 514.561   1
   7   8   9 3911.65 458.919   1
  -9  -8   7 5835.09 559.080   4
  -8  -9   7 5477.18 540.076   4
   9  -8  -7 5187.80 408.053   5
  -9   7  -8 5468.31 440.290   2
   9  -8  -7 5400.82 418.771   3
  -7   9  -8 5992.94 499.821   2
   7  -9  -8 5701.79 369.239   3
   9  -7  -8 5377.23 447.776   3
  -8   7  -9 5333.18 408.830   2
  -9   8  -7 5274.21 467.195   2
   8   9   7 5845.71 497.897   1
  -7  -9   8 5907.99 547.485   4
  -7  -8   9 4786.01 472.239   4
   9   8  -9 26.0272 143.759   3
  -9  -9  -8-46.9092 120.679   4
  -9   9   8 90.6253 153.596   2
  -9   8   9-11.6800 147.773   2
   9   9  -8-114.118 173.086   3
   9  -9   8-52.3212 123.855   1
  -8  -9  -9 40.2955 120.077   4
  -8   9   9 102.610 190.025   2
   8   9  -9 420.607 216.577   3
   8  -9   9 456.709 226.784   1
  -9  -8  -9 81.1314 122.216   4
   9  -8   9 63.6333 133.390   1
  -9  -9  -6 3956.02 493.466   4
  -9  -6  -9 3666.15 445.011   2
   9  -6   9 3996.70 547.092   1
   6   9  -9 2888.83 449.660   3
   9   6  -9 3398.88 500.102   3
  -9   9   6 3263.29 465.635   2
   9  -6   9 4185.04 313.408   4
  -6  -9  -9 3805.75 515.754   2
   9   9  -6 3042.48 462.295   3
  -6  -9  -9 2829.67 416.883   4
   6  -9   9 3235.61 449.725   1
   9  -9   6 3377.66 465.760   1
  -6   9   9 3021.99 462.646   2
  -9  -6  -9 3100.72 374.411   4
   9   9  -4 75.3678 139.970   3
  -4  -9  -9 180.738 164.280   2
  -9  -9  -4 21.9154 54.9857   1
   4  -9   9-111.763 149.318   1
   4   9  -9 2.97082 130.654   3
  -4   9   9 15.1094 157.583   2
  -9  -9  -4 53.7734 120.172   4
   9   4  -9-6.26610 145.501   3
  -4   9   9 107.801 128.875   1
  -4   9   9 57.4038 83.7153   3
  -9   9   4 39.8616 109.675   1
  -9  -4  -9-78.3746 96.1879   4
   4  -9   9 80.5590 97.7743   3
   9  -4   9 44.1651 216.096   1
   9  -9   4 51.9181 125.949   1
  -9   9   4-85.6956 147.267   2
   9   4  -9 157.534 128.854   4
  -9  -4  -9 40.5589 98.4846   1
   9  -4   9-37.4702 53.1016   4
  -2   9   9 1796.34 215.316   3
   2  -9   9 2061.10 327.944   3
   2  -9   9 1619.12 223.486   2
   9  -2   9 1465.92 179.625   4
   2  -9   9 1727.85 225.695   4
   2   9  -9 1646.88 319.999   3
  -9  -2  -9 1183.73 280.769   1
  -2   9   9 1864.95 350.351   2
   9   9  -2 1952.38 352.486   5
   9  -2   9 1246.52 326.590   1
  -9  -9  -2 1576.92 204.377   1
  -9   9   2 2078.79 352.463   1
   2  -9   9 1576.86 292.736   1
  -9  -9  -2 2056.60 354.184   4
  -9  -2  -9 1717.22 236.982   2
  -2   9   9 1849.77 218.067   5
   9   9  -2 1371.90 311.414   3
   9   2  -9 2523.21 340.816   4
  -2  -9  -9 1080.50 260.668   2
  -9  -2  -9 1884.84 235.880   4
  -9   9   2 2442.42 394.207   2
   9   2  -9 1834.70 332.626   3
   9  -9   2 1835.95 318.793   1
  -9   0  -9 73.8327 72.7896   2
   9   0  -9-7.68224 70.7004   4
  -9  -9   0 76.6381 68.2908   1
   0  -9   9 67.1145 79.9075   4
   9   0   9 44.8378 56.1948   4
  -9   9   0 168.941 155.977   2
   9  -9   0-19.8151 111.958   1
   9   0  -9-137.384 136.097   3
   0   9   9 1.35362 47.1081   3
   0  -9   9 103.853 97.8551   3
   0  -9   9-87.7133 104.622   5
   0  -9  -9 172.389 122.518   2
   9   0   9-6.59554 166.505   1
   9   9   0 110.912 177.788   3
   0  -9   9 88.4091 128.994   1
  -9   9   0 109.205 118.079   1
   0  -9   9 79.9382 98.6904   2
   0   9   9-57.1884 109.355   2
  -9  -9   0 121.193 146.551   4
  -9   9  -2 1869.86 348.645   1
  -9  -9   2 1682.38 315.234   4
  -2  -9   9 2005.94 300.883   2
   9   2   9 2391.53 412.994   1
   9   9   2 1488.61 205.724   1
   2   9   9 1589.52 310.397   2
  -2  -9   9 1410.62 287.177   3
  -9  -9   2 1578.50 201.795   1
   2   9   9 1784.65 293.223   1
   9  -2  -9 2119.44 334.800   3
  -2  -9   9 1947.73 256.569   4
   9  -9  -2 1566.56 289.423   1
  -2  -9   9 1426.46 284.256   5
  -9   9  -2 1387.72 281.088   2
   9  -2  -9 1772.23 296.455   5
  -2  -9   9 1891.82 303.292   1
   9  -2  -9 2260.61 337.669   4
   2   9   9 1553.58 232.771   3
   4   9   9 59.1277 95.9532   1
  -9   9  -4 29.6461 137.081   2
   9  -4  -9 10.9045 102.996   3
  -4  -9   9 100.282 118.908   2
   9   9   4-16.9749 80.4697   1
  -4  -9   9-91.2936 116.488   4
   9  -9  -4 12.2685 72.1917   3
  -4  -9   9-95.7830 128.253   5
   9  -9  -4 65.1607 72.0639   5
  -9   4  -9-32.2528 60.4851   2
  -9  -9   4 91.5819 126.351   4
   9   4   9-1.56177 149.340   1
  -4   9  -9 61.8235 75.4965   2
   9  -4  -9 107.214 104.462   5
   4   9   9 125.755 127.491   2
  -9  -9   4 130.512 89.8471   1
  -9  -6   9 3765.67 425.819   4
   9  -9  -6 3918.49 332.203   3
  -6  -9   9 4032.70 461.317   2
  -9  -6   9 4751.34 509.568   1
  -9  -9   6 3513.02 365.892   1
   6   9   9 4075.74 438.236   1
  -6   9  -9 4018.25 369.926   2
  -9   6  -9 3634.89 318.802   2
  -9  -9   6 3361.60 441.748   4
   9  -6  -9 3886.18 400.017   3
   9  -9  -6 3900.18 328.534   5
  -6  -9   9 3415.97 397.719   4
   9   6   9 3935.85 501.260   1
   9   9   6 3400.08 365.117   1
  -9   9  -6 3866.59 434.767   2
  -9  -9   8-64.2470 94.4907   1
  -9   8  -9 43.4068 81.0833   2
   8   9   9-75.2315 100.588   1
   8  -9  -9 39.5090 70.5912   3
   9  -8  -9 14.5465 81.6663   3
  -9  -8   9 30.5221 98.9672   4
  -9  -9   8 456.537 226.043   4
  -8  -9   9-193.981 115.225   1
  -9   9  -8-1.05925 90.0639   2
  -9  -8   9 3.77266 126.900   1
   9   9   8 61.1439 106.220   1
   9  -9  -8-32.3387 85.1373   3
  -8  -9   9 93.4065 99.7717   4
   9   8   9 98.4036 121.484   1
  -8   9  -9 55.8217 104.305   2
   0  10   0 5.48638 31.4215   1
   0   0 -10 67.4677 40.1982   4
   0  10   0-3.89773 110.968   2
  10   0   0-16.2716 76.2374   4
   0 -10   0 147.187 127.988   2
   0   0  10 154.521 123.167   3
  10   0   0-88.8513 125.631   1
   0   0  10 119.279 58.8169   2
 -10   0   0 124.316 119.658   1
   0  10   0 74.8360 51.3558   3
   1  10  -1 5704.97 376.618   3
   1 -10   1 7349.71 609.261   2
  10  -1   1 6230.32 559.080   1
  -1  10   1 5883.12 341.566   1
   1 -10   1 6126.98 337.469   3
   1  -1  10 5898.36 566.637   1
  -1  10   1 6105.67 585.363   2
  10   1  -1 6068.67 550.361   1
   1  -1  10 6681.81 255.663   2
   1 -10   1 6681.73 336.366   1
   1   1 -10 6836.75 319.458   4
  -1   1  10 7101.91 564.036   3
  10  -1   1 7122.04 505.829   4
   1  10  -1 6438.19 589.432   2
 -10  -1  -1 7250.51 563.866   1
  -1   1  10 6733.08 398.929   2
  10   1   1 5736.99 462.528   4
   1   1  10 5670.46 512.519   3
  -1  10  -1 5461.49 343.659   1
   1  10   1 6323.45 325.190   3
  10  -1  -1 5513.26 528.033   1
  -1 -10   1 5407.91 538.487   2
   1   1  10 6635.35 357.650   2
  -1  -1  10 6460.01 551.788   3
   1  10   1 6327.41 591.075   2
  10   1   1 5529.29 516.876   1
 -10  -1   1 5978.87 515.042   1
  -1  10  -1 5785.62 560.978   2
  10  -2   2 188.203 153.844   1
  -2  10   2 20.3815 43.3354   1
   2  -2  10 18.3194 135.039   1
 -10  -2  -2 19.3419 74.8464   1
  -2  10   2 64.8608 145.013   2
   2   2 -10-25.3803 46.5367   4
   2 -10   2-26.8496 52.0611   3
  -2   2  10 4.16218 66.7903   2
   2 -10   2 46.1090 59.8926   1
   2  10  -2-50.7478 109.439   2
   2 -10   2-34.0771 45.6661   5
   2 -10   2-20.7089 70.6880   2
  10   2  -2 75.7784 127.339   1
  10  -2   2-0.80850 62.7422   4
 -10  -2  -2 101.310 110.005   4
   2   2 -10 1.08196 84.9287   3
   2  10  -2 20.4304 63.1599   3
   2 -10   0 496.848 190.602   2
   0 -10   2 458.284 84.1971   1
  10   0   2 296.697 160.081   1
  -2  10   0 458.769 114.022   1
   0  10   2 560.690 206.217   2
   2   0  10 399.833 58.9444   2
 -10   0   2 249.017 123.277   1
  10   0   2 562.365 147.418   4
   2   0 -10 531.394 104.303   4
   0  10  -2 335.116 111.393   3
 -10   0  -2 496.606 158.034   1
   2   0  10 636.536 196.916   3
   2 -10   0 359.679 91.1341   1
   0   2  10-43.4329 60.1290   3
   0  10   2 428.210 80.7549   1
  -2  10   0 198.455 134.943   2
  -2   0  10 331.814 144.004   3
   2   0  10 308.892 169.484   1
  10   2   0 509.423 159.111   4
   2  10   0 402.370 106.634   3
 -10  -2   0 452.145 142.326   1
   0   2  10 487.055 120.538   2
   0 -10   2 510.831 174.188   2
  10   2   0 545.407 183.552   1
   0 -10   2 418.367 99.2225   3
  10   0  -2 873.375 222.431   1
 -10  -2   0 426.392 146.249   4
   2 -10   0 435.417 69.6638   3
   0   2 -10 878.766 82.6462   4
  -2   0  10 499.087 170.874   5
   2  10   0 404.905 101.180   5
   2  10   0 196.831 133.113   2
   0  10  -2 362.854 179.600   2
   2   0 -10 348.029 155.260   3
  10  -2   0 283.494 163.056   1
   0 -10   2 512.487 117.295   5
  10  -2   0 405.701 129.310   4
  10   2   2-14.4324 71.8506   4
   2   2  10 81.9968 70.2039   2
 -10  -2   2 99.7700 105.663   1
  -2 -10   2 100.709 107.912   2
   2   2  10 156.423 112.457   3
   2  10   2 127.582 127.875   2
  -2  10  -2 29.8043 63.8025   1
   2  10   2-9.71643 54.7211   3
   2   2  10 193.419 142.267   1
  10  -2  -2 74.0190 92.5772   1
   2  10   2 58.2260 59.3022   5
 -10  -2   2-46.4624 86.9545   4
  10   2   2-44.0720 94.2349   1
  -2  10  -2-72.8965 94.3786   2
   3 -10   3 15323.2 649.106   3
  -3  -3 -10 13871.6 639.695   2
  10  -3   3 13598.5 878.118   1
   3  10  -3 14101.1 747.195   3
   3   3 -10 14310.2 864.385   3
  -3   3  10 11199.1 669.959   2
   3 -10   3 14427.8 682.810   1
   3  -3  10 14161.5 907.573   1
  10   3  -3 13631.2 911.447   3
 -10  -3  -3 14882.5 830.140   1
  -3  -3 -10 14001.6 610.690   4
  -3 -10  -3 13937.5 931.739   2
  -3  10   3 13762.7 683.735   1
   3 -10   3 14094.2 835.606   2
  10  -3   3 15440.0 750.682   4
 -10  -3  -3 13931.0 761.498   4
  -3  10   3 13487.8 905.464   2
   3   3 -10 14109.0 609.645   4
   1 -10   3 1957.90 207.059   1
   3  10  -1 1564.08 223.085   3
  10  -3   1 1657.99 298.927   1
  10  -1   3 2210.72 353.255   1
  -3   1  10 2012.07 303.886   5
   1 -10   3 2074.10 224.407   3
  -1   3  10 1698.08 229.221   2
   3 -10   1 2122.96 329.580   2
 -10   1   3 1596.48 284.523   1
  -3   1  10 2217.63 324.215   3
   1  10  -3 1921.76 330.265   2
   3  10  -1 1863.74 235.954   5
   1 -10   3 1663.16 197.697   5
  10   1  -3 1858.98 311.176   1
   3 -10   1 2029.42 225.468   1
   1  10  -3 1779.52 242.082   3
 -10  -3  -1 1992.64 282.859   1
  -3  10   1 1853.72 234.006   1
 -10  -1  -3 2060.91 315.387   1
   1 -10   3 1626.21 281.825   2
   1  -3  10 1877.88 322.597   1
  10   3  -1 1233.13 260.867   1
  10  -1   3 2480.66 285.712   4
  -1  10   3 1972.13 205.765   1
 -10  -3  -1 1488.02 248.543   4
   3  10  -1 1998.34 340.130   2
   3 -10   1 1790.72 160.091   5
   1   3 -10 2147.38 318.640   3
  10  -3   1 2042.38 271.820   4
   3 -10   1 2187.41 180.354   3
   1   3 -10 1888.12 165.431   4
   3  -1  10 1873.59 337.851   1
 -10  -1  -3 1438.50 223.962   4
  -3  10   1 1593.91 306.131   2
   3   1 -10 1516.71 184.341   4
  -1  10   3 1437.05 305.726   2
   3   1 -10 2272.28 321.884   3
  -3  -1 -10 1699.10 128.885   4
  -1 -10   3 2290.27 260.424   5
  10   3   1 2470.26 307.839   4
  -3  -1  10 2136.24 327.757   3
   1   3  10 1907.17 236.694   2
   3   1  10 2281.80 341.851   3
   3 -10  -1 1585.21 291.709   2
  -3  10  -1 1884.86 248.005   1
  -3 -10   1 1630.97 299.333   4
   3 -10  -1 1988.82 222.634   1
 -10   1  -3 2451.04 343.293   1
   3  10   1 1764.56 222.152   5
  10  -3  -1 2663.32 318.033   4
   3  -1 -10 1669.13 275.612   3
  -1  10  -3 2156.56 247.242   1
  10  -3  -1 1991.16 324.606   1
   1  10   3 2221.19 164.766   3
 -10  -3   1 2396.05 311.784   4
  -1 -10   3 2263.15 261.901   3
  -3  -1  10 1935.05 310.638   5
   3  10   1 1817.06 225.289   3
   1  10   3 1974.56 154.057   5
 -10  -1   3 1907.57 299.375   1
  -1 -10   3 1999.85 171.310   1
  -1 -10   3 2074.75 335.649   2
   3   1  10 1848.72 330.616   1
 -10  -3   1 1709.74 281.344   1
  -1  10  -3 1671.23 304.202   2
  -3  10  -1 1548.13 288.943   2
  10   3   1 2007.36 314.208   1
  10   1   3 2004.25 259.198   4
   3  10   1 1734.57 317.401   2
  10  -1  -3 1629.64 292.044   1
   1  10   3 1816.43 334.905   2
  -3 -10   1 2257.17 354.183   2
  10   1   3 2071.59 329.085   1
   1  10   3 2006.87 152.246   1
  10   3   3 14967.5 784.622   4
   3  -3 -10 15193.2 779.048   3
  -3 -10   3 14735.5 916.707   2
  -3 -10   3 13460.0 832.852   4
  -3  10  -3 14304.0 764.295   1
  -3 -10   3 14861.9 472.530   1
   3   3  10 12543.2 854.179   1
  -3  -3  10 14973.3 894.467   3
  10  -3  -3 14718.6 898.501   1
 -10  -3   3 14063.6 802.010   1
  -3  10  -3 12242.2 835.384   2
   3   3  10 15380.9 654.714   2
   3  10   3 12006.7 847.465   2
 -10  -3   3 14797.8 803.729   4
  10   3   3 14030.0 850.586   1
   4   4 -10 4.68956 73.8416   4
   4  10  -4 89.8074 89.8648   5
   4   4 -10 44.1954 137.423   3
  -4  -4 -10-29.0589 65.2732   4
  -4  10   4-25.3157 111.547   2
   4  -4  10 26.2693 116.606   1
  10   4  -4-36.8580 103.692   4
  -4  -4 -10 119.804 90.0634   2
   4  -4  10-45.6932 132.653   3
  10  -4   4 133.859 155.215   1
  -4   4  10 21.9623 87.5214   2
   4 -10   4 1.42034 58.4198   3
   4 -10   4-43.2544 89.8882   1
  10  -4   4-50.6608 71.6618   4
   4  10  -4-37.5641 82.4417   3
  10   4  -4 95.2359 140.373   3
 -10  -4  -4 36.3628 79.8273   1
   4 -10   4-142.788 103.350   2
  -4  10   4-47.3195 71.2362   1
 -10  -4  -4 140.838 139.253   4
  -4 -10  -4 92.4606 144.965   2
 -10   4   4 23.1069 95.9507   1
  -4  10   2 3190.33 430.427   2
   2 -10   4 2748.03 280.617   1
   2  -4  10 3174.03 411.037   3
   2   4 -10 2932.03 249.309   4
  10   2  -4 2975.43 351.499   4
   2  10  -4 3115.62 341.305   3
  10  -4   2 2912.57 324.268   4
  -4 -10  -2 2829.08 407.624   4
   2   4 -10 2701.99 368.881   3
  10  -2   4 3331.80 431.547   1
   2 -10   4 3061.44 294.539   3
   4   2 -10 2513.47 365.844   3
 -10  -4  -2 3398.41 365.776   1
  10  -2   4 2148.29 266.297   4
  -2 -10  -4 4452.63 512.380   2
 -10  -2  -4 2783.85 360.335   1
 -10  -2  -4 3372.56 344.660   4
   4  10  -2 2747.91 323.128   3
   4 -10   2 2440.65 272.785   1
  -4   2  10 2775.32 361.232   3
   2 -10   4 2670.07 360.582   2
  10   4  -2 2827.89 355.187   1
 -10  -4  -2 2938.18 345.516   4
 -10   4   2 2923.79 400.648   1
   4  -2  10 2694.05 388.087   1
  -2  10   4 2983.81 421.930   2
  -2  10   4 2887.94 285.311   1
  10   2  -4 3067.93 420.778   3
  -4  -2 -10 2843.58 215.591   4
  -4   2  10 3246.10 387.242   5
 -10   2   4 3426.65 420.784   1
   2  -4  10 2903.20 405.792   1
   2 -10   4 3359.05 306.827   5
  10  -4   2 3498.78 429.421   1
   4 -10   2 3338.86 398.180   2
   4 -10   2 3154.63 255.641   3
  -2  -4 -10 2809.43 300.665   2
  -2   4  10 1069.37 224.919   2
  -4  10   2 2554.90 301.625   1
   4   2 -10 2944.78 274.197   4
  -4  -2 -10 2763.38 238.806   2
  -4 -10  -2 3913.92 477.447   2
   4  10  -2 2775.51 324.764   5
   0   4  10 308.771 119.131   2
  10   4   0 443.369 160.355   4
  -4  10   0 518.757 191.297   2
   0 -10   4 562.194 167.755   2
   0  10   4 712.089 124.909   1
   0  -4  10 786.892 103.862   2
   0  10  -4 532.864 148.874   3
   0  10   4 391.892 184.889   2
   4   0  10 843.024 232.804   1
  10   0   4 489.801 178.092   1
   0  -4  10 615.255 206.009   1
  10   0   4 750.847 167.509   4
   4 -10   0 581.763 79.3019   3
 -10   0  -4 499.037 174.546   1
  -4   0  10 683.994 195.043   5
 -10  -4   0 432.154 146.577   4
  -4   0  10 648.646 200.976   3
 -10  -4   0 709.262 176.786   1
   0 -10   4 656.027 159.320   3
   4  10   0 569.583 143.861   3
  10   0  -4 742.306 217.253   3
  -4  10   0 532.819 150.915   1
   4 -10   0 501.489 142.909   1
  10   4   0 754.873 188.772   1
   0  10  -4 483.960 173.065   2
  -4 -10   0 422.706 201.926   2
   4 -10   0 826.019 211.319   2
   0 -10   4 676.780 149.460   5
  10  -4   0 526.116 184.822   1
   4  10   0 709.492 161.532   5
  -4 -10   0 724.174 210.531   4
   0 -10  -4 677.287 221.164   2
   4   0 -10 496.019 124.491   4
   0 -10   4 573.934 120.575   1
 -10   0   4 591.884 209.249   1
   4   0 -10 586.605 183.607   3
   2  10   4 2906.37 200.595   1
   4  10   2 2733.62 294.531   3
   2  10   4 3098.61 422.840   2
  -4 -10   2 2093.62 327.379   4
  -2 -10   4 2063.50 321.207   4
  -2  10  -4 2995.74 337.840   1
 -10   2  -4 2833.39 393.856   1
   2   4  10 2860.98 310.413   2
  10   4   2 2538.76 318.959   4
   4  -2 -10 2304.88 312.270   3
  10   2   4 2739.46 382.378   1
 -10  -4   2 2968.66 357.532   4
   4   2  10 2384.28 378.871   1
  -4  10  -2 3315.49 356.031   1
  -4  -2  10 2531.66 366.411   3
  10   2   4 3334.56 339.708   4
  -2 -10   4 2266.71 294.148   3
   2 -10  -4 2678.05 391.795   2
  -4  10  -2 2288.01 360.846   2
   2  10   4 2634.19 200.999   1
  10  -4  -2 2462.86 365.341   1
  -2 -10   4 2842.27 225.503   1
   4  10   2 2532.62 385.855   2
   2   4  10 2933.75 396.828   1
  10   4   2 2992.15 367.053   1
  -4  -2  10 2981.76 395.345   5
 -10   4  -2 1666.00 303.622   1
  -2  10  -4 2968.06 389.212   2
  -4 -10   2 2879.05 394.834   2
  10  -2  -4 2657.00 363.926   3
 -10  -2   4 2654.71 348.158   1
 -10  -4   2 2709.08 325.989   1
  -2 -10   4 3104.87 400.954   2
  -4 -10   4 107.690 58.5920   1
  -4 -10   4-1.14887 115.639   4
  -4  -4  10-26.1072 128.475   3
  10   4   4 41.0770 100.727   1
  -4  10  -4-17.0426 102.618   2
   4  -4 -10 66.5883 107.010   3
 -10  -4   4 38.3527 98.5246   1
 -10  -4   4-10.3557 91.0675   4
   4   4  10-68.3397 138.376   1
  10  -4  -4-36.3094 140.170   1
  -4  -4  10-144.084 148.877   5
   4  10   4 28.3937 41.6618   1
  10   4   4 89.8750 99.0562   4
   4  10   4 91.5457 139.339   2
  10  -4  -4 68.9417 106.725   3
   4   4  10 40.7750 82.0183   2
  -4 -10   4-3.82345 111.385   2
 -10   4  -4 76.4665 135.514   1
 -10  -5  -5 18191.7 946.272   1
  -5 -10  -5 15143.7 979.427   4
  -5   5  10 18816.6 987.002   2
   5 -10   5 18629.3 873.435   3
   5  10  -5 15834.0 938.591   3
  -5  -5 -10 16887.3 885.605   2
  10  -5   5 17240.0 1062.88   1
  -5  10   5 19019.7 1105.91   2
  10   5  -5 17648.7 1091.84   3
   5  10  -5 15943.9 946.499   5
   5 -10   5 17988.3 923.065   1
   5  -5  10 17742.6 1067.47   1
  -5  -5 -10 17151.8 813.681   4
  -5 -10  -5 17741.3 1092.81   2
 -10  -5  -5 18495.1 939.913   4
   5   5 -10 18716.3 1067.29   3
   5  -5  10 16695.0 991.893   3
  10   5  -5 19165.4 985.080   4
 -10  -5  -5 17307.2 927.781   2
  10  -5   5 17207.4 806.353   4
   3   5 -10 1489.43 293.888   3
   5 -10   3 1316.47 192.939   3
  -5   3  10 1195.13 241.320   5
  -3 -10  -5 968.732 257.268   2
 -10  -3  -5 1094.27 227.411   1
   3 -10   5 1077.86 194.608   3
  -5  -3 -10 1015.94 181.073   2
  -5  -3 -10 1058.93 158.548   4
  -3  10   5 1522.40 317.822   2
 -10   3   5 1469.41 299.061   1
  10  -5   3 1184.02 273.913   1
   5 -10   3 1262.99 231.196   1
  -5   3  10 1308.81 256.545   3
   3  -5  10 978.148 255.151   1
   5  10  -3 1149.84 239.677   3
  -3   5  10 1138.74 242.547   2
  -3  -5 -10 1311.04 231.137   2
   3 -10   5 1394.00 248.292   2
  -3  10   5 974.946 190.955   1
   3  -5  10 1221.32 255.088   3
   5   3 -10 903.588 233.267   3
   3  10  -5 1265.56 243.681   3
 -10  -5  -3 1134.35 210.275   1
  10   3  -5 1018.81 250.599   5
 -10   5   3 1339.52 286.821   1
  10   3  -5 846.318 261.170   3
  10   5  -3 850.048 247.181   3
   3   5 -10 1086.21 173.946   4
   5  10  -3 1173.69 236.622   5
   5   3 -10 1231.42 197.956   4
  10   3  -5 1125.03 228.862   4
   3 -10   5 437.747 146.623   1
 -10  -3  -5 740.990 172.185   4
  10  -3   5 819.091 244.386   1
 -10  -5  -3 1047.10 231.906   4
  -5 -10  -3 894.475 229.393   4
  -5 -10  -3 1414.12 305.130   2
   5  -3  10 1447.57 325.286   1
  -5  10   3 1394.74 290.726   2
  10  -3   5 778.765 155.638   4
  10   5  -3 1208.80 238.387   4
   5   1 -10 13056.8 817.763   3
   5  -1  10 13924.3 928.610   1
  -5  -1 -10 14548.8 529.803   2
  -5  -1 -10 14403.4 473.266   4
   1  10  -5 13463.9 766.436   3
   5 -10   1 14977.1 572.488   3
  -5  10   1 14462.3 916.478   2
  10   5  -1 14021.6 821.785   4
 -10   1   5 15050.5 917.338   1
 -10   5   1 14972.0 934.384   1
  -5 -10  -1 13529.6 883.909   4
   1  -5  10 14164.5 877.370   3
  10   1  -5 13080.8 876.893   3
 -10  -5  -1 13446.3 742.012   1
   5  10  -1 13539.9 771.977   3
  -5   1  10 13932.2 858.974   5
   1 -10   5 14294.8 730.696   3
   1 -10   5 14201.9 675.131   1
  10   5  -1 13791.7 788.896   1
  -5   1  10 13115.6 843.863   3
  -1  10   5 14111.2 663.048   1
 -10  -1  -5 14074.2 875.588   1
   5  10  -1 13088.0 760.449   5
 -10  -1  -5 14159.1 708.875   4
  -5 -10  -1 13430.5 914.855   2
  -1   5  10 13890.8 771.998   2
  10   1  -5 15574.5 945.685   5
   1 -10   5 13299.6 698.607   5
  10  -1   5 15135.7 716.173   4
  -1 -10  -5 14921.4 976.752   2
  10   1  -5 14771.0 817.562   4
  10  -5   1 12221.6 825.037   1
   5 -10   1 9870.19 627.903   1
 -10  -5  -1 14757.5 838.833   4
   1  -5  10 13140.3 872.606   1
  10  -1   5 12765.2 893.804   1
   5   1 -10 13926.2 680.077   4
   1 -10   5 13634.0 817.927   2
   1  -5  10 14223.7 470.953   2
  -1  10   5 12960.1 896.378   2
   1   5 -10 13948.4 879.764   3
  10   5   1 15422.6 843.903   4
   5 -10  -1 15900.9 770.287   1
 -10  -5   1 14325.7 828.363   4
  -1 -10   5 14569.7 831.240   4
 -10   5  -1 14319.2 926.187   1
   5 -10  -1 14458.1 437.225   3
   1 -10  -5 15389.0 989.563   2
  -1  -5  10 14338.2 887.253   3
   5  -1 -10 14068.5 809.052   3
   1  10   5 12060.1 570.148   1
 -10   1  -5 14587.9 914.960   1
  -5  -1  10 13675.0 872.106   5
  -5  -1  10 13308.9 873.521   3
  -5 -10   1 14934.6 948.710   2
  10  -5  -1 14675.7 897.314   1
  10  -1  -5 12919.4 833.477   3
   5  10   1 13755.7 749.734   3
 -10  -1   5 15861.8 908.946   1
  10   5   1 14214.9 811.944   1
  10   1   5 12958.0 879.051   1
  -1  -5  10 15347.1 605.056   2
  -1  10  -5 13417.7 821.231   2
  10   1   5 14813.9 727.608   4
  -1 -10   5 14708.8 644.162   1
   1  10   5 14482.3 949.982   2
  -1  -5  10 12902.8 861.677   1
  -1 -10   5 14427.9 756.622   5
  -1  -5  10 14169.3 874.570   5
   1   5  10 14407.4 784.407   2
  -5 -10   1 13561.6 872.088   4
  -1 -10   5 13882.1 848.021   2
  10  -1  -5 13662.8 798.796   4
  -1  -5  10 13464.4 511.071   4
  -1 -10   5 13684.5 746.936   3
  -5  10  -1 13036.5 866.197   2
 -10  -5   1 13859.0 744.846   1
   5   1  10 13037.6 902.711   1
  10   5   3 696.041 182.380   1
  10   3   5 881.232 181.390   4
  -3 -10   5 850.391 217.773   4
  10   5   3 901.053 205.670   4
  -3  -5  10 776.677 136.610   4
   3  10   5 1149.66 157.240   1
 -10   5  -3 912.192 244.809   1
  10  -5  -3 619.849 192.859   1
  10   3   5 707.670 224.507   1
  -5  -3  10 999.370 252.362   5
   5  10   3 878.562 75.8419   1
  -3  -5  10 1250.76 275.048   3
  10  -3  -5 790.940 197.496   4
   3   5  10 869.401 183.012   2
   5   3  10 1318.15 279.952   1
 -10   3  -5 1470.37 299.839   1
  10  -3  -5 607.761 187.846   3
  -3 -10   5 1189.67 231.323   3
  -3 -10   5 995.055 241.056   2
  -5  -3  10 855.169 225.493   3
 -10  -5   3 726.407 175.343   1
  -3  10  -5 844.773 224.578   2
   5  -3 -10 788.065 198.376   3
   3   5  10 643.504 211.074   1
 -10  -3   5 818.523 212.342   1
  -5 -10   3 1138.82 131.394   1
  -5 -10   3 1238.21 263.860   4
   3  10   5 1406.18 297.507   2
  -5 -10   3 990.664 109.488   1
  -5 -10   3 960.203 240.061   2
 -10  -3   5 724.796 201.946   4
 -10  -5   3 979.628 223.452   4
  -3  -5  10 859.675 232.814   5
  -3 -10   5 1236.09 176.522   1
  -5  10  -3 672.957 208.037   2
  10   5   5 18317.4 1008.70   1
   5  10   5 20058.3 728.397   1
   5   5  10 19999.2 1092.34   1
  -5  10  -5 18210.3 1005.63   2
 -10  -5   5 18987.9 981.626   4
  10  -5  -5 19068.6 945.235   5
  -5  10  -5 19896.8 1083.14   1
  10  -5  -5 19230.9 944.848   3
 -10  -5   5 19737.3 977.255   1
  -5  -5  10 18706.1 1079.62   5
   5  10   5 18771.1 1093.90   2
  -5 -10   5 17509.5 967.842   4
  -5 -10   5 18920.0 1078.94   2
   5  -5 -10 18713.9 879.072   3
  10   5   5 18718.8 967.119   4
  -5  -5  10 19845.8 826.642   4
  10   6  -6-99.7768 147.960   3
  -6  10   6 243.602 174.009   2
  10  -6   6 87.8117 60.4142   4
  -6  -6 -10 43.5094 63.0975   4
  -6 -10  -6-103.951 146.739   4
   6   6 -10-4.93584 76.4564   4
   6  10  -6 149.041 141.647   3
   6   6 -10 108.022 157.357   3
  -6   6  10-31.5906 101.534   2
   6  -6  10-86.5740 168.717   1
  10  -6   6-112.551 124.422   1
   6 -10   6-4.80851 93.5074   1
   6  10  -6-313.220 165.211   5
 -10  -6  -6 1.19954 81.2391   2
 -10  -6  -6-60.7634 100.607   4
 -10  -6  -6 130.923 112.491   1
   6 -10   6 139.236 132.587   3
  -6  10   6-13.8466 75.6530   1
   6  -6  10-5.16979 29.2209   4
  10  -4   6 11038.8 853.008   1
   4 -10   6 12101.4 711.356   3
   4  -6  10 10641.1 777.272   3
  -6 -10  -4 11868.4 880.965   2
   6   4 -10 10912.6 814.309   3
   4   6 -10 10113.8 788.162   3
 -10  -4  -6 12009.7 723.910   2
   4 -10   6 11199.3 711.932   1
  -4  -6 -10 12066.7 716.176   4
  10   4  -6 9636.13 802.145   3
 -10  -4  -6 12550.2 802.781   1
   6  10  -4 11809.8 799.048   3
   4  10  -6 10739.9 755.107   3
 -10  -6  -4 11224.9 750.021   4
   6 -10   4 11172.6 720.393   1
  10   6  -4 11398.3 871.347   3
  -6   4  10 11435.7 769.739   3
 -10  -4  -6 10344.6 673.306   4
  10  -6   4 10910.0 817.295   1
  -6  10   4 11257.7 753.582   1
   6 -10   4 12066.7 656.862   3
 -10   6   4 10667.7 820.321   1
  -4   6  10 11079.0 765.359   2
   6  -4  10 10652.5 837.068   1
  -6 -10  -4 11564.3 840.552   4
  -6  -4 -10 11430.3 593.917   4
  -6  10   4 11014.6 841.883   2
   4 -10   6 10509.1 668.414   2
 -10  -6  -4 10913.0 753.584   2
   4  -6  10 11025.9 822.652   1
  -4 -10  -6 11099.3 861.771   2
  10  -4   6 11223.7 608.120   4
  -6  -4 -10 11396.1 687.608   2
  -4  10   6 12065.3 883.646   2
  10   4  -6 12562.0 778.799   4
   4  -6  10 11669.5 347.547   4
   6  10  -4 10165.4 743.879   5
 -10  -6  -4 10524.8 678.519   1
  -6 -10  -2 142.066 129.021   4
   6 -10   2 90.9616 64.7831   3
 -10  -6  -2 217.277 108.561   1
   2 -10   6 114.606 85.0142   2
   6 -10   2 86.5326 86.3139   1
   2 -10   6 87.8059 103.158   1
   2  10  -6 143.579 123.760   3
 -10  -6  -2 112.114 109.969   4
 -10  -2  -6 10.1186 92.6753   1
   6   2 -10 119.577 158.876   3
   2  -6  10 91.2156 130.627   1
  -2  10   6 117.376 151.484   2
  10  -2   6 193.201 168.082   1
  -2 -10  -6 191.573 151.349   2
   6  10  -2 41.8879 101.438   3
  10   2  -6 67.1858 128.419   3
  -6   2  10 7.59006 115.226   3
   2   6 -10 151.809 126.207   3
  10   6  -2-42.4325 123.136   3
  -2  10   6 291.896 129.734   1
 -10   2   6 72.7255 72.5078   1
 -10  -2  -6 55.5158 77.5940   4
  -6  -2 -10 123.710 63.0887   4
   2  -6  10-14.0051 119.587   3
 -10   6   2 291.838 159.528   1
   2  -6  10 139.926 42.2889   4
  10   2  -6 123.525 107.868   5
   6  10  -2 185.874 105.100   5
  -6   2  10 30.8262 113.241   5
   6  -2  10 50.6191 128.302   1
  10   6  -2 76.0600 111.578   4
  -6  10   2-1.40609 108.712   2
  -6  -2 -10 79.5975 78.2805   2
  -2   6  10 85.2729 111.059   2
  10  -2   6 41.9310 68.9974   4
   2  -6  10 109.797 46.2577   2
  -6 -10  -2 250.305 96.5880   2
   2 -10   6-12.6092 81.9809   3
  10  -6   2 252.432 146.976   1
  10   2  -6 57.2368 94.2647   4
  -2   6  10 58.5086 68.1783   3
   0  -6  10 99.9268 51.7300   4
  10  -6   0 6.32441 99.3826   1
 -10   0  -6-4.02917 109.923   1
   6  10   0 142.115 134.949   3
  -6 -10   0 166.329 114.349   4
   0 -10   6 40.9958 73.6755   2
   0 -10   6 50.7046 84.4823   5
  -6   0 -10 62.8208 42.4133   2
   0 -10   6-35.4796 88.9021   4
  -6  10   0 71.0740 102.918   2
 -10   6   0 18.1918 114.940   1
   0  10  -6 12.4907 100.921   3
   0 -10   6 33.7977 78.4903   1
  -6 -10   0 26.9847 95.3849   2
   6 -10   0-88.2321 106.070   1
   0 -10  -6 293.039 176.934   2
  10   0  -6-83.4706 157.353   3
   0  -6  10 17.5615 125.108   3
 -10  -6   0-68.2465 64.1156   1
 -10   0   6 215.194 156.979   1
   0  10   6 42.2028 71.3848   1
   0 -10   6 42.4639 75.5462   3
   6   0 -10 166.409 154.746   3
  10   0   6-17.5184 117.298   1
   0   6  10 16.1180 103.155   2
  -6   0  10 26.6450 86.0867   3
  10   6   0 172.017 120.689   1
   0  10   6-202.082 156.141   2
   0  10  -6 313.943 140.851   2
   0  10   6 57.8080 45.5313   3
  -6   0  10-45.5983 133.751   5
  10   6   0-45.1402 103.514   4
  10   0  -6 1.27386 82.3330   5
   0  -6  10 149.027 132.123   1
  10   0   6 78.9352 82.6401   4
   0  -6  10 138.791 70.1106   2
   6   0  10 573.301 223.162   1
  10   0  -6 68.6543 79.1812   4
 -10  -6   0 113.659 102.946   4
  10   6   2 179.150 97.1315   1
  10   2   6 43.4440 52.1947   4
  -2 -10   6 68.4269 108.941   4
  10   6   2 157.908 125.153   4
  -6  10  -2 319.243 159.484   2
   2  10   6 15.7149 114.330   2
   2   6  10 77.7072 126.564   1
  -6 -10   2 342.754 144.300   2
  -6  10  -2 33.4061 101.486   1
  -6 -10   2 131.005 47.1608   1
  -6  -2  10 51.9416 126.588   5
  -2 -10   6 128.237 113.463   5
   2 -10  -6 106.124 113.925   2
   6  -2 -10 101.919 128.267   3
  10  -2  -6 213.475 132.524   3
  10  -2  -6 182.669 112.637   5
   2  10   6 23.4480 64.7847   1
  -2  -6  10 61.6437 103.420   3
  -2  -6  10 98.8288 66.7649   4
   6 -10  -2 129.698 118.518   1
  10   2   6 239.973 168.963   1
  -2 -10   6 93.8213 81.6861   1
  -2 -10   6 136.570 102.087   3
  -6  -2  10 105.036 92.2703   3
   6 -10  -2 180.134 57.1286   3
  -2  10  -6 188.025 138.304   2
  10  -6  -2 124.130 120.088   1
 -10   6  -2 36.3826 115.206   1
  -6 -10   2 158.510 118.042   4
 -10  -6   2-34.8936 89.1982   1
  -2  -6  10 190.286 82.9934   2
  -2  -6  10 187.662 153.746   5
  10  -2  -6 133.525 89.0456   4
  -2 -10   6 317.960 168.925   2
   2   6  10 147.194 101.065   2
 -10   2  -6 304.162 179.812   1
   6   2  10 151.344 151.744   1
 -10  -2   6 20.9491 129.455   1
 -10  -6   2 82.2828 98.5345   4
  10   6   4 12844.3 796.279   4
  10   4   6 11089.7 801.221   1
  -4 -10   6 11832.2 802.429   2
  10   4   6 12039.7 722.302   4
  10   6   4 10918.3 723.639   1
  10  -4  -6 11280.7 722.260   5
  -6 -10   4 10561.3 755.741   4
  -4 -10   6 9676.33 571.471   1
  -4  10  -6 11363.5 753.460   2
   4  10   6 11392.3 574.099   1
  10  -4  -6 11421.7 730.469   3
  -6 -10   4 12060.8 514.255   1
  -4 -10   6 11195.6 729.379   4
 -10  -4   6 12737.7 803.833   1
  -4 -10   6 11831.9 776.916   3
  -4  -6  10 10880.5 805.840   5
  10  -6  -4 11359.3 691.086   3
  -6  10  -4 11263.4 764.947   2
   4   6  10 11328.2 798.392   1
   4   6  10 11386.2 697.723   2
 -10  -6   4 11152.1 687.852   1
   4  10   6 11884.4 854.732   2
  -6 -10   4 12442.5 850.538   2
 -10  -4   6 10169.9 692.539   4
  -6  -4  10 10924.5 827.076   5
   6  10   4 12321.4 492.930   1
  10  -6  -4 10828.1 791.922   1
  -4  -6  10 9835.13 558.785   4
 -10  -6   4 11573.9 771.764   4
  -4  10  -6 12045.7 826.490   1
   6  -4 -10 11965.7 713.418   3
  -6  10  -4 10989.2 799.841   1
   6   4  10 10669.0 814.992   1
  -6 -10   6 146.805 159.168   4
   6   6  10-29.9911 115.535   1
  -6 -10   6 15.0222 71.5801   1
 -10   6  -6-97.5575 100.239   2
  -6 -10   6 47.8336 98.3202   2
  10   6   6 46.2826 122.668   1
  10  -6  -6 4.77771 92.3030   3
   6  10   6-33.5870 78.1130   1
 -10  -6   6-82.6686 100.413   1
  -6  -6  10 104.938 106.960   4
  -6  10  -6-12.2205 119.645   1
   6  -6 -10-51.1375 82.5664   3
  -6  10  -6 7.12933 81.4247   2
  10  -6  -6 31.2272 78.7574   5
  -6  -6  10 124.010 155.072   5
 -10  -6   6-42.8273 138.314   4
  -7  10   7 12616.0 947.284   2
  -7 -10  -7 12439.4 907.141   4
   7   7 -10 14090.6 1009.56   3
   7 -10   7 13023.0 891.324   1
  10  -7   7 11747.8 932.906   1
  -7   7  10 13707.1 934.649   2
  10   7  -7 13394.6 1007.67   3
 -10  -7  -7 13086.0 826.474   1
   7  10  -7 13758.4 967.581   3
   7  -7  10 14266.1 999.650   1
   7   7 -10 13613.6 836.969   4
  -7  10   7 13086.8 913.301   1
  -7  -7 -10 12799.5 880.769   2
 -10  -7  -7 13685.9 906.138   2
  -7  -7 -10 12521.8 793.659   4
   7  -7  10 13610.4 523.071   4
 -10  -7  -7 11828.1 812.242   4
   7 -10   7 13874.3 834.583   3
 -10  -7  -5 1780.46 275.874   1
  10  -5   7 1748.25 356.817   1
  -7  -5 -10 1729.07 252.483   4
  -7 -10  -5 1431.93 305.519   4
  -5  10   7 1778.21 299.720   1
 -10  -7  -5 1429.46 287.940   4
  -5 -10  -7 1243.57 281.281   4
   7  10  -5 2271.49 373.070   3
  -5  -7 -10 1754.78 327.568   2
  -5  10   7 1732.52 354.161   2
   7  -5  10 1431.04 336.954   1
   7 -10   5 1442.96 245.863   3
  -7   5  10 1469.78 281.605   3
  10  -7   5 1655.89 335.085   1
  -5   7  10 1635.04 316.575   2
   5 -10   7 1741.45 294.170   3
   7 -10   5 1315.46 270.183   1
  -7   5  10 1791.54 320.170   2
   5  -7  10 1332.56 306.042   1
 -10  -5  -7 1600.83 293.673   1
  -7  10   5 1162.44 286.006   2
   7   5 -10 1809.30 354.018   3
  10   5  -7 1473.19 317.255   3
  10   7  -5 1665.30 369.214   3
   5 -10   7 1435.05 284.508   1
  -5  -7 -10 1129.99 234.959   4
  -5   7  10 1718.46 264.009   3
   5  10  -7 1459.43 296.283   3
   7  -5  10 1607.20 129.747   4
   5   7 -10 1875.84 350.425   3
   7   5 -10 1536.22 263.055   4
   7  10  -5 1460.10 312.968   5
 -10  -7  -5 1937.29 315.860   2
   5   7 -10 1630.01 263.154   4
  10  -5   7 1703.60 229.233   4
 -10  -5  -7 1501.76 258.100   4
  -7  10   5 1588.70 313.960   1
 -10  -5  -7 1193.88 243.837   2
  -7  10   3 17480.7 1086.69   2
   3 -10   7 19779.5 937.683   2
   7  -3  10 20208.4 544.670   4
 -10  -3  -7 22977.8 1169.44   1
   7  10  -3 21075.2 1126.56   5
 -10  -7  -3 20190.1 919.266   1
  -3  -7 -10 20268.5 1078.86   2
   3  -7  10 21792.8 1141.76   3
   3  -7  10 20418.1 629.754   4
   3 -10   7 20495.3 995.606   3
   7   3 -10 19115.0 1096.51   3
  -3   7  10 19606.5 898.313   3
  10   3  -7 19101.5 1130.48   3
   7  10  -3 19224.8 1070.02   3
   3 -10   7 18624.8 959.689   1
  -3  10   7 19360.3 1152.39   2
  -7 -10  -3 19046.7 1114.80   4
  10   7  -3 19888.8 1184.07   3
  -7   3  10 20156.8 1098.31   3
  10  -7   3 18541.2 1089.60   1
  -7  -3 -10 19636.3 787.488   4
   7  -3  10 17738.5 1131.23   1
  -7  -3 -10 18626.9 871.375   2
 -10  -7  -3 19086.4 1079.65   2
  -3   7  10 19228.3 883.521   5
 -10  -7  -3 18790.3 1036.11   4
   7   3 -10 19791.0 934.133   4
  10  -3   7 20409.4 822.685   4
   3  10  -7 18902.8 1044.86   3
 -10  -3  -7 20544.4 924.580   4
   3  -7  10 18363.0 1075.71   1
   7 -10   3 20702.3 1032.88   1
  -7  10   3 18076.8 1025.96   1
  -3   7  10 21049.2 1100.85   2
   3   7 -10 20374.3 1139.83   3
  10   3  -7 20738.2 1031.41   4
  10  -3   7 18312.3 1152.66   1
  -3 -10  -7 19589.6 1172.01   2
  -7 -10  -1 12377.5 873.701   4
  -7 -10  -1 14625.8 455.335   1
  -1 -10  -7 14262.2 981.330   2
  -7  10   1 12611.6 832.071   1
  -1  10   7 11321.0 863.095   2
  10   1  -7 13317.5 805.862   4
  10  -1   7 13457.2 954.255   1
  10  -1   7 13819.3 661.807   4
   1   7 -10 13489.5 891.116   3
  -1  -7 -10 14566.6 880.579   2
  -1  10   7 13981.4 459.696   5
   1  -7  10 13724.1 885.543   3
  -1   7  10 12533.7 703.930   3
   7   1 -10 13515.6 872.146   3
   1 -10   7 13187.1 755.271   4
   1 -10   7 13782.0 791.705   3
 -10  -1  -7 12259.0 868.035   1
   1 -10   7 12991.5 774.571   2
  -1  10   7 12086.0 701.199   1
  10   1  -7 12254.4 855.718   3
 -10  -7  -1 14248.9 718.511   1
   1  -7  10 11362.7 807.622   1
   7  10  -1 12254.8 815.187   3
  -7   1  10 14614.5 937.452   3
   7 -10   1 14777.2 827.877   1
  10  -7   1 14319.8 902.674   1
   1 -10   7 13934.5 793.540   5
  10   7  -1 11767.0 887.718   3
   1 -10   7 15485.3 797.556   1
   1  10  -7 12242.3 801.959   3
  -7  -1 -10 13547.5 609.133   2
   1  -7  10 13142.7 519.445   4
   7  -1  10 12681.0 921.237   1
  -1   7  10 13956.1 862.898   2
  -1  10   7 13147.2 456.791   3
 -10   7   1 16156.4 1003.93   1
   7   1 -10 12422.4 724.365   4
   7  10  -1 13313.8 843.595   5
   1  -7  10 13929.6 594.198   2
  10   1  -7 13308.6 897.814   5
  -7  -1 -10 12647.1 517.365   4
 -10  -7  -1 12640.5 833.057   4
  -7  10   1 14998.4 950.218   2
  10  -1  -7 12419.6 843.530   5
  10   1   7 14324.6 716.205   4
  -1 -10   7 13678.4 770.727   4
 -10  -7   1 13768.9 713.322   1
  -1  -7  10 14762.2 699.286   2
  -1 -10   7 14655.8 759.378   1
  -1  -7  10 13674.8 881.606   1
 -10   7  -1 14725.7 970.548   1
   7  -1 -10 15079.3 875.681   3
  -1  -7  10 13488.1 889.647   3
   7  10   1 14551.2 866.812   3
   1  10   7 13516.5 583.229   3
   1   7  10 14546.0 881.860   2
  10  -1  -7 13426.0 870.549   3
  -7 -10   1 14702.4 479.932   1
  -1 -10   7 13382.9 805.976   3
   1  10   7 13947.2 945.248   2
  10   7   1 14212.8 757.520   1
 -10  -1   7 15947.6 970.434   1
  -7  -1  10 15535.9 990.278   3
  10   1   7 13737.5 958.590   1
  -7   1 -10 14047.5 487.382   2
  10  -1  -7 14593.0 858.112   4
  -1  -7  10 13990.6 598.730   4
  -1 -10   7 14760.6 830.454   5
  -1  10  -7 14961.4 813.775   2
  -1 -10   7 14925.7 877.358   2
   1 -10  -7 14299.3 986.720   2
  -1  -7  10 15325.5 924.141   5
   7   1  10 11564.7 886.362   1
  -7  10  -1 13252.4 889.988   2
 -10  -7   1 13878.6 877.943   4
   7  -1 -10 15405.1 816.030   4
  10  -7  -1 15084.2 930.384   1
  -7  10  -1 16084.4 950.677   1
   7 -10  -1 14212.4 814.951   1
  -7 -10   1 13360.9 894.212   4
  -3  -7  10 20672.8 835.727   4
 -10  -7   3 20949.7 930.722   1
  10   3   7 21556.6 966.254   4
  -3 -10   7 20933.2 924.883   1
  10   7   3 22050.6 1113.98   4
  10   3   7 19536.2 1149.81   1
 -10   7  -3 21317.8 1058.07   2
  10  -7  -3 21316.8 1135.82   1
  10  -3  -7 21511.8 1064.21   3
   7 -10  -3 21368.0 660.500   3
 -10  -3   7 21932.1 1131.44   1
  -3 -10   7 21290.7 1085.52   3
   3   7  10 20465.2 1088.39   1
  -7  10  -3 22034.8 1136.25   2
   7  10   3 20845.8 675.685   1
  -3 -10   7 19263.8 960.788   4
   3  10   7 20368.2 875.960   1
  10   7   3 20631.2 979.394   1
  -7  10  -3 19797.5 1130.08   1
  -3  10  -7 18882.4 970.395   2
   3  10   7 20727.7 1162.83   2
   3   7  10 19627.7 1027.24   2
  -3  -7  10 20883.0 1124.43   5
  10  -3  -7 20559.0 1049.70   5
   7   3  10 19899.2 1165.43   1
   7 -10  -3 20917.6 653.389   5
  -3 -10   7 20190.4 1046.39   5
 -10  -7   3 19813.4 1071.14   4
  -7 -10   3 20357.2 705.554   1
   7  -3 -10 19842.9 995.942   3
  -3 -10   7 20055.7 1061.64   2
  -3  -7  10 20844.0 914.901   2
  -7 -10   3 19398.3 1085.49   4
  10  -7  -5 1892.17 266.595   5
  -5 -10   7 1702.98 285.228   4
  10  -5  -7 1570.05 266.477   5
   5  -7 -10 2337.73 273.546   3
  10  -5  -7 1988.79 302.809   3
  10   7   5 1544.14 272.989   1
 -10   7  -5 2155.54 313.619   2
   7  -5 -10 1759.64 279.562   3
  -5  10  -7 1668.53 300.452   2
   5  10   7 1855.90 254.032   1
   7  10   5 1712.82 217.601   1
   5   7  10 1901.05 328.947   1
  10  -7  -5 1190.98 223.883   3
  10   5   7 1500.83 315.984   1
  -5 -10   7 1482.84 292.768   3
  -5 -10   7 1550.45 289.306   2
   7   5  10 1919.52 358.029   1
  -5  -7  10 1798.78 271.214   2
 -10  -5   7 1670.15 296.976   1
  -7 -10   5 1596.68 212.726   1
   5   7  10 1967.77 302.895   2
   5  10   7 1939.90 354.042   2
  -7  10  -5 1447.95 273.410   2
  -5  -7  10 1543.59 309.637   5
 -10  -7   5 1652.84 265.126   1
 -10  -5   7 1432.43 274.931   4
  -7  10  -5 1367.93 298.700   1
  -7 -10   5 1521.54 299.942   4
   7 -10  -5 1403.81 135.081   3
  -5  -7  10 1870.52 258.067   4
 -10  -7   5 2066.64 330.616   4
  -5  10  -7 1742.80 349.798   1
   7  10   7 14271.0 761.062   1
  10  -7  -7 15028.7 793.127   3
  -7 -10   7 15003.7 928.114   4
  -7 -10   7 16147.3 788.978   1
  10   7   7 16423.8 969.718   1
 -10  -7   7 14708.9 877.550   1
   7  -7 -10 15756.1 782.598   3
  -7   7 -10 14924.4 590.353   2
   7   7  10 16035.3 987.851   1
  10  -7  -7 14487.3 781.360   5
 -10  -7   7 15533.0 928.494   4
  -7  10  -7 15661.6 909.827   2
  -7  -7  10 15340.1 842.379   4
 -10   7  -7 14677.0 801.299   2
   7 -10  -7 14428.2 546.371   3
  -8  -8 -10-33.7968 105.192   4
  -8 -10  -8 85.1491 159.987   4
 -10  -8  -8-20.7924 123.442   4
   8  10  -8 244.974 156.503   3
 -10   8   8 84.2367 178.640   2
  10  -8   8 139.275 165.524   1
   8 -10   8 49.4928 153.197   1
  -8  10   8 74.4712 159.919   2
  -8  -8 -10-145.727 125.616   2
   8   8 -10 127.801 201.681   3
   8  -8  10-49.5919 186.290   1
  -8   8  10 63.1528 114.646   2
  10   8  -8-39.7390 155.959   3
 -10  -6  -8 33438.7 1368.91   4
  -6 -10  -8 33405.4 1532.02   4
  -6   8  10 30874.4 1495.01   2
  10  -6   8 30689.9 1568.04   1
   6   8 -10 30837.6 1344.28   4
 -10  -8  -6 30520.4 1272.41   1
   6 -10   8 31689.7 1378.86   3
  10   6  -8 30951.2 1574.40   3
  -8   6  10 31458.4 1472.35   2
   6   8 -10 28924.6 1504.41   3
   6  10  -8 29564.8 1500.23   3
   8   6 -10 29636.2 1527.69   3
   8   6 -10 29384.7 1314.20   4
   8  10  -6 30090.1 1507.98   3
   8  -6  10 29869.1 1553.25   1
  10   8  -6 31245.3 1586.85   3
 -10  -6  -8 30219.1 1395.36   1
  -6  10   8 31162.3 1463.24   1
   6  -8  10 29217.2 1484.54   1
  -8 -10  -6 31715.7 1507.66   4
  -6  10   8 28210.8 1493.72   2
 -10   8   6 28110.4 1449.22   2
  -6  -8 -10 32944.9 1512.98   2
   6 -10   8 32730.8 1474.96   1
  10  -6   8 32376.0 1113.14   4
  -8  -6 -10 30768.9 1383.92   2
  10  -8   6 31094.5 1522.09   1
   8 -10   6 31278.0 1450.61   1
  -6  -8 -10 31912.5 1386.96   4
  -8  10   6 29688.6 1524.89   2
 -10  -8  -6 32595.6 1460.38   4
  -8  -6 -10 28480.7 1223.01   4
 -10  -6  -8 28948.5 1353.27   2
   8  -6  10 31414.9 910.880   4
  -4   8  10 289.177 181.397   2
   8  -4  10 217.621 58.6432   4
  -8 -10  -4 368.531 199.340   4
   8  -4  10 39.0757 137.803   1
   8  10  -4 430.142 191.529   5
  10  -8   4-95.1785 131.901   1
   4  -8  10 180.002 81.0603   4
  -4  10   8 66.9918 169.592   2
   8 -10   4 539.781 189.400   1
 -10  -8  -4 38.0266 132.286   4
   8   4 -10 77.8950 109.164   4
  -8  10   4 390.135 194.934   2
  -4  -8 -10 94.0160 106.903   2
   4   8 -10 240.424 173.300   3
   4  10  -8 143.838 118.074   3
   4 -10   8 235.278 147.288   1
  -4 -10  -8 258.308 175.762   2
   8   4 -10 198.584 178.520   3
  -8  10   4 224.046 131.472   1
 -10   8   4 395.487 173.078   2
  10   4  -8 147.946 155.415   3
   8  10  -4 139.690 160.238   3
   4  -8  10 106.473 119.172   1
  10   8  -4 391.364 234.330   3
  -4   8  10 180.964 111.943   3
 -10  -8  -4 282.297 123.274   1
  -4  10   8 133.167 94.1501   1
  10  -4   8 182.197 149.791   1
   4 -10   8 73.3308 91.4654   3
  -8  -4 -10 211.644 113.190   4
 -10  -4  -8 271.548 126.233   2
 -10  -4  -8 175.789 116.674   4
  -4   8  10 13.7912 73.5701   5
  10  -4   8 267.675 104.382   4
 -10  -4  -8 85.8515 126.166   1
   2 -10   8 6165.74 494.739   2
  -8 -10  -2 6654.92 358.684   1
  -2 -10  -8 5778.81 621.024   2
  10  -2   8 7005.21 435.418   4
   8  -2  10 6710.19 327.954   4
  -8  -2 -10 7320.77 483.958   2
   2  -8  10 6551.97 390.608   2
  -2  10   8 6685.52 329.810   5
   2   8 -10 6695.20 633.782   3
   2  10  -8 6224.03 590.017   3
  10  -2   8 6742.25 697.390   1
  -2  -8 -10 6645.44 624.554   2
  -2   8  10 5652.98 438.466   3
   8   2 -10 6784.81 637.725   3
  -2  10   8 4139.53 443.616   1
  10   2  -8 5767.16 603.153   3
  -2  10   8 6456.28 329.360   3
  -2   8  10 6527.30 465.026   5
   8  10  -2 6154.79 602.111   3
 -10  -2  -8 7307.21 673.679   1
  10   8  -2 5908.90 631.640   3
   8  -2  10 5274.18 615.650   1
  -8   2  10 6596.19 632.585   3
  -2   8  10 6545.01 617.242   2
   8  10  -2 6881.85 633.984   5
   2 -10   8 6541.13 557.493   1
   8 -10   2 7860.04 628.897   1
  10  -8   2 6125.56 592.642   1
  -8  -2 -10 6432.93 404.915   4
 -10   8   2 6312.95 611.613   2
 -10  -8  -2 7328.46 490.621   1
   8   2 -10 6521.72 531.530   4
  -8  10   2 6182.59 637.195   2
 -10  -2  -8 6914.63 480.470   4
   2 -10   8 6439.69 558.169   3
  -2  10   8 5159.36 594.336   2
  -8  10   2 6799.98 622.168   1
   2  -8  10 6662.60 613.756   1
 -10  -8  -2 6602.16 609.467   4
   2  -8  10 6802.40 375.449   4
  -8 -10  -2 5312.65 579.241   4
 -10  -8   0-109.440 144.306   4
  10   0  -8 147.806 102.207   4
   0 -10   8 136.884 104.235   1
   0   8  10 138.162 81.9855   3
   0  10   8 415.026 212.546   2
   0  -8  10 161.821 132.819   1
   0  -8  10 370.818 166.276   5
   0 -10   8 125.110 118.115   2
  10  -8   0 193.235 138.241   1
  10   0   8 80.0061 80.0140   4
  -8 -10   0 86.7630 130.456   4
  10   0   8 117.842 164.960   1
  -8   0 -10 256.443 87.1353   2
  -8  10   0 395.558 199.345   2
   0  10   8 254.010 90.0562   3
  10   0  -8 288.787 139.949   3
   0 -10   8 231.681 117.864   3
   8   0 -10 97.8279 92.0246   4
   0  -8  10 67.1938 75.7334   4
   0 -10  -8 148.671 115.281   2
  10   8   0 219.840 106.321   1
   8  10   0 97.0424 102.384   3
  -8   0  10 164.660 130.987   3
 -10   8   0-18.3957 87.0689   1
   0 -10   8 360.754 149.604   4
  -8 -10   0 285.128 74.4735   1
 -10   8   0 45.2115 106.271   2
   8   0  10 547.725 223.991   1
  -8  10   0 44.1052 90.5548   1
   8 -10   0 8.04788 116.230   1
   0 -10   8 402.320 151.518   5
 -10  -8   0 219.925 92.3239   1
   8   0 -10 226.857 168.608   3
   0  -8  10 330.744 110.834   2
   0   8  10 399.995 166.126   2
  -8 -10   2 6244.74 353.713   1
  10   2   8 6884.05 497.348   4
 -10   8  -2 6395.89 592.540   2
  10   2   8 6959.16 687.422   1
  -2  -8  10 5483.68 550.424   1
   8  -2 -10 6726.34 590.993   3
  10  -2  -8 5996.40 565.944   3
   8  10   2 6185.93 342.573   1
   8 -10  -2 6624.41 570.443   1
  10  -8  -2 6097.79 590.933   1
   2  10   8 6202.73 496.636   1
  -8  10  -2 5786.15 599.567   1
  10   8   2 7216.16 505.309   1
  -2 -10   8 6117.64 502.966   1
  10  -2  -8 5928.23 560.406   5
  -2 -10   8 5413.68 536.764   3
  -2 -10   8 5268.33 522.084   5
   8   2  10 5907.68 627.033   1
  -2  10  -8 6542.47 504.631   2
   2   8  10 5807.56 551.661   1
  -8   2 -10 6444.17 306.096   2
   8  -2 -10 7249.61 583.885   4
   2  10   8 6484.90 630.036   2
  -2  -8  10 5476.59 459.596   2
   2   8  10 7640.25 641.979   2
 -10  -8   2 6162.97 455.465   1
  -2  -8  10 6423.57 601.715   5
  -8  10  -2 6419.78 614.479   2
  -2 -10   8 5683.05 536.598   2
  -2  -8  10 6396.82 429.639   4
 -10  -8   2 4872.28 526.903   4
  -8 -10   2 5783.82 588.147   4
  -2 -10   8 4884.33 453.679   4
  10   8   4-3.83791 89.5705   1
  -8 -10   4 158.689 146.201   4
 -10  -8   4 521.211 203.610   4
   4   8  10 69.3808 99.2832   1
 -10  -4   8 340.788 164.849   1
  -8   4 -10 93.8481 55.9025   2
  -4  -8  10 430.660 148.556   2
  -8  10  -4 215.458 157.137   2
  -4 -10   8 212.815 140.317   4
 -10   8  -4 26.5359 129.019   2
   8  10   4 190.366 89.9849   1
   8   4  10 241.251 166.408   1
   4  10   8 142.318 117.019   1
  10  -4  -8 183.020 146.841   3
   8 -10  -4 163.403 77.7675   3
  10  -8  -4 126.650 104.146   3
   8  -4 -10 282.460 143.424   3
  -8  10  -4 85.9035 142.616   1
  -8 -10   4 244.574 98.1823   1
   4   8  10 306.413 166.729   2
   4  10   8-5.90563 127.495   2
  10  -4  -8 217.280 139.277   5
   8 -10  -4 51.5007 56.5469   5
  -4  -8  10 118.821 125.375   5
  10   4   8 212.940 117.298   1
 -10  -8   4 226.037 113.010   1
  -4 -10   8 153.381 135.561   5
  -4 -10   8 353.127 134.043   2
  -4 -10   8 311.840 163.169   1
  -4  10  -8 223.995 117.762   2
  -4  -8  10 313.742 118.639   4
 -10   8  -6 29128.4 1275.00   2
   6   8  10 29975.8 1371.92   1
  10  -8  -6 30281.9 1153.32   5
  -8   6 -10 32277.3 976.510   2
   6  -8 -10 28889.0 1082.12   3
  10  -8  -6 31521.0 1178.47   3
   8  -6 -10 31077.9 1246.23   3
   8 -10  -6 31676.0 943.296   3
  10  -6  -8 32173.0 1277.52   3
 -10  -8   6 28942.2 1232.56   1
  -6  10  -8 30443.4 1290.40   2
  -8 -10   6 29785.8 1405.54   4
 -10  -6   8 33936.6 1443.43   1
  -6  -8  10 30362.9 1240.98   4
  -8 -10   6 32299.8 1162.05   1
   8   6  10 29173.5 1446.62   1
   6  10   8 29994.4 1222.82   1
  -6  -8  10 28769.0 1292.68   2
  -6   8 -10 30293.0 961.958   2
  -6 -10   8 30091.4 1390.23   2
   8  10   6 31677.3 1159.31   1
  10  -6  -8 30641.9 1254.43   5
 -10  -6   8 30434.3 1346.55   4
  -8  -6  10 29089.9 1238.85   4
 -10   6  -8 29948.2 1148.23   2
 -10  -8   6 31165.8 1414.98   4
  10   6   8 31906.7 1485.93   1
  -8  10  -6 30049.9 1347.46   2
  -6 -10   8 30969.5 1344.18   4
  10   8   6 27273.0 1268.01   1
 -10  -8   8 43.7242 116.394   4
  -8   8 -10-57.4107 89.2238   2
  10  -8  -8 108.429 120.934   5
   8   8  10-48.6566 138.746   1
  10  -8  -8 88.2832 96.2079   3
  -8 -10   8 77.9174 73.4559   1
  10   8   8 110.678 150.283   1
 -10   8  -8 39.4524 92.0770   2
 -10  -8   8-57.0835 88.7055   1
  -8  10  -8-28.1438 96.5300   2
   8  -8 -10 22.8993 74.0804   3
   8  10   8-42.3685 102.741   1
   8 -10  -8 27.5602 68.1503   3
  -8  -8  10 70.7104 97.2178   4
  -8 -10   8 184.609 162.959   4
 -10  -9  -9 2346.54 393.922   4
  -9  10   9 2482.12 450.272   2
   9  10  -9 2660.11 487.097   3
 -10   9   9 3238.76 503.904   2
   9   9 -10 3450.13 555.588   3
  10   9  -9 2919.36 506.198   3
  -9  -9 -10 2933.11 425.424   4
  10  -9   9 2861.69 486.222   1
  -9   9  10 1889.27 411.257   2
   9 -10   9 2288.81 424.636   1
   9  -9  10 2519.35 472.448   1
  -9 -10  -9 2746.34 430.035   4
   7  10  -9 948.525 280.680   3
  -9  -7 -10 1416.42 262.942   4
  -7 -10  -9 1461.98 315.849   4
  -9 -10  -7 1172.82 309.311   4
 -10  -7  -9 1495.78 292.219   4
  -7  10   9 1934.97 398.363   2
   9  -7  10 2403.44 450.719   1
  10   9  -7 1431.28 365.654   3
  -9   7  10 1622.17 352.518   2
  10  -9   7 1227.79 314.195   1
 -10   7   9 2498.98 413.569   2
   7   9 -10 1493.80 361.497   3
   9 -10   7 1905.13 370.120   1
   9   7 -10 1097.45 303.203   3
  10   7  -9 1600.13 373.062   3
   9  10  -7 1174.01 306.173   3
  -7   9  10 2214.75 412.207   2
  10  -7   9 1413.81 325.385   1
 -10   9   7 1966.42 390.282   2
  -9  10   7 1583.90 356.630   2
   7 -10   9 1220.14 291.633   1
   9  -7  10 1634.17 191.710   4
  -7  -9 -10 1461.10 304.741   4
   7  -9  10 1236.93 302.472   1
 -10  -9  -7 1393.73 307.679   4
  10  -7   9 1881.80 231.739   4
 -10  -7  -9 1213.98 274.615   2
  -9  -7 -10 1842.78 339.886   2
  -9  -5 -10 8611.83 599.313   4
  10   9  -5 9016.75 824.470   3
  -5  -9 -10 9985.35 760.075   4
  -5 -10  -9 9488.16 775.841   4
 -10  -5  -9 9390.17 649.898   4
 -10  -9  -5 9719.49 619.104   1
   5  10  -9 9949.10 826.023   3
  10  -5   9 9056.98 852.367   1
   9  -5  10 10366.0 459.675   4
 -10   9   5 9345.82 817.886   2
   9   5 -10 9541.07 833.415   3
   9  -5  10 9661.37 861.429   1
  10   5  -9 9234.69 832.046   3
   5 -10   9 10170.1 787.449   1
   9  10  -5 8915.13 799.902   3
  -5  -9 -10 8164.17 747.711   2
  -5  10   9 9349.43 754.042   1
  10  -9   5 8919.89 768.700   1
  -5   9  10 10405.6 851.697   2
   5  -9  10 7708.06 702.561   1
  -5  10   9 9394.76 825.853   2
 -10  -9  -5 9256.94 761.510   4
 -10  -5  -9 8532.70 671.542   2
  -9  -5 -10 9835.52 709.493   2
  -9  10   5 9699.79 828.264   2
   9 -10   5 10388.9 802.285   1
  10  -5   9 9266.92 504.447   4
   5   9 -10 9752.25 827.987   3
  -9 -10  -5 10859.8 841.724   4
  -9  10   3 10470.9 834.639   2
   3  -9  10 8796.63 484.280   4
  -9 -10  -3 8345.23 481.081   1
  10   9  -3 7605.46 740.836   3
   3 -10   9 8845.70 571.550   4
 -10   9   3 8583.17 749.916   2
   3   9 -10 7571.17 715.150   3
   3  10  -9 9247.38 765.601   3
  -3  -9 -10 9744.33 800.005   2
  -3  10   9 9632.48 814.071   2
   9   3 -10 9119.78 778.722   3
 -10  -9  -3 9102.37 545.901   1
   9  -3  10 8558.86 832.817   1
  -3   9  10 8864.00 531.768   3
   3 -10   9 9460.76 719.879   3
   9  10  -3 8432.11 753.217   3
  -3  10   9 9190.34 457.166   3
   3 -10   9 8193.72 676.726   1
  10  -3   9 7875.13 781.699   1
   9 -10   3 8532.81 698.347   1
  10  -9   3 9476.14 763.769   1
  10   3  -9 8060.01 741.423   3
  -9  -3 -10 8833.93 605.414   2
   3  -9  10 8255.12 704.930   1
  -3   9  10 8957.34 528.508   5
 -10  -3  -9 8640.68 569.696   4
  -3  10   9 9351.06 703.095   1
  -9  -3 -10 9414.19 558.136   4
 -10  -9  -3 8883.29 746.001   4
  10  -3   9 9161.19 488.580   4
   3 -10   9 9498.17 580.420   2
  -3   9  10 8392.87 745.959   2
   9  -3  10 8977.49 427.017   4
   9   3 -10 7697.42 616.886   4
  -9 -10  -3 10307.7 822.272   4
   9  -1  10 15514.4 619.717   4
  -9  10   1 14868.0 981.858   1
  10  -1   9 14779.7 1065.16   1
   1   9 -10 14984.1 978.237   3
   1  10  -9 13168.5 898.476   3
  -1  -9 -10 13698.9 969.546   2
  -1   9  10 13978.4 697.892   3
   9  10  -1 15105.0 982.077   3
   9   1 -10 13995.5 940.203   3
   1 -10   9 16205.2 943.388   3
  -1  10   9 15086.7 633.076   3
  10   1  -9 14358.4 954.447   3
   9  -1  10 13821.5 1025.74   1
 -10   9   1 13422.0 935.612   2
  -1  10   9 15592.1 1028.38   2
  10   9  -1 14992.6 1020.87   3
   1  -9  10 14695.4 918.243   1
   9 -10   1 13853.2 881.794   1
  10  -9   1 15027.2 945.794   1
   1  -9  10 14401.4 919.544   5
 -10  -1  -9 15637.3 729.662   2
 -10  -9  -1 15310.0 697.767   1
  -9  -1 -10 13933.5 671.881   2
  -1   9  10 15650.6 731.028   5
   1 -10   9 14483.6 886.899   5
  -1  10   9 14350.5 614.172   5
   1  -9  10 13952.8 705.888   2
  -9 -10  -1 14661.4 981.152   4
   1 -10   9 15707.9 900.503   1
  10  -1   9 14914.5 668.632   4
   9   1 -10 15974.9 893.743   4
  -9  10   1 14852.7 988.873   2
 -10  -9  -1 14069.8 945.395   4
  -1   9  10 15265.6 988.659   2
  -9 -10  -1 15497.8 613.367   1
   1 -10   9 12978.7 754.904   2
   1  -9  10 15340.5 662.511   4
   9  -1 -10 15523.1 894.591   4
  -9  10  -1 15277.8 982.546   2
 -10   9  -1 13977.5 937.382   2
   1  10   9 13428.7 662.092   3
 -10  -9   1 14749.8 690.799   1
  10   1   9 14821.2 1048.96   1
  -9  10  -1 13727.5 962.271   1
  -9 -10   1 14541.8 602.107   1
  -1 -10   9 12849.5 804.910   1
  10  -1  -9 14402.8 922.529   3
  10   9   1 12989.7 670.841   1
  -1 -10   9 12985.8 806.813   2
   9 -10  -1 13927.2 890.603   1
  10  -9  -1 14087.8 919.786   1
  -1  -9  10 15246.1 705.304   4
   9   1  10 14573.2 1043.36   1
  -1  -9  10 13079.7 762.831   2
  -1  -9  10 13081.8 882.111   5
  -1  -9  10 14354.2 889.282   1
  -9   1 -10 13533.1 581.118   2
   1  10   9 15493.7 1015.29   2
   1   9  10 13606.8 926.293   2
  -9 -10   1 15214.8 982.660   4
   1   9  10 12780.3 712.446   3
  10   1   9 13429.3 691.431   4
 -10  -9   1 14775.0 967.439   4
   9  -1 -10 13436.8 888.859   3
  -1 -10   9 14677.5 753.344   4
  -1 -10   9 14829.8 907.399   5
  10  -9  -3 8910.31 564.374   3
 -10   9  -3 8686.87 708.437   2
  -3 -10   9 8812.25 677.504   2
   9  -3 -10 9947.84 717.222   3
  10   3   9 10554.5 868.655   1
  -3 -10   9 9601.31 631.602   4
  10  -3  -9 9000.19 701.171   3
   9 -10  -3 8417.62 691.173   1
  -3  -9  10 9861.94 732.298   1
  10  -9  -3 8797.69 732.116   1
  -9 -10   3 9968.15 523.539   1
   3  10   9 9440.90 657.255   1
  -3 -10   9 9248.44 741.409   5
   9 -10  -3 9956.83 527.353   3
  10   9   3 9655.74 584.494   1
   3  10   9 9110.97 756.971   2
   3   9  10 10631.4 800.084   2
  -9  10  -3 9731.00 761.038   2
  10  -3  -9 10512.3 756.197   5
  -3  -9  10 10502.2 802.499   5
 -10  -9   3 9759.27 576.899   1
  -3 -10   9 10312.2 704.389   1
   9  10   3 9755.50 513.393   1
   3   9  10 7730.51 644.143   1
   9   3  10 8256.01 773.174   1
  -3  -9  10 9984.06 609.415   4
 -10  -9   3 9209.68 757.581   4
  -9 -10   3 10213.9 798.537   4
  -3  -9  10 9369.71 657.287   2
 -10   9  -5 10870.8 766.440   2
   9  10   5 11239.1 621.036   1
 -10   5  -9 9888.30 554.911   2
   5   9  10 10547.5 751.328   1
  -9  10  -5 9496.97 735.847   2
  10   5   9 10612.1 861.069   1
   9  -5 -10 10477.2 713.766   3
  -5  -9  10 11282.7 753.212   2
  10  -5  -9 10301.5 714.746   3
   9 -10  -5 11607.0 538.567   3
  -5  -9  10 10475.5 837.378   5
  10  -9  -5 10023.0 584.539   3
   9   5  10 9524.01 823.374   1
  10  -9  -5 11002.5 607.916   5
  -9 -10   5 11751.5 633.276   1
  -5   9 -10 10944.1 537.003   2
   5   9  10 9606.00 764.077   2
   5  10   9 10188.1 809.020   2
 -10  -9   5 11823.8 686.170   1
  -5  10  -9 10609.4 645.711   2
  -5 -10   9 9762.54 740.523   2
  10  -5  -9 10340.0 711.313   5
  -9   5 -10 10394.3 485.410   2
  -5  -9  10 9922.75 660.601   4
  10   9   5 10263.3 657.867   1
 -10  -9   5 10001.6 791.130   4
   5  10   9 11268.1 721.349   1
  -9 -10   5 10145.3 796.209   4
  -5 -10   9 10145.1 692.800   4
   9 -10  -5 8430.28 471.248   5
  -9  10  -7 1235.27 265.161   2
  10  -9  -7 1823.76 245.216   5
 -10   9  -7 1199.81 242.742   2
  10   7   9 1045.23 280.644   1
  -7   9 -10 1092.46 190.257   2
   9  -7 -10 1379.95 245.562   3
  10   9   7 1804.75 298.180   1
  10  -7  -9 1348.07 247.053   3
   7   9  10 1157.44 264.997   1
  10  -9  -7 313.737 122.060   3
   9  10   7 1262.13 242.211   1
  -7  10  -9 1511.79 262.185   2
  -9  -7  10 1919.69 313.545   4
   9   7  10 1369.00 316.502   1
  -9 -10   7 1457.51 245.568   1
 -10  -9   7 1552.74 267.772   1
  -7  -9  10 1333.49 265.809   4
  -9   7 -10 1068.88 187.952   2
   7  10   9 1351.68 265.480   1
   7  -9 -10 1394.79 213.804   3
 -10  -7   9 1512.21 308.318   4
   9 -10  -7 1183.79 173.924   3
 -10  -9   7 1680.47 319.515   4
  -7 -10   9 1285.47 264.718   4
  -9 -10   7 1647.14 325.075   4
 -10   7  -9 1429.38 230.301   2
 -10   9  -9 2907.86 366.687   2
   9 -10  -9 2004.14 244.899   3
   9  -9 -10 2760.22 317.783   3
  10  -9  -9 3296.44 348.801   3
   9  10   9 2811.34 386.783   1
  -9  -9  10 2451.76 375.453   4
  -9 -10   9 3095.30 396.542   1
  10   9   9 2960.17 418.514   1
  -9  10  -9 2911.01 379.909   2
  -9   9 -10 3001.54 347.809   2
   9   9  10 2365.65 387.347   1
 -10  -9   9 2168.57 372.819   4
  -9 -10   9 3155.44 440.366   4
  10  10 -10-246.405 228.750   3
 -10 -10 -10 75.4694 144.951   4
 -10  10  10 125.435 147.609   2
  10 -10  10-49.1031 206.310   1
  -8 -10 -10 36172.5 1637.73   4
  -8  10  10 33492.1 1718.53   2
 -10  10   8 32064.1 1688.18   2
 -10   8  10 34138.5 1714.60   2
   8 -10  10 33272.9 1678.13   1
   8  10 -10 31521.9 1708.16   3
  10   8 -10 34498.8 1793.69   3
  10  10  -8 32449.8 1733.49   3
 -10 -10  -8 32923.1 1616.34   4
  10  -8  10 33394.8 1139.07   4
  10  -8  10 34401.5 1769.38   1
 -10  -8 -10 34064.3 1514.68   4
  10 -10   8 33533.6 1680.73   1
  -6 -10 -10 47.6694 108.642   4
  -6  10  10-75.7564 180.373   2
  10 -10   6 112.206 128.393   1
 -10  10   6-32.1708 152.773   2
  10   6 -10-91.7394 182.378   3
 -10 -10  -6 1.64503 143.164   4
  10  10  -6-1.87168 128.014   3
 -10  -6 -10-185.586 129.034   4
  10  -6  10 41.0946 186.492   1
   6  10 -10-142.133 182.992   3
   6 -10  10 229.818 152.536   1
 -10  -6 -10-29.0357 136.706   2
  10  -6  10 2.83497 66.3996   4
   4 -10  10 11633.8 634.784   4
 -10  10   4 10702.7 896.168   2
 -10 -10  -4 13322.7 680.715   1
   4  10 -10 10675.7 884.960   3
  -4  10  10 10690.4 564.379   3
  10  -4  10 11256.6 955.395   1
  -4  10  10 10517.8 886.832   2
  10  10  -4 11022.1 906.639   3
  10 -10   4 10762.7 843.682   1
   4 -10  10 11629.9 864.852   1
 -10  -4 -10 12066.0 766.222   2
 -10 -10  -4 12596.1 931.515   4
 -10  -4 -10 11868.5 700.927   4
  10   4 -10 11304.9 928.866   3
  10  -4  10 12370.1 551.742   4
  -2  10  10 41.4809 135.732   2
   2 -10  10-59.5336 81.2810   4
   2 -10  10 28.1563 73.4544   2
 -10  10   2-100.861 182.776   2
  10   2 -10-51.6281 156.687   3
  -2  10  10-73.2744 79.6555   3
  10  10  -2-78.7374 166.291   3
   2 -10  10-17.6789 116.673   1
 -10 -10  -2 73.1477 123.396   4
  -2  10  10 61.3842 73.4428   5
  10  -2  10 184.562 214.473   1
 -10  -2 -10 41.7063 97.9943   2
  10  -2  10 155.108 76.7578   4
 -10  -2 -10-111.811 76.3482   4
   2  10 -10-67.8335 138.163   3
  10 -10   2 101.989 158.667   1
 -10 -10  -2-5.09508 58.9644   1
   0 -10  10 574.669 162.603   2
  10   0  10 776.534 155.130   4
   0 -10  10 536.151 139.490   4
 -10  10   0 483.164 183.075   2
 -10 -10   0 316.306 102.403   1
   0 -10  10 692.852 223.798   1
   0  10  10 509.259 132.899   3
  10   0 -10 804.252 230.870   3
  10 -10   0 329.233 163.042   1
 -10 -10   0 481.615 212.212   4
  10  10   0 250.657 191.042   3
 -10   0 -10 645.128 135.262   2
   0 -10  10 901.510 233.444   5
  10   0  10 763.152 271.619   1
   0  10  10 536.316 214.071   2
   2  10  10 89.2485 96.8182   3
 -10  10  -2 245.519 182.348   2
  -2 -10  10-11.2396 95.1205   1
  -2 -10  10 1.72845 73.2260   4
  10  -2 -10-125.614 126.700   3
  10  10   2-5.31366 73.7730   1
  10 -10  -2-79.0925 165.174   1
 -10 -10   2-15.7708 55.5192   1
  -2 -10  10-18.6271 137.331   5
 -10 -10   2 63.4962 161.548   4
   2  10  10 18.0978 118.072   1
  10   2  10-20.2036 147.672   1
   2  10  10 42.0074 120.768   2
  -2 -10  10 122.337 72.2664   2
 -10 -10   4 12165.4 904.372   4
 -10   4 -10 12745.2 574.157   2
  10  -4 -10 12155.0 816.623   3
 -10  10  -4 13336.4 910.207   2
  10   4  10 11988.2 952.479   1
  -4 -10  10 11990.5 816.480   1
   4  10  10 12647.8 817.624   1
  10 -10  -4 12271.3 632.640   3
  10  10   4 12238.6 657.751   1
 -10 -10   4 13594.6 687.398   1
   4  10  10 12552.0 921.775   2
  -4 -10  10 12261.9 818.225   2
  -4 -10  10 12712.4 926.532   5
  10 -10  -4 13014.1 644.036   5
  -4 -10  10 13019.0 764.622   4
 -10  10  -6 26.5068 119.771   2
  10  10   6-3.86276 87.1330   1
  10 -10  -6 45.4776 71.7179   3
  10  -6 -10 25.0841 120.185   3
   6  10  10 91.8672 112.608   1
  -6  10 -10 265.972 121.800   2
  10   6  10-15.2856 125.798   1
 -10 -10   6 39.1304 79.1011   1
  -6 -10  10-58.4196 121.116   4
  10 -10  -6-70.7794 88.9074   5
 -10 -10   6 89.7297 152.078   4
 -10   6 -10-103.010 87.0694   2
  10 -10  -8 37089.6 1249.04   3
  10   8  10 37430.9 1677.30   1
  -8 -10  10 35706.2 1505.15   1
 -10  10  -8 33808.7 1458.32   2
   8  10  10 36355.4 1539.25   1
 -10 -10   8 36425.3 1453.40   1
 -10   8 -10 37749.2 1327.82   2
  10  10   8 35471.2 1475.44   1
   8 -10 -10 37855.3 1207.56   3
  -8  10 -10 34313.3 1342.11   2
 -10  -8  10 32078.0 1495.91   4
  -8 -10  10 34900.5 1537.03   4
 -10 -10   8 36039.1 1644.50   4
  10  -8 -10 37662.2 1408.03   3
 -10 -10  10 52.8045 154.759   4
  10 -10 -10 114.555 101.058   3
 -10  10 -10 156.537 140.203   2
  10  10  10-55.1148 129.972   1
   1   0  11 16456.4 962.987   3
   0  -1  11 17221.2 569.306   2
   1   0  11 15630.4 556.011   2
  -1   0  11 17468.1 668.557   2
  11   0  -1 18269.8 1018.90   1
   0  11   1 16763.9 522.620   3
   0  11  -1 16910.4 661.044   3
   0   1  11 16912.4 956.028   3
   0  -1  11 17122.6 983.203   3
   1 -11   0 16868.1 577.246   1
   0 -11   1 16922.6 511.473   1
   1 -11   0 15354.2 975.646   2
 -11   1   0 16533.2 973.768   1
  -1  11   0 17000.0 628.453   1
   0  11   1 18047.1 1070.83   2
  11   1   0 16759.5 974.948   1
  11  -1   0 16672.7 983.742   1
   0  11   1 18076.1 529.827   1
   0 -11   1 17004.9 1016.39   2
  -1 -11   0 19101.1 1085.32   2
   0   1  11 16850.2 670.475   2
  11   0   1 16573.7 978.531   1
  -1  11   0 16877.5 1030.82   2
   1  11   0 16356.8 1023.96   2
   0  11  -1 16286.2 1014.51   2
  -1   0 -11 15085.3 465.142   4
   1   0  11 16619.2 1037.51   1
   0   1 -11 16382.8 487.134   4
  -1   0  11 16397.5 950.920   3
 -11   0  -1 17266.8 973.730   1
 -11  -1   0 16209.5 922.923   1
   1   0 -11 16716.2 591.773   4
  11  -1   0 16286.1 856.229   4
  11   0  -1 17738.7 899.734   4
  11   0   1 16033.4 839.792   4
 -11   0   1 16287.9 942.462   1
   1  11   0 16170.5 638.541   3
   0 -11  -1 16839.6 1021.54   2
  11   1   0 16459.1 866.874   4
   1 -11   2 27910.7 1325.37   2
  -1   2  11 28573.3 1030.42   2
   1 -11   2 28572.2 942.021   3
   2  -1  11 26903.3 1370.16   1
  -1  11   2 29328.0 911.199   1
   2 -11   1 28052.3 1339.42   2
 -11   2   1 30131.3 1365.52   1
   2   1 -11 27312.8 1245.63   3
  11  -2   1 30992.4 1214.67   4
  -2   1  11 29516.4 1039.86   2
 -11  -2  -1 29773.4 1271.90   1
   2  -1  11 27486.9 1316.75   3
   1 -11   2 29277.9 940.190   5
   1  -2  11 27405.7 1306.03   3
  -2  11   1 29004.4 991.624   1
   2  11  -1 29100.9 1025.90   3
 -11  -1  -2 28095.9 1270.30   1
  -2   1  11 27662.8 1277.58   3
   2 -11   1 28320.2 836.944   5
   1  -2  11 30210.1 1423.56   1
  11   2  -1 27933.1 1299.55   1
  11   1  -2 28387.9 1317.70   1
   2 -11   1 29664.4 856.922   3
  -1   2  11 29171.9 1285.63   3
  -2  11   1 30012.6 1432.53   2
   2 -11   1 28212.1 924.274   1
  -1  11   2 26575.7 1371.12   2
   2  11  -1 28253.8 1379.38   2
   2   1 -11 27273.5 877.643   4
   1  11  -2 29152.4 1383.00   2
   1 -11   2 28514.9 884.158   1
  11  -1   2 28970.6 1353.76   1
  11  -1   2 30369.2 1184.93   4
  -2   1  11 26505.7 1245.75   5
 -11   1   2 28605.2 1318.89   1
 -11  -2  -1 27676.0 1171.17   4
  11  -2   1 27410.3 1321.81   1
  -2 -11  -1 29828.9 1421.57   2
  11   1  -2 29048.9 1225.59   4
  11   2  -1 27879.6 1200.98   4
  -1 -11  -2 29194.6 1417.66   2
   1  11  -2 27901.8 1024.26   3
   1   2 -11 27421.0 803.790   4
  -1  11  -2 27455.9 958.968   1
   1 -11  -2 29253.7 1423.88   2
   2 -11  -1 28590.9 1397.41   2
 -11   2  -1 30135.7 1370.03   1
   2  11   1 27525.6 925.315   3
   1   2  11 26582.2 1257.31   3
   2   1  11 29720.3 1347.91   3
 -11   1  -2 30377.8 1367.45   1
  -2  11  -1 29722.0 1412.35   2
   1   2  11 30181.3 1010.93   2
  -1  -2  11 29293.3 1336.21   3
   2   1  11 28002.7 1378.20   1
   1  11   2 28957.7 811.284   3
  11  -1  -2 28593.0 1345.08   1
  11  -2  -1 29904.4 1365.38   1
  -2  11  -1 27364.2 995.728   1
  -2 -11   1 29787.4 1418.97   2
  -1 -11   2 29683.8 729.591   1
  11   2   1 27476.2 1295.04   1
  -2  -1  11 29200.7 1321.56   5
  11   1   2 28244.9 1165.54   4
   2  11   1 27554.4 1374.29   2
   2   1  11 28996.5 842.446   2
  11   1   2 28525.5 1328.75   1
   1  11   2 27456.1 1401.49   2
  11   2   1 30706.6 1224.99   4
  -1  11  -2 29154.8 1386.55   2
  11  -1  -2 33129.1 1284.72   4
  11  -2  -1 29301.5 1216.02   4
  -2  -1  11 28178.5 1310.02   3
 -11  -1   2 31899.7 1342.29   1
 -11  -2   1 29379.1 1214.13   4
   2  11   1 27724.6 924.933   5
  -1 -11   2 26332.4 1326.50   2
 -11  -2   1 29139.7 1259.19   1
  -3  11   2 10468.7 591.889   1
  -3   2  11 11397.4 770.083   3
  -2  11   3 10763.3 831.844   2
  -3  -2 -11 11206.3 464.322   4
  -2   3  11 10694.7 634.038   2
   3 -11   2 11640.5 811.221   2
  -2   3  11 11878.7 761.739   5
 -11  -2  -3 10571.8 673.252   4
   2   3 -11 11693.8 794.317   3
   3   2 -11 12204.4 806.016   3
   3  -2  11 11965.8 835.747   3
  -3   2  11 10458.8 634.780   2
   2  -3  11 11724.4 824.766   3
   2  11  -3 11449.4 654.402   3
   2 -11   3 10979.8 782.221   2
   3  11  -2 10830.5 640.182   3
  -2   3  11 9928.96 711.965   3
 -11   2   3 12365.0 840.107   1
   3 -11   2 10955.5 503.598   3
 -11  -3  -2 11601.3 745.231   1
   2 -11   3 11248.7 558.835   3
  11  -3   2 12609.6 720.041   4
  11   2  -3 11325.1 790.069   1
  11   3  -2 11150.2 767.726   1
 -11  -2  -3 10862.9 753.018   1
   3  -2  11 11281.3 852.037   1
  11   2  -3 10461.9 824.888   3
   3  11  -2 11609.6 837.738   2
 -11   3   2 11001.4 809.256   1
   2  11  -3 11992.7 837.645   2
   3 -11   2 11537.0 510.168   5
   3 -11   2 11063.5 572.074   1
  11  -3   2 11859.5 838.996   1
   3  11  -2 10914.7 644.513   5
   2 -11   3 11797.0 562.696   5
  11  -2   3 10114.8 790.064   1
   2  -3  11 11255.2 839.770   1
   2   3 -11 10574.8 488.233   4
  11  -2   3 12819.6 710.142   4
  -2  11   3 9721.60 544.778   1
   2 -11   3 10735.0 549.863   1
 -11  -3  -2 12231.3 737.971   4
  -3 -11  -2 11199.7 858.264   2
  11   2  -3 11624.9 735.079   4
  -2 -11  -3 11639.2 868.506   2
   3   2 -11 11062.8 530.271   4
  -3  11   2 9831.79 795.522   2
  11   3  -2 12444.2 759.164   4
  -3   2  11 11045.0 756.704   5
   3   0  11 14177.3 949.033   1
 -11   3   0 15065.1 951.721   1
   0 -11   3 14904.9 566.683   1
  -3  11   0 13717.7 931.735   2
  11   0   3 13466.0 745.331   4
  11  -3   0 13199.1 883.772   1
   3   0 -11 16786.4 908.182   3
  11   0  -3 14646.3 834.974   4
   0   3  11 13892.3 843.666   3
 -11   0   3 11678.6 810.214   1
  11  -3   0 13596.6 784.743   4
   3  11   0 14598.0 687.428   3
 -11   0  -3 14322.6 900.121   1
   0 -11   3 14150.3 675.440   5
  -3  11   0 14481.9 708.148   1
   3 -11   0 14712.1 447.012   3
   0 -11   3 14966.1 697.162   3
  11   3   0 12935.4 839.002   1
   0  -3  11 14629.8 919.455   3
   0  -3  11 14444.9 467.593   2
   3  11   0 14467.0 957.292   2
   0  11  -3 14280.4 917.188   2
   0  -3  11 14908.4 968.566   1
   0   3  11 13647.4 698.103   2
   3   0  11 15250.3 944.530   3
  -3   0  11 14867.3 896.042   5
   3  11   0 13879.1 673.957   5
  11   0  -3 14432.8 918.818   1
   0  11   3 14010.8 962.680   2
   0  11  -3 14343.0 704.212   3
   0 -11   3 14560.4 917.828   2
   3 -11   0 15166.6 948.404   2
   0  11   3 13708.2 527.767   1
  -3 -11   0 12822.3 922.013   2
 -11  -3   0 13898.8 807.648   4
   3   0 -11 14754.7 636.335   4
   3 -11   0 14607.9 643.888   1
 -11  -3   0 13244.3 804.662   1
  11   0   3 13915.3 913.634   1
  11   3   0 14203.6 813.762   4
  -3   0  11 16253.1 944.504   3
   0 -11  -3 14729.8 977.334   2
 -11   3  -2 9838.21 775.714   1
   3 -11  -2 10297.1 809.180   2
  -2 -11   3 11038.9 776.640   4
   2 -11  -3 10251.0 811.593   2
   2   3  11 10898.2 757.883   3
   3  -2 -11 11161.1 709.740   3
   3   2  11 10533.6 767.100   3
  11  -3  -2 10598.4 788.378   1
  -3 -11   2 8959.68 730.250   4
  -2 -11   3 11256.8 821.776   2
  11  -2  -3 10296.6 777.291   1
 -11   2  -3 10938.2 803.406   1
   3  11   2 10433.9 542.255   5
   2  11   3 10382.0 471.202   5
   2  11   3 11127.8 490.009   3
   3  11   2 11024.0 555.592   3
   2   3  11 9675.54 777.503   1
  11  -2  -3 12930.4 774.806   4
  -2 -11   3 10218.0 613.854   3
  -3  11  -2 10014.9 775.001   2
 -11  -3   2 12108.2 750.532   1
  -2  11  -3 9944.41 770.745   2
   3   2  11 11494.3 489.446   2
   3  11   2 10625.8 833.651   2
  11   3   2 9524.61 719.028   1
  -2  11  -3 9885.32 593.721   1
   2  11   3 9439.14 784.382   2
  -2 -11   3 11136.5 384.801   1
   2   3  11 9971.60 553.211   2
 -11  -2   3 10337.1 724.769   1
  11   2   3 10910.7 788.005   1
  -3  -2  11 11617.3 820.082   3
   3   2  11 10590.1 812.650   1
  -3  -2  11 9231.92 719.635   5
  -3 -11   2 10903.3 823.420   2
  -2  -3  11 10894.2 781.753   3
  -2  -3  11 8451.75 695.093   5
  11  -3  -2 11031.7 715.901   4
 -11  -3   2 11392.6 718.498   4
  -3  11  -2 10937.1 633.374   1
  11   2   3 10511.7 660.094   4
  11   3   2 11170.7 701.964   4
  -4  -3 -11 13427.0 586.849   4
  -4 -11  -3 13283.1 923.080   4
  -4  -3 -11 14135.7 650.633   2
   3   4 -11 13882.1 904.432   3
  -4   3  11 12430.3 745.918   2
  -3  -4 -11 13550.8 694.280   2
   4  -3  11 13067.3 927.135   1
   3  11  -4 14009.8 799.205   3
   3 -11   4 13636.5 674.964   3
   4  11  -3 13987.1 793.993   3
  -3   4  11 14979.0 870.773   3
  -4   3  11 13618.6 856.893   3
   3  -4  11 13538.5 941.038   1
  -3   4  11 13428.2 779.598   2
  11   3  -4 12107.7 917.321   3
  11   4  -3 14299.5 997.858   3
  11  -4   3 13173.8 748.534   4
 -11  -4  -3 13361.2 817.367   1
 -11  -3  -4 14231.2 873.285   1
  -3  11   4 13181.9 695.009   1
   4  11  -3 13753.9 791.644   5
 -11  -4  -3 13909.7 816.257   4
  -3   4  11 15483.0 869.015   5
  11  -4   3 11797.2 871.403   1
   4 -11   3 14350.8 640.107   3
   3 -11   4 14230.0 866.383   2
   4 -11   3 13095.6 701.180   1
  -4   3  11 13637.5 837.496   5
  -4  11   3 14365.5 979.705   2
   4   3 -11 14174.5 904.730   3
   3   4 -11 12932.9 612.843   4
  -4  11   3 13161.8 735.715   1
  -4 -11  -3 13678.9 973.783   2
 -11  -3  -4 13151.1 772.557   4
  11  -3   4 15082.4 773.013   4
  -3 -11  -4 12909.1 942.741   2
  -3  11   4 12763.0 922.890   2
  11  -3   4 13845.0 946.625   1
   3 -11   4 14810.4 724.441   1
   4   3 -11 13925.5 654.301   4
   4 -11   3 15354.8 909.696   2
  -4   1  11 15411.1 937.072   3
  11   4  -1 15545.6 904.022   1
   1 -11   4 15854.6 672.099   1
   4 -11   1 14979.3 554.865   3
  -4 -11  -1 13210.1 917.149   4
  11  -1   4 14868.9 974.927   1
 -11  -4  -1 16107.5 866.109   1
  -4  11   1 14082.3 754.185   1
   1   4 -11 14564.1 917.250   3
   4  -1  11 14891.0 956.371   3
   1  11  -4 14735.5 783.296   3
   4   1 -11 15242.5 903.926   3
   4 -11   1 16266.1 968.924   2
  -1 -11  -4 15020.7 1018.36   2
  11  -4   1 14434.2 937.825   1
   1  -4  11 15007.0 941.480   3
  11   1  -4 16347.0 903.851   4
  -1   4  11 14287.0 846.190   3
  -4  -1 -11 15358.3 446.461   4
 -11   4   1 14890.8 962.646   1
   4  11  -1 15156.2 781.393   3
   1 -11   4 15973.9 741.361   3
   4  -1  11 15247.0 999.741   1
 -11  -4  -1 14363.9 843.825   4
  -1   4  11 20530.5 920.700   2
  11   1  -4 15656.4 1003.53   3
   4 -11   1 15449.2 729.853   1
  -4  11   1 14402.3 968.391   2
   4  11  -1 15482.5 785.357   5
 -11  -1  -4 15650.4 936.612   1
  -1  11   4 14538.9 647.132   1
   1  11  -4 15330.5 944.821   2
 -11   1   4 16701.9 990.063   1
   1 -11   4 15299.4 719.362   5
  -1  11   4 15872.4 1025.40   2
  11  -4   1 16462.6 862.259   4
  -4 -11  -1 15856.9 1041.09   2
   1 -11   4 14264.6 896.451   2
  11   4  -1 15714.7 881.162   4
   4   1 -11 15628.4 702.279   4
  -4   1  11 15970.5 935.999   5
  11  -1   4 15975.6 796.587   4
   1  -4  11 15854.7 1001.92   1
  11  -4  -1 15260.9 853.662   4
 -11  -4   1 16500.7 875.960   1
   1 -11  -4 15321.3 1029.44   2
  -4 -11   1 14902.6 947.762   4
   4  -1 -11 15791.7 880.210   3
  -1 -11   4 15312.5 595.213   1
  -1  -4  11 15801.7 959.671   3
   4  -1 -11 14853.0 705.166   4
  -4  -1  11 15246.5 955.133   3
   4 -11  -1 14918.5 705.030   1
   1  11   4 15626.7 485.836   3
   4  11   1 15163.4 744.915   3
  -1 -11   4 15268.6 764.921   3
  11  -4  -1 13965.6 920.373   1
   4   1  11 15104.0 987.710   1
  11  -1  -4 12772.4 875.119   3
  11   4   1 15506.7 911.035   1
   1  11   4 14379.5 537.082   1
  -4  -1  11 14581.9 916.560   5
 -11   1  -4 16871.0 1001.85   1
  -4  11  -1 13852.5 765.050   1
   1  11   4 15051.8 478.908   5
  -1  -4  11 14895.1 572.898   2
   4  11   1 14380.9 965.907   2
   1   4  11 15201.8 887.563   3
 -11   4  -1 15885.5 996.414   1
 -11  -4   1 15958.6 880.889   4
 -11  -1   4 15912.6 940.921   1
  -1  11  -4 14809.1 928.256   2
  -1  -4  11 14691.5 932.117   5
  11  -1  -4 15415.8 873.377   4
  -4 -11   1 16848.5 1046.36   2
  -1 -11   4 15073.1 756.090   5
   4  11   1 15015.2 742.100   5
   1   4  11 15697.3 787.943   2
  11   1   4 14856.6 956.015   1
  -4  11  -1 14846.5 959.175   2
  -1 -11   4 14829.5 938.946   2
   1  11   4 16570.8 1049.36   2
   4 -11  -1 15780.6 985.295   2
  11   1   4 15452.1 792.788   4
  11   4   1 15175.3 859.678   4
   3   4  11 13427.6 923.345   1
  -4 -11   3 13116.8 873.697   4
  -3 -11   4 11357.3 809.094   4
  -4 -11   3 14249.3 400.807   1
  11   3   4 14442.9 798.287   4
 -11  -3   4 14439.8 828.869   4
   4  -3 -11 13772.9 796.680   3
 -11  -4   3 14577.3 848.793   4
   4  11   3 12360.6 902.851   2
   3  11   4 13611.5 426.595   1
  -3  -4  11 12694.8 875.697   5
  11  -3  -4 13185.8 904.046   1
  -4  -3  11 13091.0 896.661   3
  11  -4  -3 13264.7 901.954   1
  -4 -11   3 14457.6 403.862   1
   4  11   3 13174.7 682.372   3
  11  -3  -4 14734.4 883.275   3
  -3 -11   4 14154.3 785.833   3
   3   4  11 12795.0 846.168   3
   4   3  11 14000.9 945.666   1
  -3 -11   4 12806.2 501.813   1
   3   4  11 13172.0 677.224   2
   3  11   4 12333.3 899.006   2
 -11  -3   4 13451.0 833.750   1
   3  11   4 13711.0 414.876   1
  11   4   3 12665.0 841.259   1
  -3 -11   4 15542.3 974.742   2
  -4  -3  11 12939.3 880.304   5
  -4 -11   3 14057.2 943.428   2
  -3  11  -4 13932.6 906.755   2
 -11  -4   3 14199.9 825.229   1
  -4  11  -3 14829.1 940.352   2
  11   3   4 12972.2 877.178   1
  -3  11  -4 15146.5 819.092   1
  11   4   3 14729.4 828.770   4
  -5  -4 -11 6804.64 447.015   4
   4 -11   5 8162.64 567.786   1
   4  -5  11 7727.46 711.079   1
  -5  -4 -11 6578.67 492.475   2
   4   5 -11 7153.91 486.463   4
  -4  -5 -11 7423.00 517.091   4
  -5 -11  -4 6737.87 655.396   4
  -4   5  11 7453.76 606.489   2
  -4  -5 -11 7386.99 560.311   2
  -5   4  11 7812.39 608.525   2
   4   5 -11 7609.38 681.631   3
   4 -11   5 6223.71 555.047   2
   4 -11   5 7847.71 531.165   3
  -4  11   5 7703.38 728.553   2
   4  11  -5 7264.28 604.871   3
   5  11  -4 7169.90 608.920   3
 -11  -5  -4 6383.23 555.238   1
  -4   5  11 7184.47 590.295   3
   5  -4  11 6666.38 667.460   1
   5 -11   4 8123.42 517.842   3
  -5   4  11 7655.26 637.006   3
  11   4  -5 7087.65 705.220   3
  11   5  -4 6523.22 684.481   3
  11  -4   5 7273.45 522.175   4
  11  -5   4 8490.72 584.818   4
  11  -4   5 7149.29 697.954   1
 -11  -5  -4 7360.30 597.533   4
   5  11  -4 7102.33 602.458   5
  -4   5  11 6941.87 574.477   5
  -5   4  11 7486.69 622.354   5
  11  -5   4 7199.84 681.522   1
 -11  -4  -5 9105.59 684.856   1
 -11  -4  -5 6762.10 558.630   4
   5 -11   4 7553.69 556.572   1
   5   4 -11 6865.02 652.590   3
  -5  11   4 7720.14 717.330   2
   2  -5  11 9214.88 752.358   1
   5  -2  11 9415.44 788.135   1
   2 -11   5 10790.4 737.444   2
  -5 -11  -2 9329.62 767.317   4
 -11  -2  -5 9709.93 625.336   4
   2 -11   5 10686.2 603.393   5
   2 -11   5 10633.1 596.604   1
   2   5 -11 9497.30 738.962   3
   2  11  -5 10266.9 674.112   3
   5 -11   2 10288.9 489.640   3
   5   2 -11 9910.86 738.324   3
  -5   2  11 9955.15 731.416   5
   2 -11   5 9432.26 577.902   3
  11   5  -2 9733.73 687.932   1
   5  11  -2 9826.60 659.772   3
 -11  -5  -2 9578.80 647.436   1
  11   2  -5 11075.1 837.360   3
  -5  -2 -11 10366.2 472.509   2
  -2  11   5 10686.3 832.906   2
  -2  11   5 9765.15 567.360   1
  11   5  -2 9412.17 803.431   3
  -5  -2 -11 9883.14 412.372   4
  -5   2  11 11100.2 778.922   3
   5 -11   2 9816.10 605.346   1
   5  11  -2 9938.32 659.915   5
  11  -5   2 9928.01 768.175   1
  11  -2   5 10322.8 605.212   4
  11  -2   5 9721.86 789.597   1
 -11  -2  -5 11333.3 784.647   1
  -5  11   2 10097.0 806.463   2
 -11  -5  -2 10362.7 705.548   4
  -2 -11  -5 9606.68 799.997   2
  -2   5  11 10735.5 686.067   2
 -11   5   0 10057.8 806.704   1
   0 -11  -5 11736.5 901.511   2
 -11   0  -5 10453.5 795.382   1
   0  11  -5 11513.0 700.283   3
   0  -5  11 11588.5 841.870   1
   5   0 -11 12365.0 798.192   3
  -5 -11   0 10184.7 808.458   4
  11   0   5 12280.0 677.578   4
   0  -5  11 11811.8 836.752   3
   0 -11   5 12034.2 590.044   1
   0 -11   5 13287.2 704.377   5
   0 -11   5 11415.6 668.993   3
   5  11   0 11560.9 702.925   3
   5   0  11 9793.98 809.205   1
  11   5   0 11378.9 748.663   1
   5 -11   0 9934.16 622.426   1
   0  11   5 11052.6 550.983   1
  11   0  -5 11531.5 842.254   3
  11  -5   0 11294.6 818.111   1
  11   5   0 12021.2 776.761   4
 -11   0   5 13252.0 877.808   1
   0  11  -5 12734.5 833.802   2
   0  -5  11 12351.1 493.947   2
   0   5  11 11812.4 722.156   2
  -5   0  11 10929.2 799.563   5
  11   0  -5 11490.9 747.849   4
   5  11   0 12207.6 718.717   5
 -11  -5   0 11201.4 703.859   1
  -5   0  11 13152.0 882.960   3
  -5  11   0 11620.8 863.699   2
   0 -11   5 12403.2 825.837   2
  11   0   5 12050.9 877.179   1
   0   5  11 11437.9 740.498   3
   0  11   5 11427.2 881.059   2
 -11  -5   0 11951.8 784.775   4
   5 -11   0 11902.7 432.431   3
  11   2   5 10621.4 649.729   4
  11   5   2 9922.80 701.923   4
  -2 -11   5 10169.8 724.126   4
   2   5  11 9242.96 692.184   3
   5  -2 -11 9000.46 657.478   3
  -2 -11   5 9467.40 744.508   2
   2  11   5 10075.7 456.982   1
  -5  -2  11 9712.82 774.612   3
  -5 -11   2 10602.0 790.089   4
  11  -5  -2 8647.82 722.721   1
  -2 -11   5 9875.47 654.972   3
  11  -2  -5 10035.1 746.328   3
   2   5  11 9458.52 759.536   1
  11   5   2 9252.51 688.486   1
  -2  -5  11 9296.35 500.427   2
   2  11   5 9976.13 467.897   1
 -11  -2   5 10013.7 740.421   1
   5   2  11 9723.33 799.085   1
  -2  11  -5 9132.70 721.895   2
   2  11   5 9969.20 807.527   2
  -2 -11   5 10287.2 500.349   1
  -2  -5  11 9713.40 750.371   5
   2   5  11 9689.64 635.721   2
  -5 -11   2 9613.48 787.711   2
  -5  -2  11 8178.16 703.324   5
  11   2   5 10674.5 805.063   1
  -2 -11   5 11428.1 685.832   5
 -11  -5   2 8808.71 675.703   4
  -5  11  -2 10588.3 792.535   2
 -11  -5   2 9680.41 658.366   1
   5  11   2 9841.91 628.578   3
  -5 -11   4 6555.46 605.927   4
  11   4   5 7380.46 574.106   4
  11   5   4 6617.06 562.057   4
   5  -4 -11 6571.57 528.553   3
  -5  11  -4 5226.59 525.846   1
  11  -5  -4 5904.40 609.195   1
   5  11   4 6089.76 244.963   1
   4  11   5 6470.50 341.868   1
  -4  -5  11 6195.06 607.915   5
  -5 -11   4 6280.80 323.170   1
  11  -4  -5 6545.61 568.121   3
  11  -5  -4 6748.86 566.279   3
 -11  -4   5 6706.95 582.263   1
  -4 -11   5 6462.34 555.937   3
   5  11   4 6168.24 632.424   2
   4   5  11 5836.53 590.981   1
   4   5  11 6456.74 485.602   2
   4  11   5 6130.00 632.935   2
  -5 -11   4 7015.46 357.624   1
  -4 -11   5 6040.65 563.247   4
 -11  -5   4 5925.01 522.696   1
  -5 -11   4 7368.34 674.268   2
  -4 -11   5 5853.27 594.744   2
  -4  11  -5 6460.46 605.441   2
  -5  -4  11 6201.00 621.776   5
  11   5   4 5705.35 550.489   1
  11   4   5 6164.13 597.194   1
  -5  11  -4 5794.69 587.059   2
 -11  -4   5 6745.98 566.832   4
 -11  -5   4 6675.29 585.824   4
  -4 -11   5 6429.49 389.784   1
   5   4  11 6119.84 623.743   1
   6   5 -11 4964.01 450.486   4
   5 -11   6 5579.59 511.706   1
   6   5 -11 5407.06 606.881   3
  -5   6  11 5645.75 562.678   2
  -6  11   5 7255.21 713.753   2
   5  11  -6 6123.16 587.062   3
   6 -11   5 6038.06 536.974   1
   6  11  -5 6563.54 614.125   3
  -5  -6 -11 5042.52 457.704   4
  -6 -11  -5 5726.35 615.493   4
 -11  -5  -6 6416.42 586.522   1
   5 -11   6 5548.13 490.684   3
  11   5  -6 5272.94 623.429   3
  11   6  -5 5645.36 643.494   3
  -5   6  11 6059.04 541.582   3
 -11  -6  -5 5570.08 519.300   1
  -6   5  11 5315.72 535.978   3
   5  -6  11 6405.09 657.766   1
  11  -5   6 6272.36 474.698   4
  -5   6  11 5556.56 510.710   5
  -5  11   6 5717.86 533.641   1
 -11  -5  -6 5578.35 535.739   2
 -11  -6  -5 6903.33 602.670   2
  11  -5   6 5597.74 627.210   1
   6  -5  11 5814.23 637.044   1
  -6  11   5 5537.45 539.231   1
 -11  -5  -6 5928.83 533.571   4
   6  11  -5 5215.69 552.616   5
  11  -6   5 6011.96 487.132   4
   6 -11   5 6914.86 518.533   3
  11  -6   5 6026.22 648.910   1
   5   6 -11 5469.93 601.605   3
 -11  -6  -5 4942.88 511.786   4
  -6   5  11 5418.82 543.650   2
  -5  11   6 5724.49 639.729   2
  -5 -11  -6 5648.89 608.845   4
  -6  -5 -11 6073.06 458.325   4
  -3   6  11 9496.75 701.671   2
  -6 -11  -3 6958.82 678.255   4
  11  -3   6 9248.98 798.286   1
  -3  11   6 8264.68 749.755   2
   6 -11   3 9836.40 552.195   3
   3   6 -11 9055.05 744.206   3
   3 -11   6 9896.18 685.921   2
   3 -11   6 9096.38 609.473   1
   3  11  -6 9154.97 678.159   3
   6 -11   3 9155.85 631.136   1
   3 -11   6 8901.79 601.781   3
 -11  -3  -6 8793.87 605.911   4
   6  11  -3 8997.88 682.692   3
  11   3  -6 9720.32 806.284   3
  -6   3  11 9259.05 727.229   3
  -6  -3 -11 9364.11 479.059   4
  11   6  -3 8963.41 809.086   3
  -6  11   3 9605.28 680.390   1
 -11  -6  -3 9589.27 645.704   1
   3  -6  11 9009.69 752.336   1
 -11  -3  -6 10382.5 764.153   1
   6  11  -3 9176.85 689.070   5
  -6   3  11 8364.42 686.527   5
   6  -3  11 9038.09 788.694   1
  11  -6   3 7360.91 686.653   1
   6   3 -11 8397.29 713.477   3
  11  -3   6 9846.93 581.284   4
 -11  -6  -3 9219.58 691.853   4
  -6  11   3 8845.87 769.928   2
  -6  -3 -11 8859.83 540.566   2
  11  -1   6 13681.5 965.951   1
  -6  -1 -11 13572.4 508.228   2
  -6 -11  -1 13013.5 914.419   4
   1   6 -11 13212.9 893.006   3
   1  11  -6 13225.4 800.115   3
   6  11  -1 13867.1 820.436   3
   6   1 -11 14285.3 893.275   3
 -11  -6  -1 15748.4 808.747   1
   1 -11   6 13341.8 745.226   3
  11   1  -6 12194.8 886.511   3
  11   6  -1 12834.8 778.166   1
   6 -11   1 14618.1 576.819   3
   1 -11   6 14033.3 708.809   1
  -1  11   6 13746.1 687.383   1
   6  11  -1 14338.0 833.927   5
  -6   1  11 14387.7 940.362   3
   1 -11   6 12907.5 823.172   2
   6 -11   1 13466.3 752.947   1
  11  -6   1 13255.9 893.745   1
   1  -6  11 14269.9 944.481   1
   1 -11   6 14159.2 751.464   5
  -6   1  11 12626.0 864.430   5
  -6  11   1 13755.5 946.686   2
  -1  11   6 12970.2 943.134   2
   1  -6  11 14054.0 415.171   4
  -6  -1 -11 14528.2 465.751   4
   6  -1  11 12790.9 939.130   1
 -11  -6  -1 13647.4 848.324   4
  -1   6  11 14975.3 852.493   2
  11  -1   6 13768.6 702.987   4
 -11  -1  -6 13705.2 915.917   1
   1  -6  11 14361.0 482.919   2
  11   1   6 14421.9 977.849   1
  -6 -11   1 13621.2 920.054   4
 -11  -6   1 12738.1 744.857   1
  11  -1  -6 13086.8 881.074   5
   1   6  11 12032.0 768.205   3
   6  -1 -11 13294.2 745.807   4
   6 -11  -1 13416.3 445.648   3
  -6  -1  11 13086.6 916.320   5
   6  -1 -11 12399.1 812.049   3
  -6  11  -1 13778.5 932.243   2
   1  11   6 13010.5 618.164   1
  -1 -11   6 13248.7 777.467   3
   6 -11  -1 13665.6 758.240   1
  -6  11  -1 11678.7 786.907   1
 -11  -6   1 13308.6 857.408   4
  -1  -6  11 11162.4 842.476   1
  11  -1  -6 13612.4 892.842   3
  11   6   1 13547.7 809.468   1
  -1 -11   6 12373.7 788.930   4
   6  11   1 14551.8 826.129   3
   1  11   6 14036.6 967.591   2
 -11  -1   6 13042.9 890.809   1
   6   1  11 12335.7 931.771   1
  -1  11  -6 13135.8 835.522   2
  -1 -11   6 13636.4 779.864   5
  -1 -11   6 12821.1 653.544   1
  -1  -6  11 13222.7 612.322   2
  -1  -6  11 12429.2 509.540   4
   1   6  11 12935.4 793.473   2
  -1  -6  11 13031.4 883.301   5
   1  11   6 14045.9 500.790   3
  -1 -11   6 11788.7 823.649   2
  11  -6  -1 13295.7 898.906   1
  11   1   6 13289.9 724.498   4
  11   3   6 10183.0 661.676   4
   3   6  11 10450.3 796.159   1
  -3 -11   6 10288.8 556.613   1
  -3  -6  11 9430.93 754.831   5
  11  -6  -3 8885.01 740.758   1
  -6 -11   3 10171.4 394.592   1
   3   6  11 8859.79 681.404   3
   6  -3 -11 9190.46 662.100   3
  -6 -11   3 10089.1 371.801   1
  11   3   6 9213.36 770.879   1
  -3  -6  11 9556.61 509.309   4
   6   3  11 8162.95 747.055   1
  11  -3  -6 9797.36 725.061   3
  -3 -11   6 8658.06 709.266   2
  -3 -11   6 10484.1 721.028   3
 -11  -3   6 9371.17 721.547   1
  -3  -6  11 9237.82 554.477   2
  11   6   3 9191.94 676.857   1
   3  11   6 10753.0 839.147   2
   3   6  11 10417.6 674.517   2
  -3  11  -6 8352.63 672.350   2
  -6  11  -3 9372.70 729.032   1
 -11  -6   3 10399.8 674.226   1
  -6  -3  11 9775.33 801.994   5
  11  -3  -6 8823.42 690.187   5
  -6 -11   3 9550.98 755.082   4
  -3 -11   6 7831.00 638.267   4
 -11  -6   3 9826.37 726.851   4
  -6  11  -3 9106.54 748.107   2
   3  11   6 9744.73 510.094   1
   6  -5 -11 5077.94 469.001   3
   5  -6 -11 5492.98 457.612   3
  -5 -11   6 5220.52 401.316   1
  -5  -6  11 5206.17 413.728   4
   5   6  11 5591.81 585.346   1
  -6  11  -5 5349.42 577.950   1
  11   6   5 5769.81 556.219   1
   6   5  11 4885.46 559.469   1
  -5  -6  11 4369.77 537.845   5
  -6 -11   5 5558.29 354.275   1
  11  -5  -6 4770.02 486.861   3
  11  -6  -5 4961.68 481.902   3
 -11  -5   6 5758.18 552.865   1
   5  11   6 5266.48 364.122   1
  -5  11  -6 5134.14 534.957   2
  -5 -11   6 5321.86 549.703   3
 -11  -6   5 5263.81 492.943   1
   5  11   6 5477.51 611.465   2
  -5 -11   6 5244.43 567.503   2
  11  -5  -6 6017.71 536.591   5
  -6  -5  11 4979.47 582.776   5
  -5  11  -6 5661.48 587.893   1
   6  11   5 5862.77 336.006   1
  11   5   6 5107.14 486.207   4
  11  -6  -5 4630.75 459.128   5
  -6  11  -5 5472.08 560.670   2
 -11  -5   6 5102.39 515.900   4
 -11  -6   5 4968.07 520.747   4
  11   5   6 6009.77 600.247   1
  -6 -11   5 6457.01 598.407   4
  -5 -11   6 4774.06 499.908   4
  11   7  -6 2968.21 487.128   3
  -7  -6 -11 2051.62 295.770   4
   6  -7  11 2430.46 163.136   4
  -7  -6 -11 1885.81 324.357   2
   7   6 -11 2589.34 350.694   4
  -7 -11  -6 2306.07 396.888   4
  -6  -7 -11 2363.80 367.323   2
 -11  -7  -6 2533.53 351.535   1
  -6  11   7 2048.36 402.120   2
   7  -6  11 2836.00 465.476   1
  -7  11   6 3185.81 491.780   2
   7 -11   6 2857.74 360.829   3
  -6   7  11 2189.62 379.460   2
  11  -7   6 2744.95 449.838   1
   6 -11   7 2898.41 377.003   3
   6  -7  11 2625.99 433.988   1
   6   7 -11 2771.35 454.685   3
   7 -11   6 1811.67 332.730   1
   7   6 -11 2250.26 417.866   3
   6   7 -11 2170.31 319.966   4
   6  11  -7 2190.65 394.693   3
  11  -6   7 1976.32 399.840   1
  11   6  -7 2321.91 421.998   3
  11  -6   7 2927.32 317.737   4
   6 -11   7 1674.47 311.676   1
 -11  -6  -7 2116.28 348.711   1
  -6   7  11 820.557 208.288   3
  -7   6  11 2256.07 350.872   3
  -6  -7 -11 2579.80 355.273   4
  -6 -11  -7 2263.47 400.813   4
  -7   6  11 2641.07 405.692   2
 -11  -7  -6 2769.11 400.751   4
 -11  -6  -7 3063.19 418.708   2
  -6  11   7 2819.88 400.713   1
 -11  -6  -7 2105.02 332.792   4
   6  -7  11 2732.21 156.902   4
   7  -6  11 2604.98 137.429   4
  -7  11   6 2789.99 400.919   1
   7  11  -6 2764.37 431.154   3
 -11  -7  -4 3849.30 403.109   1
  11  -7   4 4357.31 539.477   1
  -4  -7 -11 3460.47 402.371   4
  -4  11   7 3294.65 493.883   2
  -7  11   4 4742.15 512.410   1
   7 -11   4 4286.98 395.223   3
   4   7 -11 5432.21 594.439   3
   4  11  -7 4693.45 519.349   3
   4 -11   7 4291.79 445.625   3
  -4  -7 -11 3485.52 443.341   2
 -11  -7  -4 4820.36 526.118   4
   4  -7  11 3678.79 172.298   4
  -7  11   4 4028.94 534.823   2
  -4   7  11 3965.40 482.791   2
   7  11  -4 4183.24 503.632   3
   7   4 -11 2947.65 443.640   3
   7  -4  11 3696.76 522.625   1
  11  -4   7 4587.80 582.377   1
  -4  11   7 4390.99 460.157   1
 -11  -4  -7 4844.44 528.000   1
   7  11  -4 4502.13 519.746   5
  11   4  -7 4234.89 555.717   3
   4 -11   7 4515.52 447.709   2
  11   7  -4 3950.41 551.952   3
  -7   4  11 3696.67 468.245   3
 -11  -4  -7 4012.82 432.013   2
   7 -11   4 4000.38 441.169   1
   4 -11   7 3328.58 397.050   1
   4  -7  11 4780.71 560.235   1
 -11  -4  -7 3864.29 419.652   4
  11  -4   7 4333.52 379.983   4
  -7 -11  -4 4849.36 570.252   4
  -7  -4 -11 3644.91 389.227   2
  -7  -4 -11 3935.46 342.246   4
   7   4 -11 4469.82 436.561   4
  -2  11   7 2391.80 421.570   2
  -2   7  11 2701.20 393.325   2
 -11  -7  -2 2654.21 322.982   1
   7 -11   2 3303.58 301.789   3
  -7  11   2 2996.60 461.220   2
   2   7 -11 3267.76 461.160   3
   7   2 -11 3035.50 354.661   4
   2  11  -7 3057.69 408.687   3
   2 -11   7 3416.43 389.584   3
  -2  -7 -11 2610.18 374.858   2
   2 -11   7 2982.47 360.231   1
  -7  11   2 3160.75 419.634   1
   7  11  -2 3426.31 425.146   5
  11  -2   7 3045.98 480.461   1
  11  -7   2 2698.17 419.512   1
   7  -2  11 2619.14 440.135   1
   7  11  -2 2578.57 370.791   3
  11   2  -7 3499.19 483.017   3
  -7   2  11 3341.59 457.520   3
   2 -11   7 3292.48 380.907   5
   7   2 -11 2633.81 407.968   3
  11   7  -2 2832.49 461.593   3
 -11  -2  -7 2798.89 326.374   4
   2  -7  11 3035.41 432.643   1
   7 -11   2 3306.17 393.173   1
  -7  -2 -11 2765.20 238.839   4
  -7 -11  -2 2841.43 437.505   4
   2  -7  11 3093.42 190.736   4
   2 -11   7 3538.61 408.052   2
  -7  -2 -11 2615.19 280.027   2
  11  -2   7 3142.90 312.198   4
 -11  -7  -2 3263.64 429.435   4
  -7 -11   0 5351.03 589.383   4
   0 -11   7 4322.92 453.878   4
   0  -7  11 4043.02 487.910   1
   0 -11   7 5283.07 481.344   5
   7  11   0 4776.73 498.539   5
   0 -11   7 4816.47 504.651   2
 -11  -7   0 4930.06 439.462   1
   7   0 -11 5181.29 535.656   3
  -7  11   0 4604.52 502.385   1
   0  11   7 5277.45 258.653   3
  11   0  -7 5129.79 548.676   3
   0  11   7 5034.68 420.226   1
  11   7   0 4912.64 454.772   1
   7 -11   0 5411.34 492.893   1
   7  11   0 5472.63 530.000   3
  11  -7   0 4588.50 536.590   1
  11   0   7 4770.77 585.895   1
   7   0  11 4351.56 554.405   1
   0 -11   7 5370.90 447.354   1
   0  -7  11 5289.28 564.079   5
   0 -11   7 5957.06 523.264   3
   0   7  11 4261.24 477.938   2
   0  -7  11 4642.76 345.946   2
   7   0 -11 5522.41 476.189   4
   0  -7  11 4697.63 294.987   4
 -11  -7   0 4699.42 514.521   4
   0  11   7 5642.10 622.065   2
  -7   0 -11 5238.28 271.089   2
  -7  11   0 4640.18 559.547   2
  11   0   7 4874.81 412.167   4
  -2  -7  11 2324.59 241.842   4
  -7 -11   2 1884.17 347.866   4
  -2 -11   7 2304.70 325.314   4
  -2  -7  11 1890.30 355.500   5
  11   2   7 2163.17 289.386   4
   7   2  11 2899.37 444.762   1
  -2 -11   7 2552.75 303.003   1
  -7 -11   2 2319.76 152.383   1
   2   7  11 2217.08 325.516   3
   7  -2 -11 2779.81 383.022   3
 -11  -7   2 2386.78 308.101   1
   7 -11  -2 2585.60 350.920   1
  11   2   7 1491.22 324.871   1
  11  -2  -7 1879.07 338.590   3
  -2 -11   7 2355.15 338.787   3
  -2  -7  11 2665.73 401.694   1
  11  -7  -2 2488.98 399.913   1
   7  11   2 2669.58 370.715   3
  -2 -11   7 2133.67 323.176   5
   2   7  11 2714.99 408.832   1
 -11  -7   2 2280.11 364.529   4
  -2  11  -7 1840.36 308.076   2
  -7  11  -2 2264.30 379.615   2
  11   7   2 2464.85 328.599   1
  -7  11  -2 2017.39 348.109   1
  11  -2  -7 2845.61 398.823   5
  -2  -7  11 2193.00 273.228   2
  -7  -2  11 2672.70 435.034   5
   2  11   7 1906.26 368.334   2
   2   7  11 1789.36 304.173   2
   7  -2 -11 2844.25 349.914   4
   2  11   7 1871.56 249.184   1
  -2 -11   7 2647.03 390.100   2
   7 -11  -2 2413.72 181.060   3
  -4  11  -7 4543.48 530.438   1
  11   7   4 4679.36 472.258   1
   4   7  11 3771.30 488.712   1
  -4 -11   7 3913.44 374.858   1
  11   4   7 4479.89 449.090   4
  11  -4  -7 5093.13 508.529   3
  11  -7  -4 4060.70 512.372   1
  11   4   7 3191.95 464.212   1
  -4 -11   7 4306.96 500.248   3
  11  -7  -4 4676.80 448.932   3
   7  11   4 4574.15 266.679   1
 -11  -7   4 4479.33 438.180   1
  -4  -7  11 4329.43 404.597   2
  -7 -11   4 4585.58 300.809   1
   4   7  11 4297.30 452.515   2
  -4 -11   7 4072.56 490.272   2
   7   4  11 4257.31 536.090   1
   4  11   7 4058.33 544.688   2
  -4  -7  11 3895.27 497.336   5
  -4  -7  11 4509.72 377.217   4
  -4  11  -7 3410.03 424.018   2
   7  -4 -11 4578.23 456.611   3
   4  11   7 4336.41 371.077   1
  -7  11  -4 4453.46 516.114   2
  -7  11  -4 4369.85 526.575   1
 -11  -7   4 2931.37 416.432   4
  11  -4  -7 5131.23 506.948   5
  -7 -11   4 4463.37 515.690   4
  -4 -11   7 4197.44 463.057   4
  -7 -11   6 2086.66 357.190   4
  -6 -11   7 2157.25 340.699   4
 -11  -6   7 2813.92 394.762   4
 -11  -6   7 2621.65 383.056   1
   6  -7 -11 1716.71 258.197   3
  11   7   6 1560.55 309.006   1
   7  -6 -11 2404.27 322.224   3
 -11   7  -6 2317.84 325.451   2
   6  11   7 2015.68 260.087   1
  11  -6  -7 1925.90 303.555   5
   7  11   6 1989.02 236.402   1
  11   6   7 1320.07 309.325   1
  11  -6  -7 1305.56 255.067   3
  11  -7  -6 2042.02 304.122   3
 -11   6  -7 1845.52 286.776   2
  -6  11  -7 2637.83 434.265   1
   7   6  11 2193.12 383.316   1
  -7  11  -6 2055.77 340.067   2
  -7  11  -6 2285.39 403.416   1
  11  -7  -6 2246.79 315.955   5
  -6  -7  11 2046.80 385.292   5
  -6  -7  11 2191.74 291.357   4
 -11  -7   6 1848.72 300.241   1
   6   7  11 2394.00 392.097   1
 -11  -7   6 1994.09 346.085   4
  -6  11  -7 1460.66 289.805   2
  -7 -11   6 2608.73 282.330   1
  -8  -7 -11 2837.66 369.179   4
  -8  -7 -11 2749.21 421.320   2
  -7  -8 -11 2742.16 389.342   4
   7   8 -11 2652.39 381.228   4
  -7  11   8 2659.48 459.359   2
  -8  11   7 2575.92 468.156   2
   8 -11   7 1945.84 324.183   3
  -7   8  11 2903.53 448.844   2
  -8   7  11 1867.32 360.785   2
  11  -8   7 2622.69 449.713   1
   7   8 -11 2244.31 418.660   3
 -11   8   7 2732.87 468.220   2
   7  11  -8 2666.21 448.500   3
  -7  -8 -11 2908.11 436.290   2
   8  11  -7 2607.14 442.461   3
  11  -7   8 3521.55 535.971   1
  -7 -11  -8 2827.32 451.363   4
  11   7  -8 2836.90 489.042   3
  11   8  -7 2273.92 449.265   3
   8  -7  11 2726.10 200.863   4
 -11  -7  -8 3058.18 412.799   4
   8 -11   7 2354.81 399.095   1
   7 -11   8 2121.18 378.189   1
 -11  -8  -7 3239.31 414.219   1
   8   7 -11 2077.23 397.064   3
 -11  -8  -7 2475.72 401.621   4
 -11  -7  -8 2680.43 395.850   1
  11  -7   8 2726.90 314.304   4
   7  -8  11 2020.89 398.357   1
   7  -8  11 2761.35 211.819   4
  -8 -11  -7 2491.38 433.665   4
   8  -7  11 2340.75 423.248   1
  -5  -8 -11 5193.67 566.989   2
   5  -8  11 5541.99 292.318   4
  -8  11   5 5472.57 631.479   2
  -5  -8 -11 4344.12 477.182   4
   8  -5  11 3969.21 563.336   1
  -5  11   8 4679.08 598.932   2
   8 -11   5 5226.04 470.233   3
  -5   8  11 5384.61 591.962   2
   5  11  -8 4697.19 557.767   3
   5 -11   8 4867.38 520.611   1
   8 -11   5 5301.90 548.228   1
  -5 -11  -8 4642.61 562.138   4
   8   5 -11 5882.60 646.546   3
 -11  -5  -8 4613.31 470.960   4
   5   8 -11 5481.76 627.810   3
 -11   8   5 4908.94 572.221   2
  -8 -11  -5 5033.93 593.552   4
  11   5  -8 5350.86 644.092   3
   8   5 -11 5719.16 522.498   4
   8  11  -5 4113.26 526.341   3
  -5  11   8 5763.49 570.467   1
   5 -11   8 5169.68 516.558   3
  11  -5   8 5250.09 646.670   1
  11   8  -5 5327.51 645.094   3
 -11  -8  -5 4972.90 472.528   1
   8  -5  11 5711.24 241.069   4
 -11  -5  -8 5098.54 514.651   2
  11  -8   5 4973.29 591.294   1
  11  -5   8 5065.65 404.223   4
   5  -8  11 3898.95 529.912   1
 -11  -8  -5 5155.23 555.299   4
  -8  -5 -11 5356.46 448.193   4
  -8 -11  -3 10724.4 863.539   4
  -8  11   3 11207.8 890.059   2
  11  -3   8 10227.9 887.272   1
   3 -11   8 10899.5 704.698   2
   3   8 -11 11228.9 871.690   3
   3  11  -8 10543.3 802.630   3
   8   3 -11 10415.7 834.514   3
  11   3  -8 10653.9 876.543   3
   8  11  -3 10679.0 826.470   3
   3 -11   8 10411.2 730.943   1
  -3  11   8 9893.77 709.367   1
  11   8  -3 11467.5 937.150   3
  -8   3  11 11196.3 846.612   3
   8  -3  11 10384.9 901.460   1
   3 -11   8 12164.3 788.206   3
 -11  -3  -8 10851.1 676.828   4
 -11  -3  -8 10980.3 699.042   2
   8 -11   3 10421.9 757.383   1
  11  -8   3 10740.8 846.276   1
   8  11  -3 11653.7 874.053   5
  -8  11   3 11567.5 832.748   1
  -8  -3 -11 10100.0 633.618   2
  -8  -3 -11 11058.0 577.171   4
   3  -8  11 10669.7 835.519   1
 -11  -8  -3 11272.2 671.724   1
  -3  -8 -11 10531.6 805.631   2
 -11  -8  -3 10847.9 817.635   4
  11  -3   8 10635.5 586.964   4
  -3   8  11 11347.9 839.284   2
   8   3 -11 9918.40 692.708   4
  -3  11   8 11359.9 908.512   2
   3  -8  11 10746.6 437.437   4
  -8  11   1 13441.7 975.102   2
   8   1 -11 14648.4 842.730   4
   1 -11   8 13280.0 792.056   4
  -8  11   1 14986.2 960.676   1
  11  -1   8 14245.2 1050.88   1
   1   8 -11 13972.3 971.661   3
   1  11  -8 13423.8 898.741   3
  -8 -11  -1 13287.4 955.947   4
   8  11  -1 15980.7 979.004   5
   1 -11   8 14645.7 877.365   3
   1  -8  11 12748.5 900.608   1
   1 -11   8 14343.1 860.656   5
  -1  -8 -11 16092.3 989.333   2
  -1  11   8 14155.1 487.003   3
  11   1  -8 13752.6 962.424   3
   8  11  -1 14293.0 935.328   3
   8   1 -11 13842.1 953.729   3
  -1  11   8 15042.9 1042.96   2
 -11  -8  -1 14726.4 764.630   1
   8 -11   1 14749.3 892.635   1
  11   8  -1 13817.2 1017.98   3
  11  -8   1 14849.7 975.623   1
   8  -1  11 14816.5 1065.18   1
   1 -11   8 14556.5 825.364   1
  -1   8  11 14590.0 946.574   2
  -1  11   8 14835.6 495.135   5
  -8  -1 -11 13387.8 634.201   2
 -11  -8  -1 13674.2 929.297   4
   1  -8  11 14266.5 571.479   4
  11  -1   8 15760.8 736.598   4
   1 -11   8 13402.9 823.691   2
   1  -8  11 14077.5 631.423   2
  -1 -11   8 15266.2 839.353   4
  11   1   8 14167.9 757.683   4
   8  -1 -11 15830.0 893.257   4
  11   1   8 16177.6 1114.38   1
 -11  -8   1 15846.8 790.514   1
   1  11   8 14614.2 617.602   3
 -11   8  -1 15653.7 968.947   2
   8  -1 -11 14281.7 914.544   3
  -8  11  -1 15303.1 993.886   1
  11  -1  -8 14361.9 943.922   3
  -1 -11   8 15181.2 913.891   3
  11   8   1 15158.8 810.135   1
   8 -11  -1 14770.6 891.935   1
  11  -8  -1 13782.8 945.217   1
   8  11   1 13694.8 907.600   3
   1  11   8 14826.6 1028.94   2
   1   8  11 14652.2 945.002   2
  -1 -11   8 15758.5 933.730   2
  -8  11  -1 15465.6 1019.27   2
   8   1  11 15233.0 1067.16   1
  -8 -11   1 15110.0 495.355   1
  -1  -8  11 15182.5 972.200   5
  -1 -11   8 16309.1 921.635   5
  -1  -8  11 13934.3 731.396   2
  -8   1 -11 15345.7 522.373   2
  -1  -8  11 13218.7 908.654   1
  -1  -8  11 14995.7 654.557   4
 -11  -8   1 13737.4 928.812   4
  -1 -11   8 16331.0 850.249   1
  -8 -11   1 14105.7 979.147   4
  11  -8  -3 10356.9 812.766   1
  11   3   8 11554.1 910.227   1
  11   3   8 11554.0 710.775   4
  -8 -11   3 11125.2 838.004   4
 -11   8  -3 10541.6 777.493   2
   8  -3 -11 8399.50 671.624   3
  11  -3  -8 9484.26 730.662   3
   8  11   3 11068.0 441.611   1
   8 -11  -3 10753.9 447.288   3
  -8  11  -3 10119.3 803.502   2
  -3 -11   8 9236.43 671.128   4
  -3  -8  11 9814.47 798.982   5
  -3 -11   8 10489.6 670.384   1
   3   8  11 10739.3 730.544   3
   3  11   8 10447.9 639.481   1
 -11  -8   3 10872.5 669.784   1
  11   8   3 11083.8 697.909   1
  -3  11  -8 9768.28 684.851   2
   8   3  11 10530.0 879.980   1
  -8  11  -3 10193.8 829.798   1
   3  11   8 11317.0 882.682   2
   3   8  11 11949.6 807.293   2
  -3  -8  11 9467.94 640.146   2
  -3  -8  11 10578.3 809.825   1
  11  -3  -8 11700.4 806.336   5
  -3 -11   8 11093.2 803.559   2
 -11  -8   3 10978.0 824.196   4
  -3 -11   8 10860.6 787.653   5
   3   8  11 10202.3 779.629   1
  -3  -8  11 10413.8 587.562   4
  -8 -11   3 10647.9 471.042   1
   8 -11  -3 10854.3 448.147   5
  11  -5  -8 5427.80 518.422   5
   5   8  11 5001.07 540.499   1
  11   5   8 5472.14 611.804   1
   5  11   8 4568.22 412.770   1
 -11   8  -5 4638.32 495.005   2
   8  -5 -11 4551.82 466.495   3
   8 -11  -5 5378.97 267.775   3
 -11  -8   5 5268.41 567.174   4
  11   8   5 4869.90 480.642   1
  11  -5  -8 5723.56 530.847   3
  -5 -11   8 5213.40 467.067   1
  11  -8  -5 4658.15 433.479   3
  -8 -11   5 5242.36 378.768   1
   5   8  11 5013.39 520.462   2
  -8  11  -5 4549.91 522.452   2
   5  11   8 5278.16 600.234   2
   8   5  11 5344.39 610.101   1
  11  -8  -5 4177.76 412.187   5
  -5  -8  11 5002.85 472.227   2
 -11  -8   5 4898.38 466.416   1
  -5  11  -8 4433.56 470.870   2
   8  11   5 4925.58 346.081   1
  -8 -11   5 4725.20 542.214   4
  -5 -11   8 4427.32 474.443   4
  -5  -8  11 5904.76 637.747   5
  -5  11  -8 4949.38 604.949   1
  -5  -8  11 4763.43 425.539   4
  -8  11  -7 2282.19 367.635   2
   7   8  11 2321.32 395.791   1
   8 -11  -7 3191.27 215.027   3
   7  -8 -11 2575.83 312.767   3
 -11   8  -7 2550.91 346.336   2
 -11   7  -8 2369.48 314.125   2
   8  -7 -11 2299.63 321.696   3
  11   8   7 2269.08 361.780   1
  -8 -11   7 3067.71 328.594   1
  11  -7  -8 2746.87 355.657   3
  11  -8  -7 2936.93 354.971   3
  -7 -11   8 2475.39 308.185   1
  11   7   8 2260.28 389.252   1
  11  -7  -8 2800.26 356.718   5
  -8   7 -11 2579.20 174.574   2
  -8 -11   7 2492.61 390.352   4
   8  11   7 2457.62 298.255   1
  11  -8  -7 2363.34 308.465   5
 -11  -8   7 1811.15 304.365   1
  -8  -7  11 2487.81 345.445   4
   7  11   8 3082.23 348.639   1
 -11  -7   8 2474.72 380.518   4
  -7  -8  11 2840.57 372.421   4
   8   7  11 3108.31 464.853   1
  -7  11  -8 2517.79 377.464   2
 -11  -8   7 2337.23 382.489   4
  -7 -11   8 2210.36 361.770   4
  -9 -11  -8-35.2745 131.804   4
  -8  -9 -11 204.275 132.882   4
  -8 -11  -9-184.323 175.737   4
  -8  11   9 29.7169 177.436   2
  -9  11   8 136.151 189.637   2
  -8   9  11-31.6231 164.899   2
  -9   8  11-18.1359 167.329   2
 -11   9   8 41.3872 179.776   2
 -11   8   9 73.8835 163.519   2
 -11  -8  -9 14.5877 102.956   4
  11  -9   8 54.0271 184.467   1
   8   9 -11 229.061 229.248   3
   9   8 -11 51.6071 205.946   3
   9 -11   8 248.691 161.231   1
   9  11  -8-19.8673 144.417   3
  11   8  -9 236.240 207.016   3
  11   9  -8-29.3608 202.590   3
  11  -8   9 78.4779 180.704   1
   9  -8  11-79.9060 151.661   1
   8 -11   9-84.5526 129.722   1
  -9  -8 -11-9.32945 97.4530   4
   8  11  -9 65.2294 125.953   3
 -11  -9  -8 62.0534 139.305   4
   8  -9  11 30.7033 165.889   1
  11  -8   9 41.6285 71.6829   4
   9 -11   6 649.098 200.458   3
   9   6 -11 1039.78 315.853   3
 -11  -9  -6 933.122 259.668   4
   6  -9  11 498.006 224.744   1
  -9 -11  -6 518.902 222.314   4
  -6 -11  -9 890.017 273.939   4
  -6  11   9 913.757 297.754   2
  11  -9   6 532.527 232.634   1
  -6   9  11 419.089 217.601   2
   9 -11   6 538.503 221.440   1
  -9  11   6 794.994 271.846   2
   6   9 -11 484.638 217.133   3
 -11   9   6 1239.39 319.485   2
   6  11  -9 739.816 269.578   3
  -9  -6 -11 582.079 199.976   2
   9  11  -6 819.982 279.099   3
  11   6  -9 651.994 247.208   3
  11   9  -6 805.826 275.695   3
  11  -6   9 583.619 130.752   4
  11  -6   9 819.044 314.330   1
  -9  -6 -11 1120.96 232.995   4
   9  -6  11 821.541 116.193   4
 -11  -9  -6 1164.28 243.382   1
  -9   6  11 804.661 252.511   2
   6 -11   9 472.676 176.843   1
 -11  -6  -9 336.060 143.455   2
   9  -6  11 1063.35 331.591   1
  -6  -9 -11 759.371 229.503   4
 -11  -6  -9 424.982 165.109   4
  11  -4   9 106.878 77.6486   4
 -11  -9  -4 545.368 211.568   4
  11  -9   4 272.314 214.390   1
   9 -11   4 385.590 191.994   1
  -9 -11  -4 319.632 172.598   4
  -4  11   9 498.329 212.977   2
   9  -4  11 228.036 64.0031   4
   4  -9  11 301.809 89.9682   4
  -4   9  11 645.840 251.282   2
   4   9 -11 288.273 167.904   3
  -9  11   4 382.455 229.442   2
  -4   9  11 134.857 84.2285   5
  -4  -9 -11 464.404 177.243   2
   4  11  -9 368.491 206.329   3
 -11   9   4 579.766 230.434   2
 -11  -4  -9-21.5258 81.9081   4
   9   4 -11 453.179 208.963   3
 -11  -9  -4 236.851 131.787   1
  -9  -4 -11 276.662 123.902   4
   4  -9  11 628.793 228.936   1
 -11  -4  -9 200.219 119.560   2
  11   4  -9 64.8215 153.851   3
   9  11  -4 735.492 253.857   3
  11   9  -4 199.132 180.083   3
  -4   9  11 203.573 101.017   3
  11  -4   9 323.765 229.617   1
  -4  11   9 745.364 223.537   1
   9  -4  11 329.167 182.788   1
   4 -11   9 141.707 126.208   1
  11  -2   9 381.984 111.382   4
 -11  -9  -2 267.955 121.337   1
   2  -9  11 212.153 88.6682   4
   9  -2  11 250.742 164.054   1
   2 -11   9 630.993 168.857   4
   2   9 -11 242.101 175.526   3
   2  11  -9 492.536 220.953   3
  -9  11   2 451.976 235.734   2
   2 -11   9 591.687 164.370   2
   2  -9  11 421.904 106.037   2
   2 -11   9 310.534 160.604   1
 -11   9   2 249.962 171.974   2
  -9 -11  -2 606.888 250.936   4
  -9  -2 -11 398.864 143.941   2
   9   2 -11 683.033 255.220   3
  -2   9  11 267.195 177.302   2
  11   2  -9 217.279 157.985   3
  -2   9  11 336.376 121.443   3
  -2  11   9 264.399 135.117   1
   9  11  -2 674.880 261.252   3
  -2  11   9 552.266 96.8733   3
  11   9  -2 892.760 296.431   3
  -9 -11  -2 490.670 104.745   1
  11  -2   9 146.188 163.363   1
  -2  -9 -11 779.522 252.756   2
 -11  -2  -9 313.046 124.661   4
   9 -11   2 279.931 180.573   1
   2 -11   9 370.424 162.836   5
  11  -9   2 21.5171 130.407   1
  -2   9  11 337.842 127.625   5
  -9  -2 -11 353.844 116.665   4
  -2  11   9 452.306 239.074   2
 -11  -9  -2 535.016 200.139   4
   2  -9  11 196.100 146.850   1
 -11  -9   0 565.118 140.735   1
  -9 -11   0 1286.62 301.715   4
  -9 -11   0 913.333 125.891   1
  11   0   9 1181.77 194.858   4
  -9  11   0 719.999 235.773   2
 -11   9   0 698.302 226.564   2
   0  11   9 1226.44 310.224   2
   0   9  11 608.079 213.659   2
   0 -11   9 739.164 187.601   4
   0  11   9 703.906 129.999   3
   9   0 -11 643.330 219.113   3
   0 -11   9 801.968 203.759   2
   9  11   0 630.314 222.409   3
  11   9   0 979.780 290.847   3
   9   0  11 577.346 249.777   1
  11   0   9 1128.99 321.683   1
   9 -11   0 860.793 219.114   1
   0 -11   9 1051.71 241.596   1
  11  -9   0 736.760 225.600   1
   0  -9  11 663.684 134.581   4
   0  -9  11 939.352 284.366   5
  -9   0 -11 747.148 140.289   2
   0 -11   9 773.378 218.371   5
   0  -9  11 1044.24 202.016   2
   0  -9  11 355.332 182.356   1
  11   0  -9 763.386 237.094   3
 -11  -9   0 970.268 267.354   4
  -2 -11   9 151.404 143.609   5
  -2  -9  11 338.930 124.350   4
  -9 -11   2 319.196 86.0103   1
  11   2   9 367.476 128.206   4
   2   9  11 577.718 213.765   1
  -9  11  -2 796.542 266.834   2
   2  11   9 366.504 124.037   3
 -11   9  -2 488.267 202.874   2
  -2 -11   9 496.720 165.847   4
   9  -2 -11 272.324 178.652   3
   9   2  11 207.924 222.464   1
  11  -2  -9 629.589 224.207   3
   2  11   9 426.640 156.031   1
 -11  -9   2 154.340 77.3897   1
   9 -11  -2 277.895 160.902   1
  11  -9  -2 503.069 224.370   1
  11   9   2 293.478 119.786   1
  -2 -11   9 307.545 128.870   1
  11   2   9 486.241 209.803   1
  -9 -11   2 429.520 215.315   4
  -9   2 -11 397.403 81.6026   2
   2  11   9 380.908 206.140   2
  -2  -9  11 416.854 202.133   1
   2   9  11 36.4756 123.061   2
  -2  -9  11 690.219 227.644   5
  -2  -9  11 554.471 172.276   2
  -2 -11   9 615.992 191.173   2
 -11  -9   2 233.544 183.711   4
  -4 -11   9 364.513 142.102   4
   4   9  11 170.293 156.290   1
  -9   4 -11 285.755 59.0989   2
 -11   9  -4 385.349 182.189   2
 -11  -9   4 358.851 125.235   1
  -9 -11   4 197.299 73.3900   1
  -9  11  -4 407.531 198.569   2
  -4  -9  11 287.176 164.558   1
   9  -4 -11 322.762 167.296   3
   9   4  11 93.1067 134.308   1
   4  11   9 124.809 113.256   1
  11  -4  -9 222.416 150.709   3
  -9 -11   4 147.420 139.326   4
   9 -11  -4 169.562 77.5981   3
   4   9  11 178.744 178.968   2
  11  -9  -4 358.508 139.325   3
  -4  -9  11 498.379 195.259   5
  -4 -11   9 321.273 162.754   1
  11   4   9 222.542 161.339   1
  -4 -11   9 505.328 218.128   5
  -4  11  -9 312.178 138.253   2
   9  11   4 204.439 89.8895   1
   4  11   9 173.754 161.723   2
  11   9   4 318.426 132.347   1
   9 -11  -4 344.752 87.2427   5
  -9   4 -11 242.351 52.0635   2
  -4 -11   9 452.089 183.598   2
  -4  -9  11 246.470 118.351   2
  -4  -9  11 278.674 120.917   4
 -11  -9   4 429.361 184.918   4
  -9  11  -6 820.333 223.794   2
  -6 -11   9 518.043 192.596   4
   9   6  11 1264.64 313.070   1
   9  11   6 516.545 158.823   1
  11   9   6 810.556 231.251   1
 -11   9  -6 642.404 207.028   2
  -6  11  -9 693.310 198.964   2
 -11   6  -9 596.363 151.913   2
   9  -6 -11 1142.34 248.432   3
   6  11   9 867.537 214.523   1
   9 -11  -6 589.045 104.518   3
  11  -6  -9 686.478 208.179   3
 -11  -9   6 1150.95 299.350   4
  -9 -11   6 587.894 147.951   1
  11  -9  -6 761.916 188.718   3
  11  -9  -6 888.986 179.863   5
 -11  -9   6 913.207 219.507   1
  11   6   9 848.655 268.822   1
  -6  -9  11 837.607 223.642   2
  11  -6  -9 853.936 229.932   5
  -9   6 -11 539.271 103.093   2
  -6  -9  11 656.232 202.056   4
   6   9  11 694.107 232.733   1
  -9 -11   6 714.092 236.835   4
  -9  11  -8 76.5782 119.257   2
   9   8  11 81.5142 135.139   1
  -8 -11   9 1.45451 141.436   4
 -11   8  -9 42.8919 79.6433   2
 -11   9  -8-100.319 109.099   2
   8   9  11 37.6276 124.843   1
   8  -9 -11 42.7924 113.077   3
 -11  -9   8-239.556 156.285   1
   9 -11  -8 39.6951 58.7464   3
   8  11   9 175.178 133.156   1
   9  -8 -11 68.0407 112.746   3
  11   9   8 12.2566 139.569   1
  -8  11  -9 38.4594 107.196   2
  11  -8  -9 132.453 113.225   3
  11  -9  -8 177.456 114.112   3
  -9 -11   8 54.3794 165.652   4
   9  11   8-43.4414 103.559   1
  -8 -11   9-290.546 127.237   1
  11   8   9-42.0545 150.938   1
 -11  -8   9-84.3084 138.193   4
  -9   8 -11-42.8732 75.7134   2
  -9 -11   8-46.3462 97.2864   1
  11  -9  -8 118.385 75.6496   5
  -8   9 -11-32.1090 64.4303   2
  -9  -8  11 51.1971 104.591   4
 -11  -9   8 218.327 145.754   4
  -8  -9  11 161.267 134.453   4
   9  10 -11 594.369 293.232   3
 -11 -10  -9 477.654 212.897   4
 -10  -9 -11 984.056 265.600   4
 -10 -11  -9 713.647 245.706   4
  -9 -11 -10 591.627 243.536   4
 -11  10   9 880.076 321.856   2
  -9  10  11 674.171 289.114   2
 -10  11   9 295.873 192.351   2
 -10   9  11 209.573 178.251   2
 -11   9  10 6.07997 156.273   2
  11 -10   9 550.532 231.922   1
   9  11 -10 584.567 286.371   3
  10   9 -11 1135.00 380.274   3
  10 -11   9 665.297 275.962   1
  10  11  -9 663.816 285.156   3
  11   9 -10 330.996 233.176   3
  11  10  -9 669.408 299.837   3
  11  -9  10 795.615 330.917   1
   9 -11  10 363.331 221.807   1
  -9  11  10 961.738 334.020   2
  10  -9  11 314.648 246.573   1
   9 -10  11 528.972 226.270   1
  -9 -10 -11 435.728 188.154   4
 -11  -9 -10 258.417 163.587   4
 -10  -7 -11 2439.52 398.825   2
 -10  -7 -11 2229.99 354.886   4
 -11 -10  -7 2023.04 378.389   4
 -10 -11  -7 2366.92 413.592   4
  -7 -10 -11 1831.35 363.203   4
  -7 -11 -10 1511.20 340.696   4
  10  -7  11 2828.48 525.170   1
  -7  11  10 2246.90 448.715   2
  -7  10  11 1545.86 373.236   2
  10 -11   7 2232.59 427.354   1
 -10  11   7 2192.21 431.406   2
 -11  10   7 1802.91 392.754   2
   7  10 -11 1801.23 408.009   3
 -10   7  11 2940.32 485.574   2
   7  11 -10 3816.93 568.465   3
 -11   7  10 2196.26 419.474   2
  10   7 -11 2113.54 447.999   3
  11 -10   7 2645.44 449.493   1
  11   7 -10 2619.18 499.715   3
  10  11  -7 1668.55 376.916   3
  11  10  -7 1948.98 427.991   3
  11  -7  10 2423.45 479.527   1
   7 -11  10 2162.05 394.150   1
 -11  -7 -10 2153.77 353.625   4
   7 -10  11 2411.91 440.425   1
   5 -10  11 4582.56 365.354   4
   5 -10  11 4591.51 570.289   1
  -5  11  10 5371.00 659.235   2
  -5 -11 -10 4964.49 584.137   4
 -10  11   5 4963.62 626.210   2
  10   5 -11 5906.60 682.532   3
   5  10 -11 5268.08 640.406   3
 -11  10   5 5075.57 621.060   2
   5  11 -10 4346.12 577.240   3
  11   5 -10 6184.08 713.459   3
 -10 -11  -5 6114.37 673.798   4
   5 -11  10 4857.35 568.851   1
 -11 -10  -5 5779.85 479.514   1
  10 -11   5 4419.68 551.615   1
  10  11  -5 5341.70 655.551   3
  11  10  -5 5155.49 643.178   3
  11  -5  10 4526.42 624.186   1
 -11  -5 -10 5336.71 545.063   2
  11 -10   5 5230.30 618.164   1
 -10  -5 -11 5279.95 475.915   4
 -10  -5 -11 5155.78 532.076   2
  10  -5  11 5921.34 721.489   1
  10  -5  11 6304.64 351.675   4
 -11  -5 -10 5555.35 507.608   4
  11  -5  10 5556.55 388.027   4
  -5 -10 -11 5180.94 580.463   4
 -11 -10  -5 5411.83 613.532   4
  -5  10  11 6448.15 702.619   2
   3 -10  11 8156.03 480.881   4
 -10  11   3 8713.51 819.256   2
  11  -3  10 9589.21 518.456   4
   3  11 -10 8814.73 798.407   3
   3 -11  10 7603.10 546.158   2
  11  -3  10 9530.55 899.436   1
  10   3 -11 8422.77 792.946   3
  11   3 -10 7963.76 775.630   3
 -10 -11  -3 9668.82 523.966   1
  -3  11  10 9023.58 726.774   1
  10  11  -3 8494.94 804.156   3
  -3  10  11 8684.74 538.611   3
  11  10  -3 8895.00 830.560   3
 -11 -10  -3 8583.86 546.230   1
 -11 -10  -3 9242.53 809.811   4
  -3  11  10 8930.34 451.622   3
   3 -11  10 8506.80 721.120   1
  10  -3  11 9264.56 918.156   1
  10 -11   3 7827.70 723.096   1
  11 -10   3 7435.17 712.994   1
  10  -3  11 8645.88 434.578   4
 -11  -3 -10 8102.77 603.559   2
 -11  10   3 9254.96 824.673   2
   3 -10  11 7569.38 720.972   1
  -3  10  11 8758.61 539.074   5
 -11  -3 -10 9307.52 603.856   4
 -10  -3 -11 8228.24 545.399   4
  -3  11  10 8562.61 816.251   2
  -3  10  11 8661.80 812.091   2
   3  10 -11 9137.53 814.622   3
   3 -11  10 8655.31 579.848   4
 -10 -11  -3 9251.80 816.653   4
   1 -11  10 10200.2 677.076   2
   1 -11  10 10614.9 647.167   4
  11  -1  10 10248.5 578.186   4
  -1  10  11 10705.5 618.622   5
 -11  10   1 12003.2 915.221   2
   1 -10  11 11190.0 647.888   2
  11  -1  10 10812.6 965.820   1
 -10 -11  -1 11098.8 521.045   1
  10   1 -11 11260.8 880.395   3
 -10  -1 -11 10623.2 612.090   2
 -11 -10  -1 10850.5 878.991   4
  11   1 -10 9113.95 807.407   3
  -1  11  10 11558.4 559.468   3
  10  -1  11 11333.3 979.323   1
 -10  11   1 10533.0 884.322   2
  10  11  -1 11349.2 896.242   3
  11  10  -1 10849.6 907.991   3
  -1  10  11 10839.9 892.221   2
  10 -11   1 11596.5 847.927   1
  11 -10   1 10190.2 826.230   1
  -1  11  10 11294.7 544.789   5
   1 -11  10 10857.1 811.881   5
  -1  10  11 11183.4 630.991   3
   1 -10  11 10998.8 846.986   5
   1 -11  10 10933.6 794.831   1
 -11 -10  -1 11378.6 607.515   1
  -1  11  10 10056.9 882.068   2
 -10 -11  -1 10996.3 890.198   4
   1 -10  11 11777.3 596.325   4
   1 -10  11 10702.9 813.301   1
 -10  11  -1 12320.8 936.940   2
   1  10  11 10923.4 867.151   2
  -1 -11  10 10775.0 813.246   5
 -11  10  -1 10167.2 840.693   2
  11   1  10 11281.3 959.273   1
  10  -1 -11 9796.05 795.198   3
 -11 -10   1 10668.3 596.128   1
  11  -1 -10 9593.58 806.002   3
  10   1  11 9263.40 886.705   1
  10 -11  -1 10717.6 816.725   1
  11 -10  -1 9636.89 797.836   1
  -1 -10  11 10416.7 788.678   1
 -10 -11   1 10705.0 514.480   1
 -11 -10   1 10195.9 852.258   4
  10  11   1 9522.25 816.408   3
 -11   1 -10 9216.03 538.825   2
 -10   1 -11 11274.1 530.802   2
   1  11  10 9978.92 856.736   2
  -1 -10  11 10802.2 839.442   5
  -1 -11  10 10439.1 757.640   1
  -1 -10  11 9862.35 677.532   2
  -1 -11  10 10119.2 728.822   2
  -1 -10  11 10075.3 593.684   4
 -10 -11   1 10856.2 878.134   4
   1  11  10 10059.1 580.416   3
  -1 -11  10 10564.6 654.669   4
 -10  11  -3 9052.54 784.696   2
 -11  10  -3 8030.59 737.949   2
 -11 -10   3 8447.41 548.203   1
 -10   3 -11 8419.76 402.509   2
   3  10  11 7808.26 600.745   3
 -10 -11   3 8567.01 493.833   1
  10  -3 -11 7552.45 674.946   3
  11  -3 -10 8551.53 716.045   3
  10 -11  -3 7482.01 692.801   1
  11 -10  -3 9643.79 805.471   1
  10   3  11 9270.43 862.120   1
  10  11   3 8235.11 471.344   1
  -3 -11  10 8403.06 739.933   5
  11  10   3 8922.72 568.409   1
  10 -11  -3 8983.76 513.295   3
  11 -10  -3 10696.7 636.948   3
 -10   3 -11 8837.02 404.865   2
  -3 -11  10 8530.92 671.655   1
   3  11  10 8694.09 779.568   2
   3  10  11 8090.73 736.355   2
   3  11  10 9368.14 682.227   1
  -3 -10  11 8191.96 656.442   2
  -3 -10  11 7788.36 733.747   5
  -3 -11  10 8697.68 711.611   2
 -11 -10   3 7742.90 738.043   4
   3  10  11 9407.30 727.671   1
  11   3  10 7969.18 794.678   1
  -3 -10  11 8460.22 582.276   4
 -10 -11   3 8029.15 757.313   4
  -3 -11  10 8973.96 637.193   4
  -3 -10  11 8317.57 703.192   1
   5  10  11 4697.38 518.015   1
 -11   5 -10 4369.72 353.932   2
 -10 -11   5 5637.33 429.270   1
   5  11  10 4374.68 559.956   2
  10  -5 -11 4428.12 486.816   3
  11  -5 -10 4864.59 534.050   3
  -5 -10  11 4086.25 472.407   2
  -5 -11  10 3885.57 463.701   1
  10 -11  -5 4631.50 336.696   3
 -11  10  -5 5025.06 554.406   2
 -10   5 -11 4752.02 312.267   2
 -11 -10   5 5689.46 469.977   1
  11 -10  -5 4812.45 405.464   5
  10  11   5 4881.82 397.382   1
  -5  11 -10 4277.95 406.135   2
   5  10  11 5007.56 578.738   2
  11  10   5 5120.53 453.253   1
  -5 -10  11 4406.01 532.979   1
  -5 -10  11 5201.08 485.279   4
  10 -11  -5 4907.81 345.462   5
  11   5  10 4342.57 589.354   1
  -5 -10  11 5702.92 643.668   5
 -11 -10   5 4841.88 572.184   4
 -10 -11   5 4734.35 577.516   4
  -5 -11  10 4114.55 456.457   4
  10   5  11 4595.60 600.655   1
   5  11  10 5019.39 498.156   1
 -10  11  -5 5253.27 576.605   2
  10 -11  -7 2288.24 239.588   3
   7  11  10 2308.96 350.777   1
 -11  10  -7 1561.22 307.208   2
  10  11   7 2340.95 305.245   1
  10  -7 -11 2281.60 341.246   3
  11  -7 -10 2690.10 373.359   3
   7  10  11 1724.61 333.322   1
  11 -10  -7 2058.80 264.655   3
 -11  -7  10 2781.50 403.424   4
  -7 -11  10 1866.02 333.426   4
 -10  11  -7 1844.32 332.543   2
  11   7  10 2743.67 469.126   1
  -7  10 -11 2026.50 239.876   2
  11  10   7 2254.05 336.788   1
  -7  11 -10 2505.37 327.940   2
 -10 -11   7 1773.98 272.125   1
 -11 -10   7 2360.34 323.664   1
 -11   7 -10 2047.83 273.402   2
  10   7  11 2337.59 418.482   1
  -7 -10  11 2449.05 371.059   4
 -11 -10   7 2042.31 382.787   4
 -10 -11   7 2578.96 434.930   4
 -10   7 -11 2035.42 236.869   2
 -11  10  -9 464.081 159.113   2
   9  10  11 761.488 235.023   1
  -9  11 -10 374.252 182.542   2
   9 -10 -11 848.968 187.574   3
  11  -9 -10 868.399 212.854   3
  -9 -11  10 577.957 228.818   4
  11  10   9 598.864 235.573   1
   9  11  10 653.336 193.926   1
  10  11   9 454.483 171.190   1
  11   9  10 660.605 233.860   1
  10  -9 -11 578.473 162.481   3
  11 -10  -9 682.642 182.750   3
 -11   9 -10 365.062 141.880   2
  10   9  11 686.202 234.562   1
 -11 -10   9 546.184 242.381   4
 -10  -9  11 641.837 216.837   4
 -11  -9  10 490.480 215.802   4
  -9 -10  11 446.249 178.669   4
 -10 -11   9 691.519 230.574   4
 -10  11  -9 637.399 213.689   2
 -11  10  11-253.961 230.544   2
 -11 -10 -11 97.6301 96.7844   4
 -11 -11 -10-276.906 224.010   4
 -10 -11 -11-218.292 193.960   4
 -10  11  11 61.4144 150.027   2
 -11  11  10 45.5264 207.192   2
  10  11 -11-17.0584 195.766   3
  11 -11  10 175.232 167.869   1
  11  10 -11 81.7727 230.856   3
  11  11 -10-9.81331 219.632   3
  11 -10  11-114.464 199.799   1
  10 -11  11-32.9531 141.303   1
 -11 -11  -8-60.2105 175.749   4
   8  11 -11 11.0755 191.078   3
  -8  11  11 10.6829 180.921   2
 -11  11   8-313.979 210.664   2
 -11   8  11 54.0341 155.744   2
  11  11  -8 35.8539 173.920   3
  11   8 -11 119.754 203.810   3
  11  -8  11-8.97112 168.490   1
   8 -11  11-254.195 218.819   1
  11 -11   8-71.1574 134.414   1
  -8 -11 -11 175.792 199.259   4
 -11  -8 -11-64.1103 128.133   4
 -11 -11  -6 27.9225 127.563   4
 -11  -6 -11 315.600 155.386   4
  11 -11   6 580.514 235.178   1
  -6 -11 -11 752.337 270.183   4
   6 -11  11-5.34871 132.862   1
  -6  11  11 385.815 232.843   2
 -11  11   6 271.950 200.788   2
   6  11 -11 178.407 162.030   3
  11   6 -11 455.373 241.993   3
  11  11  -6 153.360 177.670   3
  11  -6  11 332.136 223.392   1
 -11  -6 -11 396.045 198.822   2
 -11 -11  -4-75.2461 177.900   4
 -11 -11  -4-30.1752 89.3636   1
  -4  11  11 52.6283 148.213   2
  11  -4  11-26.7710 45.5837   4
   4 -11  11 106.991 85.6626   4
   4  11 -11 31.9045 123.448   3
 -11  11   4 45.7762 134.052   2
 -11  -4 -11 9.68481 107.561   2
  11   4 -11 47.0796 155.874   3
  11  11  -4 54.6550 179.337   3
   4 -11  11 32.6386 147.916   1
  11  -4  11-2.16789 170.345   1
 -11  -4 -11 8.84469 91.4021   4
  11 -11   4 146.706 169.621   1
   2 -11  11 16.8194 65.6374   4
  11  -2  11 130.577 90.1977   4
   2  11 -11 303.146 188.940   3
  11 -11   2 235.026 161.565   1
 -11  11   2 355.074 195.903   2
   2 -11  11 554.756 160.580   2
  11   2 -11 922.018 281.150   3
 -11 -11  -2 447.406 240.088   4
 -11 -11  -2 224.992 97.0795   1
   2 -11  11 234.212 177.335   1
  -2  11  11 478.786 127.811   3
  11  11  -2 661.244 265.532   3
   2 -11  11 220.992 156.072   5
  11  -2  11 626.409 272.197   1
  -2  11  11 305.033 112.273   5
  -2  11  11 46.9770 141.205   2
   0 -11  11-54.6897 142.691   5
   0 -11  11-9.97570 174.901   1
   0 -11  11 112.679 107.209   2
 -11  11   0 173.521 147.979   2
   0  11  11 165.053 100.038   3
  11   0 -11-70.1572 164.982   3
 -11   0 -11 24.9694 96.7343   2
  11  11   0-111.358 133.404   3
 -11 -11   0 21.8799 59.8708   1
  11 -11   0-34.7469 135.830   1
 -11 -11   0 30.4082 151.468   4
  11   0  11-52.8971 144.081   1
   0  11  11-107.985 185.393   2
   0 -11  11-47.9011 73.0631   4
  -2 -11  11 544.848 160.988   4
 -11 -11   2 777.621 165.135   1
 -11  11  -2 545.513 242.645   2
   2  11  11 348.791 157.757   1
  11  -2 -11 760.707 263.452   3
  11 -11  -2 668.809 239.298   1
  -2 -11  11 454.576 157.933   2
 -11   2 -11 711.309 143.948   2
  -2 -11  11 822.153 267.247   5
   2  11  11 62.1776 152.584   2
  -2 -11  11 727.572 222.556   1
  11   2  11 225.916 199.289   1
 -11 -11   2 439.635 194.617   4
  11   4  11-128.495 158.128   1
  11 -11  -4-18.4556 70.1315   5
 -11  11  -4 4.91222 137.869   2
  -4 -11  11 34.7410 129.936   5
 -11   4 -11-31.3720 58.1157   2
 -11 -11   4-40.6505 148.251   4
 -11 -11   4 79.9677 67.2235   1
  11  -4 -11-95.7489 145.569   3
  -4 -11  11-9.62212 114.415   1
  -4 -11  11-53.2142 95.4785   4
  11 -11  -4-60.7136 75.7189   3
   4  11  11 292.195 182.709   1
  11  11   4 44.3615 83.2058   1
   4  11  11 125.445 134.355   2
  -4 -11  11-159.575 119.157   2
 -11  11  -6 427.644 191.220   2
 -11 -11   6 385.165 216.934   4
  11  -6 -11 186.251 122.619   3
  11 -11  -6 338.016 128.522   3
  -6 -11  11 608.485 239.736   1
   6  11  11 598.646 202.497   1
  11   6  11 457.846 224.441   1
  -6 -11  11 686.927 208.333   4
  11  11   6 550.625 160.530   1
 -11 -11   8-54.6240 156.545   4
 -11  11  -8 166.790 147.799   2
  11  11   8 145.794 129.008   1
  11  -8 -11-242.999 136.495   3
   8  11  11 68.0859 153.931   1
  11   8  11 98.8062 145.800   1
 -11  -8  11 154.589 139.393   4
  -8 -11  11-27.3723 103.561   4
  11  11  10 60.2607 136.878   1
 -10 -11  11 70.8207 119.337   4
  11  10  11-39.7269 132.558   1
  10  11  11 24.0267 129.010   1
 -11 -10  11 246.719 176.713   4
 -11 -11  10 5.27742 177.176   4
 -12   0   0 4258.01 488.178   1
   0   0  12 4160.88 489.866   3
   0   0 -12 4100.73 233.466   4
  12   0   0 3509.06 463.463   1
   0 -12   0 4057.53 504.763   2
   0  12   0 4361.51 542.608   2
  12   0   0 4528.15 453.436   4
   0   0  12 4551.35 299.151   2
   1   1 -12 8.66097 38.6258   4
  -1 -12  -1 162.081 162.825   2
   1  -1  12 125.519 137.764   1
   1 -12   1 32.4781 120.217   2
  -1   1  12 21.1637 71.8552   2
   1  12  -1-3.03082 64.3054   3
   1  -1  12 155.100 119.781   3
  -1  12   1 15.2886 43.7613   1
  -1   1  12 172.110 151.842   3
   1  12  -1-15.3943 113.351   2
   1 -12   1 17.3264 44.8517   1
  12   1  -1 111.826 109.322   1
 -12  -1  -1-103.619 130.930   1
  12  -1   1 22.9329 66.4667   4
   1  -1  12 44.1884 27.3809   2
  12  -1   1-298.766 159.520   1
  -1  12   1 54.1138 140.367   2
 -12   1   1-2.73208 77.4927   1
  12   1  -1 24.2260 96.1421   4
  12   1   1 102.743 95.3436   4
  -1 -12   1 68.4146 111.374   2
   1 -12  -1 228.228 134.562   2
  -1  -1  12-11.7856 46.0297   2
   1   1  12 102.714 131.359   3
  -1  12  -1 2.97383 62.6485   1
 -12  -1   1-311.734 152.913   1
  -1  -1  12-8.26480 72.9633   3
   1  12   1-25.2228 62.9294   3
 -12   1  -1-17.9092 77.2514   1
  12  -1  -1-20.2273 128.485   1
   1  12   1-105.891 161.785   2
  12   1   1 60.7802 99.9176   1
  -1  12  -1 136.230 139.025   2
   1   1  12 54.4762 62.6139   2
   1   1  12 172.039 181.088   1
  12  -1  -1-66.8533 67.4051   4
   2   2 -12 1254.82 156.029   4
 -12  -2  -2 1492.41 260.437   4
   2   2 -12 983.574 241.461   3
   2 -12   2 1765.39 337.717   2
  -2   2  12 1005.89 189.511   2
   2  12  -2 1286.92 208.838   3
  -2   2  12 1503.98 289.907   3
  12   2  -2 1268.40 290.464   1
  -2  12   2 1456.37 194.167   1
   2  -2  12 1262.73 310.412   1
   2  12  -2 1286.52 302.743   2
   2 -12   2 1449.38 180.256   5
  -2   2  12 1571.25 295.725   5
  12  -2   2 1539.57 332.802   1
   2 -12   2 1243.39 177.908   1
 -12  -2  -2 1479.68 284.285   1
   2 -12   2 1197.14 164.370   3
  12  -2   2 1182.04 222.859   4
  -2  12   2 1649.82 356.251   2
  -2 -12   0 248.302 162.198   2
   0  -2  12 234.836 150.494   1
 -12   0  -2 258.547 127.156   1
   0  12   2 252.259 59.6024   1
  12  -2   0 113.413 149.912   1
   0 -12   2 216.056 136.534   2
  12   2   0 451.360 161.576   4
   2   0  12 405.242 176.040   1
   0  12  -2 415.301 129.698   3
   0  -2  12 432.900 77.5155   2
   2 -12   0 265.353 140.930   2
   2   0  12 360.122 156.753   3
  12   0   2 300.383 180.502   1
  -2   0  12 281.647 106.330   2
   0   2  12 418.049 169.218   3
   2  12   0 356.950 110.170   3
  -2   0  12 261.315 109.521   3
 -12   0   2 225.237 134.316   1
   2 -12   0 271.270 91.5266   1
 -12  -2   0 305.189 151.033   1
  -2  12   0 103.524 68.0304   1
   0 -12   2 335.592 77.6171   1
  12   0  -2 368.502 185.250   1
   0 -12   2 278.200 99.4424   3
  -2   0  12 334.882 142.996   5
  12   2   0 459.178 209.830   1
   2  12   0 321.229 206.187   2
   0  12  -2 65.0249 145.055   2
   0  12   2 302.283 197.244   2
   2   0 -12 142.935 79.5160   4
  12  -2   0 403.405 153.058   4
  -2  12   0 141.663 168.828   2
   0   2  12 34.9185 68.2657   2
  12   0   2 385.797 146.309   4
  -2  12  -2 1832.75 235.821   1
 -12  -2   2 1618.49 302.703   1
   2  12   2 2170.55 388.203   2
   2  12   2 1673.91 190.342   3
  -2 -12   2 2353.19 387.231   2
  12   2   2 2129.73 303.654   4
  -2  12  -2 1954.49 353.406   2
   2  12   2 1656.52 182.842   5
  12  -2  -2 1783.99 336.295   1
   2   2  12 1603.55 340.070   1
   2   2  12 1592.19 312.933   3
   2   2  12 1747.07 201.525   2
  12   2   2 2012.82 349.323   1
  -2  -2  12 1398.95 300.641   5
   3  -3  12-116.923 129.005   1
  -3  12   3-213.189 203.042   2
  12  -3   3-358.614 188.872   1
   3   3 -12 35.1015 52.2869   4
  -3  -3 -12-37.0535 57.4222   4
 -12  -3  -3 234.089 125.269   1
   3   3 -12-30.5643 108.896   3
  -3   3  12-91.3143 103.416   2
   3 -12   3 82.3965 87.5018   2
  -3  12   3 6.98974 60.8834   1
   3  12  -3-74.7603 105.118   3
   3 -12   3-65.2523 85.0709   1
   3 -12   3 88.4087 68.2226   3
  -3   3  12-36.4689 112.029   3
  12   3  -3 302.126 235.778   3
  -3   3  12-78.0715 128.683   5
   3 -12   3 43.4260 64.7877   5
 -12  -3  -3-45.2929 125.825   4
  12  -3   3 46.1872 67.1328   4
   1   3 -12 4125.18 249.881   4
  -3   1  12 4998.31 535.416   3
   3 -12   1 4330.63 526.847   2
   1  -3  12 3073.72 454.314   1
   3   1 -12 4446.53 497.364   3
   3  -1  12 3568.10 506.713   1
   1  12  -3 3560.68 352.267   3
  -3   1  12 3221.62 334.199   2
   3 -12   1 4330.09 339.273   1
 -12  -3  -1 5136.79 505.339   1
  -3   1  12 4714.95 514.231   5
  -1   3  12 4943.61 511.019   3
   3  12  -1 4429.35 384.419   3
  -3  12   1 4053.59 367.753   1
  12  -3   1 3914.62 420.903   4
   1 -12   3 4063.05 484.738   2
   3 -12   1 4051.81 256.537   3
  12   3  -1 4516.23 502.747   1
   1 -12   3 4562.79 358.204   3
 -12  -1  -3 4498.41 500.987   1
   3  12  -1 4845.22 400.029   5
  -1   3  12 3852.85 373.100   2
  12   1  -3 4319.62 513.630   1
  12  -1   3 4505.85 538.868   1
  -1  12   3 3799.84 533.371   2
   3  12  -1 4178.30 525.528   2
  -3  12   1 4684.57 574.101   2
   3 -12   1 4241.03 259.452   5
   3   1 -12 4141.26 324.115   4
   1  12  -3 4277.96 515.547   2
  12  -3   1 3508.94 466.133   1
   1 -12   3 4595.26 356.327   5
 -12  -3  -1 3928.28 434.394   4
  12  -1   3 4176.58 413.166   4
  -3  -1 -12 4086.54 177.977   4
  -1  12   3 4216.41 304.056   1
   1 -12   3 4104.20 300.280   1
   1  12   3 3580.66 502.175   2
  12   1   3 4568.19 527.395   1
  -1 -12   3 3745.98 497.653   2
   1  12   3 3921.32 179.773   1
 -12  -1   3 4397.49 496.424   1
  -3 -12   1 2951.59 433.781   4
   3  -1 -12 3836.24 442.829   3
   1  12   3 3678.89 169.957   1
   1   3  12 3223.82 423.315   3
   1  12   3 3860.57 196.140   3
   3   1  12 3475.74 463.163   3
  -3  -1  12 4442.86 516.895   3
   3  12   1 3680.54 324.316   3
  12  -3  -1 4107.62 508.824   1
 -12  -3   1 4703.85 487.344   1
  -1 -12   3 3344.05 336.757   3
  -3  -1  12 4369.97 502.288   5
  12  -1  -3 4357.74 521.409   1
   3  12   1 2749.63 445.677   2
   3   1  12 3779.60 511.321   1
   3  -1 -12 3695.23 317.605   4
  12   3   1 3749.60 464.524   1
   3  12   1 3256.67 308.630   5
  -1 -12   3 3662.34 220.241   1
  -3  12  -1 4830.46 560.080   2
  -1  12  -3 3219.83 449.673   2
  -3  12  -1 2821.38 315.772   1
   1   3  12 3339.78 331.853   2
 -12  -3   1 3106.04 387.776   4
  12   1   3 3784.17 398.018   4
  12   3   1 3512.66 407.461   4
  -3  12  -3 1.51645 102.565   2
   3  12   3 164.945 204.773   2
  12   3   3 70.4021 100.921   4
  12   3   3 66.6196 93.2614   1
  -3 -12   3 41.5888 116.420   4
   3   3  12 126.175 119.813   3
  12  -3  -3 108.935 137.970   1
   3  12   3-14.9657 61.1422   3
  -3 -12   3 114.316 110.405   2
 -12  -3   3 29.4116 86.7443   1
   3   3  12 4.16369 55.1679   2
  -3  -3  12-143.510 174.317   5
   3   3  12 15.9579 152.564   1
  -3  12  -3 79.1720 63.6761   1
   3  12   3 110.377 77.4613   5
  -4  12   4 2235.40 407.102   2
   4   4 -12 1937.44 243.142   4
  12  -4   4 2130.24 389.796   1
  -4  -4 -12 1994.89 239.399   4
   4 -12   4 2456.61 301.529   1
   4   4 -12 2615.80 415.856   3
   4 -12   4 2779.44 291.198   3
  -4   4  12 2444.75 345.571   2
   4 -12   4 1850.36 325.780   2
  -4  -4 -12 2180.25 269.888   2
   4  -4  12 1964.36 391.843   1
   4  12  -4 1606.25 279.290   3
  -4   4  12 2305.30 361.003   3
 -12  -4  -4 2209.71 360.800   1
  12   4  -4 2064.47 403.317   3
  -4   4  12 2065.41 337.711   5
  12  -4   4 2522.69 328.519   4
 -12  -4  -4 2295.43 336.432   4
  -4  12   2 8.26434 133.445   2
  -2  12   4 114.353 71.6550   1
   2 -12   4 112.996 86.3768   5
  12  -2   4 119.093 170.588   1
  -4 -12  -2 36.0480 137.217   4
  -2   4  12 123.443 114.577   2
   4  -2  12-97.3694 158.687   1
   2   4 -12 385.430 213.488   3
 -12  -4  -2-45.9842 117.377   4
   2 -12   4 94.6714 69.9342   2
   4   2 -12 273.681 177.664   3
   2  -4  12 99.4241 140.020   1
   2  12  -4 29.7424 98.0567   3
   2 -12   4 39.5451 79.9887   1
   4 -12   2 170.631 107.815   2
  -4   2  12 45.3938 80.7853   2
 -12  -2  -4 84.8214 104.941   1
  -2   4  12 31.0957 75.5970   3
   4 -12   2 49.8111 47.3911   3
   4  12  -2 288.874 150.545   3
   2 -12   4 153.010 92.6559   3
  -4   2  12 368.303 177.166   3
   4   2 -12 103.470 85.9657   4
  12   4  -2 339.575 214.197   1
  -4  12   2 32.1012 68.2241   1
 -12  -4  -2 173.732 117.198   1
  12   2  -4 150.250 153.070   3
  -2   4  12 134.172 131.497   5
  -4   2  12 47.1834 144.785   5
  12  -4   2 158.577 111.999   4
   4 -12   2 168.782 72.8800   5
   4  12  -2 162.093 130.729   5
   2   4 -12 152.150 68.7917   4
  -2  12   4 313.311 240.319   2
 -12  -2  -4 79.3983 81.3801   4
   4 -12   2 70.8432 89.2487   1
  12  -4   2 494.985 224.380   1
  -4  -2 -12 29.6673 46.7025   4
  12  -2   4 142.804 105.091   4
  -4  12   0 768.334 259.504   2
  12   0   4 912.673 200.360   4
   0   4  12 1123.16 225.699   2
  -4  12   0 948.450 200.667   1
   0 -12   4 1490.79 303.608   2
  -4 -12   0 1038.44 277.966   4
  12   0   4 1400.31 310.931   1
   0  -4  12 1082.84 292.183   1
   4   0 -12 966.234 241.476   3
  12  -4   0 1154.10 231.176   4
   0   4  12 756.196 207.876   3
   4 -12   0 1186.70 102.417   3
   0 -12   4 998.222 145.887   1
   4  12   0 929.456 186.436   3
   0 -12   4 1262.18 212.511   3
 -12  -4   0 1456.82 256.407   1
   4 -12   0 1127.97 98.7163   5
  12   0  -4 1110.42 303.613   3
   4 -12   0 1295.31 200.621   1
  12   4   0 924.899 248.657   1
   4  12   0 870.233 251.730   2
   0  -4  12 1290.81 124.736   2
  12  -4   0 1893.76 370.018   1
   4  12   0 1191.32 208.684   5
  -4   0  12 1177.71 279.929   5
   0 -12   4 1127.54 195.416   5
   0  12  -4 1005.00 269.120   2
   0  12   4 919.069 136.522   1
   0  12   4 922.396 271.052   2
 -12  -4   0 1385.56 275.962   4
   4   0 -12 1057.23 185.490   4
  -4   0  12 1089.03 277.846   3
   4   0  12 573.937 232.974   1
  -2 -12   4 337.785 169.766   2
  12   2   4 132.618 93.1476   4
   2  12   4 81.5575 39.2428   1
   2   4  12-52.1913 165.998   1
  12   2   4 100.337 137.841   1
   4   2  12 27.6078 140.866   1
  -4 -12   2 148.540 143.384   4
  -2 -12   4 52.8032 127.141   4
  -2  -4  12-435.841 188.278   5
   4  -2 -12 202.684 136.553   3
   4  12   2 45.0847 66.9556   5
   2   4  12 381.110 169.970   3
 -12  -2   4 106.335 95.2083   1
  12  -2  -4 149.081 160.709   1
   2  12   4 189.252 66.3756   5
   2  12   4 36.2906 62.9310   3
   4  12   2 67.3398 90.4131   3
   4  12   2 137.581 143.716   2
  -2 -12   4 75.5604 73.8976   3
  12  -2  -4-19.9642 140.338   3
  -2 -12   4 145.771 60.6062   1
  12  -4  -2 70.7055 148.936   1
   2  12   4 188.096 50.8266   1
  -2  12  -4 310.153 128.809   1
  -4  -2  12 106.839 143.140   5
   2  12   4 86.5506 166.078   2
  -2  12  -4-23.5989 160.886   2
   2   4  12 78.3275 92.4204   2
  12   4   2 194.418 154.285   1
 -12  -4   2 300.979 172.543   4
  -4  12  -2-40.3839 108.357   1
 -12  -4   2 141.281 96.8608   1
  -4  12  -2 55.8740 126.614   2
 -12  -4   4 3233.17 410.404   1
  12   4   4 2320.09 385.489   1
  12   4   4 3241.62 400.257   4
  -4 -12   4 3252.54 442.540   4
   4  -4 -12 2648.46 352.093   3
   4   4  12 3327.19 438.254   3
   4   4  12 3077.81 453.949   1
 -12  -4   4 2443.10 365.255   4
  -4 -12   4 3037.44 188.555   1
  -4 -12   4 3144.35 193.862   1
  12  -4  -4 3285.65 465.198   1
   4  12   4 2777.93 298.551   3
  -4  -4  12 2921.00 442.194   5
  12  -4  -4 2763.85 399.600   3
   4   4  12 3114.74 303.634   2
   4  12   4 2697.96 440.226   2
  -4  12  -4 3509.38 476.260   2
 -12  -5  -5 127.435 106.856   4
  -5  12   5-231.976 127.749   1
 -12  -5  -5 2.57987 108.382   1
  -5  12   5 39.4811 154.092   2
  -5  -5 -12 63.9448 82.2380   4
  -5 -12  -5-33.3107 129.667   4
  12  -5   5-53.4858 150.828   1
  -5  -5 -12-61.0929 78.8130   2
   5 -12   5-18.9512 121.478   1
  -5   5  12 94.8283 128.627   2
   5   5 -12-62.7167 158.635   3
   5 -12   5-39.6056 63.3880   3
   5  12  -5-71.7153 139.015   3
  12  -5   5 4.95845 59.8085   4
  -5   5  12-57.8463 138.791   3
  12   5  -5-198.203 226.757   3
  -5   5  12-48.8304 116.737   5
   5  -5  12-41.4375 157.870   1
   3 -12   5 9613.76 606.752   1
   5  -3  12 9871.39 851.261   1
  -3   5  12 9036.01 673.364   2
  -5 -12  -3 9629.68 813.906   4
   3   5 -12 10136.9 552.206   4
   5 -12   3 10367.1 643.569   1
   3 -12   5 9269.18 713.963   2
   5 -12   3 9919.53 537.302   3
  -5  -3 -12 10031.8 532.605   2
   3   5 -12 10671.0 830.595   3
  -5   3  12 8906.82 655.164   2
   3  12  -5 10197.4 713.963   3
   3  -5  12 9514.72 812.362   1
   3 -12   5 10346.2 620.752   3
   5  12  -3 9344.35 681.992   3
  -3   5  12 9795.57 720.778   3
   3 -12   5 9933.51 601.700   5
  -5   3  12 9861.30 771.239   3
  12   3  -5 10018.4 860.607   3
  12   5  -3 10955.6 916.512   3
 -12  -5  -3 9279.81 686.888   1
  -3  12   5 10100.0 624.641   1
  -3   5  12 9846.25 718.096   5
  12  -5   3 10012.6 824.998   1
   5  12  -3 9247.69 688.352   5
  -5   3  12 9336.18 744.119   5
   5   3 -12 10703.1 825.333   3
 -12  -3  -5 9398.48 743.668   1
  12  -5   3 11112.3 719.319   4
 -12  -3  -5 9187.06 656.280   4
  12  -3   5 8862.77 799.922   1
 -12  -5  -3 8962.09 695.268   4
  12  -3   5 9319.87 623.239   4
  -5  12   3 10665.9 874.363   2
  -3  12   5 10931.9 897.959   2
  -5  -3 -12 9433.30 472.403   4
  12  -1   5 4888.49 584.011   1
  -5  12   1 4654.17 568.360   2
   1 -12   5 4945.60 378.240   1
   5  -1  12 4639.50 573.922   1
  -1   5  12 4446.64 448.836   2
  -5 -12  -1 4738.63 572.103   4
   1  12  -5 3569.74 404.657   3
   5   1 -12 4590.67 520.709   3
  -5   1  12 4279.35 507.008   5
  -1   5  12 4152.80 460.577   3
   5 -12   1 4745.05 290.767   3
 -12  -5  -1 4345.74 458.980   1
  -1  12   5 4642.03 578.572   2
   5  12  -1 4791.31 456.080   3
   1 -12   5 5440.67 450.225   3
  -5   1  12 5081.55 553.853   3
  12   1  -5 5487.50 602.735   3
   5 -12   1 3938.83 378.472   1
   1  -5  12 4274.85 551.374   1
  -1  12   5 4273.73 345.799   1
  12  -1   5 4588.41 426.048   4
   1  12  -5 4630.17 523.299   2
   5  12  -1 5145.45 470.549   5
   1 -12   5 4856.57 416.515   5
 -12  -5  -1 4997.27 517.057   4
  12  -5   1 4890.42 482.604   4
   1 -12   5 4736.92 520.603   2
  12  -5   1 4232.52 531.244   1
  12   5  -1 4300.23 481.025   1
 -12  -5   1 4320.98 452.719   1
  -5  12  -1 4671.72 558.900   2
  -1 -12   5 3590.43 460.664   2
  -5 -12   1 3834.08 494.149   4
  -1 -12   5 3407.53 439.017   4
   5  12   1 4628.81 427.109   5
   1  12   5 4106.59 193.381   3
  12   1   5 3385.21 491.596   1
   1   5  12 4744.72 449.131   2
   5  -1 -12 3547.93 437.251   3
  -1 -12   5 4967.06 340.416   1
   1  12   5 4059.17 196.530   3
   5 -12  -1 4652.52 406.633   1
   5  12   1 4092.91 406.437   3
  -1 -12   5 4657.49 437.691   3
  12   5   1 4228.31 484.111   1
   1  12   5 3669.54 271.022   1
   5   1  12 3598.23 508.917   1
   1  12   5 3943.14 191.323   5
   1   5  12 3665.93 436.666   3
  12  -1  -5 3778.50 489.237   3
  -1 -12   5 4211.82 410.440   5
  -1  12  -5 3534.91 463.992   2
  -1  -5  12 4204.25 296.309   2
  12  -5  -1 4140.23 524.161   1
  -1  -5  12 4830.52 550.319   5
  -5  -1  12 3585.80 477.051   5
   1  12   5 4836.62 583.622   2
 -12  -5   1 5098.07 517.602   4
  -1  -5  12 2699.74 420.290   1
  12   1   5 4746.50 438.915   4
  12   3   5 10175.5 684.952   4
  -5 -12   3 9862.60 792.630   4
  -3 -12   5 9984.56 764.583   4
 -12  -5   3 11019.6 742.096   1
   3  12   5 9944.60 407.458   1
   3   5  12 9380.62 739.445   3
   5  -3 -12 9117.59 681.856   3
   5   3  12 10100.3 839.927   1
  12  -5  -3 10380.2 832.202   1
   3  12   5 9909.40 387.864   1
   3   5  12 9398.09 800.814   1
  12  -3  -5 9763.27 755.562   3
   5  12   3 9645.74 620.701   3
  -5  -3  12 9848.77 813.918   5
  -3 -12   5 9921.24 695.702   3
  -3 -12   5 10278.6 475.758   1
  12   3   5 9417.39 782.320   1
   5  12   3 10137.7 843.468   2
  12   5   3 8603.69 695.133   1
 -12  -3   5 9322.64 731.741   1
   3   5  12 11995.3 695.004   2
   3  12   5 9389.13 818.664   2
  -3  12  -5 9899.59 778.436   2
  -3  -5  12 10253.7 816.460   5
  -3 -12   5 7734.17 726.257   2
  -5  12  -3 9470.25 798.065   2
 -12  -5   3 10140.4 750.921   4
   5   5  12 25.7341 117.088   1
  -5 -12   5-11.3712 127.419   4
  12   5   5-61.0320 137.044   1
   5  -5 -12 94.8883 101.170   3
  -5  12  -5-88.3843 142.523   1
  -5 -12   5-75.4173 46.9897   1
  12  -5  -5 215.491 170.384   3
  -5  12  -5 84.8569 162.787   2
  -5 -12   5 56.9270 65.0862   1
   5  12   5 2.72539 40.5296   1
   5  12   5 45.9840 145.843   2
  -5  -5  12 246.770 190.421   5
 -12  -5   5 56.3524 121.309   4
 -12  -5   5-8.75820 122.628   1
   6   6 -12 17285.7 918.700   4
  -6 -12  -6 16648.9 1123.96   4
  -6  12   6 18134.3 1210.86   2
  -6   6  12 16599.0 1041.79   2
  12  -6   6 18947.6 937.026   4
   6 -12   6 18084.1 941.507   3
   6   6 -12 19465.6 1219.10   3
   6  12  -6 18400.6 1112.88   3
 -12  -6  -6 19273.6 1078.05   1
  12   6  -6 19234.4 1266.45   3
 -12  -6  -6 18082.9 1034.03   4
  -6   6  12 17495.4 1019.42   3
  -6  -6 -12 17671.4 895.091   4
   6  -6  12 16845.0 1162.24   1
  -6  12   6 16196.3 988.867   1
  12  -6   6 18024.5 1193.97   1
   6 -12   6 17256.3 981.918   1
  -6  -4 -12-241.850 97.1063   4
  -4  12   6 9.02870 202.086   2
  -6   4  12 151.277 135.626   5
   6   4 -12 103.551 76.5176   4
  12  -6   4 256.489 196.568   1
   6 -12   4-25.0478 111.763   1
  -6 -12  -4 170.447 165.431   4
  -6  12   4 408.983 245.619   2
  -4  -6 -12 31.4044 73.0134   4
  -6  12   4 15.6117 115.787   1
  -4   6  12-17.2287 116.964   2
  -6  -4 -12-76.7916 103.425   2
   6  12  -4 206.217 139.429   5
  12  -4   6-19.7140 132.051   1
   6 -12   4 0.80556 80.7412   3
   6   4 -12 111.863 177.407   3
   4  12  -6 122.034 143.522   3
  -6   4  12 12.6279 112.709   2
   4 -12   6 85.4959 108.301   2
 -12  -4  -6-104.271 112.131   1
   4  -6  12 26.9145 175.348   1
   4 -12   6 23.4087 97.9305   3
   6  12  -4-125.105 169.681   3
   4 -12   6 262.241 141.343   1
  12  -6   4 46.1586 97.4919   4
  -4   6  12 232.902 147.155   3
  12   4  -6-139.677 238.931   3
  -6   4  12 321.207 151.610   3
   4   6 -12 161.020 165.654   3
  12   6  -4 32.0335 152.843   3
   6  -4  12-74.6694 199.606   1
 -12  -6  -4 89.1746 116.119   4
  -4   6  12 207.307 144.817   5
 -12  -6  -4 34.1286 94.6772   1
  -4  12   6-31.2385 100.493   1
 -12  -4  -6 64.2224 127.503   4
  12  -4   6 32.1692 77.4656   4
  -6  12   2 3971.71 443.763   1
   2 -12   6 3771.57 452.641   2
  -6 -12  -2 3485.46 510.065   4
  -6  -2 -12 4058.36 291.321   2
   2 -12   6 3403.43 356.844   1
   6 -12   2 3633.80 300.614   3
   2   6 -12 3105.28 457.600   3
   2  12  -6 3300.76 417.112   3
   6   2 -12 2719.95 420.411   3
  12  -2   6 3980.52 544.664   1
   2 -12   6 3262.02 360.396   3
  -2   6  12 3256.61 398.554   3
   6  12  -2 3302.65 407.251   3
 -12  -6  -2 3418.97 401.279   1
   2 -12   6 2771.70 329.910   5
  -2  12   6 3844.13 372.285   1
   2  -6  12 3497.53 491.071   1
  -6   2  12 3038.33 459.546   3
  12   2  -6 3517.50 500.117   3
   6 -12   2 3752.75 395.805   1
  12   6  -2 3201.99 500.111   3
  -2   6  12 3190.97 386.071   5
  -6   2  12 2736.81 422.410   5
   6  12  -2 3381.85 411.317   5
   6  -2  12 3956.69 554.528   1
  -6  -2 -12 3944.23 255.031   4
 -12  -2  -6 3113.15 367.691   4
  12  -6   2 3073.75 466.632   1
  12  -2   6 3679.39 371.507   4
   6   2 -12 3972.78 381.057   4
  -2   6  12 3592.83 439.260   2
 -12  -6  -2 3680.20 452.874   4
  -6  12   2 4050.94 536.250   2
  -2  12   6 2610.71 457.394   2
   0  -6  12 221.410 79.0229   2
   0   6  12 32.8830 114.748   2
  12   0   6 134.319 77.6451   4
  -6  12   0 84.4200 138.389   2
  -6 -12   0 8.04393 172.213   4
   0 -12   6-114.793 150.250   2
   0 -12   6 45.6337 127.432   4
 -12  -6   0-55.0745 120.834   4
  -6   0  12 346.444 187.067   5
   6   0 -12-43.2695 142.323   3
   6 -12   0 209.473 62.7011   3
  12   0   6 10.2835 177.736   1
   0   6  12 218.720 115.606   3
   0 -12   6 347.798 166.467   3
   6  12   0 170.862 123.221   3
  12   0  -6 250.905 190.160   3
   0 -12   6 118.687 87.5674   5
  -6  12   0 121.451 91.9061   1
  12   6   0 189.435 130.686   1
   6 -12   0 125.857 100.945   1
   0  12   6 309.974 112.728   1
   0  12  -6 109.524 114.730   2
 -12  -6   0 175.617 126.979   1
   6  12   0 242.357 125.461   5
  12  -6   0-161.903 196.174   1
   6   0  12 202.497 178.433   1
   0  12   6 358.607 175.472   2
   0  -6  12 272.107 176.057   1
   6   0 -12 141.210 90.4560   4
   0 -12   6 115.416 98.5209   1
  -2 -12   6 3196.55 459.415   2
  -6  12  -2 4228.77 532.712   2
  -6 -12   2 3152.47 451.979   4
   6   2  12 3335.35 494.948   1
   2   6  12 3910.84 451.498   3
   6  -2 -12 3698.90 443.461   3
   6  12   2 4391.36 443.935   3
   2   6  12 4053.82 514.275   1
  12   2   6 4074.28 547.705   1
   2  12   6 4030.93 305.654   1
  -2  -6  12 2939.82 456.911   1
  -6  12  -2 3508.76 435.402   1
  12  -2  -6 3916.73 490.879   3
  -2 -12   6 3263.63 396.269   3
  12  -6  -2 3471.22 478.743   1
  -2 -12   6 3712.72 325.321   1
  12   2   6 3977.26 409.911   4
  -2  12  -6 5221.33 554.670   2
  -2  -6  12 3748.61 328.555   2
   2  12   6 4178.43 318.900   1
   2   6  12 4295.09 443.055   2
  -2  -6  12 3076.94 451.385   5
  -6  -2  12 5542.59 609.701   5
  -2 -12   6 3397.23 402.417   5
   2  12   6 3144.30 486.526   2
  -2 -12   6 3657.54 445.183   4
  12   6   2 3309.24 426.888   1
   6  -2 -12 3993.22 413.747   4
 -12  -6   2 3816.40 469.362   4
 -12  -6   2 3701.33 407.185   1
  12   6   4 44.0017 109.840   1
  -6  12  -4 32.1536 147.939   2
 -12  -6   4-140.275 109.564   1
   4  12   6-173.629 169.262   2
  12   4   6 77.5994 96.1811   4
  -6 -12   4 145.795 62.6446   1
   4  12   6 44.7089 65.3539   1
   6   4  12-111.994 176.682   1
   4   6  12-135.405 138.242   3
  -6  -4  12-20.1904 130.026   5
   4   6  12-42.2885 122.482   1
   6  -4 -12-19.5577 105.557   3
  12   4   6-31.6288 127.333   1
  -6  12  -4-21.1259 123.990   1
  -4 -12   6 74.2087 75.4030   1
  12  -6  -4 30.5800 135.900   1
  -4  -6  12 40.1390 120.219   5
  12  -4  -6 99.7221 116.138   5
  12  -4  -6 59.4169 115.535   3
  -6 -12   4 151.478 151.243   4
  12  -6  -4-33.8787 101.845   3
  -4 -12   6 281.449 155.744   3
  -4  12  -6 63.7513 155.866   1
  -6 -12   4 69.9600 51.9922   1
   4   6  12 157.845 118.398   2
  -4 -12   6 147.007 108.428   4
  -4  12  -6 249.711 162.260   2
 -12  -6   4 69.9281 141.067   4
   6   6  12 16561.9 1088.95   1
  -6 -12   6 17014.2 751.723   1
  12   6   6 17471.3 1076.44   1
  -6  12  -6 16551.1 1044.00   2
   6  12   6 18205.8 676.507   1
   6  -6 -12 17427.4 912.916   3
  -6 -12   6 17383.8 719.910   1
  12  -6  -6 18289.9 1006.65   3
 -12  -6   6 17127.9 997.325   1
  -6  12  -6 18553.3 1147.56   1
  12  -6  -6 17560.9 980.219   5
  -6  -6  12 18188.9 1174.23   5
 -12  -6   6 17711.0 1048.42   4
  -6 -12   6 16760.9 1041.07   4
  -7  -7 -12 99.5659 117.529   4
  -7 -12  -7-1.79936 179.195   4
   7   7 -12-15.8906 116.186   4
   7  -7  12 3.82389 193.480   1
  -7  12   7 45.1193 142.113   2
  -7  -7 -12 146.538 122.835   2
  12  -7   7 5.80861 178.122   1
  -7   7  12-14.6726 142.352   2
   7 -12   7 119.594 113.758   3
   7   7 -12 219.008 198.846   3
   7 -12   7-95.5914 144.407   1
   7  12  -7 88.2464 142.968   3
  12   7  -7-14.2661 163.888   3
  -7   7  12 82.1089 138.073   3
 -12  -7  -7 76.6452 156.302   1
  12  -7   7-40.5950 51.7854   4
 -12  -7  -7 230.295 137.104   4
   7   5 -12 12986.3 778.718   4
  -7 -12  -5 13786.7 1012.60   4
  -5   7  12 11893.5 875.406   2
  -5  -7 -12 13029.4 796.207   4
  -5   7  12 13589.9 834.069   5
   5 -12   7 11870.8 798.333   1
  -5  -7 -12 10541.6 785.529   2
  -5 -12  -7 11422.0 908.189   4
  -7   5  12 12514.1 874.475   2
   7 -12   5 12083.8 722.917   3
   7   5 -12 11442.3 934.042   3
   5 -12   7 11866.5 768.513   3
   5  12  -7 12554.8 901.700   3
   7 -12   5 11417.1 793.357   1
 -12  -7  -5 12001.0 792.094   1
   7  12  -5 10894.7 851.940   3
  12  -5   7 11041.3 941.114   1
  12   5  -7 12512.9 1002.13   3
  12   7  -5 11073.6 968.917   3
  -5   7  12 10996.8 764.228   3
  -7   5  12 11663.6 858.204   3
   5   7 -12 11469.0 928.706   3
  -5  12   7 11048.6 784.523   1
   7  -5  12 12798.5 1011.40   1
 -12  -5  -7 11014.6 786.996   2
  -7  12   5 12108.1 864.801   1
  12  -7   5 13081.0 994.783   1
  12  -7   5 11556.9 740.741   4
   5  -7  12 10390.4 895.050   1
 -12  -5  -7 11490.0 789.016   4
  12  -5   7 11744.2 691.092   4
 -12  -7  -5 12721.7 880.968   4
  -5  12   7 13941.5 1050.73   2
  -7  -5 -12 12368.2 676.259   4
  -7  12   5 12491.7 991.944   2
   7 -12   3 3376.15 412.127   1
  -7 -12  -3 4457.65 561.264   4
   3  -7  12 4291.90 552.026   1
   3 -12   7 3832.68 445.592   2
  -3   7  12 3939.86 483.502   2
  -7  12   3 3638.11 524.602   2
  -3  -7 -12 4144.12 475.387   2
   7 -12   3 4344.91 372.665   3
  -3  12   7 3718.12 543.180   2
   3 -12   7 3795.06 410.428   1
   3   7 -12 4699.24 564.350   3
   3 -12   7 4064.64 436.303   3
  12  -3   7 4298.34 399.504   4
   7   3 -12 3132.09 469.167   3
  -3   7  12 4149.35 445.379   5
   7  12  -3 4707.52 530.714   3
  -3   7  12 4085.70 444.940   3
  12  -3   7 3933.31 551.264   1
   3  12  -7 4408.84 508.518   3
  -7  12   3 4346.72 490.854   1
  -3  12   7 4443.03 448.546   1
   7  -3  12 4530.87 587.237   1
  12   3  -7 3349.17 508.824   3
  12   7  -3 4616.92 607.366   3
   7   3 -12 4890.15 455.235   4
   3 -12   7 3370.61 393.767   5
  -7  -3 -12 4237.81 376.203   2
 -12  -7  -3 4160.39 439.359   1
 -12  -3  -7 5115.30 474.250   4
  -7  -3 -12 3822.81 305.875   4
 -12  -7  -3 4326.49 508.628   4
  12  -7   3 4373.68 555.179   1
   7  12  -3 4624.01 516.997   5
  12  -1   7 12579.1 990.128   1
  -7 -12  -1 11291.7 905.182   4
   1  -7  12 12662.1 483.486   2
  -7  -1 -12 13045.3 506.373   2
   1 -12   7 12007.5 809.487   4
   1  12  -7 12759.5 850.610   3
  -7  12   1 12981.3 866.829   1
  -1   7  12 12214.3 779.639   3
   7   1 -12 11799.7 873.263   3
   1 -12   7 13419.7 803.639   3
  12   7  -1 11745.9 769.759   1
   1 -12   7 13103.6 733.459   1
   7  12  -1 12234.7 829.465   3
 -12  -7  -1 14637.7 814.217   1
  12   1  -7 12177.7 932.638   3
  -1  12   7 12844.3 715.239   1
   1  -7  12 13010.4 941.505   1
   7 -12   1 12803.3 789.224   1
  12  -7   1 11488.1 891.152   1
   1 -12   7 12823.9 778.423   5
   1  -7  12 13027.9 433.926   4
   7  12  -1 12580.1 843.510   5
   7  -1  12 13761.2 1028.77   1
  -7   1  12 12757.8 944.371   5
  -1  12   7 11995.5 956.942   2
  -1   7  12 13454.0 880.547   2
 -12  -7  -1 12936.4 895.031   4
   7   1 -12 11613.2 739.722   4
  -7  12   1 11883.5 945.518   2
  12  -1   7 13298.2 717.314   4
   7 -12   1 13211.2 578.561   3
   1 -12   7 11886.1 829.521   2
  -7 -12   1 11158.3 885.742   4
  12   1   7 12543.6 724.785   4
  -1 -12   7 10868.8 770.941   4
 -12  -7   1 12540.2 756.252   1
   1  12   7 10190.9 869.987   2
   7 -12  -1 12392.5 441.962   3
   1  12   7 12202.0 470.606   3
   1   7  12 11736.5 787.924   3
   7  -1 -12 11785.8 835.977   3
  -1  -7  12 11777.7 887.547   1
   1  12   7 11006.0 617.460   1
   7 -12  -1 12061.0 758.404   1
  -1 -12   7 12100.7 788.714   3
  12  -1  -7 12000.8 890.933   3
  12   7   1 11989.9 773.368   1
  12  -7  -1 13902.5 970.983   1
  -7  12  -1 13387.2 889.117   1
   7  12   1 12117.3 805.071   3
  -1  -7  12 11952.2 889.753   5
  -7  -1  12 13244.0 965.555   5
  -1  12  -7 12353.5 828.142   2
  -1 -12   7 13698.1 717.049   1
   1   7  12 11839.5 814.367   2
  -1 -12   7 12401.0 785.637   5
 -12  -7   1 10457.6 811.930   4
  -1  -7  12 12954.6 636.233   2
   7   1  12 10839.0 917.132   1
  12   1   7 12769.4 989.082   1
  -1  -7  12 12217.2 521.581   4
   7  -1 -12 12570.2 770.320   4
  -1 -12   7 12335.6 870.654   2
  -7  12  -1 9692.47 852.902   2
  -3 -12   7 3629.01 351.715   1
  12   3   7 4238.81 430.393   4
  -7  12  -3 4306.54 539.000   2
  -7 -12   3 4558.67 539.901   4
  -7 -12   3 3903.78 193.890   1
  -3 -12   7 3078.57 411.216   4
  -3  -7  12 3595.85 489.228   5
   3  12   7 3752.74 330.206   1
   7  -3 -12 3382.39 423.501   3
  12   3   7 3862.96 524.513   1
  12  -7  -3 3782.47 511.592   1
  12  -3  -7 3229.04 438.473   3
  12   7   3 4049.64 449.732   1
  -3 -12   7 3825.40 462.514   3
   7  12   3 4476.36 474.968   3
  -3  -7  12 3546.68 360.703   2
  -7  12  -3 2640.54 411.381   1
  -3  12  -7 4061.63 476.044   2
   3   7  12 3842.90 440.320   2
  -7 -12   3 4171.15 214.731   1
   3  12   7 3542.44 517.175   2
   7   3  12 3940.96 547.186   1
  -7  -3  12 3678.51 532.749   5
  -3  -7  12 4222.32 334.210   4
   3   7  12 3932.75 501.694   1
 -12  -7   3 4042.96 424.500   1
 -12  -7   3 3193.52 456.963   4
  -3 -12   7 3724.32 479.555   2
   3   7  12 3444.20 426.375   3
  -7  12  -5 10204.3 853.939   1
  -7  -5  12 11819.9 947.169   5
  -5  12  -7 11612.9 900.612   1
   5   7  12 11740.0 881.622   1
  12  -5  -7 12193.6 816.158   3
   5  12   7 10500.2 561.250   1
  12  -7  -5 11338.8 752.267   3
  -7 -12   5 11721.5 524.896   1
   7  12   5 11995.5 456.568   1
  -5  -7  12 10941.8 716.311   2
   5  12   7 11412.0 920.899   2
  -5 -12   7 11305.9 637.007   1
 -12  -7   5 11336.5 758.693   1
  -5  12  -7 10419.7 792.768   2
  12   7   5 11733.3 817.902   1
  12  -5  -7 12025.1 814.450   5
  -5  -7  12 12168.0 940.750   5
  12  -7  -5 10507.3 724.182   5
  -5  -7  12 10298.1 621.616   4
   7   5  12 11568.9 916.714   1
  -7  12  -5 10323.2 840.328   2
   7  -5 -12 10458.8 727.320   3
 -12  -7   5 10468.0 811.891   4
  12   5   7 12055.8 908.670   1
  -7 -12   5 10262.9 825.203   4
  -5 -12   7 10701.2 786.891   4
   7  -7 -12-20.5647 103.203   3
  12   7   7-34.6079 141.978   1
 -12   7  -7 98.9072 115.923   2
   7  12   7 81.6653 84.7545   1
  12  -7  -7 58.8481 101.059   3
 -12  -7   7-84.6260 144.993   4
  -7 -12   7-95.4437 129.124   4
  -7 -12   7-89.4981 110.205   1
   7   7  12-52.8749 130.042   1
  12  -7  -7 248.140 134.715   5
  -7  12  -7 35.0862 132.361   2
  -8 -12  -8 34063.4 1724.33   4
   8   8 -12 33985.7 1809.90   3
   8  12  -8 36344.2 1792.16   3
 -12   8   8 33426.9 1705.86   2
  12   8  -8 37028.3 1907.21   3
   8  -8  12 35372.1 1811.82   1
  12  -8   8 35082.4 1340.85   4
  -8   8  12 36469.8 1750.23   2
 -12  -8  -8 33238.8 1574.99   4
  12  -8   8 32437.3 1757.46   1
  -8  -8 -12 33741.3 1591.71   2
  -8  -8 -12 35188.5 1499.30   4
   8 -12   8 31002.4 1572.80   1
  -8  12   8 36551.2 1854.99   2
   6  -8  12-5.95369 19.4546   4
   8  -6  12 113.005 191.276   1
  -8  -6 -12 146.928 126.386   2
  -6  -8 -12-216.593 131.334   4
  -6 -12  -8-215.814 164.004   4
  -6  12   8-98.9419 202.547   2
  12  -8   6-50.4907 144.292   1
  -8  12   6 5.86423 153.704   2
   8 -12   6 215.334 173.303   1
  -6  -8 -12 128.320 147.668   2
  -6   8  12 104.431 145.627   2
   6  -8  12-129.589 152.107   1
   8 -12   6-186.481 115.560   3
  -8  -6 -12-65.9802 102.647   4
   6   8 -12-131.613 211.602   3
  -8   6  12 78.6512 139.081   2
   6  12  -8 140.444 161.267   3
   8   6 -12 91.6110 167.093   3
  12  -6   8-92.4623 150.333   1
   8  12  -6 22.7051 122.574   3
  -8 -12  -6 102.463 141.330   4
 -12  -8  -6-55.1468 66.0266   1
  12   6  -8 2.02624 182.122   3
  12   8  -6 413.979 235.660   3
   6 -12   8 190.381 161.569   1
  -6   8  12-44.2137 109.772   3
 -12  -8  -6-128.436 169.256   4
   6  -8  12-9.62688 22.5960   4
  12  -6   8-23.0402 93.4546   4
 -12  -6  -8 73.9276 133.344   4
  -8  12   4 10665.1 923.269   2
  12  -4   8 11201.1 974.179   1
  -8 -12  -4 10291.3 885.061   4
  -8  -4 -12 11434.4 711.581   2
  -4  -8 -12 12194.5 813.491   4
  -4  -8 -12 12933.5 901.780   2
 -12  -8  -4 11693.8 744.320   1
   8 -12   4 11890.3 700.336   3
   8   4 -12 12724.5 972.971   3
   4   8 -12 13162.3 993.079   3
   4  12  -8 10887.2 862.982   3
   4 -12   8 11911.2 801.316   1
   4 -12   8 10921.0 769.422   3
   8  12  -4 12316.1 903.736   3
  12   4  -8 10821.7 936.023   3
  12   8  -4 11287.2 978.045   3
  -4  12   8 10387.6 764.549   1
   8  -4  12 9538.66 891.308   1
 -12  -4  -8 12316.8 795.377   2
  12  -8   4 12484.8 955.371   1
   8 -12   4 11376.2 809.914   1
 -12  -8  -4 13319.6 930.262   4
 -12  -4  -8 11777.3 762.193   4
   4  -8  12 11634.4 345.226   4
  -4  12   8 10320.5 931.823   2
  -8  12   4 11680.9 868.780   1
  12  -4   8 11803.8 663.466   4
   4  -8  12 10051.3 863.271   1
  -8  -4 -12 11880.7 630.691   4
  -4   8  12 10912.7 861.375   2
   8   4 -12 11405.1 754.987   4
   8   2 -12-29.8974 126.698   4
  12  -2   8 152.421 93.5929   4
  -8  -2 -12 75.3188 72.8147   2
   2 -12   8 2.42156 108.064   4
  -8 -12  -2 350.676 201.316   4
  -8  12   2 298.003 196.801   2
   2   8 -12 118.609 155.747   3
   8 -12   2 26.7771 60.8446   3
   2  12  -8-21.8284 136.823   3
   2 -12   8 93.2054 139.511   2
  12  -8   2 192.298 155.623   1
   2  -8  12 326.760 205.111   1
  -2  -8 -12 20.0881 81.1381   2
   8  -2  12-349.799 216.132   1
   8   2 -12 228.341 162.578   3
   2 -12   8 172.567 125.125   3
  12  -2   8 101.800 150.200   1
 -12  -8  -2 165.749 109.377   1
  12   2  -8 39.9732 163.253   3
   8  12  -2 61.8899 126.048   3
  -8  12   2-57.8503 95.8365   1
  12   8  -2-15.3162 157.855   3
  -2  12   8-85.8357 90.2227   1
   2 -12   8 58.1723 81.8810   5
   8  12  -2-20.4614 96.2303   5
   8 -12   2 98.2422 112.808   1
  -8  -2 -12 41.4491 59.5072   4
   2  -8  12 146.564 53.9296   4
   2 -12   8 183.087 141.234   1
 -12  -8  -2 259.450 173.886   4
  -2  12   8-168.920 220.383   2
  -2   8  12-2.99104 122.302   2
   0  -8  12 199.488 75.2663   2
  12   0   8 336.736 128.570   4
   0  -8  12-90.9399 145.405   1
   0 -12   8-112.965 109.082   2
  -8  12   0 340.502 234.350   2
  -8   0 -12 82.3932 47.4316   2
   0  -8  12 101.863 66.1478   4
   8   0 -12 129.049 124.755   3
   0 -12   8 373.896 153.230   1
   0   8  12 69.2311 86.7497   3
  -8 -12   0 97.1625 148.152   4
   0  12   8 51.7508 42.1173   3
   8   0  12-20.8203 132.124   1
   0 -12   8 207.562 120.360   3
  12   0   8 153.907 213.306   1
  12   8   0 139.464 111.427   1
  12   0  -8 67.4116 138.053   3
   0 -12   8 287.770 97.3791   4
   8  12   0 107.744 125.174   3
  12  -8   0 25.7787 160.274   1
   8 -12   0 89.5104 129.851   1
   0  -8  12 77.8138 125.127   5
   0  12   8 79.9251 41.7201   5
   0 -12   8 230.809 150.200   5
   8  12   0-4.15961 94.0052   5
  -8  12   0 193.391 145.954   1
 -12  -8   0 28.1198 80.8852   1
   0  12   8 104.258 171.775   2
   8   0 -12 394.706 176.111   4
   0   8  12 228.991 157.152   2
 -12  -8   0 70.4284 113.570   4
  -8 -12   2-169.164 191.783   4
  -2 -12   8 118.696 139.243   4
  -8  12  -2 178.914 158.137   2
  12   2   8 155.271 108.908   4
  -2  -8  12-138.610 187.511   1
   2  12   8 129.274 92.5227   1
  -2 -12   8 244.453 143.812   5
  -8  12  -2 265.964 163.848   1
   8  -2 -12 35.7375 128.198   3
 -12   8  -2-21.7410 138.023   2
  -8 -12   2 106.289 35.2197   1
 -12  -8   2 140.729 105.471   1
   8   2  12 128.407 166.858   1
  12   2   8 205.738 150.640   1
   8 -12  -2 384.138 169.384   1
  12  -2  -8-19.2329 139.262   3
   2   8  12 326.405 150.090   3
   8 -12  -2 84.1682 46.5493   3
  -2  -8  12 5.26966 64.5946   2
  12  -8  -2-103.267 170.064   1
   8  12   2 47.0300 131.256   3
  12   8   2 53.8491 111.226   1
  -2  12  -8 64.1657 113.146   2
  -2 -12   8 11.5737 120.623   2
  -2  -8  12 101.545 79.0959   4
   2  12   8 354.535 204.889   2
   2   8  12 25.8616 119.003   2
   2  12   8 78.8795 65.2126   3
  -2  -8  12 401.695 192.103   5
  -2 -12   8 190.376 120.570   1
   2   8  12 310.794 187.806   1
 -12  -8   2 21.5537 167.065   4
   4   8  12 12036.3 829.290   3
 -12   8  -4 12209.5 862.323   2
   8  -4 -12 12628.6 841.435   3
  -4  -8  12 11815.6 661.480   4
  12  -4  -8 12481.6 866.194   3
   8  12   4 12834.0 445.309   1
  -8 -12   4 12633.1 525.221   1
  -4 -12   8 12549.1 727.320   1
  12  -8  -4 11577.6 755.961   3
   4  12   8 12939.2 687.648   1
   4   8  12 13037.7 924.320   1
  12   8   4 13672.3 838.095   1
   4   8  12 13091.4 868.123   2
   4  12   8 11185.5 925.124   2
  -4  12  -8 11625.8 810.063   2
  -4  -8  12 12601.8 752.166   2
   8   4  12 10911.7 923.278   1
  -4  -8  12 12987.7 973.940   5
 -12  -8   4 12239.2 763.113   1
  12   4   8 11731.2 942.507   1
 -12  -8   4 13398.0 940.765   4
  -8  12  -4 12032.6 910.133   2
  -8 -12   4 12335.1 923.071   4
  -4 -12   8 11619.4 808.639   4
  -8 -12   6-15.8553 153.767   4
  -8  12  -6 47.1635 115.701   2
  -6 -12   8-69.8620 143.919   4
   6   8  12-100.186 148.299   1
   8  12   6-24.2517 81.5540   1
 -12  -8   6 54.3038 101.367   1
  12   8   6-2.67278 118.358   1
   8  -6 -12-33.4629 106.204   3
 -12   8  -6 74.8105 113.374   2
 -12   6  -8 44.7836 94.4475   2
  12   6   8 83.7852 143.781   1
   8   6  12-335.461 194.882   1
  -6 -12   8 25.6525 81.8370   1
  12  -6  -8-74.5934 137.754   3
  12  -8  -6 37.8245 99.2371   3
  12  -8  -6-77.1780 110.927   5
  -6  -8  12 319.393 152.479   2
  12  -6  -8 70.7111 105.114   5
  -8 -12   6-134.688 80.3687   1
  -6  -8  12-148.113 166.338   5
   6  12   8 22.0420 92.9042   1
  -6  12  -8-89.9078 130.502   2
 -12  -6   8-69.3251 128.274   4
  -6  -8  12-6.89130 77.6459   4
 -12  -8   6-62.4368 161.586   4
 -12   8  -8 31070.9 1338.95   2
   8  12   8 34794.0 1256.67   1
  12   8   8 33431.9 1551.70   1
   8  -8 -12 34115.7 1328.95   3
  -8  12  -8 31826.2 1492.38   2
  12  -8  -8 33248.7 1374.02   3
  -8 -12   8 32146.9 1251.50   1
  -8 -12   8 31805.1 1535.51   4
  12  -8  -8 31980.0 1342.31   5
   8   8  12 29880.4 1541.10   1
  -8  -8  12 31534.1 1368.01   4
 -12  -8   8 33885.5 1579.52   4
  -9  -9 -12-13.3081 115.735   4
  -9 -12  -9-26.9118 148.683   4
  -9  12   9-89.8406 203.278   2
  -9   9  12-50.4319 177.849   2
 -12   9   9 213.542 158.912   2
  12  -9   9-290.150 205.955   1
   9   9 -12 249.703 227.738   3
   9  12  -9 69.3527 225.243   3
   9 -12   9 11.1315 105.827   1
  12   9  -9-34.9274 169.456   3
   9  -9  12-204.661 211.915   1
 -12  -9  -9-25.2021 129.151   4
   7  -9  12 3375.71 526.314   1
  -9  -7 -12 3381.41 406.256   4
   7  -9  12 3369.47 240.184   4
  -9  -7 -12 2992.44 434.401   2
  -9 -12  -7 2612.21 473.001   4
  -7  -9 -12 4100.17 492.865   4
  -7 -12  -9 3169.58 494.376   4
  -7  12   9 3023.73 530.037   2
  -9  12   7 2969.94 511.248   2
  -7   9  12 4030.46 557.001   2
  12  -9   7 3626.15 548.685   1
   9 -12   7 3781.25 519.933   1
 -12   9   7 3743.75 558.404   2
   7  12  -9 2516.97 465.381   3
   9   7 -12 3713.17 575.370   3
 -12  -9  -7 3083.37 410.734   1
   7   9 -12 2917.42 504.592   3
  12  -7   9 3131.48 523.951   1
   9  12  -7 3155.00 514.778   3
  12   7  -9 2751.25 504.635   3
  12   9  -7 3222.80 547.958   3
   7 -12   9 2297.57 404.022   1
  12  -7   9 3267.90 348.303   4
   9  -7  12 3210.39 584.163   1
  -9   7  12 2954.62 471.841   2
 -12  -7  -9 3583.27 467.426   4
 -12  -9  -7 2556.59 431.412   4
   9  -5  12 3493.44 569.599   1
  12  -9   5 2836.58 479.154   1
  -5  -9 -12 4663.35 529.692   4
   9 -12   5 3524.86 476.615   1
  -9 -12  -5 4682.60 600.752   4
  -5  12   9 4244.18 607.084   2
  -5 -12  -9 4378.56 561.118   4
   9 -12   5 3812.65 412.434   3
  -5   9  12 3533.28 517.795   2
  -9  12   5 3051.46 505.708   2
   5   9 -12 3639.37 547.186   3
 -12  -5  -9 3431.43 449.189   2
   5  12  -9 3808.64 533.369   3
   5  -9  12 4345.13 574.018   1
 -12   9   5 4843.16 601.313   2
 -12  -9  -5 3383.24 396.112   1
   9   5 -12 3478.53 526.415   3
   9  12  -5 4355.94 570.840   3
  12   5  -9 4115.75 603.896   3
  12  -5   9 3945.46 587.834   1
  12   9  -5 3759.35 562.850   3
   5 -12   9 4125.21 506.209   1
 -12  -5  -9 4003.36 449.891   4
  -9  -5 -12 4311.84 470.649   2
  -9  -5 -12 3721.73 380.463   4
  12  -5   9 3654.37 352.416   4
   5  -9  12 3838.04 236.338   4
 -12  -9  -5 3199.25 472.814   4
  -9  12   3 10618.7 920.897   2
   3 -12   9 10439.8 715.551   4
  -3  12   9 10987.8 954.318   2
  -3  -9 -12 10302.1 846.196   2
   3 -12   9 10048.3 691.115   2
   3   9 -12 10408.6 887.993   3
   3  12  -9 9793.01 824.456   3
 -12   9   3 9527.12 832.913   2
  -3   9  12 10163.8 859.603   2
   9   3 -12 9835.28 851.668   3
  12   3  -9 9359.14 861.956   3
   3 -12   9 10170.8 759.500   1
   9  12  -3 9008.94 802.379   3
  -3  12   9 10819.9 773.202   1
  12   9  -3 8073.25 829.514   3
   9  -3  12 10447.3 950.467   1
 -12  -9  -3 10794.2 677.565   1
   9 -12   3 10150.5 780.672   1
  12  -9   3 10008.6 866.314   1
 -12  -3  -9 9171.56 668.385   2
  -9  -3 -12 10350.8 652.592   2
   3  -9  12 9531.26 833.398   1
 -12  -3  -9 9485.07 654.017   4
  -9  -3 -12 10241.3 565.086   4
  12  -3   9 10821.9 974.352   1
 -12  -9  -3 10378.4 858.851   4
   3  -9  12 10685.5 442.981   4
  12  -3   9 10349.2 600.714   4
  -9 -12  -3 10616.0 902.062   4
  12  -1   9 12455.6 675.521   4
  -9  12   1 11159.0 935.462   2
   1 -12   9 10342.6 748.837   2
   1  -9  12 11110.4 570.824   2
  12  -1   9 11437.2 997.010   1
   1  -9  12 10173.1 838.403   1
 -12   9   1 11400.1 888.404   2
   9   1 -12 12667.2 940.499   3
  12   1  -9 11940.8 943.400   3
  -1  12   9 11290.4 745.661   1
   1  -9  12 12926.9 950.383   5
  -1  12   9 12007.6 419.844   3
   9  12  -1 11413.3 881.072   3
   9 -12   1 10988.9 803.485   1
   9  -1  12 11435.3 997.037   1
  12   9  -1 10818.3 942.384   3
  12  -9   1 10454.3 872.098   1
   1 -12   9 10742.2 752.711   1
 -12  -9  -1 11755.9 687.428   1
 -12  -1  -9 11669.3 697.958   2
   1 -12   9 12447.4 774.635   4
   1 -12   9 13012.3 853.207   5
  -1  12   9 10847.8 941.454   2
   1  -9  12 11828.8 531.766   4
  -1   9  12 10938.0 869.040   2
  -9  -1 -12 11716.2 585.059   2
 -12  -9  -1 11979.9 913.096   4
  -9 -12  -1 12730.6 974.082   4
  -1 -12   9 11093.1 737.462   4
  -1 -12   9 10966.1 737.492   1
  12   1   9 11386.4 982.142   1
 -12   9  -1 11660.6 887.896   2
   1   9  12 12130.6 763.814   3
   1  12   9 12551.7 564.085   3
 -12  -9   1 12942.2 725.613   1
   9  -1 -12 11318.0 857.769   3
  -1 -12   9 10432.5 790.998   5
  12  -1  -9 11562.7 883.083   3
  12   9   1 11057.7 698.690   1
   9 -12  -1 12589.8 856.990   1
  12  -9  -1 11096.2 892.800   1
   9  12   1 10111.3 813.510   3
   9   1  12 12625.6 1027.70   1
  -1 -12   9 11394.3 816.970   2
  -1  -9  12 11156.0 859.770   1
   1  12   9 9947.42 882.046   2
  -1  -9  12 12330.0 929.319   5
   1   9  12 12226.9 896.911   2
  -9   1 -12 11236.2 405.615   2
 -12  -9   1 12512.5 932.925   4
  -1  -9  12 12177.5 700.309   2
  -1  -9  12 11569.1 586.539   4
  12   1   9 11864.7 701.753   4
  -9 -12   1 10589.9 898.176   4
  -9 -12   1 12292.6 416.495   1
  -9  12  -1 11678.5 933.900   2
  12   3   9 8407.51 831.496   1
  -9 -12   3 9848.33 451.487   1
 -12   9  -3 9563.29 786.206   2
   3   9  12 9729.64 717.554   3
   9  -3 -12 9242.61 741.687   3
  -3  -9  12 10580.2 834.388   1
  -9 -12   3 8884.04 802.017   4
  -3 -12   9 11502.2 727.718   1
  12  -3  -9 10350.6 811.586   3
  12  -9  -3 10154.9 856.976   1
   9 -12  -3 9852.05 436.405   3
  12   9   3 9481.89 657.815   1
   3  12   9 9984.49 654.596   1
  12  -9  -3 10022.3 683.356   3
   9   3  12 10108.8 913.743   1
  -3  12  -9 9822.33 688.555   2
   3  12   9 11100.4 906.616   2
   3   9  12 9783.48 777.434   2
  -3  -9  12 10473.8 871.600   5
   9 -12  -3 10678.3 449.929   5
  -3 -12   9 10559.9 816.754   5
  -3 -12   9 9814.24 785.475   2
  -3  -9  12 10481.4 610.145   4
 -12  -9   3 10131.0 840.173   4
  -3  -9  12 10505.6 698.250   2
   3   9  12 9131.89 777.906   1
  -9  12  -3 10124.9 849.437   2
  -3 -12   9 9391.00 696.210   4
 -12  -9   3 10853.1 684.320   1
  -9 -12   5 3202.32 479.524   4
  -5 -12   9 3136.31 424.003   4
  -9  12  -5 4113.47 531.118   2
   9 -12  -5 3813.07 215.602   3
   9   5  12 3471.89 534.816   1
 -12   9  -5 4191.89 501.965   2
   9  -5 -12 3615.22 447.161   3
  12  -9  -5 3330.08 394.175   3
  12  -5  -9 3881.88 482.697   3
 -12  -9   5 3498.55 403.325   1
   5   9  12 4151.32 507.942   1
   9  12   5 3781.20 292.276   1
  12   5   9 3107.19 499.450   1
   5   9  12 3743.10 485.829   2
   5  12   9 4182.26 556.398   2
   5  12   9 4553.19 425.634   1
  -9 -12   5 4251.82 335.410   1
  -5  12  -9 3545.76 426.119   2
  12  -9  -5 3708.65 398.305   5
  -5  -9  12 3692.06 395.279   4
  -5 -12   9 3691.62 411.980   1
 -12  -9   5 4094.44 528.306   4
  -5  -9  12 3395.39 423.830   2
  12   9   5 3698.48 430.969   1
  -5  -9  12 4415.73 581.899   5
 -12  -7   9 3271.68 454.914   4
  -7 -12   9 2725.95 362.888   1
  12   9   7 2594.50 396.498   1
   9  12   7 2759.50 298.902   1
   9   7  12 2413.85 439.748   1
  12  -9  -7 3011.36 359.118   5
  -9  12  -7 2508.32 407.813   2
 -12   9  -7 2838.15 399.495   2
 -12   7  -9 2905.09 351.956   2
   9  -7 -12 2554.12 367.025   3
  12  -9  -7 3118.83 366.123   3
  12  -7  -9 2196.61 355.736   3
  12   7   9 2494.71 429.897   1
  -7 -12   9 2967.76 354.615   1
   7   9  12 2353.22 400.200   1
  12  -7  -9 4253.05 466.576   5
  -7  12  -9 2389.58 360.459   2
   7  12   9 2777.16 341.353   1
  -7  -9  12 3228.70 395.492   4
 -12  -9   7 2307.04 343.298   1
 -12  -9   7 2565.13 435.634   4
  -7 -12   9 2711.41 423.777   4
  -9 -12   7 3516.84 498.346   4
   9   9  12-18.7308 123.966   1
  -9  -9  12-8.16279 107.523   4
 -12   9  -9 95.7383 106.561   2
   9  -9 -12 1.98712 98.3635   3
  12   9   9 15.6697 140.081   1
  12  -9  -9-90.6416 124.910   3
   9  12   9 233.982 145.154   1
 -12  -9   9 102.356 145.377   4
  -9 -12   9 160.988 111.394   4
  -9  12  -9-32.9494 118.800   2
 -10  12  10 28653.7 1724.45   2
  10 -12  10 28355.1 1624.85   1
 -10  10  12 31169.1 1752.88   2
  10 -10  12 27241.8 1670.06   1
 -12  10  10 29933.0 1720.53   2
  10  10 -12 28888.9 1775.50   3
  10  12 -10 27615.4 1728.46   3
  12  10 -10 27754.4 1759.77   3
 -12 -10 -10 26684.1 1493.86   4
  12 -10  10 30805.2 1770.21   1
 -10 -10 -12 29299.6 1504.81   4
 -10 -12 -10 28137.9 1583.37   4
 -12 -10  -8 224.950 166.787   4
 -10  -8 -12 420.534 176.064   4
 -10 -12  -8 159.283 159.683   4
  -8 -10 -12 122.229 137.755   4
   8 -10  12 122.700 193.027   1
  -8 -12 -10-11.3709 142.336   4
  -8  12  10-35.3420 201.143   2
  -8  10  12 120.467 152.956   2
 -10  12   8-118.111 162.086   2
  12 -10   8 156.709 176.933   1
  10 -12   8-39.2883 125.165   1
 -10   8  12 243.645 168.829   2
 -12  10   8 139.815 228.358   2
   8  10 -12-15.8000 218.435   3
 -12   8  10-28.3803 139.603   2
   8  12 -10 45.6008 175.404   3
  10   8 -12 13.7219 210.693   3
  10  12  -8 190.074 160.918   3
  12   8 -10-49.0678 202.790   3
  12  -8  10 101.577 215.735   1
  12  10  -8 340.092 224.024   3
   8 -12  10 123.335 178.731   1
  10  -8  12 268.893 209.770   1
 -12  -8 -10 297.918 168.919   4
 -10  12   6 21462.3 1395.01   2
  -6 -10 -12 21969.4 1244.68   4
  12  -6  10 21671.9 1445.43   1
 -12  10   6 24185.7 1444.86   2
   6  10 -12 18591.3 1322.56   3
   6  12 -10 21270.1 1362.58   3
   6 -12  10 19258.8 1215.52   1
  10   6 -12 23966.8 1490.30   3
  10  -6  12 23480.3 1494.73   1
  12   6 -10 22735.0 1466.76   3
  10  12  -6 23072.2 1417.79   3
  12  10  -6 23014.0 1473.38   3
   6 -10  12 24190.3 1415.85   1
  10 -12   6 22819.3 1309.26   1
 -12 -10  -6 21800.8 1085.34   1
  -6 -12 -10 23442.5 1369.22   4
  12 -10   6 21559.1 1355.61   1
 -10  -6 -12 22933.4 1209.33   2
  -6  12  10 22062.0 1436.13   2
 -12  -6 -10 22395.6 1152.44   4
 -10  -6 -12 22163.9 1075.31   4
 -12 -10  -6 21982.5 1324.41   4
   6 -10  12 23367.4 802.372   4
 -10   6  12 21563.7 1315.61   2
  -6  10  12 21915.7 1372.41   2
 -10 -12  -6 19769.1 1302.95   4
 -12 -10  -4-69.6245 123.021   4
  -4  12  10-99.9017 184.721   2
 -10 -12  -4-158.095 196.480   4
   4 -10  12 21.8793 52.6782   4
  -4  10  12 291.639 201.282   2
   4  10 -12 359.842 221.799   3
   4  12 -10 54.6265 121.022   3
  10  -4  12 123.517 164.240   1
 -12  10   4 41.0205 182.325   2
 -12 -10  -4 21.3061 69.3075   1
   4 -10  12-54.2749 142.850   1
  10   4 -12-50.5655 169.136   3
  10 -12   4-44.2553 144.090   1
  12   4 -10 280.865 243.362   3
  10  12  -4 137.296 149.636   3
  12  10  -4 135.999 158.573   3
  12  -4  10 63.7474 194.742   1
  -4  10  12 50.5788 96.3659   3
  12  -4  10 211.074 83.8285   4
 -12  -4 -10-11.1711 116.266   2
   4 -12  10 103.543 96.5612   4
 -10  -4 -12 79.0018 106.146   4
 -12  -4 -10 261.864 132.703   4
   4 -12  10-60.3908 125.597   1
  12 -10   4 190.555 153.897   1
 -10  12   4 273.607 205.220   2
 -12 -10  -2 3738.63 360.017   1
  12  -2  10 3671.02 345.168   4
  -2  10  12 2767.47 465.452   2
   2 -12  10 3568.80 392.773   4
 -10 -12  -2 3571.15 534.227   4
   2 -10  12 3041.76 288.062   2
 -10  12   2 3048.51 499.184   2
 -12 -10  -2 3429.91 501.896   4
   2 -10  12 3441.06 284.200   4
   2  10 -12 2988.66 491.993   3
   2  12 -10 2853.74 458.246   3
   2 -12  10 3137.38 435.510   1
   2 -12  10 3910.17 489.621   5
   2 -12  10 3411.32 396.008   2
 -12  10   2 2771.12 456.278   2
  -2  10  12 3484.08 358.989   3
  10   2 -12 3102.47 480.415   3
  12   2 -10 3925.23 556.349   3
  12 -10   2 3875.61 531.959   1
  -2  12  10 2967.25 405.036   1
  10  12  -2 3085.54 483.527   3
  12  10  -2 3150.05 515.404   3
  12  -2  10 3304.63 553.693   1
  10 -12   2 3105.34 454.280   1
 -10  -2 -12 3959.17 382.838   2
 -12  -2 -10 3461.36 390.182   2
   2 -10  12 2986.19 454.313   1
  10  -2  12 3378.54 552.177   1
  -2  12  10 3512.90 547.941   2
  10   0  12 168.793 192.705   1
   0 -12  10 173.311 99.7092   4
 -10 -12   0 165.442 195.580   4
  12   0  10 207.310 108.945   4
   0 -10  12 40.1054 69.0594   2
   0 -12  10-56.9636 108.328   2
 -10  12   0 57.8231 155.990   2
 -12  10   0 320.904 188.145   2
  10   0 -12 382.518 219.210   3
   0  12  10 57.3175 60.8269   3
  12   0 -10 65.0938 160.271   3
 -10   0 -12 72.5727 88.5496   2
   0 -10  12 228.420 174.314   1
  10  12   0 47.2401 123.539   3
  12  10   0 480.043 239.378   3
  12   0  10-162.518 194.839   1
  10 -12   0 193.186 202.249   1
   0 -12  10-126.200 144.921   1
  12 -10   0 394.395 223.754   1
   0 -12  10-33.6571 120.806   5
   0  12  10 20.9335 58.7581   5
 -10 -12   0 124.477 68.6490   1
   0  12  10 427.399 268.323   2
   0 -10  12 395.163 184.598   5
   0  10  12-46.2344 188.009   2
 -12 -10   0 15.0059 60.9931   1
   0 -10  12 42.7922 56.8920   4
 -12 -10   0-91.8024 177.565   4
  -2 -12  10 3374.69 446.278   2
 -10 -12   2 2852.36 474.268   4
  10   2  12 4287.77 603.079   1
   2  12  10 4370.46 465.070   1
  -2 -12  10 4369.07 485.881   1
 -10   2 -12 3897.94 214.158   2
 -12 -10   2 3357.46 356.980   1
   2  12  10 3611.81 342.090   3
 -10  12  -2 3350.20 505.801   2
   2  10  12 3997.33 431.597   3
   2  12  10 3281.96 513.767   2
 -12  10  -2 3516.91 502.588   2
  -2 -10  12 3558.82 485.799   1
  10  -2 -12 4125.90 515.360   3
  12  10   2 4014.21 395.139   1
 -10 -12   2 3808.97 273.798   1
  12  -2 -10 3606.78 493.054   3
  10 -12  -2 3760.87 486.427   1
  10 -12  -2 3349.14 304.035   3
   2  10  12 2815.86 423.114   1
  12 -10  -2 3379.37 500.739   1
  10  12   2 3650.51 502.958   3
  12   2  10 3387.37 556.670   1
  -2 -10  12 3439.68 500.633   5
  -2 -12  10 3777.61 507.916   5
   2  10  12 3118.97 467.139   2
  -2 -10  12 3472.78 346.396   4
  -2 -12  10 3430.11 395.424   4
  -2 -10  12 3422.40 398.706   2
 -12 -10   2 4653.67 585.748   4
 -10 -12   4 178.588 143.235   4
  -4 -12  10 35.1214 113.760   4
  10   4  12 48.3776 131.106   1
  -4 -12  10-35.0163 177.700   5
 -10  12  -4 260.658 194.463   2
  -4 -12  10 177.325 146.939   1
   4  10  12 209.275 140.290   3
 -12  10  -4 176.117 164.258   2
 -12 -10   4 16.6186 118.493   1
  10  -4 -12 107.778 162.670   3
   4  12  10-16.3802 112.443   1
  12  -4 -10-26.3417 176.405   3
  10 -12  -4-14.3413 61.1229   3
  -4 -10  12-120.195 186.555   1
  12 -10  -4 47.4640 91.1198   3
  10  12   4 26.5126 65.1019   1
  12   4  10 132.930 165.295   1
   4  10  12 87.0168 158.867   2
   4  12  10 72.2115 174.914   2
  -4 -10  12 336.879 200.237   5
  -4 -10  12 144.738 110.855   2
  12  10   4 179.384 122.269   1
   4  10  12-43.9012 145.986   1
  -4 -10  12 51.6106 74.3974   4
 -12 -10   4-36.9411 158.275   4
 -12   6 -10 21320.0 934.534   2
  12   6  10 21395.8 1346.27   1
  10  -6 -12 21236.7 1137.12   3
 -12  10  -6 21511.0 1215.98   2
  -6 -12  10 22435.7 1138.42   1
  12  -6 -10 19880.5 1108.82   3
  12 -10  -6 22274.7 990.399   3
  10   6  12 20557.1 1327.44   1
 -10 -12   6 21766.5 1310.81   4
 -12 -10   6 22001.2 1065.60   1
   6  12  10 23674.6 1099.07   1
  10  12   6 22125.7 896.293   1
  -6  12 -10 23281.9 1080.25   2
  12  10   6 24500.7 1136.47   1
 -10  12  -6 22226.3 1263.35   2
  -6 -10  12 21338.1 1079.04   4
 -12 -10   6 20784.7 1278.28   4
   6  10  12 20657.3 1187.64   1
  -6 -12  10 20210.3 1135.06   4
 -10  12  -8 276.215 197.866   2
 -12  10  -8 108.706 169.857   2
  12  10   8 235.134 150.969   1
   8  10  12 200.856 190.184   1
  10  12   8 254.394 146.571   1
  -8 -12  10 115.123 131.141   4
  10  -8 -12 177.230 131.604   3
  12  -8 -10 269.673 146.469   3
  12 -10  -8 51.6558 97.3341   3
  12   8  10-134.955 209.316   1
   8  12  10 254.860 140.895   1
  -8  12 -10 18.3488 99.8415   2
 -12  -8  10 306.182 224.773   4
  -8 -10  12 79.2139 112.533   4
 -12 -10   8 312.902 196.029   4
  10   8  12 25.6806 143.181   1
 -10 -12   8 1.76782 137.440   4
 -10 -12  10 26220.5 1451.43   4
  10  10  12 29183.1 1505.10   1
 -10 -10  12 25377.4 1367.55   4
 -12 -10  10 28391.6 1517.95   4
  12  10  10 28974.0 1447.58   1
 -11 -11 -12 86.9019 167.741   4
 -11 -12 -11-254.546 190.360   4
 -11  12  11 50.1079 149.228   2
 -11  11  12-340.929 314.370   2
 -12  11  11 186.874 180.762   2
  12 -11  11-281.351 215.890   1
  11  11 -12-18.8407 199.564   3
  11  12 -11-365.555 248.164   3
  11 -12  11 53.8680 233.109   1
  12  11 -11 352.027 251.135   3
  11 -11  12 14.6996 152.973   1
 -12 -11 -11-129.708 167.436   4
 -11  -9 -12 147.441 145.304   4
 -12 -11  -9 58.9512 178.888   4
 -11 -12  -9-161.597 175.197   4
  -9 -11 -12-1.79743 90.7265   4
  -9 -12 -11-108.664 201.451   4
  -9  12  11 308.256 207.627   2
  -9  11  12-50.3759 247.024   2
 -11  12   9 135.450 204.206   2
  12 -11   9-61.9744 170.741   1
 -12  11   9-70.9287 156.642   2
  11 -12   9 56.7670 191.537   1
 -11   9  12-70.0914 193.526   2
 -12   9  11-256.439 211.661   2
   9  11 -12 296.822 278.747   3
   9  12 -11-62.6083 208.100   3
  11   9 -12 267.422 259.920   3
  12   9 -11 68.2372 191.843   3
  11  12  -9 55.6752 222.378   3
  12  11  -9 262.846 248.394   3
  12  -9  11-107.836 192.651   1
   9 -12  11 139.001 202.683   1
  11  -9  12 177.275 211.641   1
   9 -11  12 22.1442 184.939   1
 -12  -9 -11-1.67287 130.759   4
 -12 -11  -7 2649.20 471.665   4
 -11 -12  -7 2890.39 499.477   4
  -7 -11 -12 3388.68 494.396   4
  -7 -12 -11 2692.08 455.204   4
  12 -11   7 2454.19 469.160   1
  11 -12   7 2485.49 450.275   1
  -7  11  12 3162.66 526.567   2
 -11  12   7 2445.62 492.870   2
 -12  11   7 2258.19 477.885   2
   7  11 -12 3225.88 570.215   3
   7  12 -11 2373.07 472.708   3
 -11   7  12 3004.11 512.231   2
 -12   7  11 3787.86 566.194   2
  11   7 -12 2486.34 503.496   3
  12   7 -11 3138.38 576.282   3
  11  12  -7 3478.04 570.911   3
  12  11  -7 2520.12 497.103   3
  12  -7  11 2678.17 542.091   1
   7 -11  12 3975.14 583.966   1
  11  -7  12 3072.20 556.307   1
   7 -12  11 2798.39 468.606   1
  -7  12  11 2730.53 510.477   2
 -12  -7 -11 2758.39 406.473   4
 -11  -7 -12 3752.77 458.432   4
  11 -12   5 4606.18 572.401   1
  12 -11   5 5606.34 659.568   1
 -12 -11  -5 4141.88 576.598   4
   5 -11  12 4603.53 350.537   4
 -11 -12  -5 3638.72 559.559   4
   5 -11  12 4812.20 610.573   1
  -5  12  11 5119.07 693.491   2
  -5  11  12 4786.58 654.798   2
  -5 -11 -12 4264.51 547.031   4
  -5 -12 -11 3586.62 531.274   4
 -11  12   5 4589.47 641.757   2
   5  11 -12 4303.61 621.201   3
   5  12 -11 5106.55 667.140   3
 -12  11   5 5263.01 672.377   2
   5 -12  11 5456.56 646.058   1
  11   5 -12 5349.69 696.376   3
  12   5 -11 4227.50 634.419   3
  11  12  -5 4874.98 645.465   3
  12  11  -5 4110.09 617.903   3
  12  -5  11 3443.06 592.255   1
  11  -5  12 4773.68 687.062   1
   5 -12  11 4333.78 423.136   4
 -11  -5 -12 4125.29 431.619   4
 -12  -5 -11 4643.94 479.928   4
   3 -12  11 8543.39 583.675   4
 -11  12   3 7568.84 802.384   2
 -12  11   3 8266.33 822.179   2
 -11 -12  -3 8747.27 851.380   4
  12  -3  11 10139.6 988.894   1
   3  12 -11 9323.33 863.924   3
  11   3 -12 8861.77 863.154   3
  11  -3  12 8435.53 898.873   1
  12   3 -11 8183.53 834.715   3
  11  12  -3 7879.52 811.023   3
  12  11  -3 9431.45 907.267   3
   3 -12  11 8313.03 748.142   1
  11 -12   3 8159.49 757.118   1
  12 -11   3 8450.59 798.955   1
   3 -12  11 9356.06 795.662   5
   3 -11  12 9195.60 825.344   1
   3  11 -12 8819.21 852.748   3
 -12  -3 -11 8082.67 634.970   2
  -3  11  12 8922.88 547.303   5
 -11  -3 -12 8906.80 572.897   4
 -12  -3 -11 8330.39 593.969   4
  -3  12  11 8888.03 890.427   2
  -3  11  12 9747.79 891.739   2
 -12 -11  -3 8612.17 828.738   4
   3 -11  12 9079.02 512.288   4
 -11  12   1 11337.7 959.212   2
 -12  11   1 8599.65 830.110   2
  12  -1  11 9512.75 948.250   1
  11   1 -12 11525.4 941.316   3
  12   1 -11 8896.37 836.263   3
  11  -1  12 11783.8 1052.36   1
   1 -12  11 10178.5 692.404   2
  -1  11  12 10496.8 616.243   5
  11  12  -1 11599.5 947.467   3
  11 -12   1 9013.03 784.150   1
  12 -11   1 9341.42 827.063   1
  12  11  -1 9627.67 890.047   3
  -1  11  12 9655.23 873.614   2
   1 -11  12 11028.2 883.079   5
   1 -12  11 10592.8 809.261   1
   1 -12  11 10675.5 835.843   5
  -1  12  11 11362.7 532.300   5
  -1  12  11 9098.38 872.449   2
   1 -11  12 8179.55 754.499   1
 -12 -11  -1 9444.93 862.701   4
 -11 -12  -1 10452.7 913.770   4
   1 -12  11 9541.12 617.422   4
  11   1  12 9452.39 947.997   1
 -11  12  -1 9179.58 856.289   2
 -12  11  -1 10286.3 896.204   2
  -1 -12  11 10458.2 847.170   5
  12   1  11 7917.27 872.283   1
  -1 -11  12 9505.63 792.952   1
  11  -1 -12 9836.56 848.898   3
  12  -1 -11 9664.29 840.569   3
  11 -12  -1 10185.6 838.295   1
  12 -11  -1 9115.33 813.063   1
  11  12   1 10940.4 914.112   3
  12  11   1 9705.35 877.678   3
  -1 -12  11 10132.8 783.019   1
   1  11  12 10091.7 879.230   2
   1  12  11 10372.8 781.406   1
   1  11  12 9904.07 804.288   1
   1  12  11 10674.1 928.542   2
  -1 -11  12 10410.2 868.866   5
  -1 -11  12 10367.7 709.183   2
  -1 -12  11 8780.98 705.705   2
 -12 -11   1 10171.8 901.295   4
  -1 -11  12 10020.4 614.420   4
 -11 -12   1 9993.11 891.188   4
  -1 -12  11 8860.48 625.842   4
  -3 -11  12 7411.42 650.553   2
 -12  11  -3 7658.12 750.694   2
   3  11  12 7529.07 609.023   3
  12   3  11 6676.97 784.205   1
  11  -3 -12 7898.24 727.444   3
  12  -3 -11 8152.69 744.634   3
  11   3  12 9226.64 918.050   1
  12 -11  -3 7823.50 759.794   1
  12  11   3 7824.75 535.657   1
  -3 -12  11 8202.50 683.613   1
  11 -12  -3 6909.78 459.638   3
  12 -11  -3 7648.35 551.258   3
   3  12  11 7808.27 644.809   1
   3  12  11 7351.23 754.590   2
   3  11  12 7993.50 758.836   2
  -3 -11  12 6813.46 665.072   1
   3  11  12 7405.09 674.588   1
  -3 -11  12 7505.05 757.126   5
  -3 -12  11 6829.10 705.771   5
  -3 -12  11 7349.79 671.004   2
  -3 -11  12 7279.98 558.395   4
 -12 -11   3 5754.18 675.755   4
 -11 -12   3 8291.07 800.548   4
  -3 -12  11 6968.45 585.001   4
 -11  12  -3 6709.45 721.313   2
   5  11  12 4414.04 520.966   1
 -12  11  -5 3855.10 517.576   2
  11  -5 -12 4520.04 526.669   3
  12  -5 -11 4469.44 527.262   3
  11 -12  -5 4330.42 332.348   3
  12 -11  -5 4151.81 379.289   3
  -5 -11  12 3404.60 482.699   1
  11  12   5 3918.68 345.991   1
  12  11   5 4304.32 420.240   1
  12   5  11 3497.35 551.618   1
   5  11  12 4028.54 545.403   2
   5  12  11 5126.15 632.549   2
  -5 -11  12 3412.98 526.426   5
  -5 -11  12 4370.33 459.476   4
   5  12  11 3508.10 439.049   1
  11   5  12 3575.06 568.657   1
  -5 -12  11 4584.01 510.391   1
 -11  12  -5 5125.63 604.018   2
 -12 -11   5 3729.34 542.227   4
  -5 -12  11 3786.31 453.398   4
 -11 -12   5 3700.02 544.628   4
  12  11   7 2479.91 358.472   1
 -11  12  -7 2514.97 420.727   2
 -12  11  -7 2927.18 450.111   2
   7  12  11 2686.81 391.410   1
  12 -11  -7 2749.46 309.006   3
  11  -7 -12 2967.19 407.177   3
  12  -7 -11 2707.33 386.570   3
   7  11  12 2164.66 375.195   1
  12   7  11 2215.94 430.262   1
  -7 -12  11 2781.81 423.119   1
  11   7  12 3245.95 528.592   1
  -7 -11  12 3089.46 420.252   4
 -12 -11   7 2064.26 409.877   4
  -7 -12  11 2438.96 388.600   4
 -11 -12   7 2590.53 458.336   4
  12  11   9 9.64963 128.453   1
  11  -9 -12 94.3549 103.894   3
  12  -9 -11 110.581 106.962   3
  12   9  11 327.172 234.006   1
  11   9  12-87.0957 151.045   1
 -12  -9  11 256.240 182.825   4
   9  11  12 78.7791 141.822   1
  -9 -11  12-30.7022 166.422   4
 -12 -11   9-194.736 213.624   4
  -9 -12  11-433.493 202.935   4
 -11 -12   9 121.479 195.455   4
 -11 -11  12 286.196 187.077   4
 -12 -11  11 366.027 229.320   4
 -11 -12  11-65.0580 130.339   4
 -12 -12 -12 18534.8 1304.67   4
  12 -12  12 19067.3 1451.33   1
 -12 -12 -10 70.0177 143.337   4
 -10 -12 -12 149.607 197.148   4
 -10  12  12 12.5838 180.010   2
 -12  12  10-183.193 233.388   2
  12 -12  10 44.6647 251.294   1
 -12  10  12 280.252 245.426   2
  10  12 -12 151.628 287.293   3
  12  10 -12 109.315 202.659   3
  12  12 -10 181.842 203.537   3
  12 -10  12-15.3080 249.499   1
  10 -12  12-330.809 265.527   1
 -12 -10 -12 212.210 159.991   4
  -8 -12 -12 23570.7 1426.17   4
  -8  12  12 23485.0 1581.39   2
 -12  12   8 25002.1 1605.60   2
  12  -8  12 27010.6 1704.54   1
  12 -12   8 24081.2 1523.50   1
   8 -12  12 24971.2 1539.23   1
 -12   8  12 27692.9 1632.72   2
   8  12 -12 25379.4 1642.66   3
  12   8 -12 28535.1 1774.88   3
  12  12  -8 27342.1 1711.63   3
 -12  -8 -12 23779.9 1292.61   4
 -12 -12  -8 26039.2 1552.28   4
 -12 -12  -6 23.0820 142.944   4
  12 -12   6 49.2686 152.110   1
  -6  12  12-47.9603 205.780   2
  -6 -12 -12-223.306 169.290   4
 -12  12   6-57.9381 192.248   2
   6  12 -12 11.2145 186.740   3
  12   6 -12-40.1024 176.602   3
  12  12  -6 205.312 228.023   3
  12  -6  12 22.1545 193.112   1
   6 -12  12-159.909 217.542   1
 -12  -6 -12 25.3041 123.796   4
   4  12 -12 12311.7 1035.02   3
  12  -4  12 10522.9 1033.66   1
  12   4 -12 10747.1 998.570   3
  12  12  -4 11869.2 1031.68   3
   4 -12  12 10035.2 872.484   1
  12 -12   4 11114.9 931.887   1
 -12  -4 -12 10746.5 687.755   4
 -12  12   4 11704.0 1026.41   2
  -4  12  12 11112.5 1017.25   2
 -12 -12  -4 12586.9 1042.44   4
 -12 -12  -2-12.3061 213.334   4
   2 -12  12 24.0200 54.4908   4
   2 -12  12-164.484 164.445   5
 -12  12   2 153.103 184.641   2
  12   2 -12-34.2756 190.592   3
   2 -12  12-41.7126 134.266   1
  12  12  -2 84.4566 145.670   3
  12  -2  12-26.4007 152.757   1
  12 -12   2-1.79108 154.258   1
  -2  12  12 254.835 199.264   2
 -12 -12   0-62.8766 189.022   4
   0 -12  12 192.322 101.312   4
 -12  12   0 324.651 233.966   2
  12   0 -12-549.855 229.854   3
  12  12   0 101.314 152.267   3
  12 -12   0-72.1998 128.892   1
  12   0  12 66.3171 174.108   1
   0  12  12 7.06112 68.2178   5
   0 -12  12-5.25562 153.578   5
   0 -12  12 89.5521 174.427   1
   0  12  12 181.504 213.811   2
  12   2  12-102.024 176.368   1
 -12  12  -2-1.95301 189.945   2
  12  -2 -12 116.469 147.478   3
  12 -12  -2 67.3449 147.444   1
  -2 -12  12-72.3729 114.717   1
  12 -12  -2-62.2827 104.270   3
  12  12   2 11.5390 137.496   3
   2  12  12-112.067 185.208   2
  -2 -12  12-39.9329 159.218   5
   2  12  12 131.612 141.087   1
 -12 -12   2 28.2083 146.731   4
  -2 -12  12-22.3033 90.0531   4
  12   4  12 11549.0 1048.08   1
  12  -4 -12 9627.24 824.951   3
   4  12  12 9596.39 763.736   1
  12 -12  -4 12847.1 672.006   3
  -4 -12  12 10667.0 820.597   1
   4  12  12 10709.8 930.854   2
  -4 -12  12 11168.8 955.493   5
 -12 -12   4 13235.4 1056.00   4
  -4 -12  12 9987.79 717.886   4
 -12  12  -4 11181.4 945.779   2
 -12  12  -6-43.4357 194.582   2
  -6 -12  12-128.023 148.909   1
  12  -6 -12 37.0088 142.025   3
   6  12  12 2.78282 86.9192   1
  12   6  12 107.066 168.913   1
  -6 -12  12 93.7800 132.498   4
 -12 -12   6-223.271 180.630   4
  12  -8 -12 23166.7 1198.76   3
  -8 -12  12 23484.6 1276.70   4
   8  12  12 23666.4 1249.98   1
  12   8  12 21828.2 1401.27   1
 -12 -12   8 23919.5 1441.46   4
 -12  12  -8 21579.9 1267.14   2
 -10 -12  12 83.4345 170.919   4
  12  10  12-27.9378 153.011   1
 -12 -10  12 154.370 153.116   4
 -12 -12  10 324.846 233.578   4
 -12 -12  12 18195.8 1246.93   4
  -1   0  13 13432.0 608.443   2
   1   0  13 14105.8 502.000   2
   1  13   0 12989.7 577.874   3
   0  -1 -13 14368.6 533.717   4
  -1  13   0 14104.9 556.830   1
  13   0  -1 13501.9 961.927   1
  13   1   0 13828.8 963.216   1
   1   0  13 13083.5 992.978   1
  13  -1   0 13966.3 986.618   1
  13   0   1 12507.3 930.387   1
   1  13   0 13835.1 1009.06   2
   0  13  -1 13666.8 987.111   2
   1   0 -13 13986.0 550.532   4
   0  13   1 13328.8 998.826   2
   0  -1  13 13261.0 1001.99   1
  -1  13   0 12518.9 962.088   2
   0   1  13 13905.7 625.216   2
   0  -1  13 14668.7 530.526   2
   0   1 -13 13801.0 413.132   4
  -2  -1 -13 8999.76 316.814   4
  -2  -1 -13 9358.80 306.906   4
  -2   1  13 8249.64 527.843   2
   1  13  -2 9254.30 554.329   3
   1   2 -13 8827.56 375.667   4
   2  13  -1 8878.22 532.767   3
 -13  -2  -1 8928.77 718.716   1
   1  -2  13 8983.86 815.789   1
  -1   2  13 8424.84 719.998   3
  13   1  -2 8892.44 772.106   1
   2 -13   1 8498.90 447.809   1
  -1  13   2 8630.00 423.920   1
  13   2  -1 8059.27 735.032   1
   1 -13   2 9171.81 427.748   1
   1 -13   2 9096.52 487.615   3
  13  -2   1 7870.94 742.109   1
  -2  13   1 8907.08 490.066   1
  -1  13   2 9153.16 823.439   2
  13  -1   2 8447.31 760.885   1
   2  13  -1 9143.24 813.285   2
   1  13  -2 9644.83 828.444   2
  -2   1  13 8783.92 740.488   5
  -2  13   1 9407.75 836.712   2
   2   1 -13 8865.31 443.938   4
  -1   2  13 8984.35 554.638   2
   2  -1  13 8259.59 783.077   1
  -1  -2  13 10600.2 464.260   2
   1  13   2 9251.63 367.429   3
   2  13   1 9162.91 476.971   3
  -2  13  -1 10138.0 548.250   1
  13  -1  -2 8822.49 786.301   1
  13  -2  -1 8068.73 755.501   1
  13   2   1 8482.73 761.347   1
  13   1   2 8896.94 781.297   1
   2   1  13 8673.48 814.795   1
   2   1  13 9738.00 403.372   2
   1   2  13 9015.60 822.535   1
   2  13   1 9611.83 843.572   2
   1  13   2 8556.27 797.974   2
  -1  13  -2 9284.38 807.236   2
  -2  -1  13 7985.91 727.402   5
  -2  13  -1 10893.1 883.092   2
   1   2  13 9959.83 539.341   2
   2  -1 -13 9504.78 499.117   4
  -3  -2 -13 13721.9 485.890   4
  -2   3  13 12191.6 714.727   2
  -3   2  13 10976.6 846.047   5
   2   3 -13 12662.0 543.991   4
  -2  13   3 12010.5 603.864   1
  -3   2  13 13204.9 735.735   2
   3   2 -13 13431.6 912.726   3
   2  13  -3 13055.1 730.081   3
  -3  13   2 13263.0 678.041   1
   3  13  -2 12526.9 719.919   3
  -2   3  13 13260.2 906.699   3
  13   2  -3 13255.9 943.075   1
 -13  -3  -2 11707.8 827.812   1
  13   3  -2 11957.0 892.994   1
   3 -13   2 13638.2 577.696   3
   2 -13   3 12044.5 612.817   3
   3 -13   2 11435.9 609.519   1
   3  -2  13 11431.5 942.200   1
  13   2  -3 12731.4 997.879   3
  13  -3   2 13075.9 960.313   1
   3  13  -2 11651.0 927.572   2
   2  13  -3 11629.3 912.882   2
   2 -13   3 12261.6 593.765   1
  13  -2   3 12475.5 944.962   1
  -2   3  13 12359.9 872.055   5
   3 -13   2 12225.0 550.038   5
   2  -3  13 11701.3 935.240   1
   2 -13   3 12960.5 629.329   5
  -2  13   3 12251.7 964.926   2
  -3  13   2 11790.3 962.159   2
 -13  -3  -2 12146.7 806.244   4
  13  -2   3 12298.1 775.372   4
   3   2 -13 12956.8 595.125   4
   0  -3  13 5304.09 228.671   2
 -13  -3   0 6303.25 591.897   1
  -3 -13   0 5058.77 599.399   4
   3   0 -13 5451.81 562.923   3
   0  13   3 5465.27 280.494   1
   0   3  13 4980.26 545.620   3
   3  13   0 5773.45 429.040   3
   3 -13   0 5622.66 389.402   1
  13   3   0 4901.37 558.904   1
   0  -3  13 6312.52 682.795   1
  13  -3   0 6204.88 647.865   1
   0 -13   3 5789.32 427.592   3
  13   0  -3 4495.37 566.336   1
  -3   0  13 4357.53 538.570   5
   3  13   0 4443.83 588.877   2
   0 -13   3 5603.22 307.674   1
   0  -3  13 5567.12 235.480   2
   0  13  -3 4954.53 584.103   2
  -3  13   0 4742.50 405.225   1
   3   0  13 4875.01 609.482   1
 -13  -3   0 4305.78 478.931   4
   0   3  13 4667.12 407.213   2
   3   0 -13 5584.60 389.352   4
   0  13   3 4518.76 585.287   2
  13   0   3 5447.08 505.355   4
  -3  13   0 4580.54 584.054   2
  13   0   3 4798.06 578.284   1
  -3 -13   2 11016.2 878.881   4
  -2 -13   3 11610.0 879.584   4
   2   3  13 11786.9 939.133   1
  -2  13  -3 12659.1 681.725   1
   2  13   3 12078.8 489.397   3
  -3  13  -2 12261.4 687.045   1
   3  13   2 11691.2 580.560   3
  13  -2  -3 10959.7 886.322   1
  13  -3  -2 12268.7 928.420   1
  13   3   2 10770.8 845.105   1
   3  13   2 12706.2 973.662   2
  -2  -3  13 11202.4 867.333   5
  13   2   3 12195.2 918.112   1
   2  13   3 10937.7 914.126   2
   2   3  13 12091.2 616.247   2
   2  13   3 11543.6 482.599   5
  -2  13  -3 11708.5 911.063   2
  -3  -2  13 10861.2 852.715   5
   3  13   2 11702.3 576.605   5
  -3  13  -2 10024.0 856.063   2
   3   2  13 11613.7 934.783   1
 -13  -3   2 12253.7 852.374   1
  -4  13   3 4635.78 614.904   2
  -3   4  13 5399.10 503.564   2
   3   4 -13 6169.72 405.752   4
  13  -3   4 4686.43 591.773   1
  -3  -4 -13 4959.31 387.253   4
 -13  -4  -3 5801.27 558.620   4
  -4 -13  -3 5311.97 613.671   4
   3 -13   4 5588.51 588.285   2
  -4   3  13 5253.74 491.182   2
   3   4 -13 5653.84 613.776   3
   4   3 -13 4381.30 541.964   3
   3  13  -4 5146.32 490.181   3
   4  13  -3 5805.07 514.173   3
   4 -13   3 5841.50 395.152   3
  -3   4  13 4446.32 525.269   3
   3 -13   4 5811.89 428.307   3
  -4   3  13 6114.66 615.010   3
   3  -4  13 6124.60 670.977   1
  13  -3   4 5565.13 505.071   4
 -13  -4  -3 4558.13 509.056   1
   4  -3  13 5095.01 627.221   1
  13   3  -4 5727.81 683.109   3
  13   4  -3 4970.16 639.198   3
   4 -13   3 5330.94 431.885   1
  13  -4   3 4756.75 589.105   1
   4 -13   3 5654.77 388.787   5
  -3   4  13 5106.02 551.888   5
   3 -13   4 5240.77 404.941   5
  -4   3  13 6159.19 604.890   5
   3 -13   4 2511.68 320.638   1
 -13  -3  -4 5994.15 549.632   4
   4   3 -13 5063.23 392.732   4
  -3  13   4 5431.66 434.923   1
  -3  13   4 4936.96 628.663   2
  -4  -3 -13 5183.94 328.024   4
  -4   1  13 12254.1 898.867   5
   1 -13   4 11825.4 880.526   2
  -4 -13  -1 13138.0 978.656   4
   1  13  -4 11710.0 713.421   3
   4   1 -13 12030.7 857.330   3
  -1  13   4 11966.8 962.812   2
 -13  -4  -1 11040.9 791.863   1
  -1   4  13 11760.5 843.747   3
   4  13  -1 11965.7 700.893   3
  -4  13   1 11085.2 670.014   1
   4 -13   1 12495.6 476.996   3
  13   4  -1 10649.9 822.097   1
   4  -1  13 12126.3 971.027   1
   1 -13   4 12293.8 667.766   3
   4 -13   1 12120.2 649.775   1
  13   1  -4 12393.7 969.390   3
  13  -4   1 12270.9 931.387   1
   4 -13   1 11714.0 461.192   5
   1  13  -4 10995.8 880.289   2
  13  -1   4 12403.9 955.998   1
   1 -13   4 12438.3 661.137   5
   4  13  -1 11477.7 690.979   5
  -4  13   1 13098.3 992.545   2
   1 -13   4 12228.0 578.853   1
 -13  -4  -1 12553.2 837.096   4
  -1  13   4 12500.2 573.205   1
   4   1 -13 12213.6 629.448   4
  -1   4  13 11156.9 706.475   2
   1  -4  13 11676.4 938.246   1
  13  -1   4 11791.0 746.357   4
  -4  13  -1 12648.9 731.560   1
 -13  -4   1 13387.9 860.395   1
  -1 -13   4 13042.3 511.305   1
  -1  -4  13 13469.8 1004.84   1
  -1 -13   4 13906.4 953.922   4
   4  -1 -13 12279.2 841.247   3
   1   4  13 12198.6 868.861   3
   4  13   1 13631.7 704.769   3
   1   4  13 13977.8 755.270   2
  13  -4  -1 12420.4 941.171   1
  13   4   1 14278.8 952.948   1
   4   1  13 12243.3 978.535   1
  -1 -13   4 13111.4 737.398   3
  13  -1  -4 11996.9 920.279   3
   4  13   1 14120.6 1028.83   2
  -1  -4  13 13668.9 528.711   2
  -1  13  -4 14097.9 981.087   2
   1  13   4 11602.0 426.359   1
   1  13   4 13094.1 1001.07   2
  -4  13  -1 11388.8 933.666   2
  -1  -4  13 12030.7 917.258   5
   4  13   1 12822.0 678.250   5
  13   1   4 13065.1 964.383   1
  -4  -1  13 13362.8 959.606   5
 -13  -4   1 12124.2 834.918   4
  13   1   4 13139.6 794.770   4
   1  13   4 12518.0 427.504   1
  -4 -13   1 13224.4 959.670   4
  -4 -13   3 5026.93 589.470   4
  -3 -13   4 6430.57 643.145   4
   3  13   4 4746.19 603.523   2
  13  -4  -3 5619.90 634.033   1
   3  13   4 5634.17 371.997   3
   4  13   3 5624.15 427.549   3
  13  -3  -4 4500.97 570.713   1
  -4  -3  13 4576.21 574.805   5
  13  -3  -4 4581.41 542.890   3
   4   3  13 5936.33 665.471   1
  13   4   3 5828.67 613.038   1
   3   4  13 5238.02 411.651   2
  -3  13  -4 6347.97 656.044   2
   4  13   3 5157.90 623.721   2
  -3  -4  13 5669.07 627.779   5
  13   3   4 5332.21 596.982   1
  -4  13  -3 5296.51 613.661   2
   3  13   4 5679.37 373.274   5
   4  13   3 5155.19 406.655   5
   3   4  13 4682.09 580.124   1
 -13  -4   3 5109.34 540.714   4
 -13  -4   3 5591.78 562.109   1
  -3 -13   4 5797.00 240.658   1
  -4   5  13 7900.35 655.253   2
  -4  -5 -13 8183.46 542.522   4
   4   5 -13 8530.22 543.109   4
   4  -5  13 7810.73 781.155   1
  13  -5   4 8612.82 805.891   1
  -4  13   5 8948.61 852.433   2
  -5 -13  -4 8338.79 792.943   4
  -5   4  13 8512.35 673.472   2
   4   5 -13 8237.59 766.896   3
   5   4 -13 9487.02 813.282   3
   4 -13   5 8976.86 731.446   2
  -5  -4 -13 9289.06 558.679   2
   4  13  -5 8479.29 683.379   3
   5 -13   4 9110.51 555.247   3
   5  13  -4 8098.07 671.821   3
  -4   5  13 9768.85 759.951   3
   4 -13   5 8466.39 567.178   3
  -5   4  13 8818.48 744.521   5
  -5   4  13 8955.03 752.670   3
  13   4  -5 8179.73 816.889   3
  13   5  -4 7477.08 805.359   3
   5 -13   4 8483.00 601.990   1
   4 -13   5 9306.33 585.307   5
  -4   5  13 8356.76 703.095   5
 -13  -5  -4 7913.61 683.650   1
  13  -4   5 7941.34 785.814   1
 -13  -4  -5 8721.72 683.836   4
 -13  -5  -4 7320.75 655.090   4
  13  -4   5 9422.39 659.006   4
   4 -13   5 7724.53 571.829   1
  -5  13   4 9401.24 869.772   2
  -5  13   4 9382.56 658.828   1
   5  -4  13 6917.44 750.461   1
  -5  -4 -13 9014.65 503.394   4
   2  -5  13 2295.68 431.066   1
  -5  13   2 2846.06 479.847   2
  -2  13   5 2266.20 275.613   1
 -13  -5  -2 2143.70 341.119   1
  -2   5  13 2156.86 334.271   2
  -5 -13  -2 1854.85 372.651   4
  13  -2   5 2896.99 475.829   1
   2   5 -13 2498.24 426.479   3
   2 -13   5 2952.90 422.830   2
   2  13  -5 2363.53 343.358   3
   5   2 -13 1959.76 378.769   3
   5 -13   2 2642.15 239.720   3
   5  13  -2 3118.99 387.328   5
   5  -2  13 2655.37 475.756   1
   2 -13   5 2155.40 271.107   1
  -2   5  13 2161.43 344.293   3
   5  13  -2 1999.20 309.416   3
  13   5  -2 2744.69 411.949   1
   2 -13   5 2454.75 302.176   3
  13   2  -5 3325.11 505.851   3
  13   5  -2 1651.54 393.242   3
  -5   2  13 2982.84 448.921   5
   5 -13   2 2210.29 220.366   5
   5 -13   2 2104.29 287.289   1
   2 -13   5 2569.63 301.191   5
  -5  -2 -13 2395.56 170.964   4
  13  -5   2 3583.87 508.835   1
  -2   5  13 2015.41 342.665   5
 -13  -5  -2 2634.99 394.655   4
  -2  13   5 3143.59 509.382   2
  13  -2   5 3006.84 360.355   4
   0 -13   5 6593.37 414.767   1
  -5 -13   0 5699.69 643.830   4
   0  -5  13 4966.34 628.740   1
   5   0 -13 5958.04 597.004   3
 -13  -5   0 6528.48 586.186   1
   5   0  13 6403.21 697.599   1
   0   5  13 6084.31 592.596   3
   5  13   0 5966.08 503.560   3
   5 -13   0 6174.76 241.808   3
   5 -13   0 7001.78 511.546   1
  13   5   0 5778.07 596.192   1
   0 -13   5 5726.64 494.426   3
  13  -5   0 5779.84 635.001   1
   0   5  13 6945.18 561.692   2
  -5   0  13 5474.96 612.857   5
  13   0  -5 4754.65 597.277   3
   0  13  -5 6512.26 652.551   2
   0  13   5 6592.96 390.747   1
   0  13   5 5404.66 650.334   2
   5  13   0 6619.25 530.991   5
   0 -13   5 6138.12 495.585   5
   0  -5  13 6415.14 289.174   2
   5 -13   0 6146.33 242.451   5
  13   0   5 6315.00 673.500   1
  -5  13   0 6536.33 701.991   2
 -13  -5   0 6841.92 627.049   4
  13   0   5 6089.30 521.758   4
   0 -13   5 6850.31 655.021   2
  13   2   5 2763.75 361.819   4
  -5 -13   2 2468.00 433.633   4
  -2 -13   5 2281.08 383.311   4
  13   2   5 1295.35 324.152   1
  -2 -13   5 1861.84 192.187   1
   5  -2 -13 2638.98 381.115   3
   2   5  13 3118.26 428.980   3
 -13  -5   2 1949.00 324.616   1
   2  13   5 2330.66 187.231   5
   2  13   5 2106.48 183.118   3
   5  13   2 2140.86 291.640   3
  13  -2  -5 1975.78 377.637   3
  -2 -13   5 2236.22 321.502   3
  13  -5  -2 2893.37 467.036   1
  -2  13  -5 2197.50 383.930   2
  -2  -5  13 2465.47 247.520   2
   2  13   5 2316.29 166.169   1
   5   2  13 2330.38 450.087   1
   2  13   5 2283.46 420.569   2
  -2  -5  13 2861.22 448.498   5
  13   5   2 2435.32 399.162   1
  -5  -2  13 2025.54 379.637   5
   5  13   2 2685.71 322.247   5
   2   5  13 2706.38 342.616   2
   2   5  13 2264.60 421.099   1
   5  -2 -13 2700.31 323.338   4
 -13  -5   2 2362.51 370.630   4
   2  13   5 2309.74 174.263   1
  -5  13  -2 2352.28 432.468   2
  -5 -13   4 8847.43 777.089   4
  -4 -13   5 7471.29 695.515   4
  -4  13  -5 7898.02 660.530   1
 -13  -5   4 8479.39 708.162   4
   5  -4 -13 8270.75 660.517   3
  -4 -13   5 8794.69 389.685   1
  13  -5  -4 8408.94 784.065   1
   5   4  13 9801.88 862.072   1
  -5  13  -4 7754.76 662.646   1
  -4 -13   5 8987.69 398.618   1
  13  -4  -5 8217.87 709.991   3
   5  13   4 10154.5 625.831   3
   4  13   5 7896.72 510.653   3
  13  -5  -4 7445.19 671.899   3
   5  13   4 9743.05 868.226   2
   4   5  13 6525.70 509.016   2
   4   5  13 7831.03 756.753   1
   4  13   5 7998.04 796.214   2
  -5  -4  13 8706.27 790.835   5
  13   5   4 8221.63 729.485   1
  -4  13  -5 8543.61 760.012   2
  -4  -5  13 8095.70 762.980   5
  13   4   5 7840.77 742.994   1
  -5  13  -4 7417.51 727.760   2
  -5  13   6 3049.04 404.220   1
   6   5 -13 3700.26 398.589   4
  -5  -6 -13 3311.64 368.129   4
  -5  13   6 3312.14 529.667   2
  13  -6   5 3367.05 520.974   1
  -6  13   5 3547.85 555.140   2
  -6 -13  -5 3955.17 552.734   4
   5   6 -13 2474.99 320.524   4
   6 -13   5 3026.42 391.805   1
  -6  13   5 2245.05 369.731   1
 -13  -6  -5 3583.52 453.188   1
  13  -5   6 2898.25 506.260   1
  -5   6  13 3121.82 441.189   2
   5 -13   6 3565.88 383.467   3
   5   6 -13 3476.54 522.638   3
  -6   5  13 2543.23 404.196   2
   6   5 -13 3150.76 494.436   3
   5 -13   6 3191.67 391.016   1
   6 -13   5 3049.39 347.226   3
   5  13  -6 3143.91 449.011   3
   6  13  -5 2498.22 410.848   3
  -5   6  13 3142.90 432.788   3
  13   5  -6 3960.98 575.123   3
  13   6  -5 2361.82 489.248   3
  -6   5  13 3543.01 474.693   3
   6  -5  13 2773.10 483.913   1
   5  -6  13 3138.51 496.173   1
  -5   6  13 3036.04 420.221   5
  -6   5  13 2866.39 422.907   5
  13  -5   6 3763.13 410.237   4
  -5 -13  -6 3334.06 508.243   4
 -13  -5  -6 3133.50 421.039   4
 -13  -6  -5 3462.46 456.990   4
  -6  -5 -13 3212.36 329.484   4
   3 -13   6 13964.5 773.263   1
  -6 -13  -3 11741.5 962.567   4
   3 -13   6 14065.0 934.486   2
   3   6 -13 13699.7 1002.56   3
  -6  -3 -13 13477.8 637.667   2
   3  -6  13 12810.7 995.580   1
   3  13  -6 13622.7 892.329   3
   6   3 -13 14801.2 1022.32   3
  -3  13   6 14425.5 1093.49   2
  -3   6  13 13588.1 879.117   5
   6 -13   3 13927.9 667.575   3
   6  13  -3 13460.4 883.887   3
   3 -13   6 15225.4 822.369   3
  -6   3  13 14490.7 883.140   2
  -3   6  13 13499.5 885.612   3
  13   3  -6 13961.4 1072.13   3
  -6  -3 -13 14502.8 587.432   4
  13   6  -3 13293.7 1077.44   3
  -6   3  13 13776.4 971.329   5
   6 -13   3 13319.3 793.900   1
 -13  -6  -3 14505.3 892.468   1
  13  -6   3 12777.5 997.707   1
   6  13  -3 14386.9 910.562   5
  13  -3   6 14661.3 1097.56   1
   3 -13   6 13243.2 763.187   5
  -6  13   3 13554.0 856.299   1
   6  -3  13 11818.1 991.848   1
  -3   6  13 14692.6 925.259   2
 -13  -3  -6 14045.3 850.733   4
 -13  -6  -3 14116.8 937.890   4
  13  -3   6 14070.7 797.367   4
  -6  13   3 14680.0 1089.30   2
   6   3 -13 13376.6 756.335   4
   1 -13   6 10775.7 825.147   2
  -6 -13  -1 10918.8 909.072   4
   1 -13   6 12687.4 675.250   1
   1  13  -6 10052.4 740.315   3
   6   1 -13 11383.1 866.040   3
  -6  13   1 10166.8 744.077   1
   6 -13   1 11583.1 485.135   3
  -1   6  13 11239.7 794.000   3
 -13  -6  -1 13187.7 824.246   1
   6  13  -1 10977.1 755.423   3
  13   6  -1 11186.6 813.486   1
   1 -13   6 10854.5 701.349   3
  13   1  -6 11903.4 945.804   3
   6 -13   1 11569.0 720.511   1
  13  -6   1 11138.2 896.539   1
  -1  13   6 11192.4 618.359   1
   1  -6  13 11159.8 908.354   1
   6  13  -1 10984.0 756.063   5
   1 -13   6 10787.4 689.109   5
  -1  13   6 11315.5 952.834   2
  -6   1  13 10609.3 866.514   5
 -13  -6  -1 11271.8 836.651   4
  -1   6  13 11628.5 794.654   2
  13  -1   6 9362.26 880.078   1
  -6  13   1 11437.6 945.317   2
   6   1 -13 11303.3 684.885   4
  13  -1   6 11711.2 719.045   4
   6  -1  13 12071.9 986.291   1
  -6 -13   1 10385.6 871.335   4
   6   1  13 11304.3 945.913   1
  -1 -13   6 11114.8 831.715   4
  -1 -13   6 11044.2 726.298   5
 -13  -6   1 13264.4 828.173   1
   6  -1 -13 13016.0 893.041   3
   1   6  13 11312.6 818.213   3
  -1  -6  13 11326.1 919.707   1
  -1 -13   6 12255.5 610.035   1
   6 -13  -1 12659.5 740.846   1
   6  13   1 11180.4 738.376   3
  13  -6  -1 12623.7 949.003   1
  13   6   1 11294.3 821.565   1
  -1 -13   6 10183.3 710.215   3
  13  -1  -6 11439.7 896.897   3
   1  13   6 10949.2 555.711   1
   6  -1 -13 11267.7 706.887   4
   1  13   6 11526.9 548.200   1
  -6  13  -1 11681.4 801.335   1
  -1  13  -6 11874.4 882.791   2
   1  13   6 11474.0 948.271   2
  -1  -6  13 10730.1 875.287   5
  -1  -6  13 11764.7 554.035   2
   1   6  13 12047.0 788.017   2
  -6  -1  13 12550.3 960.049   5
 -13  -6   1 11390.3 838.215   4
  -6  13  -1 11311.3 924.527   2
  13   1   6 12266.1 979.692   1
  -1 -13   6 11401.5 879.660   2
  13   1   6 11801.0 742.070   4
   6  13   1 11505.8 746.243   5
  -6 -13   3 14631.8 1022.21   4
  -3 -13   6 14524.8 961.358   4
   6   3  13 12562.4 998.747   1
   3   6  13 11852.6 873.174   3
   6  -3 -13 13798.3 892.343   3
  13  -6  -3 13828.3 1015.78   1
   3  13   6 14600.5 538.500   1
  13  -3  -6 13779.0 953.534   3
  -6  -3  13 14083.6 1036.77   5
   6  13   3 13650.5 813.037   3
  -3 -13   6 14478.3 898.356   3
  -3 -13   6 14467.1 632.360   1
  13   6   3 12188.3 876.074   1
  -3  -6  13 13846.9 702.314   2
   3  13   6 13943.4 551.301   1
   3   6  13 14347.6 819.741   2
   3  13   6 13353.6 1019.86   2
  -3  13  -6 13530.6 951.549   2
  -3  -6  13 13967.6 1010.47   5
  13   3   6 13244.7 1008.99   1
  -6  13  -3 13641.9 1005.71   2
 -13  -6   3 13418.4 928.352   4
 -13  -6   3 13902.9 872.810   1
   3   6  13 13936.9 1017.13   1
  -6  13  -3 14181.5 920.872   1
  -6 -13   5 3709.75 252.347   1
  -6  13  -5 3400.66 460.454   1
  13   6   5 2687.05 423.323   1
  -5  13  -6 3363.92 472.443   1
  -6 -13   5 3121.45 458.414   4
  -5 -13   6 2159.69 375.553   4
  13   5   6 3312.04 494.397   1
   6  -5 -13 2596.00 370.333   3
   6   5  13 3033.94 489.798   1
  -5 -13   6 3268.47 264.086   1
  -6 -13   5 3783.50 240.669   1
  13  -5  -6 3502.34 464.544   3
  13  -6  -5 3351.10 437.696   3
  -5  -6  13 2924.81 474.651   5
   5  13   6 3425.46 523.950   2
  -6  -5  13 3959.56 553.626   5
  -5  13  -6 3238.81 463.267   2
   5   6  13 2829.81 463.744   1
 -13  -6   5 2406.79 403.299   4
  -6  13  -5 3188.17 467.951   2
   5  13   6 3231.90 210.350   1
  -5 -13   6 3208.13 280.826   1
  -6  -7 -13 5593.02 507.367   4
   7   6 -13 5925.74 554.053   4
  -7 -13  -6 5449.36 662.045   4
  -6 -13  -7 6792.30 724.662   4
  -6  -7 -13 5894.17 574.916   2
   6   7 -13 5474.19 518.682   4
  -7   6  13 6178.75 648.635   2
  -7  13   6 5500.77 694.654   2
   7 -13   6 6593.85 544.940   3
   6 -13   7 6231.01 554.532   3
   6  13  -7 5329.58 615.191   3
  13  -6   7 5527.14 698.175   1
   7  13  -6 5482.76 628.096   3
   6   7 -13 6017.37 697.102   3
   7   6 -13 5199.96 653.775   3
  13   6  -7 5992.09 724.208   3
   6  -7  13 5885.80 701.692   1
  -6   7  13 5296.98 604.634   2
  -6   7  13 6006.24 593.985   3
  -7   6  13 5828.51 609.349   3
  13   7  -6 5218.37 707.140   3
   7  -6  13 6341.27 742.015   1
  -6  13   7 5894.77 595.840   1
  13  -7   6 7194.00 774.459   1
  -6  13   7 6070.56 739.465   2
   7 -13   6 6652.21 614.256   1
  13  -6   7 6563.05 538.183   4
 -13  -6  -7 5546.53 575.564   4
 -13  -7  -6 5338.73 588.068   4
  -7  -6 -13 5546.74 540.042   2
   6 -13   7 5395.82 551.479   1
  -7  -6 -13 5795.48 485.778   4
 -13  -7  -4 424.275 170.755   1
   7 -13   4 433.053 190.226   1
  13  -7   4 174.154 168.321   1
  -4  13   7 509.626 273.600   2
   7   4 -13 256.270 118.137   4
  -7 -13  -4 237.113 154.655   4
  -7  13   4 315.519 183.172   2
  -4  -7 -13 456.040 169.169   4
  -4   7  13 243.751 177.974   2
  -7  -4 -13 298.740 120.493   2
   4   7 -13 389.226 187.678   3
  13  -4   7 411.975 237.832   1
   4  13  -7 352.226 150.115   3
   7 -13   4 585.543 161.238   3
   7   4 -13 262.324 196.814   3
  -4  -7 -13 435.617 189.787   2
  -7  13   4 368.434 181.799   1
  -7   4  13 225.594 143.518   2
   4 -13   7 432.637 165.968   2
   4 -13   7 434.634 163.311   3
   7  13  -4 434.847 225.249   3
   7  -4  13 749.705 280.600   1
   4 -13   7 352.117 152.274   1
  -4   7  13 248.985 150.449   3
  13   4  -7 360.270 207.178   3
  13   7  -4 361.979 225.367   3
 -13  -7  -4 162.459 138.896   4
  -4   7  13 355.834 161.668   5
   4  -7  13 348.725 199.124   1
  -4  13   7 397.736 163.967   1
 -13  -4  -7 567.342 206.948   4
  13  -4   7 506.594 162.859   4
  -7  -4 -13 424.562 127.814   4
  -7 -13  -2 8177.93 792.174   4
   2 -13   7 7541.80 667.256   2
  -7  13   2 6694.65 620.109   1
  -7  -2 -13 6662.55 379.292   2
   2   7 -13 6823.90 718.873   3
   2  13  -7 6689.48 629.178   3
   2 -13   7 7726.78 569.457   1
   7 -13   2 7610.24 452.632   3
   7   2 -13 8693.00 776.659   3
  13  -2   7 8104.35 821.324   1
   2  -7  13 7960.91 763.833   1
  -2   7  13 6864.56 607.374   3
   2 -13   7 7612.22 597.388   3
   7  13  -2 7484.87 660.761   3
  13   2  -7 7031.85 756.201   3
  13   7  -2 7823.88 809.094   3
   7  -2  13 7148.73 770.565   1
   7 -13   2 6804.27 582.116   1
  13  -2   7 6918.56 535.502   4
 -13  -7  -2 7555.81 608.749   1
  13  -7   2 7163.67 732.733   1
  -2   7  13 7612.81 639.296   5
   2 -13   7 7904.88 607.984   5
   7  13  -2 7594.13 657.403   5
  -2  13   7 7924.86 802.915   2
  -7   2  13 7409.79 732.467   5
  -7  -2 -13 7385.34 354.628   4
 -13  -7  -2 5698.09 609.365   4
  -2   7  13 7832.41 685.594   2
   7   2 -13 8376.54 608.805   4
  -7  13   2 7811.90 798.733   2
  13   0   7 133.751 87.1286   4
   0  -7  13 420.757 94.9948   2
  -7  13   0 194.171 137.906   2
  -7 -13   0 250.946 170.262   4
   0 -13   7 92.6934 118.810   4
   0 -13   7 16.2054 84.8936   2
   7   0 -13 225.252 149.124   3
  13   0   7 167.979 164.002   1
   7 -13   0 339.948 73.9826   3
   0   7  13 136.808 94.0980   3
   0   7  13 316.122 190.862   2
   0  -7  13 192.705 180.253   1
   7   0 -13 358.737 117.862   4
   0 -13   7 442.303 165.228   3
   7  13   0 296.667 158.013   3
  13   0  -7 208.273 169.034   3
  13   7   0 406.085 163.742   1
  -7   0  13 592.078 223.195   5
   7 -13   0 61.0439 112.848   1
   0  13   7 492.154 149.823   1
   7   0  13 245.253 176.885   1
   0  -7  13 339.244 197.069   5
   0 -13   7 428.552 164.360   5
 -13  -7   0 287.737 142.127   1
   7  13   0 263.637 168.017   5
   0  13   7 34.1355 171.534   2
   0 -13   7 196.858 123.055   1
 -13  -7   0 69.2398 171.306   4
  13  -7   0 239.729 205.143   1
  -7  13   0 378.286 165.477   1
 -13  -7   2 7623.85 612.292   1
  -2 -13   7 7450.38 679.897   4
  13   2   7 7083.76 578.692   4
   2  13   7 7382.10 377.356   3
   2   7  13 6520.06 608.052   3
   7  -2 -13 7374.45 669.739   3
  -2  -7  13 5589.71 654.682   1
   2   7  13 6588.46 693.338   1
   2  13   7 7979.74 468.878   1
  13  -7  -2 7177.06 734.987   1
  13  -2  -7 6362.18 660.510   3
  13   7   2 6748.40 614.785   1
  -2 -13   7 7777.26 647.148   3
   7  13   2 6424.34 581.117   3
  -2 -13   7 7391.37 502.128   1
   2  13   7 7548.89 472.292   1
  -2  13  -7 6667.89 639.999   2
   2  13   7 6824.42 735.331   2
   2   7  13 8455.30 674.661   2
  -7  13  -2 6571.52 635.806   1
  -2  -7  13 6896.07 479.256   2
  -2  -7  13 8165.66 769.157   5
  -7  -2  13 6756.52 723.736   5
  -2 -13   7 7348.22 633.130   5
   7  -2 -13 7853.97 615.982   4
 -13  -7   2 7637.50 707.108   4
   7   2  13 5385.60 658.273   1
  -7  13  -2 6892.42 727.041   2
  13   2   7 6680.34 738.910   1
  -7 -13   2 6548.00 697.723   4
  -7  13  -4 555.799 250.158   2
  -7 -13   4 363.837 207.305   4
  -4 -13   7 407.973 179.696   4
  -7 -13   4 564.136 79.5965   1
   4   7  13 33.9315 146.325   1
 -13  -7   4 394.875 184.283   1
   7  -4 -13 311.779 180.359   3
  13   4   7 417.079 216.918   1
   4  13   7 407.343 120.198   1
  -7  13  -4 1019.41 279.563   1
  -4  -7  13 604.042 240.348   5
  -7 -13   4 369.461 59.5503   1
  13  -7  -4 475.876 225.497   1
  13  -4  -7 385.064 176.942   3
  13  -7  -4 301.394 167.209   3
   7  13   4 477.784 183.268   3
   4  13   7 542.183 254.212   2
   4   7  13 617.045 190.998   2
  -4  -7  13 403.468 154.684   2
  -4  13  -7 570.330 222.098   2
  -7  -4  13 660.259 265.990   5
   7   4  13 478.090 252.587   1
  13   7   4 730.475 249.536   1
 -13  -7   4 81.1998 134.201   4
  -4 -13   7 668.212 158.161   1
   6   7  13 5801.69 653.647   1
   6  13   7 4812.69 335.420   1
   7  -6 -13 5414.32 529.335   3
 -13   7  -6 5759.93 563.016   2
  -6 -13   7 6040.67 420.844   1
  13  -6  -7 5499.37 557.812   3
  13  -7  -6 5421.55 543.053   3
  -7 -13   6 5551.41 365.950   1
  -6 -13   7 4931.32 403.077   1
   7  13   6 5904.04 300.150   1
  13   7   6 5554.12 601.967   1
  13  -7  -6 5358.43 535.393   5
  -7  13  -6 5128.25 596.779   2
  -7 -13   6 5759.55 402.574   1
  -6  13  -7 5009.85 572.405   2
  -6  -7  13 5404.26 674.328   5
  -7  -6  13 5218.96 658.433   5
 -13  -6   7 5575.21 598.989   4
  13   6   7 5677.05 631.380   1
   7   6  13 5279.20 646.066   1
 -13  -7   6 5172.19 588.364   4
  -7 -13   6 4895.63 585.249   4
  -6 -13   7 5782.14 611.955   4
  -8  -7 -13 208.321 129.113   4
   8  -7  13-143.696 160.800   1
  -7 -13  -8 5.85994 140.194   4
  -7  13   8 118.216 170.871   2
   7  -8  13 91.4170 184.329   1
  13  -7   8-213.938 116.432   4
  -8  13   7 382.744 224.812   2
  -8  -7 -13 157.709 171.919   2
  13  -8   7-4.19428 207.412   1
  -7  -8 -13-279.980 174.059   2
   8 -13   7-130.804 133.050   1
  -7   8  13-53.0063 173.955   2
  -8   7  13 121.280 124.900   2
  13  -7   8-10.8728 207.801   1
   7   8 -13 232.782 244.552   3
   8   7 -13 103.578 197.000   3
   7  13  -8 543.204 258.311   3
   7 -13   8 234.945 195.737   1
   8  13  -7 118.162 151.507   3
  -8 -13  -7 187.181 171.737   4
  13   7  -8-171.448 245.495   3
  13   8  -7 197.105 249.089   3
  -7  -8 -13 192.144 122.739   4
 -13  -8  -7 49.3243 114.890   4
 -13  -7  -8 1.52178 132.080   4
   8   5 -13 9495.65 708.677   4
  -8 -13  -5 9398.81 879.729   4
  -5  -8 -13 11520.6 789.324   4
   5 -13   8 10274.6 770.311   1
  -5 -13  -8 9787.90 869.590   4
  -5  -8 -13 8971.95 764.837   2
   5   8 -13 9434.06 887.365   3
   8 -13   5 11565.7 718.017   3
  -8   5  13 9102.58 787.171   2
   5  13  -8 10432.3 865.096   3
   8   5 -13 8417.00 835.835   3
   8  13  -5 10052.8 856.266   3
  13   5  -8 8616.71 887.763   3
 -13  -8  -5 9667.59 731.082   1
  13   8  -5 10228.9 969.802   3
  -5   8  13 10565.0 753.881   3
   8  -5  13 10942.1 990.213   1
  -5  13   8 9881.48 774.142   1
   8 -13   5 9360.60 750.187   1
   5  -8  13 10255.5 911.831   1
  -5  13   8 10186.2 947.335   2
  13  -8   5 8585.52 851.505   1
  -5   8  13 10285.7 733.940   5
 -13  -8  -5 9994.83 828.977   4
  13  -5   8 10015.3 647.795   4
  -8  -5 -13 9525.40 596.034   4
  13  -5   8 9926.83 946.950   1
  -8  13   5 11088.7 982.052   2
 -13  -5  -8 10418.9 764.510   4
  -5   8  13 8979.05 802.364   2
  -8  -3 -13 5322.67 419.320   2
  -8 -13  -3 5956.60 687.104   4
  -8  13   3 5862.53 708.883   2
   3 -13   8 5759.36 547.490   2
   3  13  -8 5821.89 628.099   3
   8 -13   3 5612.82 434.664   3
  -3  -8 -13 4992.03 567.658   2
   3 -13   8 6857.58 583.031   1
   8   3 -13 4980.14 617.560   3
   3   8 -13 5393.13 646.383   3
  -8  -3 -13 5305.25 368.596   4
   3 -13   8 5605.94 536.116   3
   8  -3  13 4810.53 659.979   1
   8  13  -3 6059.41 646.706   3
  -3   8  13 6526.72 574.980   3
  13   3  -8 5962.68 691.056   3
  -3  13   8 5960.91 542.503   1
  13   8  -3 5772.62 723.696   3
   8 -13   3 6234.94 586.933   1
 -13  -3  -8 5835.67 540.024   2
  13  -8   3 5529.02 657.634   1
   3 -13   8 5450.66 529.440   5
  -3   8  13 5230.83 509.913   5
  -3  13   8 6185.46 733.702   2
 -13  -3  -8 4953.17 495.721   4
 -13  -8  -3 5463.42 514.031   1
 -13  -8  -3 6894.68 677.636   4
  -3   8  13 5527.02 614.095   2
  13  -3   8 6604.33 503.400   4
   8   3 -13 6065.35 543.170   4
   3  -8  13 5795.04 668.095   1
  13  -3   8 6373.25 745.762   1
  -8 -13  -1 13398.4 1021.51   4
   1 -13   8 10797.1 803.652   2
   1 -13   8 10832.9 793.217   4
   1  -8  13 10821.0 444.155   2
  -8  -1 -13 11524.9 433.945   2
   8 -13   1 10752.6 534.463   3
   8   1 -13 11234.4 892.058   3
  -8  13   1 10130.5 810.677   1
  -1   8  13 9671.93 718.496   3
   1 -13   8 11386.4 783.257   3
   1 -13   8 11970.8 739.847   1
   1  -8  13 10113.1 863.055   1
  13   1  -8 9998.07 876.737   3
   8  13  -1 9800.78 783.713   3
   8 -13   1 11279.0 779.430   1
 -13  -8  -1 9593.34 683.057   1
  13  -8   1 10471.0 889.168   1
  13   8  -1 9614.53 911.754   3
   8  13  -1 11270.6 837.034   5
   8  -1  13 11879.5 1000.31   1
  -1   8  13 11194.8 759.969   5
   1 -13   8 10134.4 732.764   5
  -1  13   8 10141.7 922.258   2
  -1   8  13 9942.20 809.326   2
 -13  -8  -1 10708.0 859.244   4
   8   1 -13 10401.8 728.197   4
  -8  13   1 9971.36 914.486   2
  13  -1   8 10315.1 661.150   4
  13  -1   8 10003.8 937.376   1
  13   1   8 12041.1 744.302   4
  -1 -13   8 10017.6 765.006   4
  -1  -8  13 11025.0 510.869   4
   8 -13  -1 11808.5 437.015   3
 -13  -8   1 11733.4 754.797   1
   8  -1 -13 10102.0 815.621   3
   1   8  13 11828.4 809.120   3
   1  13   8 11385.8 425.410   3
  -1 -13   8 11451.3 800.598   5
   1  13   8 11603.0 657.424   1
   8 -13  -1 10794.2 768.216   1
  13  -1  -8 11776.5 915.295   3
  13   8   1 11713.5 785.424   1
  13  -8  -1 10605.5 897.157   1
   8  13   1 11461.6 828.122   3
  -8  13  -1 11979.7 887.943   1
  -1  -8  13 11659.2 626.283   2
 -13  -8   1 11331.6 887.251   4
  -1 -13   8 11318.1 689.925   1
   1  13   8 11487.5 672.868   1
  -1  -8  13 10758.2 890.666   1
   8   1  13 13116.5 1059.17   1
   1  13   8 11734.3 973.799   2
   1   8  13 11551.3 852.461   2
  13   1   8 11236.0 983.344   1
   8  13   1 11369.7 827.291   5
  -1  -8  13 11504.9 924.054   5
  -1 -13   8 11446.1 856.455   2
  -8  13  -1 10245.4 916.852   2
  -8 -13   1 11284.0 943.860   4
 -13  -8   3 5448.19 509.567   1
  -8 -13   3 5250.17 627.859   4
  13   3   8 5717.83 537.023   4
  -3  -8  13 4413.56 572.535   1
   3  13   8 4534.73 390.693   1
   3   8  13 6039.93 594.255   3
   8  -3 -13 5077.62 562.256   3
 -13   8  -3 5230.40 588.265   2
  13  -8  -3 6510.37 704.443   1
  13   3   8 5109.79 649.860   1
  13  -3  -8 5626.69 603.654   3
  13   8   3 5463.19 541.337   1
   8  13   3 5397.51 564.849   3
  -3  -8  13 6457.11 443.179   4
   8   3  13 4904.85 629.228   1
  -3  13  -8 6974.85 639.169   2
   3   8  13 5453.87 555.430   2
  -3  -8  13 5354.55 464.048   2
  -3  -8  13 6312.33 702.087   5
   3  13   8 5263.74 641.637   2
 -13  -8   3 5996.31 649.578   4
  -3 -13   8 6135.47 484.684   1
  -8  13  -3 6180.38 695.651   2
   3   8  13 5343.73 612.310   1
  -3 -13   8 5283.11 549.782   4
 -13   8  -5 9941.54 783.247   2
   8  -5 -13 8444.73 698.289   3
  -8 -13   5 9518.75 481.070   1
   5   8  13 9196.52 818.060   1
  13  -5  -8 8346.61 725.720   3
  -5 -13   8 12242.3 691.591   1
  13  -8  -5 10239.5 737.613   3
   5  13   8 10677.5 578.041   1
  -8 -13   5 10336.8 864.955   4
   5   8  13 9263.90 715.304   2
   5  13   8 10578.1 919.814   2
  -5  -8  13 9903.23 701.181   2
  13   8   5 10454.6 783.347   1
  -5  13  -8 8426.54 730.299   2
   8   5  13 9711.71 889.315   1
  -5  -8  13 11577.4 963.294   5
  13  -8  -5 9937.95 722.748   5
 -13  -8   5 9962.14 727.870   1
  -5  -8  13 9593.71 607.111   4
  -8  13  -5 10410.9 879.277   2
 -13  -8   5 10016.0 832.608   4
  13   5   8 9824.96 870.479   1
  -5 -13   8 10522.5 805.829   4
  -7 -13   8 217.714 150.817   4
  -7 -13   8-30.4724 100.825   1
  13   8   7 281.081 187.021   1
   8  -7 -13 122.121 118.391   3
  13   7   8 183.929 174.304   1
 -13   8  -7 172.853 128.830   2
 -13   7  -8 24.9013 96.7664   2
  -8 -13   7-27.9260 102.563   1
  -8 -13   7 73.2174 108.311   4
   8   7  13 125.845 160.832   1
  13  -7  -8 28.5868 119.927   3
  13  -8  -7 426.910 188.961   3
   7  13   8 177.940 98.1423   1
   7   8  13 429.271 206.787   1
  13  -8  -7 212.788 108.558   5
  -7  13  -8 291.833 158.597   2
 -13  -7   8 234.348 182.968   4
 -13  -8   7 213.797 190.515   4
  -8  13  -7 19.6424 119.777   2
  -8  -9 -13 3771.44 473.381   4
  -9 -13  -8 4621.36 637.737   4
  -8 -13  -9 4611.85 627.220   4
 -13  -9  -8 2950.39 476.276   4
  -8  13   9 4878.40 685.057   2
  -9  -8 -13 3960.73 472.291   4
  -9  13   8 4108.18 625.423   2
  13  -9   8 3930.89 612.892   1
  -8   9  13 4432.14 614.380   2
   9 -13   8 5135.21 617.280   1
  -9   8  13 3644.43 553.555   2
  13  -8   9 4604.54 673.623   1
   8   9 -13 3817.37 605.548   3
 -13   9   8 3289.53 547.031   2
   9   8 -13 4663.62 672.928   3
 -13   8   9 4408.01 621.970   2
   8  13  -9 3899.37 593.119   3
   9  13  -8 4015.00 602.097   3
   8 -13   9 3326.44 498.194   1
  13   8  -9 4206.02 666.101   3
  13   9  -8 3598.92 591.428   3
   9  -8  13 3371.06 582.396   1
   8  -9  13 4147.86 618.174   1
 -13  -8  -9 3680.28 495.988   4
   9  -6  13 184.557 215.774   1
  -9 -13  -6 519.599 227.481   4
  13  -9   6-93.7126 197.552   1
  -6  13   9 275.118 229.094   2
   9 -13   6 383.571 168.380   1
  -6  -9 -13 335.138 180.123   4
  -6 -13  -9 9.61263 158.068   4
  -9  13   6 82.5155 202.429   2
  -6   9  13 398.282 191.826   2
   6  -9  13 204.011 204.465   1
   6   9 -13 108.216 167.809   3
   6  13  -9 571.703 246.524   3
  -9   6  13 389.116 198.076   2
 -13  -9  -6 443.137 174.856   1
 -13   9   6 616.965 239.879   2
   9   6 -13 195.138 168.944   3
  13  -6   9 665.563 252.066   1
   9  13  -6 503.881 254.904   3
  13   6  -9 439.168 207.174   3
  13   9  -6 288.556 225.733   3
   6 -13   9 448.959 217.684   1
  -9  -6 -13 412.611 144.570   4
 -13  -6  -9 196.097 137.565   4
 -13  -9  -6 601.797 244.041   4
  -4  13   9 2467.19 486.300   2
  -9 -13  -4 3762.86 576.748   4
   9  -4  13 3868.40 616.968   1
  -4   9  13 2800.05 467.116   2
  -4  -9 -13 3487.25 455.886   4
   9 -13   4 3777.91 389.423   3
  -9  13   4 3558.29 571.279   2
   4   9 -13 3714.82 555.199   3
   4  13  -9 3435.72 503.933   3
 -13   9   4 2879.37 480.506   2
   9   4 -13 3076.44 512.981   3
  13  -4   9 4378.28 643.823   1
   9  13  -4 3392.19 508.634   3
  13   4  -9 3099.00 544.977   3
 -13  -4  -9 3733.22 452.241   2
  -4   9  13 3757.63 422.642   3
  13   9  -4 3355.47 576.002   3
   4  -9  13 2905.34 482.944   1
   4 -13   9 3542.36 460.787   1
  13  -4   9 3222.36 346.904   4
 -13  -9  -4 3832.40 429.012   1
  -4  13   9 3176.56 431.164   1
  -4   9  13 3117.67 380.240   5
   9 -13   4 2924.64 439.324   1
  -9  -4 -13 3481.65 337.175   4
 -13  -4  -9 2985.97 392.280   4
  13  -9   4 3609.19 544.183   1
 -13  -9  -4 4211.11 559.798   4
  -2   9  13 846.929 270.593   2
  13  -2   9 783.853 175.393   4
  -9 -13  -2 1353.01 353.801   4
   9 -13   2 816.546 246.616   1
   2  -9  13 878.985 289.761   1
   2 -13   9 1100.62 256.263   4
  -9  13   2 802.757 284.126   2
   9  -2  13 1032.43 339.955   1
   2  13  -9 800.460 250.159   3
   9 -13   2 1230.24 205.647   3
   2 -13   9 865.742 207.179   2
 -13   9   2 1443.70 350.450   2
   9   2 -13 1067.97 308.859   3
  13  -2   9 825.182 326.921   1
  -2   9  13 854.157 214.688   3
  13   2  -9 612.205 259.158   3
   9  13  -2 460.714 232.930   3
  13   9  -2 989.633 321.582   3
  -2  13   9 1003.30 235.062   1
 -13  -2  -9 651.420 196.016   2
 -13  -9  -2 1085.15 217.438   1
   2 -13   9 878.682 241.966   5
  -2   9  13 733.846 192.975   5
  13  -9   2 1365.40 360.166   1
   2  -9  13 899.679 116.675   4
   2 -13   9 1666.38 301.979   1
  -2  13   9 1124.49 333.389   2
 -13  -9  -2 1128.27 307.521   4
 -13  -9   0 1316.42 244.800   1
  -9 -13   0 1656.25 362.463   4
   0 -13   9 1326.29 275.789   4
  13   0   9 1575.84 260.733   4
   0  -9  13 1196.94 162.330   4
   0  -9  13 1456.31 214.140   2
  -9  13   0 1908.34 416.522   2
   0 -13   9 1668.53 323.465   2
   9 -13   0 1655.26 205.597   3
   0 -13   9 1858.93 301.376   1
   9   0  13 1738.58 405.917   1
 -13   9   0 1697.68 356.561   2
   9   0 -13 1371.86 319.249   3
   0   9  13 1754.05 290.662   3
  13   0   9 1311.96 375.691   1
  13   0  -9 1465.23 361.627   3
   9  13   0 1307.74 324.221   3
  13   9   0 2190.29 442.194   3
   9 -13   0 1552.25 317.280   1
  13  -9   0 2068.69 411.938   1
   0  13   9 1311.44 106.595   5
   0  -9  13 1825.04 398.930   5
   0  -9  13 1304.20 326.681   1
   0  13   9 1660.21 393.287   2
   0 -13   9 1507.22 308.388   5
   0   9  13 1340.33 316.879   2
 -13  -9   0 1663.76 387.629   4
  -2 -13   9 1224.63 239.241   1
  -9 -13   2 972.807 281.475   4
  -2 -13   9 1027.53 256.202   4
  -9  13  -2 1235.96 320.393   2
  13   2   9 1813.05 282.475   4
   2   9  13 1014.47 243.231   3
   9   2  13 958.783 280.755   1
 -13   9  -2 1068.30 294.409   2
   9  -2 -13 1238.02 289.970   3
  -2  -9  13 1000.99 204.298   2
  13   2   9 862.215 316.602   1
  13  -2  -9 861.901 268.583   3
   9 -13  -2 809.129 245.635   1
  -2  -9  13 1251.67 336.280   5
   2   9  13 820.786 270.881   1
   9 -13  -2 1202.41 135.715   3
  13  -9  -2 999.647 287.244   1
   2  13   9 838.102 187.605   1
   9  13   2 1324.53 315.776   3
  13   9   2 979.728 236.913   1
 -13  -9   2 1249.13 252.459   1
  -2  -9  13 1054.17 303.430   1
  -2 -13   9 785.110 229.216   5
   2  13   9 743.834 244.226   2
   2   9  13 1156.48 289.095   2
  -2  -9  13 1118.73 192.015   4
 -13  -9   2 1122.12 300.532   4
  -9 -13   4 2451.84 449.995   4
   4   9  13 2577.72 434.547   1
  -4 -13   9 2523.08 392.314   4
  -9  13  -4 2720.64 454.527   2
 -13  -9   4 2744.56 362.759   1
 -13  -9   4 2168.83 402.726   4
 -13   9  -4 2282.28 403.705   2
   9  -4 -13 3584.32 463.714   3
   9   4  13 2572.67 473.483   1
  -4  -9  13 2526.53 434.766   1
  13   4   9 2369.40 457.527   1
  13  -4  -9 2632.94 424.524   3
   4   9  13 3549.55 456.701   2
  -4 -13   9 3190.77 376.374   1
  13  -9  -4 2782.89 383.983   3
  -4  13  -9 2705.25 393.930   2
   4  13   9 3357.36 506.118   2
  13   9   4 2873.89 392.195   1
  -4  -9  13 3265.90 519.356   5
  -4  -9  13 3187.03 395.578   2
  -4  -9  13 3398.99 349.936   4
   4  13   9 3056.42 336.023   1
  -9 -13   6 102.798 161.350   4
  -6 -13   9 223.759 163.316   4
  -9  13  -6 171.147 156.329   2
   6   9  13 203.768 177.929   1
 -13   9  -6 188.295 138.002   2
   9  -6 -13-81.6449 136.108   3
   9   6  13 427.923 226.092   1
 -13   6  -9 33.5313 99.8600   2
  -6  -9  13 192.625 109.860   4
  13   6   9 300.234 243.924   1
  -6 -13   9 195.126 133.005   1
  13  -6  -9 74.4946 147.181   3
  13  -9  -6 309.944 156.760   3
  -6  13  -9 217.746 170.569   2
  13  -9  -6 389.734 161.497   5
 -13  -9   6 113.138 152.535   4
  -6  -9  13 276.061 215.459   5
   6  13   9 209.158 134.007   1
  13   9   6 279.133 141.721   1
 -13   9  -8 4305.51 500.578   2
 -13   8  -9 4092.73 449.399   2
  13   9   8 3694.37 493.920   1
   9   8  13 4443.00 590.734   1
   9  -8 -13 3538.27 424.649   3
  13   8   9 4620.37 582.488   1
  13  -8  -9 4093.12 467.511   3
  13  -9  -8 3894.95 439.931   3
   8   9  13 3572.77 526.347   1
  -8 -13   9 4201.39 445.756   1
  -8  -9  13 3991.30 462.540   4
  -8  13  -9 3844.90 498.902   2
 -13  -8   9 3382.46 491.751   4
 -13  -9   8 4538.61 583.948   4
  -9  13  -8 4010.99 531.494   2
  -8 -13   9 4002.04 533.825   4
  -9 -13   8 3568.98 531.090   4
  -9 -10 -13 257.626 201.680   4
 -10 -13  -9-264.444 218.603   4
  -9 -13 -10 110.714 152.612   4
  -9  13  10-146.043 279.468   2
 -10  13   9 493.207 272.509   2
  -9  10  13 418.311 255.515   2
  13 -10   9-137.650 187.866   1
 -10   9  13-457.007 241.533   2
  10 -13   9 16.0152 186.172   1
 -13  10   9 111.334 191.245   2
 -13   9  10 253.572 228.450   2
   9  10 -13-176.961 256.117   3
  13  -9  10-292.573 266.454   1
 -10  -9 -13-230.694 147.656   4
  10   9 -13-82.7884 187.155   3
   9  13 -10 229.123 210.023   3
  10  13  -9-160.862 245.083   3
   9 -13  10 131.874 160.563   1
  13   9 -10 113.104 180.668   3
  13  10  -9-184.306 282.314   3
  10  -9  13 238.256 247.406   1
   9 -10  13 425.562 283.807   1
 -13  -9 -10 49.4201 138.967   4
 -13 -10  -9 124.383 166.003   4
  -7 -10 -13 5766.38 624.209   4
  -7 -13 -10 6045.82 705.639   4
 -10 -13  -7 5178.10 664.473   4
  13 -10   7 4950.19 667.453   1
  -7  13  10 5300.32 717.640   2
  10 -13   7 5034.50 620.040   1
   7  13 -10 6178.41 736.440   3
 -10  13   7 5906.74 742.980   2
   7  10 -13 5031.31 715.829   3
 -10   7  13 5495.51 670.937   2
 -13  10   7 4117.85 616.215   2
  10   7 -13 5208.43 713.717   3
  13  -7  10 6061.78 772.753   1
  10  13  -7 5674.03 724.903   3
  13   7 -10 5622.13 741.927   3
  13  10  -7 5445.59 731.798   3
   7 -13  10 3861.66 541.708   1
  10  -7  13 5226.51 727.540   1
 -13  -7 -10 4786.03 548.322   4
 -10  -7 -13 5187.27 520.665   4
 -13 -10  -7 5302.69 650.158   4
   7 -10  13 4565.69 649.966   1
  -7  10  13 6485.15 752.251   2
  -5  13  10 1072.10 349.709   2
 -10 -13  -5 1330.28 349.325   4
  -5  10  13 1845.48 383.895   2
  -5 -13 -10 1264.50 323.645   4
 -10  13   5 897.831 305.665   2
   5 -10  13 1369.79 348.555   1
   5  10 -13 2281.90 465.305   3
   5  13 -10 1106.30 329.306   3
 -13  10   5 1384.93 355.575   2
  10   5 -13 2706.68 503.342   3
  13   5 -10 2180.33 476.040   3
  13  -5  10 1845.12 452.059   1
  10  13  -5 1764.75 405.624   3
  13  10  -5 1464.45 401.042   3
   5 -13  10 1509.02 333.598   1
  -5 -10 -13 1349.38 304.792   4
 -13  -5 -10 1811.30 322.220   4
  10  -5  13 1775.71 444.604   1
 -10  -5 -13 1500.98 249.990   4
 -13 -10  -5 1397.73 355.305   4
  10 -13   5 1538.87 341.066   1
  13 -10   5 1390.27 355.335   1
 -10  13   3 10798.8 980.891   2
  13  -3  10 11033.1 1043.21   1
   3 -13  10 11704.4 780.229   4
   3  10 -13 11696.8 1008.01   3
   3  13 -10 11331.1 935.733   3
 -13  10   3 11187.5 949.343   2
   3 -13  10 10217.2 717.881   2
  10   3 -13 9495.23 900.826   3
  13   3 -10 10018.8 935.231   3
   3 -13  10 10528.0 812.244   1
  10  13  -3 10570.1 914.828   3
  10  -3  13 10654.6 1008.26   1
  -3  13  10 10733.6 806.480   1
  13  10  -3 10041.0 962.220   3
  10 -13   3 10010.3 829.691   1
  13 -10   3 11467.1 968.022   1
 -13  -3 -10 9972.21 724.897   2
   3 -13  10 11189.0 844.611   5
   3 -10  13 9999.52 891.734   1
  -3  13  10 12140.1 1053.24   2
 -10  -3 -13 10790.7 588.378   4
  -3  10  13 10584.2 924.817   2
   3 -10  13 11177.4 460.741   4
 -13 -10  -3 11301.0 945.857   4
 -10 -13  -3 9157.79 902.136   4
   1 -13  10 8306.73 645.281   4
  13  -1  10 8043.27 567.073   4
   1 -10  13 6363.02 688.926   1
   1 -13  10 7164.53 623.829   2
  10  -1  13 6172.93 766.117   1
  13  -1  10 6859.87 810.203   1
 -13  10   1 7265.39 780.863   2
  10   1 -13 7108.83 740.034   3
  -1  10  13 7586.04 594.983   3
  13   1 -10 7110.61 747.718   3
  -1  13  10 7575.69 630.280   1
  10  13  -1 7882.27 767.212   3
  10 -13   1 7983.47 715.188   1
  13 -10   1 7647.49 778.344   1
  13  10  -1 7394.20 815.189   3
   1 -13  10 7982.37 676.353   1
   1 -13  10 7570.01 695.351   5
 -13  -1 -10 6481.59 539.272   2
   1 -10  13 7931.24 789.428   5
  -1  10  13 8586.00 616.523   5
 -13 -10  -1 7408.82 550.838   1
  -1  13  10 7851.03 831.181   2
  -1  10  13 7365.30 746.154   2
   1 -10  13 7519.17 422.991   4
 -13 -10  -1 7379.70 759.923   4
 -10 -13  -1 7849.34 816.337   4
 -10  13   1 8497.13 849.175   2
  13   1  10 6806.34 543.213   4
  10   1  13 6460.81 779.982   1
 -13  10  -1 6312.68 697.347   2
  10  -1 -13 6653.28 701.088   3
   1  10  13 7162.11 594.187   3
  13  -1 -10 6402.73 698.855   3
 -13 -10   1 6194.24 515.573   1
  10 -13  -1 7238.04 683.450   1
  13 -10  -1 6099.48 695.987   1
  -1 -10  13 6790.46 687.135   1
  10  13   1 7087.56 714.180   3
   1  13  10 6296.90 564.823   1
  13   1  10 5821.27 741.939   1
   1  10  13 6777.09 696.217   1
   1  13  10 6911.63 759.685   2
   1  10  13 7382.81 727.096   2
  -1 -10  13 7411.49 764.152   5
  -1 -13  10 6795.67 668.684   5
  -1 -13  10 7531.23 639.770   1
  -1 -10  13 6163.36 442.618   4
 -13 -10   1 7050.79 741.232   4
  -1 -13  10 5804.66 599.537   2
 -10 -13   1 7697.76 799.468   4
 -10  13  -1 8426.50 827.700   2
  -1 -13  10 6441.13 572.931   4
 -13 -10   3 11569.5 727.210   1
  13   3  10 11278.2 1016.02   1
  -3 -13  10 12689.6 812.479   1
 -13  10  -3 12107.0 952.166   2
   3  10  13 10762.6 772.515   3
  10  -3 -13 11049.6 878.132   3
  13  -3 -10 11761.7 909.889   3
  13 -10  -3 11248.6 945.132   1
   3  10  13 12163.0 923.379   1
  13  10   3 11285.3 733.370   1
   3  13  10 10870.8 711.314   1
  -3 -10  13 11838.5 784.047   2
  10   3  13 11685.1 1039.41   1
  13 -10  -3 10581.2 731.952   3
  10  13   3 12123.1 921.799   3
  -3 -13  10 12296.3 930.942   5
   3  13  10 12342.3 1007.84   2
   3  10  13 12399.2 928.834   2
  -3 -10  13 14155.2 1063.57   5
  -3 -10  13 12762.4 696.503   4
 -13 -10   3 10652.3 925.496   4
  -3 -10  13 9989.92 853.758   1
 -10  13  -3 10979.1 952.946   2
 -10 -13   3 12581.8 1004.33   4
  -3 -13  10 10704.8 773.103   4
  -5 -13  10 1435.40 303.409   4
  -5 -13  10 1021.09 239.398   1
 -10  13  -5 1030.20 293.644   2
  10   5  13 1289.36 369.169   1
  -5 -10  13 1509.17 271.523   4
 -13  10  -5 1848.14 359.711   2
  10  -5 -13 1889.68 346.725   3
 -13   5 -10 1364.90 228.316   2
   5  10  13 1482.34 330.254   1
  13  -5 -10 710.849 245.810   3
  -5 -10  13 1050.57 307.518   1
  13   5  10 1229.43 340.009   1
   5  13  10 1758.55 281.707   1
  13 -10  -5 1601.26 266.222   3
 -10 -13   5 1201.17 335.273   4
   5  10  13 1475.48 332.696   2
  -5  13 -10 1349.82 277.128   2
   5  13  10 1399.40 366.927   2
  -5 -10  13 1312.00 366.362   5
  13  10   5 1329.99 270.274   1
 -13 -10   5 1119.87 302.746   4
  10   7  13 5067.12 654.154   1
  -7 -13  10 5844.77 546.021   1
  10  -7 -13 5944.97 576.283   3
 -13  10  -7 5025.78 562.219   2
  13  -7 -10 4998.53 548.701   3
  13 -10  -7 5320.26 480.244   3
  13   7  10 4765.54 636.709   1
   7  10  13 4740.61 587.646   1
  -7  13 -10 4913.59 516.625   2
  13  10   7 5660.71 564.295   1
 -10  13  -7 4959.36 612.503   2
  -7 -10  13 5714.23 544.927   4
  -7 -13  10 4908.34 579.477   4
 -10 -13   7 5353.19 648.090   4
 -13 -10   7 4754.71 632.635   4
   9  10  13 120.838 150.234   1
  13  10   9-136.217 124.803   1
  10  -9 -13 94.2388 126.450   3
  13   9  10 17.7992 166.955   1
  13  -9 -10-82.9954 111.061   3
  -9 -10  13-97.9335 146.597   4
 -13  -9  10 298.594 209.457   4
 -13 -10   9 41.5958 142.142   4
  10   9  13 218.887 140.544   1
  -9 -13  10 176.656 160.993   4
 -10 -13   9 174.858 123.223   4
 -11 -10 -13 413.537 203.608   4
 -10 -11 -13 551.615 228.914   4
 -11 -13 -10-30.8359 174.556   4
 -10 -13 -11 478.146 238.014   4
 -10  13  11 126.621 171.282   2
 -11  13  10 553.117 292.356   2
 -10  11  13 282.958 209.726   2
  13 -11  10 370.087 237.396   1
 -11  10  13 245.694 176.744   2
  11 -13  10 155.012 191.044   1
 -13  11  10 465.328 279.332   2
 -13  10  11 428.625 159.366   2
  10  11 -13 630.184 297.955   3
  13 -10  11 961.904 351.571   1
  10  13 -11 1037.07 391.398   3
  11  10 -13 682.009 325.040   3
 -13 -11 -10 783.824 297.637   4
  11  13 -10 755.369 329.203   3
  10 -13  11 568.307 293.111   1
  13  10 -11 351.018 231.946   3
  13  11 -10 172.554 209.888   3
  11 -10  13 189.770 256.667   1
  10 -11  13 34.6096 244.130   1
 -13 -10 -11 694.961 260.137   4
 -11 -13  -8 1728.57 401.574   4
  -8 -11 -13 2598.05 446.011   4
  -8 -13 -11 1988.12 432.218   4
  -8  13  11 1806.22 458.961   2
  11 -13   8 1506.22 366.828   1
  -8  11  13 1855.32 423.045   2
 -11  13   8 1992.91 467.117   2
 -13  11   8 1591.88 408.338   2
 -11   8  13 1913.72 428.444   2
   8  11 -13 1297.66 396.225   3
   8  13 -11 2248.15 505.175   3
 -13   8  11 2710.20 518.144   2
  11   8 -13 2072.63 472.226   3
  13 -11   8 2222.30 465.415   1
  11  13  -8 1907.41 467.876   3
  13  -8  11 955.135 361.761   1
  13   8 -11 2509.87 526.493   3
  13  11  -8 2083.43 472.118   3
   8 -13  11 1239.81 349.881   1
  11  -8  13 2355.42 515.845   1
   8 -11  13 1349.53 394.632   1
 -13  -8 -11 1824.43 350.552   4
 -11  -8 -13 1984.77 351.555   4
 -13 -11  -8 2160.62 448.177   4
  13 -11   6 675.924 283.478   1
  11 -13   6 233.792 162.198   1
 -11 -13  -6 546.173 274.179   4
  -6  13  11 1181.95 373.634   2
  -6  11  13 638.391 275.026   2
  -6 -11 -13 537.832 219.676   4
  -6 -13 -11 400.088 211.308   4
 -11  13   6 462.166 237.581   2
   6  11 -13 214.103 255.033   3
   6  13 -11 594.124 282.505   3
 -13  11   6 366.930 238.794   2
 -11   6  13 762.797 282.260   2
  11   6 -13 513.945 274.899   3
  13   6 -11 434.713 299.103   3
  11  13  -6 521.011 240.460   3
  13  -6  11 531.308 307.217   1
  13  11  -6 554.220 310.319   3
   6 -13  11 539.578 251.492   1
  11  -6  13 597.103 315.566   1
 -13  -6 -11 332.678 157.949   4
 -11  -6 -13 296.494 141.224   4
   6 -11  13-4.13763 150.281   1
 -13 -11  -6 769.536 257.770   4
  -4  13  11 2092.94 459.160   2
 -11 -13  -4 2110.67 451.969   4
  -4  11  13 1327.35 348.535   2
   4 -13  11 1973.18 295.105   4
  -4 -11 -13 1655.68 350.424   4
 -11  13   4 1682.82 410.158   2
   4  11 -13 2011.93 438.591   3
   4  13 -11 1952.82 428.887   3
 -13  11   4 1627.96 396.936   2
   4 -11  13 1299.90 356.269   1
  11   4 -13 1845.82 413.531   3
  13   4 -11 1164.80 336.757   3
  11  13  -4 1989.84 415.521   3
  13  -4  11 2823.81 552.153   1
  13  11  -4 2430.77 490.909   3
 -11  -4 -13 1563.24 251.418   4
  11  -4  13 1277.76 375.936   1
 -13  -4 -11 1432.38 264.114   4
   4 -13  11 1093.18 308.373   1
  11 -13   4 1528.29 342.159   1
  13 -11   4 1925.19 411.786   1
 -13 -11  -4 2445.60 459.775   4
 -11 -13  -2 460.594 237.116   4
   2 -13  11 890.710 227.559   4
   2 -13  11 653.990 231.698   1
 -11  13   2 495.018 231.786   2
   2 -13  11 558.057 212.271   5
 -13  11   2 464.613 246.542   2
  11   2 -13 731.893 287.168   3
  13   2 -11 608.834 243.129   3
  11  13  -2 381.376 225.126   3
  13  11  -2 735.408 310.721   3
  13  -2  11 1166.13 366.917   1
   2 -11  13 766.764 247.647   1
   2 -11  13 804.008 278.512   5
  11 -13   2 884.286 294.792   1
  13 -11   2 625.490 284.205   1
  11  -2  13 752.072 320.773   1
  -2  13  11 609.185 275.078   2
  -2  11  13 634.981 239.185   2
 -13 -11  -2 730.423 276.310   4
   2 -11  13 376.859 112.645   4
 -11 -13   0 1965.03 428.821   4
   0 -13  11 1530.11 286.885   4
   0 -11  13 1680.79 374.290   5
 -11  13   0 2064.77 439.871   2
   0 -11  13 2572.60 430.039   1
 -13  11   0 2117.01 435.342   2
  11   0 -13 1660.41 370.386   3
  13   0 -11 1940.28 414.406   3
   0 -13  11 2259.12 379.480   1
  11  13   0 2604.05 471.408   3
  13   0  11 2220.82 471.094   1
  13  11   0 2180.45 448.199   3
  11 -13   0 1954.43 371.783   1
  13 -11   0 1830.02 404.423   1
   0 -13  11 2933.04 453.419   5
   0  13  11 2034.54 458.941   2
   0 -11  13 2412.66 278.375   4
   0  11  13 2971.71 499.729   2
  11   0  13 2955.13 544.889   1
 -13 -11   0 2404.26 458.057   4
 -11 -13   2 891.377 318.022   4
  -2 -13  11 669.408 175.024   4
   2  11  13 721.052 257.227   2
   2  11  13 856.707 275.310   1
 -11  13  -2 624.631 276.678   2
 -13  11  -2 1192.74 324.676   2
  11  -2 -13 238.023 159.079   3
  13  -2 -11 255.550 162.642   3
  11 -13  -2 932.345 276.031   1
  13 -11  -2 646.499 254.412   1
  11 -13  -2 328.510 114.871   3
  13   2  11 49.1803 181.801   1
  11  13   2 1461.02 357.901   3
   2  13  11 664.682 214.429   1
  -2 -11  13 1073.94 307.325   5
  -2 -13  11 791.463 258.174   5
   2  13  11 714.274 272.021   2
  -2 -13  11 833.708 225.687   1
  -2 -11  13 950.203 284.392   1
  -2 -11  13 688.042 169.718   4
  11   2  13 342.771 217.276   1
 -13 -11   2 802.455 300.712   4
  -4 -13  11 1630.47 310.065   4
 -11  13  -4 1726.58 377.014   2
   4  13  11 1806.56 305.739   1
 -13  11  -4 1494.13 353.015   2
  11  -4 -13 1568.95 332.275   3
  13  -4 -11 1080.18 300.381   3
  13 -11  -4 1733.49 281.909   3
  13   4  11 1906.51 444.950   1
  13  11   4 1560.20 264.361   1
  -4 -11  13 1776.09 357.453   1
   4  11  13 1350.37 329.671   2
   4  13  11 1263.62 362.148   2
  -4 -11  13 1574.53 364.575   5
  -4 -13  11 1310.21 286.275   1
  -4 -13  11 1442.68 344.279   5
   4  11  13 1415.08 314.020   1
  -4 -11  13 1405.13 254.568   4
  11   4  13 2047.35 435.714   1
 -13 -11   4 1846.82 401.167   4
 -11 -13   4 1401.03 360.206   4
 -11  13  -6 210.543 205.226   2
 -13  11  -6-18.6381 152.995   2
  -6 -11  13 31.2009 151.703   1
  11  -6 -13 111.916 107.143   3
   6  13  11-35.5996 116.134   1
  13  -6 -11 131.790 135.350   3
  13 -11  -6 358.870 156.141   3
   6  11  13 190.404 184.955   1
  13   6  11 446.867 258.599   1
  -6 -13  11 498.429 197.647   1
  13  11   6 234.375 143.141   1
  -6 -11  13 384.985 158.971   4
  11   6  13 345.821 251.415   1
 -13 -11   6 228.563 185.867   4
  -6 -13  11 137.787 148.590   4
 -11 -13   6 377.085 211.605   4
 -11  13  -8 1893.72 391.378   2
 -13  11  -8 2285.00 387.892   2
   8  11  13 1696.06 360.049   1
  11  -8 -13 1689.09 324.803   3
  13  -8 -11 1718.97 328.713   3
  13   8  11 1502.96 384.350   1
  11   8  13 2294.57 447.816   1
  -8 -11  13 1856.14 333.377   4
 -13 -11   8 1747.10 397.922   4
  -8 -13  11 1903.19 355.144   1
  -8 -13  11 2033.28 390.494   4
 -11 -13   8 1678.89 386.588   4
  13  10  11 268.196 206.809   1
 -11 -13  10 354.269 199.519   4
  11  10  13 294.210 210.971   1
 -13 -10  11 289.931 182.547   4
 -10 -11  13 27.8171 155.018   4
 -13 -11  10 654.394 271.602   4
 -10 -13  11 526.255 234.680   4
 -12 -11 -13 1515.01 357.423   4
 -12 -13 -11 1941.35 395.748   4
 -11 -12 -13 1382.80 349.022   4
 -11 -13 -12 1129.72 352.493   4
  13 -12  11 1530.15 443.910   1
  12 -13  11 1209.29 368.980   1
  11 -13  12 1633.14 431.316   1
  12  13 -11 1440.77 410.459   3
  12 -11  13 2155.96 520.768   1
  11 -12  13 1018.56 371.841   1
 -13 -11 -12 1638.09 384.291   4
 -13 -12 -11 1335.41 396.377   4
 -13 -12  -9 2678.83 509.813   4
 -12 -13  -9 2107.20 454.626   4
  -9 -12 -13 2315.54 430.057   4
  -9 -13 -12 2470.23 485.994   4
  13 -12   9 2675.55 534.377   1
  -9  13  12 2146.20 528.239   2
  12 -13   9 1611.98 431.415   1
  -9  12  13 2734.80 535.778   2
 -12  13   9 1997.27 496.755   2
 -13  12   9 2168.36 526.071   2
 -12   9  13 1491.61 414.536   2
 -13   9  12 1366.65 400.591   2
   9  12 -13 3091.14 570.755   3
   9  13 -12 2829.87 572.402   3
  12   9 -13 1626.98 445.143   3
  13   9 -12 2650.04 552.116   3
  12  13  -9 1302.85 386.790   3
  13  -9  12 1958.49 499.518   1
  13  12  -9 2614.86 568.432   3
   9 -13  12 2457.18 500.146   1
  12  -9  13 2040.05 494.702   1
   9 -12  13 1915.24 467.981   1
 -13  -9 -12 1889.72 392.641   4
 -12  -9 -13 2301.38 409.057   4
 -13 -12  -7 43.9927 220.732   4
 -12 -13  -7 158.453 183.284   4
  13 -12   7 39.4750 189.429   1
  12 -13   7-244.420 184.298   1
  -7  13  12-122.793 205.439   2
  -7 -12 -13-145.240 180.012   4
  -7 -13 -12 83.1346 186.827   4
  -7  12  13-84.8319 183.241   2
 -12  13   7 168.081 226.073   2
 -13  12   7 50.0205 196.309   2
   7  12 -13 326.938 211.012   3
   7  13 -12-16.9324 165.508   3
 -12   7  13 247.796 238.377   2
 -13   7  12-156.713 232.479   2
  12   7 -13 51.2536 213.011   3
   7 -12  13 54.6667 161.275   1
  13   7 -12 290.495 239.108   3
  12  13  -7 204.617 203.550   3
  13  12  -7 496.013 315.489   3
  13  -7  12 39.4064 218.414   1
  12  -7  13-627.398 312.796   1
   7 -13  12 128.048 155.009   1
 -13  -7 -12 41.2477 136.289   4
 -12  -7 -13-56.1012 150.012   4
 -12 -13  -5 6204.86 763.562   4
  -5  13  12 6611.98 825.116   2
  -5  12  13 5506.05 735.108   2
  -5 -12 -13 7198.73 747.234   4
 -13  12   5 6617.33 794.065   2
  -5 -13 -12 5748.95 683.343   4
   5  13 -12 6954.56 812.942   3
  12  -5  13 6955.55 852.756   1
 -12  13   5 6304.28 785.613   2
   5  12 -13 5058.00 703.391   3
  13   5 -12 7286.56 850.484   3
   5 -13  12 6387.93 709.406   1
  12   5 -13 6754.88 816.511   3
   5 -12  13 6288.96 733.138   1
  12  13  -5 6183.65 776.812   3
  13  12  -5 6438.17 795.374   3
  13  -5  12 5995.06 806.763   1
  12 -13   5 6765.29 746.342   1
 -13  -5 -12 5765.02 546.569   4
 -12  -5 -13 5945.01 533.347   4
 -13 -12  -5 6139.13 741.730   4
  13 -12   5 5940.90 722.544   1
   3 -13  12 3432.68 377.885   4
  -3  12  13 4361.78 646.612   2
 -13 -12  -3 3996.15 597.565   4
 -12 -13  -3 4067.38 614.926   4
   3 -13  12 4235.86 554.421   1
   3  12 -13 3845.21 611.662   3
   3  13 -12 4396.69 622.496   3
 -12  13   3 3968.28 615.087   2
 -13  12   3 3555.52 570.727   2
   3 -12  13 3561.84 527.812   1
  12   3 -13 3072.13 554.672   3
  13   3 -12 2887.96 548.900   3
  13 -12   3 3766.45 576.719   1
  12  13  -3 4389.36 624.229   3
  13  12  -3 4706.65 664.458   3
  13  -3  12 3732.30 630.416   1
   3 -12  13 3858.49 551.901   5
  12  -3  13 3824.81 633.133   1
   3 -13  12 3381.71 508.714   5
  12 -13   3 3503.28 533.602   1
  -3  13  12 4989.94 697.341   2
 -12  13   1 8290.91 872.294   2
 -13  12   1 8991.10 900.349   2
  13  -1  12 8476.28 950.916   1
  12  -1  13 8889.74 964.827   1
  12   1 -13 7733.79 824.530   3
  13   1 -12 7807.73 844.054   3
  12 -13   1 7712.83 764.327   1
  12  13  -1 7609.26 811.462   3
  13 -12   1 7766.58 798.771   1
  13  12  -1 7411.41 831.024   3
   1 -13  12 8524.33 772.451   1
   1 -13  12 8614.09 808.180   5
   1 -12  13 7899.92 804.464   5
  -1  13  12 8773.62 891.460   2
  -1  12  13 7569.75 813.385   2
   1 -12  13 7057.20 742.946   1
 -13 -12  -1 7797.85 846.042   4
 -12 -13  -1 7802.27 843.011   4
   1 -13  12 7650.70 566.341   4
 -13  12  -1 7861.42 835.242   2
  -1 -12  13 7820.90 796.936   5
  -1 -12  13 6827.35 699.314   1
  13   1  12 8958.67 966.049   1
  12  -1 -13 8225.57 822.319   3
  12   1  13 7058.23 866.515   1
  13  -1 -12 8663.78 832.443   3
   1  13  12 7860.50 700.278   1
  12 -13  -1 6958.28 722.318   1
  13 -12  -1 9546.10 870.747   1
   1  12  13 8498.81 766.057   1
  12  13   1 8309.70 836.125   3
  13  12   1 9016.88 895.236   3
 -12  13  -1 8588.89 884.079   2
   1  13  12 9068.12 896.276   2
   1  12  13 8285.69 844.110   2
  -1 -13  12 9404.20 849.084   5
  -1 -13  12 8531.94 744.753   1
  -1 -12  13 8430.77 573.869   4
 -13 -12   1 9057.72 897.258   4
 -12 -13   1 7081.30 805.621   4
  -1 -13  12 7465.19 582.665   4
   3  12  13 3615.17 489.197   1
 -12  13  -3 3673.14 575.567   2
 -13  12  -3 2945.46 517.770   2
  12  -3 -13 3979.00 554.508   3
  13  -3 -12 3424.33 516.539   3
  -3 -13  12 3394.27 465.021   1
  13 -12  -3 4306.00 423.054   3
  12  13   3 3468.05 540.439   3
  13   3  12 2664.45 533.774   1
   3  13  12 3488.75 538.789   2
  12   3  13 4024.90 650.896   1
  -3 -12  13 3884.19 582.123   5
  -3 -13  12 4344.45 586.508   5
  -3 -12  13 3639.47 410.276   4
  -3 -13  12 3847.79 445.756   4
  -3 -12  13 3436.78 488.873   1
 -13 -12   3 3282.91 540.927   4
   3  13  12 3426.49 443.786   1
 -12 -13   3 4951.25 666.420   4
   3  12  13 4084.90 570.151   2
  13   5  12 6950.01 834.793   1
  12  -5 -13 6812.03 685.298   3
  12   5  13 7563.41 858.064   1
  13  -5 -12 6616.83 683.387   3
  -5 -13  12 7279.51 667.354   1
   5  12  13 6456.80 724.223   2
   5  13  12 6613.65 756.915   2
  -5 -12  13 6736.49 697.485   1
  -5 -12  13 8051.20 853.273   5
   5  13  12 7217.99 634.494   1
  -5 -12  13 6460.72 583.555   4
 -13 -12   5 6716.07 777.429   4
  -5 -13  12 5889.16 584.825   4
 -12 -13   5 6956.52 790.949   4
 -12  13  -5 6664.25 746.325   2
   5  12  13 5758.43 632.504   1
 -13  12  -5 7582.77 765.794   2
  -7 -13  12 66.4850 144.301   1
 -12  13  -7 93.0115 132.943   2
 -13  12  -7 228.290 172.047   2
  12  -7 -13-19.3436 158.255   3
 -13 -12   7 185.719 216.070   4
  13  -7 -12-42.2443 153.765   3
   7  12  13 111.029 159.923   1
  -7 -13  12 135.415 131.235   4
  13   7  12-61.3314 138.966   1
  12   7  13 370.111 214.645   1
  -7 -12  13 46.2917 171.660   1
  -7 -12  13 297.106 174.423   4
 -12 -13   7-59.4453 196.348   4
  13   9  12 2216.08 445.428   1
  12   9  13 2501.80 458.497   1
  -9 -12  13 2662.46 442.291   4
  -9 -13  12 2385.95 434.238   4
 -12 -13   9 1646.64 423.435   4
 -13 -12   9 2119.19 448.486   4
 -12 -13  11 1356.13 369.716   4
 -13 -11  12 1144.29 326.478   4
 -11 -12  13 924.815 289.016   4
 -13 -12  11 1991.17 431.730   4
 -11 -13  12 1435.00 353.951   4
 -13 -13 -12 42.4991 97.5689   4
 -13 -13 -10 3779.54 637.483   4
 -10 -13 -13 2925.16 527.868   4
  13 -13  10 2576.15 525.443   1
  10 -13  13 2091.06 506.494   1
 -13 -13  -8-146.860 167.966   4
  13 -13   8-214.652 279.938   1
  -8 -13 -13 339.291 227.116   4
  -8  13  13-501.584 271.470   2
 -13  13   8-155.819 244.219   2
   8  13 -13-114.713 167.430   3
 -13   8  13-78.9738 180.596   2
  13   8 -13-218.521 202.895   3
  13  13  -8 179.439 205.513   3
  13  -8  13 5.56406 237.460   1
   8 -13  13-361.100 224.649   1
 -13 -13  -6 4492.62 677.505   4
  -6  13  13 6622.25 845.226   2
  -6 -13 -13 4864.73 634.209   4
 -13  13   6 5047.93 721.012   2
   6  13 -13 5579.16 757.855   3
  13   6 -13 5813.40 794.057   3
  13  13  -6 5245.49 735.535   3
  13  -6  13 6167.63 828.483   1
  13 -13   6 6579.15 783.143   1
   6 -13  13 4444.65 630.503   1
  -4  13  13-36.6704 226.937   2
 -13 -13  -4-170.211 236.120   4
   4 -13  13-458.609 228.852   1
  -4 -13 -13-7.79829 116.536   4
   4  13 -13 93.0308 194.694   3
 -13  13   4 118.988 193.763   2
  13   4 -13-205.160 205.236   3
  13  13  -4-44.7499 206.283   3
   4 -13  13-43.0587 170.799   5
  13  -4  13 43.3060 275.195   1
  13 -13   4 2.04257 148.432   1
 -13 -13  -2 5638.69 749.014   4
 -13  13   2 5679.40 753.076   2
  13   2 -13 6670.33 778.109   3
  13 -13   2 6744.46 757.595   1
  13  13  -2 5358.89 723.158   3
   2 -13  13 5731.64 675.164   1
  13  -2  13 6976.18 882.886   1
   2 -13  13 5285.27 666.457   5
  -2  13  13 5044.64 707.687   2
 -13  13   0 321.232 235.017   2
  13   0 -13 429.116 226.816   3
  13  13   0 39.3113 169.538   3
  13 -13   0-459.945 239.764   1
   0 -13  13 157.644 164.962   1
  13   0  13-50.1134 168.585   1
   0  13  13 2.19608 167.516   2
   0 -13  13 240.441 209.229   5
 -13 -13   0 11.4633 178.685   4
  -2 -13  13 6716.14 678.441   1
 -13  13  -2 6270.03 755.722   2
  13  -2 -13 5497.93 674.633   3
  13 -13  -2 5326.93 668.009   1
  13  13   2 5382.16 700.222   3
   2  13  13 6705.96 760.611   2
  13   2  13 6901.63 863.616   1
  -2 -13  13 6226.48 730.718   5
   2  13  13 6309.01 650.110   1
  -2 -13  13 5706.10 513.033   4
 -13 -13   2 4675.48 687.352   4
 -13  13  -4 71.2869 149.458   2
  13  -4 -13 158.409 145.056   3
 -13 -13   4-11.3195 150.854   4
   4  13  13 2.96503 130.763   1
  13   4  13 182.048 246.869   1
   4  13  13-2.04485 107.589   2
  -4 -13  13-353.251 286.056   5
  -4 -13  13 235.149 157.181   1
  -4 -13  13 37.3220 149.956   4
 -13  13  -6 5189.63 655.757   2
  13  -6 -13 5585.78 627.710   3
  -6 -13  13 4419.26 540.837   1
  13   6  13 5983.69 785.728   1
  -6 -13  13 6020.83 607.733   4
 -13 -13   6 5366.31 711.777   4
  -8 -13  13-132.340 150.250   4
 -13 -13   8-113.833 140.964   4
 -13 -13  10 1392.23 391.143   4
 -10 -13  13 2647.56 468.580   4
 -12 -13  13-189.441 180.402   4
   0   0  14 105.812 58.4754   2
   0   0  14 93.2028 188.057   1
  14   0   0 45.3453 135.735   1
   0   0 -14 89.1990 46.3405   4
   1   1 -14 731.727 108.702   4
  -1   1  14 1213.60 194.824   2
   1  14  -1 956.199 174.821   3
  -1  14   1 738.080 114.040   1
   1  -1  14 1187.23 351.066   1
  14   1  -1 843.575 282.893   1
   1  14  -1 875.932 273.807   2
  14  -1   1 749.101 262.993   1
  -1  14   1 686.526 252.318   2
  -1  -1 -14 986.982 102.570   4
   1  14   1 292.783 81.2241   3
  -1  -1  14 177.554 80.7544   2
   1   1  14 106.629 198.155   1
   1  14   1 303.008 200.005   2
  14   1   1 427.128 200.628   1
  -1  14  -1 165.788 160.734   2
   1   1  14 421.918 103.096   2
   1  -1 -14 541.194 108.449   4
   2   2 -14 16.1118 52.1417   4
  -2  14   2-4.16124 64.3266   1
  -2  -2 -14-23.4524 56.4563   4
  -2   2  14-29.9470 67.1400   2
   2  14  -2-66.7977 104.062   3
  14   2  -2-299.759 185.120   1
   2  -2  14 156.756 172.094   1
   2 -14   2-24.0835 51.4871   3
   2 -14   2-121.025 76.4977   1
   2  14  -2-73.3525 154.934   2
  14  -2   2-64.5795 187.803   1
  -2  14   2 61.5581 151.832   2
  -2   2  14 238.863 169.427   5
   2   0  14 15622.7 1130.94   1
  -2   0  14 14921.2 704.128   2
  -2  14   0 15880.3 677.064   1
   2  14   0 14427.5 668.964   3
  14   0  -2 15624.4 1085.34   1
  14   2   0 15359.8 1059.09   1
  14  -2   0 15176.9 1074.18   1
   0  -2  14 14188.9 1089.94   1
  14   0   2 14227.5 1042.85   1
   2  14   0 14310.8 1079.61   2
   0  14  -2 15148.3 1079.94   2
   0  14   2 17219.7 1174.44   2
  -2  14   0 14313.0 1070.44   2
   0   2  14 16098.4 747.626   2
   0  -2  14 14578.9 465.001   2
   2   0 -14 14654.6 628.657   4
  -2  14  -2 30.7912 57.5378   1
  -2 -14   2 158.262 198.326   4
  -2  14  -2 204.644 177.480   2
   2   2  14-190.279 240.263   1
   2  14   2 58.4209 52.5575   3
  14  -2  -2 121.326 196.189   1
   2   2  14-1.48729 56.1288   2
  -2  -2  14-118.557 149.648   5
   2  14   2-20.6478 122.293   2
  14   2   2 156.463 165.506   1
   3   3 -14 6269.35 404.244   4
  -3  -3 -14 5935.90 359.700   4
  -3   3  14 5904.54 516.833   2
  -3  14   3 6008.17 454.268   1
   3   3 -14 6596.47 681.290   3
   3  14  -3 5897.71 511.698   3
   3 -14   3 5649.39 398.276   3
   3  -3  14 5615.28 684.594   1
   3 -14   3 6306.61 436.646   1
  14   3  -3 4568.59 642.975   3
  14  -3   3 6336.06 715.446   1
  -3   3  14 6695.47 659.511   5
   3 -14   3 5745.66 397.527   5
 -14  -3  -3 6078.22 577.880   4
  -3  14   3 5091.39 676.643   2
   3   1 -14 2011.33 229.773   4
  -1   3  14 1393.09 246.430   2
  14  -1   3 1769.16 400.486   1
   1  14  -3 1356.39 230.357   3
   3  -1  14 1875.70 418.060   1
  -3  14   1 1946.73 248.098   1
  -3   1  14 2053.69 278.029   2
  -1  14   3 2421.57 215.330   1
   3  14  -1 1723.96 252.988   3
   3 -14   1 2301.10 253.739   1
  14   1  -3 2341.99 423.051   1
   1 -14   3 2212.36 212.691   1
   1 -14   3 1924.43 242.741   3
  14   3  -1 2098.37 403.927   1
   3  14  -1 2554.21 457.637   2
   1  14  -3 1986.53 390.176   2
  14  -3   1 1309.21 338.332   1
  -3   1  14 1921.81 368.754   5
  -1  14   3 2159.95 444.656   2
  -3  14   1 2316.88 446.671   2
   1  -3  14 1821.70 400.905   1
  -1  -3  14 2101.99 188.725   2
  -3 -14   1 1393.91 353.272   4
   1   3  14 1596.21 377.225   1
   3  14   1 1566.82 212.978   3
  -3  14  -1 1926.07 261.798   1
  -1 -14   3 2013.90 121.693   1
   3   1  14 1870.74 417.104   1
  14  -1  -3 1628.72 371.135   1
  14  -3  -1 2218.66 405.227   1
   3  14   1 1492.31 342.588   2
  14   3   1 2038.70 382.546   1
  -1  -3  14 1756.50 369.447   5
  -3  -1  14 2208.46 397.872   5
  -1  14  -3 2582.63 453.709   2
   1  14   3 1811.43 393.505   2
   1   3  14 1770.47 247.324   2
   3  -1 -14 2063.87 245.546   4
  -3  14  -1 2201.90 415.218   2
  14   1   3 1622.75 372.985   1
  -1  -3  14 1424.81 349.379   1
  -3 -14   3 6115.49 664.046   4
   3   3  14 5654.18 678.378   1
   3  14   3 6263.35 388.317   3
  14  -3  -3 6062.31 678.844   1
  14   3   3 6468.43 687.286   1
   3   3  14 6462.03 403.524   2
   3  14   3 6247.69 715.991   2
  -3  14  -3 6378.41 694.213   2
   3  14   3 6675.89 397.892   5
  -3  -3  14 6668.72 703.912   5
  -3  14  -3 6113.19 498.188   1
  -4  14   4 291.465 209.915   2
   4 -14   4-228.696 121.575   1
  14  -4   4-61.8533 175.019   1
  -4  -4 -14 16.3530 67.6255   4
   4   4 -14 88.4143 69.4792   4
  -4 -14  -4 491.319 291.624   4
   4   4 -14-93.6736 139.881   3
  -4   4  14-93.8171 119.431   2
   4  14  -4 3.68037 125.006   3
   4  -4  14-175.443 185.254   1
   4 -14   4 34.6226 61.2496   3
  14   4  -4-228.970 160.559   3
   4 -14   4-61.8685 93.5480   5
  -4   4  14-29.6335 89.2814   5
 -14  -4  -4 204.573 121.769   4
  -4 -14  -2 10053.5 890.123   4
  -4   2  14 11061.7 713.664   2
   4   2 -14 11807.5 899.609   3
   2  14  -4 10951.8 721.162   3
  -4  14   2 10882.9 660.732   1
   4  14  -2 11243.3 715.269   3
  14   4  -2 10566.9 862.001   1
   4  -2  14 11365.0 959.248   1
   4 -14   2 11558.3 521.110   3
  -4  14   2 12340.7 1022.10   2
   2 -14   4 10557.9 614.666   3
   4 -14   2 13627.8 687.902   1
  14   2  -4 11728.0 999.279   3
  14  -4   2 10367.0 903.383   1
   2  -4  14 9548.84 885.634   1
  14  -2   4 11821.9 969.857   1
  -2   4  14 10672.5 833.500   5
   2 -14   4 10333.3 568.939   1
  -4   2  14 11135.9 879.498   5
   4 -14   2 11513.1 515.511   5
   2 -14   4 11300.7 628.405   5
  -2  14   4 10025.6 928.570   2
 -14  -4  -2 11509.8 826.730   4
  -4  -2 -14 10545.1 359.595   4
   4   2 -14 11742.4 618.976   4
  -2   4  14 11987.9 754.438   2
  -2  14   4 10906.6 587.023   1
  14   0   4 227.116 196.037   1
   0 -14   4 54.9565 69.4945   1
  -4 -14   0 72.3119 164.954   4
   4   0 -14 187.083 170.642   3
   0  -4  14 466.678 196.709   1
   4  14   0 57.7801 78.9043   3
  -4  14   0 161.060 102.788   1
   4 -14   0 75.4572 88.1087   1
   0  14   4 361.508 86.1749   1
   0 -14   4 212.016 102.472   3
  14   0  -4 592.083 266.163   3
  14   4   0 337.270 212.023   1
   4  14   0 317.459 213.651   2
   0  14  -4 182.371 165.176   2
   4  14   0 336.621 118.573   5
  14  -4   0 228.730 130.102   1
   0  14   4 329.029 242.423   2
 -14  -4   0 73.0730 121.672   4
  -4   0  14 72.9176 122.758   5
   4   0  14 140.594 171.102   1
  -4  14   0 317.360 262.800   2
   0   4  14 103.340 105.511   2
  -4 -14   2 11543.3 927.444   4
  -2 -14   4 11775.5 914.047   4
   2  14   4 11876.9 425.748   3
   2   4  14 13484.3 1039.41   1
   4  14   2 12682.4 653.098   3
  14  -2  -4 12871.7 1000.66   1
  14  -4  -2 11230.8 940.179   1
  14   4   2 10662.8 868.708   1
  14  -2  -4 10609.5 883.961   3
   4   2  14 11346.6 963.844   1
  -2 -14   4 11391.9 371.006   1
   4  14   2 12098.8 991.320   2
   2  14   4 10626.7 934.244   2
  -2  14  -4 10270.9 873.096   2
   2   4  14 9894.96 613.119   2
  14   2   4 11947.9 944.171   1
   4  14   2 11833.3 634.711   5
  -4  -2  14 11580.1 928.034   5
  -4  14  -2 10527.0 916.308   2
  -2  -4  14 12562.1 961.103   5
 -14  -4   2 11139.2 827.933   4
  -4 -14   4-181.732 149.879   4
   4   4  14 301.899 218.862   1
   4  14   4-30.2203 71.0666   5
  14  -4  -4-151.579 134.495   1
   4  14   4 22.8186 85.6124   3
  14  -4  -4 20.9590 154.118   3
   4  14   4 111.147 182.037   2
  -4  -4  14 252.811 204.769   5
  -4  14  -4 48.1381 134.743   2
  14   4   4-58.3955 159.993   1
  -5  -5 -14 13827.5 694.298   4
  -5   5  14 14253.6 935.626   2
  -5 -14  -5 11672.4 977.190   4
   5   5 -14 13032.9 1024.24   3
   5  14  -5 13408.3 916.071   3
   5 -14   5 12677.3 721.438   3
  14   5  -5 14786.0 1171.96   3
 -14  -5  -5 12346.6 879.862   4
   5 -14   5 12538.5 710.554   5
   5 -14   5 12435.7 768.774   1
  14  -5   5 13400.5 1070.04   1
  -5   5  14 12202.6 918.261   5
  -5  14   5 12792.2 810.817   1
  -5  14   5 12004.5 1054.77   2
   5  -5  14 12766.5 1043.17   1
  -5  -3 -14 546.260 102.127   4
  -5  14   3 896.575 302.644   2
  -3  14   5 649.095 272.205   2
  14  -3   5 598.019 263.781   1
  -3   5  14 1329.45 307.324   5
  -5 -14  -3 1214.94 324.040   4
  -3  -5 -14 932.230 193.387   4
   3 -14   5 957.079 195.524   1
  -3   5  14 1205.09 263.771   2
   5  -3  14 568.796 249.097   1
   3   5 -14 1055.33 295.618   3
   5   3 -14 829.458 277.108   3
   3  14  -5 428.088 180.380   3
  -5   3  14 587.211 187.943   2
   5  14  -3 783.861 224.263   3
   5 -14   3 1248.16 183.767   3
   3 -14   5 874.947 189.510   3
  -5  14   3 857.685 206.289   1
  14   3  -5 1204.66 327.642   3
  14   5  -3 648.388 296.512   3
   3  -5  14 881.531 310.354   1
   5 -14   3 817.328 154.998   5
   3 -14   5 745.318 165.172   5
  -5   3  14 875.513 275.811   5
   5 -14   3 346.136 158.179   1
 -14  -3  -5 800.421 214.355   4
 -14  -5  -3 570.106 207.078   4
  14  -5   3 865.486 296.842   1
  -5 -14  -1 7345.59 756.913   4
  14  -1   5 6460.90 733.070   1
   1  14  -5 6605.09 566.898   3
   5   1 -14 6945.76 679.974   3
   5  -1  14 6865.93 761.716   1
   5  14  -1 7709.30 598.032   3
  14   5  -1 7118.02 683.436   1
   5 -14   1 7249.36 336.750   3
   1 -14   5 8076.99 573.587   3
   5 -14   1 7697.51 542.359   1
  14   1  -5 8994.33 855.902   3
  14  -5   1 7103.18 731.287   1
   1  14  -5 7200.77 717.337   2
   5  14  -1 7506.87 591.620   5
  -5   1  14 6776.20 701.813   5
   5 -14   1 7204.97 333.352   5
   1  -5  14 7622.60 775.613   1
   1 -14   5 7914.89 561.206   5
  -1  14   5 7914.29 815.755   2
  -1  14   5 7412.30 454.697   1
  -5  14   1 6361.69 738.537   2
 -14  -5  -1 7200.55 665.316   4
  -1   5  14 6704.41 586.341   2
   1 -14   5 7031.14 456.669   1
  -5 -14   1 6987.09 731.816   4
  -1 -14   5 5949.88 646.191   4
   5  -1 -14 7043.43 663.256   3
   5   1  14 6823.50 744.273   1
   5  14   1 6852.77 532.745   3
  -1  -5  14 6305.69 717.517   1
  14  -5  -1 6470.14 706.016   1
  14   5   1 6356.64 658.685   1
  14  -1  -5 6693.25 715.988   3
  -1 -14   5 6835.32 554.054   3
   1  14   5 7390.22 342.576   1
  -1  14  -5 6175.47 662.298   2
   1  14   5 7299.03 772.147   2
  -1  -5  14 7277.20 377.209   2
  -1  -5  14 6903.53 722.027   5
   5  14   1 6703.22 527.192   5
   1   5  14 7166.65 763.964   1
  -5  -1  14 7496.38 750.149   5
   1   5  14 6476.18 546.402   2
  14   1   5 7018.42 739.168   1
  -5  14  -1 7246.82 771.023   2
 -14  -5   1 6235.08 629.341   4
   5  -1 -14 7137.64 538.659   4
   1  14   5 7258.17 332.447   1
  -1 -14   5 7348.42 397.291   1
  14   3   5 575.559 248.265   1
  -5 -14   3 752.601 257.047   4
  -3 -14   5 577.054 251.959   4
   5  -3 -14 544.886 205.651   3
  -3 -14   5 849.949 105.023   1
   3  14   5 606.086 116.139   3
  14  -5  -3 580.736 245.912   1
   5  14   3 280.729 133.426   3
  14  -3  -5 490.791 224.580   3
  -5  14  -3 943.322 225.855   1
  -3  -5  14 1005.75 180.100   2
   5  14   3 419.886 193.464   2
   3   5  14 1169.56 321.291   1
   3   5  14 748.160 191.564   2
   3  14   5 953.976 289.647   2
  -3  -5  14 1080.89 313.686   5
  -5  -3  14 687.608 286.493   5
   3  14   5 1002.61 144.947   5
   5  14   3 753.853 172.999   5
  -3  14  -5 700.470 239.423   2
   5   3  14 775.494 254.963   1
  14   5   3 928.317 280.601   1
 -14  -5   3 673.792 239.385   4
  -5  14  -3 594.225 219.814   2
  -5 -14   5 12892.0 979.439   4
  -5 -14   5 15038.0 428.431   1
   5   5  14 15276.1 1121.77   1
  14  -5  -5 14065.5 972.723   3
   5  14   5 13059.0 733.027   3
  -5 -14   5 12782.0 405.225   1
   5  14   5 12870.8 1049.46   2
  14   5   5 14492.0 1031.78   1
  -5  14  -5 13110.3 1005.05   2
  -5  -5  14 14671.9 1093.33   5
  -5  14  -5 14469.2 947.555   1
  -6  14   6 37.7976 140.414   2
  -6  -6 -14-235.945 120.551   4
  14  -6   6 50.9356 184.329   1
   6   6 -14 16.4370 115.674   4
  -6 -14  -6 349.450 216.744   4
  -6  14   6-5.48289 86.8756   1
   6 -14   6 170.017 136.226   1
  -6   6  14 73.4205 156.666   2
   6   6 -14-49.9528 149.346   3
   6  14  -6 6.53040 135.437   3
   6 -14   6-90.4339 81.3016   3
   6  -6  14 6.32429 181.430   1
  14   6  -6 234.932 191.792   3
  -6   6  14 123.180 136.642   5
 -14  -6  -6 135.875 134.738   4
   6   4 -14 11322.7 701.164   4
  -6 -14  -4 12447.7 1010.74   4
  -4  -6 -14 10273.9 664.562   4
  -6   4  14 10505.7 801.167   2
   4   6 -14 8720.07 837.995   3
   6   4 -14 10623.9 913.988   3
   4  14  -6 10814.4 825.357   3
   6 -14   4 11119.1 628.727   3
   6  14  -4 10486.2 810.706   3
   4 -14   6 11671.1 714.862   3
  -4   6  14 11365.5 856.874   3
  14   4  -6 9149.73 916.784   3
  14   6  -4 11236.4 1039.60   3
   6 -14   4 11068.2 740.395   1
  14  -6   4 11156.1 966.094   1
   4 -14   6 11302.1 703.586   5
  -4  14   6 10557.2 713.984   1
  -6   4  14 11053.6 887.571   5
  14  -4   6 9686.57 943.683   1
   6  -4  14 9673.62 918.338   1
  -4  14   6 10425.7 970.154   2
 -14  -4  -6 11596.2 822.119   4
 -14  -6  -4 11808.6 878.244   4
  -6  14   4 11183.2 1004.72   2
   4 -14   6 11345.0 719.699   1
  -4   6  14 9589.18 775.708   5
  -6  -4 -14 10692.3 543.679   4
  -6  14   4 10496.9 753.911   1
  -4   6  14 10006.5 800.273   2
   4  -6  14 10846.0 953.211   1
   6   2 -14-14.3183 86.5649   4
  -2  14   6 253.144 115.325   1
  -6  14   2-212.579 186.627   2
  -2   6  14 333.531 160.985   2
  -6 -14  -2-115.673 153.377   4
  14  -2   6 147.624 207.453   1
   2  14  -6 48.5082 127.457   3
   6   2 -14 17.0157 147.741   3
  14  -2   6 241.889 119.754   4
   2 -14   6 59.4694 105.291   1
   6 -14   2 89.9161 74.4177   3
   6  14  -2 87.8571 108.904   3
  -2   6  14-101.272 120.252   3
   2 -14   6 1.02294 104.600   3
  14   2  -6 169.253 200.797   3
  14   6  -2-191.527 209.149   3
   2  -6  14-235.310 223.021   1
  -6  14   2 157.359 121.760   1
   6 -14   2 114.778 76.4968   5
   6 -14   2 114.374 110.589   1
   6  14  -2 152.994 125.854   5
  -2   6  14 158.493 157.633   5
   2 -14   6 91.6540 138.478   5
  -6   2  14-44.3057 149.570   5
  14  -6   2 196.072 185.815   1
 -14  -6  -2 242.826 156.521   4
  -2  14   6-70.6260 161.159   2
   6  -2  14-28.7727 203.729   1
   6   0  14 7425.86 807.524   1
  -6 -14   0 6888.76 745.430   4
   0 -14   6 9000.05 521.521   1
   0  -6  14 7667.41 787.183   1
   0 -14   6 8960.37 783.688   4
   6   0 -14 8854.09 762.686   3
 -14  -6   0 8241.34 681.512   1
   0   6  14 6848.65 660.243   3
   6  14   0 9040.48 670.133   3
   6 -14   0 9164.84 621.084   1
  14   6   0 7617.93 697.304   1
   0 -14   6 9399.32 665.466   3
  14  -6   0 7247.95 761.179   1
  14   0  -6 7419.37 777.007   3
  -6  14   0 7630.91 652.839   1
   0  14  -6 6803.51 698.072   2
   0  14   6 7546.94 452.889   1
   6  14   0 9253.07 674.836   5
   0  -6  14 7369.48 748.511   5
  -6   0  14 8730.13 820.603   5
   0 -14   6 7916.41 610.375   5
  14   0   6 6759.62 763.546   1
   0  14   6 8324.00 837.722   2
  -6  14   0 7380.40 790.766   2
 -14  -6   0 8190.48 735.900   4
   6   0 -14 7954.04 597.068   4
   0   6  14 7667.54 648.095   2
   0  -6  14 8448.41 301.550   2
   2  14   6 124.595 66.0189   1
  -6 -14   2 40.6964 161.576   4
  -2 -14   6-79.2387 154.876   4
  14   2   6 97.0019 154.117   1
   6   2  14 148.369 193.348   1
   2  14   6 32.3756 36.2269   3
   6  -2 -14-159.292 163.669   3
  -6  14  -2 118.113 130.140   1
   2  14   6 77.3356 38.1330   3
  -2  -6  14 116.535 185.525   1
   6  14   2-7.58213 107.794   3
  14  -2  -6-46.7399 126.474   3
   2   6  14 53.2382 112.327   2
  -2 -14   6 224.888 146.159   3
  14  -6  -2 252.140 234.904   1
   2   6  14 172.665 149.665   1
  -2 -14   6 44.4548 78.9033   1
  14   6   2 285.300 176.307   1
  -2  14  -6-61.8168 164.404   2
  -2  -6  14-82.0454 130.880   5
   2  14   6 15.6493 29.4940   5
  -2  -6  14-88.5392 63.6361   2
   2  14   6 554.889 273.573   2
   6  14   2 84.9034 92.4460   5
  -6  -2  14 342.059 209.956   5
   6  -2 -14 17.2912 89.5978   4
 -14  -6   2 267.304 168.765   4
   2  14   6 75.7468 51.9888   1
  -6  14  -2-38.4718 183.778   2
  -6 -14   4 10105.4 880.051   4
  -4 -14   6 9709.89 831.362   4
   6   4  14 11534.0 979.341   1
   6  -4 -14 11701.3 823.883   3
  14  -6  -4 11396.8 960.065   1
  -6  14  -4 10244.5 807.555   1
  -4 -14   6 9803.16 474.946   1
  14  -4  -6 11215.7 876.378   3
   6  14   4 10640.8 707.075   3
   4  14   6 11219.1 608.233   3
  14  -6  -4 11442.1 853.433   3
  14   6   4 10169.8 830.398   1
  -4  -6  14 12001.4 698.040   2
   4   6  14 10505.1 913.753   1
   4   6  14 11377.6 708.792   2
   4  14   6 11809.8 985.638   2
  -4  14  -6 9114.56 820.844   2
  -4  14  -6 10340.0 792.338   1
  -6  -4  14 13309.4 1049.77   5
  -6  14  -4 10884.7 921.462   2
  14   4   6 11644.4 960.993   1
 -14  -6   4 11164.0 867.147   4
  -4  -6  14 11389.0 952.070   5
  14   6   6 29.2805 141.408   1
  -6 -14   6-46.8150 128.405   4
   6   6  14-23.0076 124.439   1
  14  -6  -6 429.132 208.925   3
  -6 -14   6-12.9512 43.4409   1
  -6  -6  14-190.458 220.334   5
 -14  -6   6 198.512 173.854   4
  -6  14  -6-170.562 163.359   2
  -7 -14  -7 6908.90 763.141   4
  -7  14   7 5761.18 754.701   2
   7  14  -7 6236.52 690.347   3
  -7   7  14 5323.99 633.911   2
   7  -7  14 4654.22 654.952   1
   7   7 -14 6056.90 731.970   3
  14   7  -7 4929.99 711.388   3
  14  -7   7 6924.13 803.682   1
   7 -14   7 5680.12 597.599   1
 -14  -7  -7 5295.00 604.052   4
  -7  -7 -14 6063.54 534.562   4
  -5  14   7 1038.64 245.778   1
  -7  -5 -14 852.104 179.310   4
  14  -7   5 1196.66 336.992   1
   7 -14   5 555.444 183.990   1
  -5  14   7 1246.68 340.654   2
  -7  14   5 881.970 331.447   2
   7   5 -14 1117.10 236.467   4
  -5  -7 -14 999.669 215.842   4
  -7 -14  -5 374.890 245.796   4
  -5 -14  -7 478.437 219.762   4
  14  -5   7 892.559 295.275   1
  -5   7  14 1142.74 302.194   2
   5   7 -14 1232.38 339.423   3
   7   5 -14 1011.99 302.098   3
  -7   5  14 1069.11 287.211   2
   5  14  -7 888.292 274.395   3
  -5  -7 -14 429.438 181.236   2
   5 -14   7 574.197 198.463   1
   7 -14   5 1046.50 215.118   3
   7  14  -5 863.794 260.530   3
   5 -14   7 851.300 203.947   3
   7  -5  14 912.761 285.929   1
  14   5  -7 983.449 350.893   3
  -5   7  14 338.241 150.565   3
  14   7  -5 673.798 292.017   3
   5  -7  14 1343.23 374.346   1
  -5   7  14 971.630 254.660   5
 -14  -5  -7 711.688 220.090   4
 -14  -7  -5 752.042 239.406   4
   3 -14   7 7090.09 571.235   1
  -7 -14  -3 7414.47 797.810   4
 -14  -3  -7 7361.25 628.487   4
   3  -7  14 7358.04 778.243   1
  -7  14   3 7444.15 655.774   1
   3   7 -14 6526.34 728.566   3
   3  14  -7 5986.55 629.438   3
   7   3 -14 7903.53 786.973   3
   7 -14   3 8327.37 505.010   3
   7  14  -3 8008.17 709.930   3
   3 -14   7 7616.86 610.656   3
  -7   3  14 6345.88 620.645   2
  -3   7  14 8227.24 697.535   3
  14   3  -7 7175.40 801.861   3
  14   7  -3 8002.00 873.336   3
   7 -14   3 7123.64 609.451   1
  14  -7   3 6855.02 750.485   1
  -3  14   7 7548.56 599.942   1
   3 -14   7 7746.28 601.718   5
  -3   7  14 7371.74 654.009   5
 -14  -7  -3 7218.01 637.665   1
   7  -3  14 7255.23 810.452   1
  -3  14   7 6414.26 772.644   2
  -7  -3 -14 7271.38 391.386   4
 -14  -7  -3 6740.63 684.368   4
  14  -3   7 8408.18 875.741   1
  -7  14   3 7785.57 838.647   2
  -7   3  14 7638.37 767.205   5
  -3   7  14 7451.87 696.618   2
  14  -3   7 7733.80 598.384   4
   7   3 -14 7499.98 591.656   4
  -7 -14  -1 5540.28 682.149   4
   1 -14   7 6033.80 626.702   4
   1 -14   7 6407.60 494.817   1
   7   1 -14 6424.63 681.119   3
  14  -1   7 6001.79 736.318   1
   7 -14   1 6829.20 359.030   3
  -1   7  14 5933.88 593.554   3
  -7  14   1 6617.22 622.215   1
   7  14  -1 6091.21 589.388   3
   1 -14   7 5677.56 532.014   3
 -14  -7  -1 5505.07 548.854   1
  14   1  -7 6270.54 720.550   3
   7 -14   1 6281.38 557.440   1
   1  -7  14 6528.45 720.667   1
  14  -7   1 5558.42 666.275   1
  -1  14   7 6756.89 490.010   1
  14   7  -1 7470.63 817.839   3
  -1   7  14 6387.87 610.277   5
   7  -1  14 4664.46 648.134   1
   7  14  -1 5755.49 575.048   5
   1 -14   7 6721.59 573.814   5
  -7   1  14 5699.90 690.931   5
  -1   7  14 5093.04 560.112   2
 -14  -7  -1 6701.24 672.129   4
  -7  14   1 7138.64 776.035   2
   7   1 -14 6661.85 555.109   4
  -1  14   7 5873.28 729.051   2
  14  -1   7 6316.75 536.357   4
  -7 -14   1 6074.66 695.015   4
  -1 -14   7 6306.39 646.210   4
   1   7  14 6099.77 592.747   2
   1  14   7 7075.77 459.550   1
 -14  -7   1 7371.71 635.278   1
   7  -1 -14 6974.23 672.718   3
   1   7  14 7029.95 649.734   3
  -1 -14   7 6656.58 477.211   1
   1   7  14 4869.58 637.510   1
   7 -14  -1 5585.87 529.632   1
   7  14   1 6962.52 616.054   3
  14   7   1 6334.52 620.476   1
  14  -1  -7 7587.96 754.241   3
  14  -7  -1 6256.35 714.367   1
  -1 -14   7 5702.58 560.581   3
  -1  -7  14 6462.31 404.830   2
   1  14   7 6809.82 435.010   1
  -7  -1  14 7053.40 764.277   5
  -7  14  -1 6098.07 604.259   1
  -1  14  -7 5804.62 635.988   2
   7  14   1 6181.84 580.684   5
  -1  -7  14 6390.35 699.072   5
  -1 -14   7 6039.98 574.270   5
   1  14   7 5121.35 666.448   2
 -14  -7   1 7189.86 702.241   4
   7  -1 -14 5918.70 556.691   4
   7   1  14 6586.06 756.130   1
  -7  14  -1 6709.81 757.977   2
  14   1   7 6041.97 734.227   1
  -1  -7  14 6041.21 697.491   1
  -3 -14   7 8696.79 766.757   4
  -7  -3  14 6700.44 767.337   5
   7  -3 -14 8988.90 747.896   3
  14  -7  -3 8693.05 830.000   1
  14  -3  -7 6699.62 696.900   3
   7  14   3 8400.72 665.178   3
  -3 -14   7 8230.07 499.334   1
  14   7   3 7766.17 699.416   1
   3  14   7 7841.44 449.771   3
  -3  -7  14 6495.91 729.914   1
  -3  14  -7 8044.64 737.138   2
   3   7  14 7875.96 638.396   2
   3  14   7 7636.14 806.843   2
  -3  -7  14 8329.93 556.608   2
   3  14   7 7802.52 418.685   1
  -3  -7  14 9433.26 867.323   5
  -7  14  -3 8171.15 815.083   2
 -14  -7   3 7600.48 729.645   4
  14   3   7 7633.11 801.768   1
   7   3  14 7715.98 813.626   1
   3   7  14 8867.05 831.371   1
  -7  14  -3 8805.35 754.671   1
  -7 -14   3 8694.14 828.760   4
  -7 -14   5 715.943 277.686   4
  -5 -14   7 752.093 243.157   4
  14   5   7 989.453 309.489   1
   7  -5 -14 921.794 256.565   3
  -5  14  -7 1378.56 312.956   1
  14  -5  -7 1261.04 331.221   3
  14  -7  -5 1409.13 294.478   3
   7  14   5 976.761 241.447   3
   5   7  14 1082.03 311.937   1
  -5 -14   7 528.372 141.419   1
   5  14   7 1539.10 365.157   2
  -5  -7  14 1216.58 257.242   2
 -14  -7   5 1188.58 291.438   4
  -5  -7  14 456.958 229.287   5
  -5  14  -7 1052.05 281.327   2
  -7  -5  14 891.659 293.800   5
   7   5  14 897.964 298.619   1
  14   7   5 863.037 288.891   1
  -7  14  -5 767.355 273.432   2
 -14   7  -7 7498.46 665.126   2
  14  -7  -7 7223.09 662.033   3
  -7  14  -7 6652.90 698.925   2
  14   7   7 7194.69 722.650   1
  -7  -7  14 7185.86 810.363   5
 -14  -7   7 7230.03 725.506   4
   7   7  14 7508.16 783.571   1
  -7 -14   7 7897.51 769.090   4
   8  -8  14-269.037 196.996   1
  -8  -8 -14 241.553 152.577   4
  -8 -14  -8 23.6219 196.022   4
  -8  14   8 48.2490 202.647   2
  14  -8   8-103.040 208.504   1
  -8   8  14-7.93479 168.449   2
   8 -14   8 222.582 159.531   1
   8   8 -14 109.948 202.047   3
   8  14  -8 6.22464 186.087   3
  14   8  -8 219.458 228.645   3
 -14  -8  -8-17.3933 170.033   4
  -6   8  14 18687.1 1230.60   2
  -6  -8 -14 19183.4 1044.38   4
  -8 -14  -6 18589.2 1303.00   4
  -6 -14  -8 19765.9 1310.83   4
  -8   6  14 19539.9 1229.82   2
   6   8 -14 18469.4 1312.67   3
   8   6 -14 20102.1 1366.82   3
   6  14  -8 17484.8 1210.54   3
   8  14  -6 17029.2 1197.27   3
  14   6  -8 19186.6 1394.46   3
  14   8  -6 18348.7 1380.57   3
   8  -6  14 15802.2 1262.98   1
   6  -8  14 19503.2 1345.36   1
  14  -8   6 19759.9 1354.56   1
   8 -14   6 19690.0 1135.76   1
 -14  -6  -8 18737.5 1119.67   4
 -14  -8  -6 17726.9 1174.34   4
  14  -6   8 20630.2 1422.30   1
  -6  14   8 20715.2 1440.47   2
  -8  -6 -14 19424.4 933.647   4
  -8  14   6 18382.8 1354.86   2
   6 -14   8 19012.5 1109.16   1
  14  -4   8-7.27176 51.4108   4
  -4  14   8-33.8438 197.739   2
  14  -8   4 128.572 183.006   1
  -8 -14  -4-8.30891 145.834   4
  -8  14   4-242.696 242.133   2
  -4   8  14 10.3440 169.234   2
  -4  -8 -14 6.40701 86.4251   4
 -14  -8  -4 52.4191 99.2294   1
   4   8 -14-65.4981 187.693   3
   4  14  -8 72.5938 128.607   3
  14  -4   8 98.1922 212.699   1
   8   4 -14-154.800 198.838   3
   8  -4  14 132.126 170.918   1
  -8   4  14 114.446 132.608   2
  -4  -8 -14 2.96499 48.4850   2
   8  14  -4 57.2205 170.739   3
   4 -14   8-76.2124 140.486   1
  14   4  -8 109.880 161.793   3
  -4   8  14-368.476 163.144   3
  14   8  -4 195.635 207.333   3
  -4   8  14-99.9331 122.859   5
   4 -14   8-14.9937 125.068   5
 -14  -4  -8-44.9125 125.417   4
  -4  14   8 24.4246 103.098   1
   8 -14   4 58.7496 127.545   1
  -8  -4 -14 42.6418 55.1285   4
 -14  -8  -4-106.548 170.569   4
   4  -8  14-18.1152 133.520   1
  -8 -14  -2 4763.39 645.281   4
  -8  14   2 5386.68 714.928   2
   2  -8  14 5524.39 669.633   1
   2 -14   8 3854.56 505.697   4
   2  14  -8 5032.09 572.122   3
   2 -14   8 5553.50 516.328   1
   2 -14   8 4817.96 556.169   2
  14  -2   8 5388.55 714.704   1
   8   2 -14 5011.15 619.265   3
  -2   8  14 5547.86 560.905   3
   8  14  -2 4954.68 575.383   3
   8  -2  14 4582.31 664.957   1
   8 -14   2 4743.43 510.274   1
  14   2  -8 4930.32 662.830   3
  -2  14   8 5032.05 481.130   1
  14   8  -2 4683.42 684.478   3
 -14  -8  -2 4884.20 504.101   1
  -2   8  14 4364.11 489.444   5
   2 -14   8 5399.39 533.443   5
  14  -8   2 5087.23 651.375   1
  -2   8  14 5837.02 633.298   2
 -14  -8  -2 5060.05 609.495   4
  -2  14   8 5821.79 735.645   2
  14  -2   8 5038.21 466.469   4
  -8 -14   0 9.97600 116.929   4
  -8  14   0 276.310 222.615   2
  14   0   8 5.47357 71.8592   4
   0  -8  14 148.004 180.564   1
   0 -14   8-112.126 145.291   4
   8   0 -14-76.6808 151.828   3
  14   0   8 24.2455 173.743   1
   0   8  14-46.4294 101.591   3
  14   8   0 37.1405 114.325   1
  14   0  -8 354.589 238.045   3
   8   0  14-39.2035 160.182   1
   8  14   0 90.1778 138.751   3
   0 -14   8 130.334 108.993   5
   8 -14   0-18.9027 117.774   1
  14  -8   0 28.7155 182.925   1
   0  14   8 21.8390 73.7210   1
   8  14   0-217.796 146.673   5
   0  -8  14 145.615 179.286   5
   0  14   8-6.25205 195.409   2
   0 -14   8-88.9852 95.1635   1
   0   8  14 26.1079 134.471   2
 -14  -8   0 45.4571 138.983   4
 -14  -8   0-204.044 136.264   1
  -2 -14   8 5236.41 584.744   4
  -8  14  -2 5139.75 658.341   2
 -14  -8   2 5742.95 546.701   1
   8  -2 -14 5672.16 616.958   3
   2   8  14 5813.07 673.910   1
  14   2   8 4945.46 662.733   1
  14  -2  -8 6094.41 668.096   3
  14   8   2 5276.70 547.850   1
   8  14   2 5040.33 546.050   3
   2  14   8 4900.92 398.344   1
  -2 -14   8 5282.91 452.727   1
   8  14   2 4755.89 539.960   5
  14  -8  -2 5900.58 685.775   1
   8   2  14 5654.39 726.416   1
  -2  14  -8 5957.77 620.985   2
   2   8  14 5314.36 567.813   2
  -2  -8  14 5291.37 654.031   5
   2  14   8 5255.68 665.295   2
  -2 -14   8 5528.90 577.432   5
 -14  -8   2 5372.48 636.350   4
  -2  -8  14 4956.20 630.232   1
  -8 -14   2 5742.52 686.620   4
  -8  14  -4-9.58621 137.720   2
  -8 -14   4 253.582 186.901   4
  -4 -14   8 59.4027 165.969   4
   4   8  14-34.7582 138.952   1
   8  -4 -14-16.2518 137.415   3
  14   4   8 265.501 209.581   1
   4  14   8-38.4585 66.2465   1
 -14   8  -4 49.5509 168.707   2
   4  14   8-156.165 204.912   2
  14  -4  -8 388.964 202.524   3
  14  -8  -4-26.3267 145.049   3
   8  14   4-88.9509 138.470   3
   8   4  14-204.936 243.984   1
  -4 -14   8-169.384 96.9949   1
   4   8  14 72.7250 116.493   2
  -4  14  -8 657.555 255.247   2
  -4  -8  14-3.98837 146.398   1
  -4  -8  14 33.9464 128.520   5
  14   8   4 57.7966 114.812   1
 -14  -8   4 40.6936 120.152   4
   6   8  14 16993.6 1176.23   1
   8  -6 -14 17573.0 1049.19   3
 -14   8  -6 18904.7 1128.50   2
  -6 -14   8 23727.0 979.916   1
  14  -6  -8 18885.4 1127.85   3
  14  -8  -6 17222.0 1034.97   3
  -6  14  -8 17483.0 1130.08   2
  14   8   6 17779.0 1120.06   1
   8   6  14 17769.9 1249.70   1
  -6  -8  14 19324.2 1336.30   5
  -8  14  -6 18582.9 1223.89   2
 -14  -8   6 18929.5 1219.92   4
  14   6   8 18084.1 1236.30   1
  -8 -14   6 19483.6 1250.91   4
  -6 -14   8 19025.4 1180.42   4
  -8 -14   8 85.6658 129.489   4
  14   8   8-50.9148 153.995   1
 -14   8  -8-21.8006 86.5318   2
   8   8  14-75.9574 141.933   1
  14  -8  -8 142.448 152.471   3
 -14  -8   8-97.7642 165.739   4
  -8  14  -8-287.625 181.564   2
  -9  -9 -14 201.394 155.848   4
  -9 -14  -9 685.190 302.676   4
  -9  14   9 854.953 321.243   2
  14  -9   9 450.476 212.839   1
  -9   9  14 469.064 251.591   2
   9 -14   9 288.810 177.224   1
   9   9 -14 598.414 296.427   3
 -14   9   9 132.690 205.750   2
   9  14  -9 272.957 245.285   3
  14   9  -9 777.298 304.542   3
   9  -9  14 1299.91 404.412   1
 -14  -9  -9-55.9440 131.983   4
  -9  -7 -14 1066.37 233.024   4
  -7  14   9 802.732 314.886   2
  -7  -9 -14 865.159 240.218   4
  -9 -14  -7 1035.51 355.658   4
  14  -9   7 1306.63 370.032   1
   7  -9  14 1362.26 378.675   1
  -7 -14  -9 757.261 291.373   4
   9 -14   7 1093.73 291.720   1
  -9  14   7 650.391 273.162   2
  -7   9  14 970.661 280.843   2
  14  -7   9 1598.94 450.853   1
   7   9 -14 922.868 350.851   3
  -9   7  14 1595.95 368.139   2
   9   7 -14 1185.74 345.838   3
   7  14  -9 1068.65 338.101   3
 -14   9   7 1055.20 339.771   2
   7 -14   9 789.535 251.778   1
   9  14  -7 968.926 327.938   3
  14   7  -9 1200.71 374.688   3
  14   9  -7 1193.06 369.182   3
 -14  -7  -9 1349.86 309.077   4
 -14  -9  -7 914.913 286.766   4
   9  -7  14 641.731 297.426   1
  -9 -14  -5 6862.91 778.802   4
  -5  14   9 5401.53 743.913   2
  -5  -9 -14 5770.30 590.613   4
   5 -14   9 6684.00 644.324   1
  -5 -14  -9 6856.99 760.705   4
   9  -5  14 5259.70 732.489   1
  -9  14   5 5949.83 775.213   2
  -9   5  14 6385.70 697.049   2
   9   5 -14 6538.06 767.704   3
   5   9 -14 5667.22 721.507   3
   5  14  -9 5143.14 658.340   3
  14  -5   9 5507.44 749.254   1
 -14   9   5 6482.13 748.600   2
   9  14  -5 5577.41 668.129   3
  14   5  -9 6012.15 752.801   3
  14   9  -5 5217.73 727.781   3
   5  -9  14 6924.51 787.334   1
  14  -9   5 6069.44 731.778   1
 -14  -5  -9 5667.46 578.893   4
  -9  -5 -14 5128.22 441.070   4
  -5   9  14 5659.37 678.741   2
 -14  -9  -5 5279.45 646.188   4
   9 -14   5 4441.21 540.942   1
   3 -14   9 6576.00 630.647   4
   3   9 -14 7464.42 813.659   3
   3  14  -9 7523.26 739.091   3
   3 -14   9 6874.78 625.912   1
   9  -3  14 6354.36 803.287   1
   9   3 -14 7014.57 760.924   3
 -14   9   3 4736.91 632.896   2
   9  14  -3 6225.94 681.362   3
  14   3  -9 6546.83 763.035   3
  14   9  -3 6539.57 797.390   3
  -3  14   9 7423.43 626.892   1
   9 -14   3 7186.24 664.126   1
  14  -9   3 6739.91 759.158   1
   3 -14   9 6924.87 629.178   5
  -3   9  14 8009.24 634.288   5
   3  -9  14 7163.10 772.493   1
  -3   9  14 6590.11 715.541   2
 -14  -9  -3 7875.41 784.329   4
  -9  14   3 6522.33 802.464   2
  14  -3   9 7308.57 852.603   1
  14  -3   9 6358.19 523.695   4
  -3  14   9 5542.84 711.889   2
 -14  -9  -3 7520.70 614.557   1
  -9 -14  -3 6727.41 770.700   4
  14  -1   9 10317.7 681.058   4
   1 -14   9 10714.5 819.295   2
   1 -14   9 10256.3 796.712   4
   9   1 -14 10956.6 921.284   3
   1  -9  14 10578.3 909.563   1
  -1   9  14 9672.67 729.401   3
   1 -14   9 9791.32 707.701   1
 -14   9   1 9663.44 866.461   2
  14   1  -9 8393.70 847.602   3
   9  14  -1 8282.88 760.979   3
   9 -14   1 10268.7 792.124   1
  14  -9   1 10519.4 930.517   1
  14   9  -1 10009.1 970.496   3
   9  -1  14 11997.6 1069.21   1
 -14  -9  -1 10443.1 716.453   1
   1  -9  14 9794.32 895.654   5
  -1   9  14 9127.12 716.748   5
   1 -14   9 9395.59 748.806   5
  -1  14   9 10570.2 987.908   2
  -1   9  14 9374.23 833.894   2
 -14  -9  -1 10356.2 898.679   4
  -9  14   1 9023.08 930.208   2
  14  -1   9 11426.8 1061.62   1
  -9 -14  -1 8789.18 881.727   4
  -1 -14   9 8654.63 733.043   4
  14   1   9 10862.1 729.085   4
   9  -1 -14 9924.33 851.271   3
 -14   9  -1 9123.92 834.560   2
   1   9  14 8688.89 699.943   3
   1  14   9 9908.91 644.041   1
 -14  -9   1 9895.99 704.614   1
  14   9   1 9723.69 724.289   1
  14  -1  -9 11316.1 942.251   3
   9 -14  -1 10269.8 788.246   1
  14  -9  -1 9835.99 896.457   1
   9  14   1 9319.81 790.614   3
  -1 -14   9 10343.0 693.987   1
   9   1  14 11097.4 1028.00   1
   1   9  14 9701.32 881.764   1
  -1  -9  14 9940.20 888.318   1
   1  14   9 9754.38 925.915   2
   1   9  14 8909.67 789.680   2
  -1  -9  14 11045.6 940.650   5
  -1 -14   9 9523.28 779.404   5
 -14  -9   1 10882.5 923.843   4
  -9  14  -1 11540.0 1003.00   2
  -9 -14   1 8584.83 861.096   4
  14   1   9 12094.7 1073.00   1
   3  14   9 6039.48 469.186   1
  -3  -9  14 5933.38 699.045   1
 -14   9  -3 6831.44 699.287   2
   9  -3 -14 5757.32 623.219   3
  14   3   9 5519.71 720.626   1
   9   3  14 6107.52 749.401   1
  14  -3  -9 6258.54 680.971   3
  14   9   3 6039.47 576.050   1
   9  14   3 6463.33 653.773   3
  14  -9  -3 6353.55 734.968   1
  14  -9  -3 6002.99 592.897   3
   3   9  14 7087.10 669.648   2
   3  14   9 6937.53 778.768   2
  -3 -14   9 7781.93 577.575   1
  -3  -9  14 6994.27 758.863   5
   3   9  14 6228.80 688.490   1
 -14  -9   3 6082.89 689.786   4
  -9  14  -3 6293.07 738.143   2
  -9 -14   3 6204.80 714.039   4
  -3 -14   9 5650.22 596.077   4
  -5 -14   9 7054.81 546.789   1
 -14   9  -5 5956.90 644.207   2
   9  -5 -14 7596.14 689.598   3
   5   9  14 6507.56 699.356   1
   9   5  14 5955.99 737.600   1
  14  -5  -9 7132.53 696.934   3
  14  -9  -5 7548.69 640.103   3
  14   9   5 6394.32 619.270   1
   5   9  14 7023.08 660.146   2
   5  14   9 7303.07 807.192   2
  -5  14  -9 6284.53 629.830   2
  -5  -9  14 6565.19 747.820   1
  -5  -9  14 7522.27 817.330   5
  -9  14  -5 6157.26 719.608   2
 -14  -9   5 5857.24 677.844   4
  14   5   9 7377.27 808.157   1
  -9 -14   5 6757.63 748.517   4
  -5 -14   9 7076.08 678.984   4
  -9 -14   7 1299.64 344.316   4
  -7 -14   9 1224.25 323.913   4
  14   9   7 749.910 240.154   1
   9  -7 -14 967.494 256.761   3
  14   7   9 1116.31 334.469   1
 -14   9  -7 734.468 234.720   2
 -14   7  -9 1076.84 245.914   2
   9   7  14 985.448 323.742   1
  14  -7  -9 1337.06 308.061   3
  14  -9  -7 1090.23 270.341   3
  -7  14  -9 481.961 184.720   2
   7   9  14 986.701 307.555   1
 -14  -9   7 965.995 272.166   4
  -9  14  -7 941.335 302.432   2
  14   9   9 612.917 228.914   1
   9   9  14 247.655 202.682   1
  14  -9  -9 315.366 168.226   3
 -14  -9   9 417.116 212.180   4
  -9 -14   9 299.508 158.257   4
 -10 -10 -14 115.876 140.854   4
 -10 -14 -10-13.7938 181.044   4
 -10  14  10 221.548 248.402   2
  14 -10  10 72.6326 206.772   1
 -10  10  14 200.057 254.323   2
  10 -14  10 135.139 223.128   1
 -14  10  10 286.897 275.053   2
  10  10 -14 296.444 206.479   3
  10  14 -10-30.7525 197.572   3
  14  10 -10-149.295 168.210   3
  10 -10  14-25.8958 166.898   1
 -14 -10 -10 178.666 160.386   4
  -8  10  14 17466.6 1311.80   2
  -8 -14 -10 18091.2 1306.90   4
 -10   8  14 21439.0 1405.91   2
 -14  10   8 18967.8 1374.96   2
   8  10 -14 20071.2 1478.36   3
   8  14 -10 18529.3 1367.41   3
  10   8 -14 20866.5 1500.07   3
  10  -8  14 18419.9 1411.63   1
  10  14  -8 19140.6 1391.11   3
  14   8 -10 18031.6 1435.52   3
   8 -10  14 18830.3 1407.80   1
 -14   8  10 18403.7 1340.84   2
  14  10  -8 18864.7 1453.06   3
  14 -10   8 18562.9 1386.57   1
  10 -14   8 19584.9 1272.73   1
 -14  -8 -10 17441.3 1169.64   4
 -14 -10  -8 19579.6 1309.31   4
  14  -8  10 19671.7 1462.68   1
 -10  -8 -14 19540.4 1086.39   4
  -8  14  10 21063.0 1527.20   2
 -10  14   8 20481.5 1478.78   2
   8 -14  10 18876.9 1247.57   1
 -10 -14  -8 18212.8 1344.98   4
  -8 -10 -14 20285.7 1194.25   4
  10 -14   6 36.6209 129.037   1
  14 -10   6 246.717 206.864   1
 -14 -10  -6-162.879 216.549   4
  -6  14  10-98.7114 186.129   2
 -10 -14  -6 83.1537 169.182   4
  -6 -10 -14 82.0786 123.793   4
  -6 -14 -10-214.281 195.706   4
  -6  10  14-100.074 174.346   2
   6 -10  14-171.294 249.906   1
 -10  14   6 137.035 175.313   2
   6  10 -14-35.3035 129.851   3
   6  14 -10-95.3529 156.717   3
 -10   6  14-50.5041 151.118   2
 -14  10   6 185.654 222.701   2
  10   6 -14 126.895 247.747   3
  14  -6  10 138.601 221.939   1
  10  14  -6 307.894 249.681   3
  14   6 -10 304.467 260.319   3
  14  10  -6-64.9201 224.713   3
   6 -14  10-135.076 190.617   1
 -14  -6 -10-124.576 140.007   4
  10  -6  14-253.414 219.240   1
   4 -14  10 7591.48 669.158   4
  -4 -10 -14 7910.00 725.645   4
   4  10 -14 8889.73 908.206   3
   4  14 -10 7469.96 780.737   3
 -14  10   4 6451.44 760.431   2
   4 -14  10 7360.08 697.398   1
  10   4 -14 8340.54 877.345   3
  14   4 -10 8473.39 904.415   3
  10  14  -4 8292.36 832.539   3
  10  -4  14 7310.19 874.251   1
  14  10  -4 7004.52 839.720   3
  10 -14   4 8045.78 753.876   1
  14 -10   4 6042.37 741.612   1
   4 -10  14 7901.56 834.150   1
   4 -14  10 7778.96 717.044   5
  -4  10  14 7653.02 615.650   5
  -4  14  10 7914.42 898.628   2
 -14  -4 -10 7970.18 656.559   4
  -4  10  14 7534.92 807.531   2
 -14 -10  -4 7722.02 799.504   4
 -10  14   4 7942.58 889.437   2
 -10 -14  -4 8572.52 884.457   4
  14  -4  10 7216.45 872.786   1
 -10 -14  -2 52.0533 173.105   4
  10  -2  14 48.2783 197.511   1
   2 -14  10 387.036 173.818   4
 -10  14   2 326.334 229.677   2
 -14  10   2 73.7593 159.291   2
  10   2 -14 50.2234 160.570   3
  14  -2  10 157.953 236.629   1
  14   2 -10 448.071 245.820   3
  10  14  -2 177.890 213.626   3
  14  10  -2 239.609 190.618   3
  10 -14   2 158.275 166.999   1
   2 -10  14-180.136 154.656   5
  14 -10   2-208.878 264.022   1
   2 -14  10-214.741 146.017   5
  -2  10  14 44.8144 101.998   5
   2 -14  10 142.149 188.277   1
   2 -10  14 156.694 161.292   1
  -2  14  10 238.519 189.527   2
 -14 -10  -2 127.515 168.079   4
  -2  10  14 179.287 180.241   2
 -10 -14   0 388.201 224.593   4
   0 -14  10 545.582 206.011   4
 -10  14   0 346.658 252.773   2
  10   0  14 1077.66 318.109   1
   0 -14  10 442.795 179.521   1
 -14  10   0 612.673 258.201   2
  10   0 -14 321.077 250.968   3
  14   0  10 367.301 225.473   1
  14   0 -10 482.946 261.942   3
   0 -10  14 692.413 243.847   1
  10  14   0 648.935 228.698   3
  10 -14   0 116.587 117.248   1
  14  10   0 222.650 232.601   3
  14 -10   0 456.303 250.371   1
   0  10  14 572.440 190.264   5
   0 -10  14 180.018 198.257   5
   0 -14  10 713.541 257.396   5
   0  14  10 460.807 206.928   2
   0  10  14 554.331 241.997   2
 -14 -10   0 513.862 241.088   4
 -10 -14   2-46.2994 191.711   4
  -2 -14  10 79.5879 147.810   4
 -10  14  -2 177.021 177.330   2
   2  10  14 76.0899 189.237   1
  10   2  14 46.7123 194.743   1
  -2 -10  14-47.9396 152.948   1
 -14  10  -2-63.8380 157.042   2
  10  -2 -14 372.054 229.344   3
   2  14  10 94.8910 132.397   1
  14   2  10 113.633 181.711   1
  14  -2 -10-91.9504 172.605   3
  -2 -14  10 25.1582 107.772   1
  14  10   2 58.1223 106.965   1
  14 -10  -2 65.8945 199.250   1
  10  14   2 143.033 141.817   3
  -2 -10  14-38.2508 187.915   5
   2  14  10-16.7671 152.998   2
   2  10  14 209.938 131.195   2
  -2 -14  10 34.7104 147.468   5
  -2 -10  14 136.728 85.4005   4
 -14 -10   2 95.2278 160.796   4
  -4 -14  10 8728.25 656.517   1
  14   4  10 7443.91 848.673   1
 -14  10  -4 8052.75 780.966   2
  -4 -10  14 8236.87 816.668   1
  10  -4 -14 8570.39 770.915   3
  14  -4 -10 7372.88 734.343   3
   4  10  14 8194.39 783.353   1
  14  10   4 7437.74 618.275   1
  14 -10  -4 9503.91 708.159   3
  10   4  14 7671.13 846.917   1
  10  14   4 7402.98 738.182   3
   4  10  14 7223.29 713.496   2
   4  14  10 8382.97 866.659   2
  -4 -10  14 9114.80 905.900   5
  -4 -10  14 8089.42 574.057   4
 -14 -10   4 7659.19 802.074   4
 -10  14  -4 7771.78 810.972   2
 -10 -14   4 8105.34 832.485   4
  -4 -14  10 8847.71 742.699   4
 -10  14  -6-147.474 199.335   2
  -6 -10  14 168.683 147.803   1
  10   6  14 78.9408 152.612   1
 -14  10  -6-120.108 169.054   2
  10  -6 -14 105.745 135.884   3
  14   6  10 87.3876 179.110   1
  14  -6 -10 349.900 186.294   3
  -6 -10  14 270.482 214.313   5
  14 -10  -6-48.4161 117.015   3
  -6  14 -10-58.2916 120.894   2
  14  10   6 120.371 133.610   1
  -6 -10  14 91.7909 137.079   4
  -6 -14  10 253.964 132.787   1
 -14 -10   6 29.9172 129.430   4
   6  10  14 42.6506 163.816   1
 -10 -14   6 334.112 257.194   4
  -6 -14  10-1.61090 96.9014   4
 -14  10  -8 20799.8 1191.95   2
  10  -8 -14 21775.3 1146.90   3
  14  -8 -10 21150.7 1161.08   3
  10   8  14 16913.9 1252.02   1
   8  10  14 20224.0 1280.16   1
  14  10   8 20683.0 1191.74   1
 -10  14  -8 22619.7 1339.82   2
 -14 -10   8 20490.8 1345.27   4
  -8 -14  10 18792.2 1220.99   4
 -10 -14   8 20914.0 1357.82   4
  14   8  10 19656.2 1306.75   1
 -14 -10  10-286.248 182.476   4
  10  10  14 3.94786 192.904   1
 -10 -14  10-85.8547 112.972   4
 -11 -14 -11-153.803 215.636   4
 -11  11  14-264.561 267.133   2
  11 -14  11 484.645 323.282   1
  11  14 -11 50.8192 219.419   3
 -14 -11 -11 131.041 207.279   4
 -11 -14  -9 601.526 273.468   4
  -9 -11 -14 1018.14 316.256   4
  -9 -14 -11 707.459 288.502   4
  -9  14  11 795.726 348.205   2
  14 -11   9 789.621 324.330   1
  11 -14   9 443.397 260.054   1
 -11  14   9 390.839 242.238   2
  -9  11  14 750.828 303.674   2
 -11   9  14 668.760 320.311   2
 -14  11   9 807.334 337.895   2
   9  11 -14 325.644 301.494   3
  14  -9  11 338.217 281.775   1
 -14   9  11 759.862 306.536   2
   9  14 -11 645.382 284.143   3
  11   9 -14 641.316 341.754   3
  11  14  -9 421.886 223.354   3
   9 -14  11 661.628 247.707   1
  14   9 -11 1300.10 420.833   3
  14  11  -9 990.651 385.029   3
  11  -9  14 586.610 259.574   1
   9 -11  14 882.117 359.884   1
 -14  -9 -11 622.820 241.932   4
 -14 -11  -9 828.286 281.171   4
  14 -11   7 1519.10 395.164   1
  11 -14   7 1098.90 318.707   1
 -11 -14  -7 1131.51 346.827   4
  -7  14  11 809.535 363.452   2
  -7 -11 -14 615.907 251.072   4
  -7 -14 -11 1120.64 340.599   4
  -7  11  14 1083.80 355.776   2
 -11  14   7 322.990 252.984   2
   7  11 -14 1398.80 428.485   3
 -14  11   7 950.793 344.737   2
   7  14 -11 1038.25 331.589   3
 -11   7  14 1359.00 380.810   2
  11   7 -14 1900.90 486.299   3
  14  -7  11 693.543 336.100   1
  11  14  -7 883.149 305.976   3
  14   7 -11 1157.74 386.508   3
  14  11  -7 1284.67 389.599   3
   7 -14  11 846.679 271.587   1
  11  -7  14 939.451 350.805   1
 -14  -7 -11 1163.98 279.876   4
   7 -11  14 703.038 328.199   1
 -14 -11  -7 332.607 224.260   4
  14  -5  11 7549.95 903.856   1
  -5  14  11 6279.75 807.267   2
 -11 -14  -5 6191.81 782.740   4
  -5 -11 -14 5518.84 634.904   4
   5 -14  11 6679.37 594.793   4
  -5  11  14 5584.65 738.992   2
  -5 -14 -11 6032.67 718.691   4
   5  11 -14 6823.37 825.389   3
   5  14 -11 7451.11 828.242   3
   5 -14  11 6362.27 690.201   1
 -11  14   5 5328.78 742.307   2
  11  -5  14 7285.69 885.166   1
 -14  11   5 6211.10 760.501   2
  11   5 -14 5300.90 726.833   3
 -11   5  14 5507.10 670.950   2
  14  11  -5 7584.63 882.084   3
  14   5 -11 4882.05 711.881   3
  11  14  -5 5966.92 739.005   3
   5 -11  14 6401.58 770.366   1
  11 -14   5 6505.70 702.710   1
  14 -11   5 8353.07 875.239   1
 -14  -5 -11 6923.31 622.057   4
 -14 -11  -5 6379.46 759.568   4
  -3  11  14 3599.91 588.596   2
   3 -14  11 4190.20 462.014   4
 -11 -14  -3 2930.13 545.142   4
   3 -14  11 3995.59 530.452   5
 -11  14   3 3501.83 620.129   2
   3  14 -11 4625.78 630.667   3
 -14  11   3 4100.06 598.809   2
  11   3 -14 4705.08 651.521   3
  14   3 -11 3189.24 560.455   3
  14  -3  11 4252.64 683.498   1
  11  14  -3 3717.92 568.126   3
   3 -11  14 4943.10 645.405   1
  14  11  -3 3825.39 627.565   3
  11 -14   3 4260.61 567.364   1
  14 -11   3 4287.24 615.977   1
   3 -14  11 3293.93 474.747   1
  11  -3  14 3890.02 641.557   1
  -3  14  11 4172.94 657.887   2
 -14 -11  -3 3063.46 531.125   4
   1 -14  11 6917.97 607.804   4
  14  -1  11 8737.05 972.086   1
 -14  11   1 7061.56 794.873   2
  11   1 -14 7005.87 782.739   3
  14   1 -11 8198.00 848.094   3
  11  -1  14 9114.88 971.864   1
  11  14  -1 7166.39 761.574   3
  11 -14   1 8378.79 773.347   1
  14 -11   1 6399.70 761.511   1
   1 -14  11 8383.24 726.728   1
  14  11  -1 7099.25 832.261   3
   1 -11  14 7954.76 829.919   5
  -1  11  14 7736.59 599.250   5
   1 -14  11 7466.05 728.317   5
  -1  14  11 6250.38 792.687   2
  -1  11  14 7727.53 811.037   2
 -14 -11  -1 7650.45 824.964   4
   1 -11  14 7721.53 782.999   1
 -11 -14  -1 7242.48 821.975   4
 -11  14   1 8665.93 909.539   2
 -14  11  -1 7753.81 809.783   2
  11  -1 -14 7298.31 764.287   3
   1  14  11 7416.59 633.455   1
  -1 -11  14 7851.74 790.305   1
  14  -1 -11 7770.52 805.263   3
  11 -14  -1 7859.31 747.200   1
  11   1  14 7438.83 880.531   1
  14 -11  -1 8114.96 830.912   1
   1  11  14 7175.61 744.486   1
  11  14   1 8148.04 803.016   3
  14   1  11 7856.70 898.249   1
  14  11   1 6976.90 821.279   3
  -1 -14  11 8112.54 695.797   1
   1  14  11 9290.17 919.302   2
   1  11  14 7577.45 781.953   2
  -1 -11  14 8912.08 875.816   5
  -1 -14  11 6629.00 699.941   5
 -14 -11   1 7435.72 814.231   4
 -11 -14   1 7951.28 860.493   4
 -11  14  -1 9117.03 917.897   2
  -1 -14  11 8449.86 678.414   4
  11   3  14 3893.85 627.270   1
 -11 -14   3 5041.00 673.493   4
  -3 -14  11 3546.79 449.405   4
 -11  14  -3 3012.99 536.843   2
  -3 -11  14 4094.63 565.283   1
 -14  11  -3 3461.92 557.023   2
   3  11  14 2863.29 480.686   1
  11  -3 -14 3481.62 516.010   3
  -3 -11  14 4494.09 621.369   5
  14  -3 -11 3088.15 513.473   3
  14 -11  -3 3495.10 567.474   1
  14   3  11 3357.75 592.665   1
  14 -11  -3 4093.67 460.393   3
  11  14   3 3021.17 494.205   3
   3  11  14 4097.95 554.081   2
   3  14  11 4029.48 600.033   2
  -3 -14  11 3726.48 544.480   5
  -3 -11  14 3375.93 364.560   4
  -3 -14  11 4236.48 480.963   1
 -14 -11   3 4244.65 618.389   4
  14   5  11 6893.39 813.600   1
 -14  11  -5 5927.96 685.778   2
  -5 -11  14 5808.78 688.740   1
  11  -5 -14 6194.00 656.647   3
   5  11  14 3555.46 518.369   1
  -5 -14  11 5652.73 554.830   1
  14  -5 -11 5025.35 603.504   3
   5  11  14 7881.04 766.596   2
   5  14  11 6358.45 759.581   2
  -5 -11  14 5674.02 738.657   5
  -5 -11  14 6069.82 538.631   4
 -11  14  -5 7053.92 767.806   2
 -11 -14   5 6664.28 776.534   4
  -5 -14  11 5493.53 588.506   4
 -14 -11   5 5750.60 722.188   4
  11   5  14 7223.13 832.601   1
 -11  14  -7 956.751 306.874   2
 -14  11  -7 1166.57 313.432   2
  11  -7 -14 659.662 238.255   3
  -7 -11  14 1754.11 443.292   1
  14  -7 -11 985.115 274.785   3
  14   7  11 610.686 270.100   1
   7  11  14 641.205 265.382   1
  -7 -11  14 972.346 232.489   4
 -14 -11   7 942.061 316.799   4
  11   7  14 1001.55 349.380   1
  -7 -14  11 1143.89 295.086   4
 -11 -14   7 1175.60 343.312   4
   9  11  14 1382.09 336.249   1
  14   9  11 672.272 239.748   1
  11   9  14 863.182 301.154   1
  -9 -11  14 1113.64 280.981   4
 -14 -11   9 1326.17 340.094   4
  -9 -14  11 578.187 239.464   4
 -11 -14   9 523.838 245.980   4
 -14 -11  11-105.781 186.881   4
 -11 -14  11-137.885 161.296   4
 -12 -14 -12-189.739 237.639   4
 -14 -12 -12 281.997 241.129   4
  10 -12  14 14278.6 1279.51   1
  10  14 -12 15819.5 1368.52   3
  12  14 -10 18083.9 1466.41   3
  12 -14  10 15636.6 1267.12   1
 -14 -10 -12 14397.0 1103.03   4
 -14 -12 -10 17328.3 1291.87   4
 -12 -14 -10 15506.3 1270.73   4
  10 -14  12 16754.4 1299.89   1
 -10 -14 -12 16637.6 1270.57   4
 -12 -14  -8-7.29125 129.231   4
  14 -12   8 34.1100 216.013   1
  12 -14   8 172.787 159.417   1
  -8 -12 -14 88.0383 144.673   4
  -8  14  12 167.071 266.551   2
  -8 -14 -12-4.41771 157.092   4
  -8  12  14-368.284 261.712   2
 -12  14   8 48.0146 157.390   2
 -14  12   8 125.576 202.920   2
   8  12 -14 76.3100 205.555   3
   8  14 -12-46.8623 188.059   3
 -12   8  14 80.1186 161.269   2
 -14   8  12-457.493 268.184   2
  12   8 -14 156.027 231.472   3
  14  -8  12-178.479 250.469   1
  14   8 -12 153.646 159.278   3
  12  14  -8 169.079 190.716   3
  14  12  -8-22.1659 200.202   3
   8 -14  12 366.670 300.583   1
   8 -12  14 41.3944 187.855   1
  12  -8  14 356.231 290.841   1
 -14  -8 -12 54.0358 140.703   4
 -14 -12  -8 39.4135 166.194   4
 -12  14   6 9727.10 1036.62   2
  14  -6  12 12966.5 1223.02   1
  -6 -12 -14 12479.4 1002.01   4
  -6 -14 -12 11798.4 1029.97   4
 -14  12   6 11277.0 1077.86   2
   6 -14  12 13934.9 1094.59   1
   6  12 -14 11727.6 1126.17   3
   6  14 -12 11389.1 1083.68   3
 -12   6  14 13681.1 1115.61   2
  12  -6  14 11953.5 1165.21   1
  12   6 -14 13062.7 1189.16   3
  14   6 -12 12812.4 1191.15   3
  12  14  -6 11727.9 1094.56   3
   6 -12  14 11557.5 1054.30   1
  14  12  -6 12739.4 1172.78   3
  12 -14   6 11359.3 1000.64   1
  14 -12   6 12614.9 1116.21   1
 -14  -6 -12 11692.3 847.771   4
  -6  14  12 13660.8 1219.99   2
  -6  12  14 11773.5 1096.20   2
 -14 -12  -6 12832.0 1115.63   4
 -12 -14  -6 11192.4 1063.31   4
  -4  12  14 75.2931 192.358   2
 -12 -14  -4 26.2169 159.837   4
  -4 -12 -14 167.004 123.643   4
  -4 -14 -12 440.838 240.418   4
   4 -12  14-60.6104 207.278   1
 -12  14   4-137.952 202.362   2
   4  12 -14 158.437 198.221   3
   4  14 -12-8.97970 183.065   3
 -14  12   4-90.8110 181.722   2
  12   4 -14-329.744 260.562   3
  14   4 -12 186.692 180.104   3
  12  14  -4-136.998 158.028   3
  14  -4  12-175.259 275.854   1
  14  12  -4-240.093 241.485   3
  12  -4  14 178.004 192.401   1
   4 -14  12 313.710 186.403   5
   4 -14  12 331.066 247.638   1
  12 -14   4 172.576 191.240   1
  14 -12   4 125.896 160.912   1
 -14 -12  -4 258.708 265.717   4
  -4  14  12 94.0284 177.152   2
 -12 -14  -2 1640.99 409.209   4
   2 -14  12 2246.95 403.041   1
   2 -14  12 2010.61 398.528   5
 -12  14   2 2530.32 523.650   2
 -14  12   2 2039.83 454.986   2
  12   2 -14 2928.40 528.496   3
  14   2 -12 2593.79 514.666   3
   2 -12  14 1939.81 415.939   1
  12  14  -2 2646.29 513.354   3
  14  -2  12 3002.77 597.786   1
  14  12  -2 1395.93 385.542   3
  12 -14   2 1856.80 395.471   1
  14 -12   2 2182.43 426.698   1
   2 -12  14 2739.67 489.726   5
  12  -2  14 2528.01 556.713   1
  -2  14  12 2430.16 490.162   2
  -2  12  14 1513.36 425.683   2
 -14 -12  -2 2006.20 465.538   4
 -12 -14   0 545.152 253.922   4
   0  14  12 397.353 211.635   1
   0 -14  12 43.5691 121.624   4
 -12  14   0 366.605 223.982   2
 -14  12   0 44.0383 199.966   2
  12   0 -14 64.0293 126.576   3
   0 -14  12 34.6313 98.8894   1
  14   0 -12 476.792 225.988   3
  14   0  12 525.338 317.104   1
  12  14   0 362.835 226.963   3
  12 -14   0 323.623 219.549   1
  14  12   0 184.788 208.848   3
  14 -12   0 64.2365 199.147   1
   0 -12  14-213.402 169.158   5
   0 -14  12 753.694 253.062   5
  12   0  14-5.25457 213.545   1
   0  12  14 636.072 267.217   1
   0  14  12-96.1681 221.590   2
   0  12  14 211.724 170.800   2
   0 -12  14 76.0987 171.029   1
 -14 -12   0 9.06751 162.687   4
 -12 -14   2 2252.58 463.882   4
  -2 -14  12 2435.93 354.736   4
 -12  14  -2 2289.97 473.086   2
 -14  12  -2 2458.56 490.563   2
  12  -2 -14 2018.20 429.143   3
  14  -2 -12 2160.05 446.474   3
  12 -14  -2 1612.91 360.091   1
  14 -12  -2 2434.12 487.702   1
  -2 -12  14 1977.77 406.581   1
  14   2  12 1849.82 452.673   1
  12  14   2 2623.27 472.436   3
  14  12   2 2840.79 522.575   3
   2  12  14 2273.07 424.997   1
   2  14  12 2569.61 489.654   2
  -2 -12  14 2481.07 480.530   5
   2  12  14 2429.08 463.733   2
  -2 -14  12 2102.69 427.166   5
  12   2  14 2519.75 547.473   1
 -14 -12   2 2532.33 513.642   4
  -2 -14  12 2159.00 365.967   1
 -12  14  -4-39.0957 167.870   2
  -4 -12  14-98.2060 220.623   1
 -14  12  -4-20.5204 158.625   2
  -4 -12  14 109.875 165.140   5
  12  -4 -14 150.993 142.775   3
  -4 -14  12-101.873 124.408   1
  14  -4 -12 14.7434 160.305   3
  14   4  12-488.556 270.703   1
  12  14   4 225.210 193.441   3
   4  12  14 123.259 171.983   1
   4  12  14 61.5779 172.946   2
   4  14  12-217.968 242.353   2
  12   4  14 44.9442 182.081   1
  -4 -12  14 268.755 139.846   4
 -14 -12   4 134.712 183.180   4
  -4 -14  12-40.4655 96.6369   4
 -12 -14   4-199.666 181.117   4
  14   6  12 11500.8 1069.95   1
  -6 -12  14 12440.4 1016.92   1
  12  -6 -14 13091.3 968.285   3
  12   6  14 11050.3 1071.08   1
  14  -6 -12 11458.6 923.196   3
   6  12  14 11595.7 911.944   1
  -6 -12  14 13003.2 853.934   4
 -14 -12   6 12972.7 1109.51   4
 -12  14  -6 11659.9 1007.96   2
  -6 -14  12 11602.0 886.064   4
 -12 -14   6 10951.2 1031.69   4
 -14  12  -6 11765.7 978.730   2
  14  -8 -12-91.8219 126.483   3
  14   8  12-99.5587 132.119   1
  -8 -12  14 244.010 218.155   1
  12   8  14-349.257 225.843   1
  -8 -12  14-76.7331 123.600   4
 -14 -12   8-60.2841 159.051   4
  -8 -14  12 202.805 172.459   4
 -12 -14   8-432.025 235.582   4
 -10 -14  12 15076.9 1123.36   4
 -10 -12  14 13863.2 1011.59   4
 -14 -12  10 15092.8 1207.05   4
 -12 -14  10 13125.9 1117.46   4
 -12 -14  12 170.431 183.104   4
 -13 -14 -11 486.724 285.814   4
 -11 -14 -13 473.824 240.177   4
 -14 -13 -11 343.131 255.797   4
 -13 -14  -9 664.394 330.615   4
  14 -13   9 186.865 191.573   1
  13 -14   9 1070.98 354.716   1
  -9 -13 -14 691.658 278.053   4
  -9 -14 -13 855.998 301.862   4
  13  14  -9 1144.16 416.953   3
   9 -14  13 1151.02 378.748   1
   9 -13  14 352.804 242.222   1
 -14 -13  -9 561.832 266.048   4
 -13 -14  -7 4022.85 661.795   4
  -7  14  13 3818.57 684.008   2
  -7  13  14 3967.91 692.265   2
  -7 -13 -14 3686.49 563.893   4
  -7 -14 -13 4958.05 665.837   4
   7  13 -14 2603.64 577.124   3
   7  14 -13 4513.38 710.377   3
 -13   7  14 4348.40 658.031   2
 -14   7  13 3410.65 602.029   2
  13  14  -7 3553.57 642.851   3
  14  13  -7 3900.71 665.697   3
   7 -14  13 4130.24 623.674   1
   7 -13  14 4475.04 677.459   1
  13 -14   7 3409.37 572.919   1
  14 -13   7 3892.73 643.232   1
 -14 -13  -7 3493.63 587.895   4
  -5  14  13 962.784 432.150   2
 -13 -14  -5 464.822 238.405   4
  -5  13  14 131.415 226.668   2
  -5 -13 -14 99.5664 193.473   4
  -5 -14 -13 432.710 222.087   4
 -13  14   5 605.346 304.587   2
   5  13 -14 596.920 311.203   3
   5  14 -13 276.618 241.165   3
 -14  13   5 721.762 327.074   2
  13   5 -14 268.864 278.160   3
  14   5 -13 1156.44 396.442   3
  13  14  -5 603.288 292.905   3
  14  13  -5 10.3158 218.531   3
  14  -5  13 477.923 292.553   1
  13  -5  14 354.679 276.430   1
   5 -14  13 324.680 157.140   5
   5 -14  13 341.775 230.432   1
  13 -14   5 678.297 263.688   1
  14 -13   5 308.297 244.056   1
   5 -13  14 524.798 251.350   1
 -14 -13  -5 78.6714 172.355   4
 -13  14   3 8564.15 941.087   2
  13  -3  14 8681.48 1004.83   1
 -14  13   3 7467.30 883.208   2
  13   3 -14 7829.89 897.154   3
  13  14  -3 8712.13 919.507   3
  14   3 -13 5958.00 789.601   3
   3 -14  13 6937.63 751.445   1
  14  13  -3 8544.89 940.643   3
  13 -14   3 6780.45 766.064   1
  14 -13   3 8398.05 875.380   1
   3 -13  14 7126.32 775.633   1
  14  -3  13 7922.07 992.270   1
   3 -13  14 6815.86 786.057   5
   3 -14  13 7245.02 772.176   5
  -3  13  14 7751.07 909.557   2
 -14 -13  -3 8508.28 926.266   4
 -13 -14  -3 7382.45 872.206   4
  -3  14  13 6504.22 839.568   2
 -13 -14  -1 5304.14 741.052   4
  -1  14  13 5624.02 755.969   2
 -13  14   1 4139.45 666.637   2
 -14  13   1 4567.39 682.412   2
   1 -14  13 4908.98 604.338   1
  13   1 -14 4915.36 684.452   3
  14   1 -13 5537.91 725.736   3
   1 -13  14 5096.05 642.267   1
  13  14  -1 4292.22 669.984   3
  14  13  -1 4366.95 648.689   3
  14  -1  13 4722.55 757.019   1
  13 -14   1 4452.04 620.695   1
  14 -13   1 4362.12 611.986   1
  13  -1  14 5540.05 788.685   1
   1 -14  13 5814.51 697.937   5
   1 -13  14 4486.19 628.861   5
  -1  13  14 4871.55 705.100   2
 -14 -13  -1 4522.62 679.967   4
 -13  14  -1 4610.80 686.073   2
 -14  13  -1 4387.48 652.607   2
   1  13  14 4961.84 602.448   1
  13  -1 -14 5298.33 684.419   3
  14  -1 -13 4759.44 659.142   3
  13 -14  -1 6340.46 718.465   1
  14 -13  -1 6077.97 738.609   1
  13   1  14 3712.49 660.261   1
  13  14   1 3857.72 611.737   3
  14   1  13 4920.00 757.161   1
  14  13   1 4962.79 691.138   3
  -1 -14  13 5548.03 631.855   1
  -1 -13  14 4107.94 610.684   5
  -1 -14  13 5754.57 708.083   5
   1  14  13 4096.80 626.473   2
   1  13  14 5410.05 692.419   2
  -1 -13  14 4822.48 615.782   1
 -14 -13   1 5067.57 709.552   4
 -13 -14   1 4794.61 707.870   4
 -14  13  -3 6851.91 804.541   2
  14   3  13 8425.25 966.575   1
 -13  14  -3 5939.85 766.406   2
  -3 -13  14 6501.54 706.391   1
  13  -3 -14 7738.42 796.964   3
  14  -3 -13 6355.75 735.667   3
   3  13  14 6865.11 692.556   1
  13  14   3 7711.23 837.749   3
  14  13   3 7502.94 853.491   3
   3  13  14 7231.94 807.255   2
   3  14  13 7852.26 854.365   2
  13   3  14 6479.06 849.237   1
  -3 -13  14 7987.13 870.242   5
  -3 -14  13 7979.47 862.954   5
  -3 -14  13 7190.77 627.238   4
 -13 -14   3 7667.82 891.799   4
 -14 -13   3 6826.67 825.275   4
  -3 -14  13 7035.87 693.145   1
  -5 -13  14 845.776 270.494   1
 -13  14  -5 177.408 205.587   2
 -14  13  -5 926.976 337.154   2
  13  -5 -14 380.357 186.412   3
  14  -5 -13 584.599 243.586   3
  14   5  13 243.808 199.965   1
   5  13  14 319.111 239.058   2
   5  14  13 671.283 285.577   2
  13   5  14 691.286 347.857   1
 -14 -13   5 425.391 268.122   4
  -5 -14  13 346.144 201.827   4
 -13 -14   5 643.357 264.339   4
  13  -7 -14 3648.80 508.245   3
  14  -7 -13 3921.23 540.342   3
  14   7  13 4038.73 649.416   1
  13   7  14 3070.06 576.129   1
  -7 -13  14 4297.08 606.177   1
  -7 -13  14 4080.69 511.372   4
 -14 -13   7 5266.48 721.555   4
  -7 -14  13 3833.43 519.384   4
 -13 -14   7 4367.33 668.944   4
  14   9  13 1153.69 354.205   1
  13   9  14 881.886 280.179   1
  -9 -13  14 452.160 182.702   4
  -9 -14  13 845.797 302.093   4
 -13 -14   9 280.232 199.377   4
 -11 -13  14 30.7871 120.946   4
 -11 -14  13 539.476 219.571   4
  -8 -14 -14 11536.6 1026.41   4
   8 -14  14 12266.5 1123.85   1
  14 -14   8 10335.5 1042.31   1
 -14 -14  -8 9690.61 1042.98   4
 -14 -14  -6-225.749 238.046   4
  -6  14  14-323.611 232.833   2
  -6 -14 -14 256.808 230.614   4
   6  14 -14-719.673 325.474   3
 -14   6  14 62.6240 192.332   2
  14  14  -6-184.486 232.353   3
   6 -14  14-84.9744 269.203   1
  14 -14   6-175.249 255.963   1
  -4 -14 -14 6084.36 728.505   4
 -14  14   4 6256.15 836.084   2
   4 -14  14 6624.10 778.620   1
  14   4 -14 7588.52 906.583   3
  14  14  -4 5874.93 802.109   3
  14  -4  14 6656.63 908.344   1
   4 -14  14 7510.46 824.836   5
  14 -14   4 6773.75 795.042   1
 -14 -14  -4 8032.49 933.855   4
  -4  14  14 5251.77 780.636   2
   2 -14  14 17.8460 132.866   1
 -14  14   2 54.1841 206.305   2
  14   2 -14 98.8183 182.926   3
  14  14  -2 334.296 240.691   3
  14  -2  14-26.6762 229.156   1
  14 -14   2 21.7267 202.185   1
   2 -14  14-147.827 175.475   5
  -2  14  14-191.095 259.930   2
 -14 -14  -2-70.0822 206.716   4
 -14  14   0 997.624 359.200   2
  14   0 -14 1021.37 365.710   3
   0 -14  14 1204.96 326.515   1
  14  14   0 1433.09 396.157   3
  14 -14   0 586.775 280.783   1
  14   0  14 916.495 392.562   1
   0 -14  14 1064.95 346.679   5
   0  14  14 1061.60 372.869   2
 -14 -14   0 982.620 362.503   4
 -14  14  -2-299.877 246.378   2
  14  -2 -14-8.60902 146.816   3
  14 -14  -2-131.782 202.183   1
  14  14   2-125.938 236.811   3
  14   2  14-287.772 221.447   1
   2  14  14 76.8981 195.454   2
  -2 -14  14-56.3714 138.646   5
  -2 -14  14 258.974 219.092   1
 -14 -14   2-199.494 210.989   4
  -4 -14  14 7120.39 731.202   1
  14  -4 -14 7777.43 820.504   3
  14  14   4 6578.63 809.007   3
  14   4  14 6024.83 856.499   1
   4  14  14 7254.55 819.786   2
  -4 -14  14 6457.84 808.936   5
 -14  14  -4 7934.62 884.147   2
 -14 -14   4 6945.08 848.837   4
 -14  14  -6 313.517 198.854   2
  14  -6 -14-254.371 177.790   3
  14   6  14 99.6072 215.584   1
  14   8  14 10617.6 1058.09   1
   0  -1  15 3112.77 210.116   2
   0   1  15 2696.97 481.836   1
  15   0  -1 3933.52 561.001   1
   1   0  15 3170.26 525.802   1
   1   0  15 2985.65 164.757   2
  15   1   0 2954.66 479.741   1
  15  -1   0 3775.26 554.313   1
  -1   0  15 3718.25 545.676   5
  15   0   1 2831.93 482.247   1
   0  -1  15 2671.22 486.471   1
   1  15   0 3352.67 533.565   2
   0  15  -1 3048.14 502.636   2
   0   1  15 2788.74 277.719   2
   0  15   1 3584.40 561.613   2
  -1  15   0 2058.90 424.562   2
   0  -1 -15 3088.29 225.906   4
   1   0 -15 3278.34 239.162   4
  -1   0  15 2720.10 274.072   2
  -2   1  15 14227.0 733.256   2
   1  -2  15 13114.8 1077.34   1
   2  15  -1 13869.9 692.723   3
   1 -15   2 13596.8 516.348   1
  15   1  -2 13666.1 1056.22   1
  15   2  -1 12510.6 1002.13   1
  -2  15   1 13888.6 1100.90   2
  15  -2   1 13435.8 1052.00   1
  15  -1   2 14507.1 1098.02   1
   2  15  -1 13087.7 1063.47   2
   1  15  -2 13679.9 1060.97   2
  -1  15   2 13295.8 1072.69   2
  -2   1  15 14654.8 1050.41   5
  -1  -2 -15 14017.3 531.206   4
   2  -1  15 13469.4 1093.05   1
  -1   2  15 13498.0 726.160   2
   2   1 -15 14680.4 589.884   4
  -2  15   1 13292.1 597.927   1
  -1  15   2 14285.7 501.774   1
   2   1  15 13139.6 1076.79   1
  -2  -1  15 14069.8 663.823   2
   2  15   1 14055.7 597.828   3
  15  -1  -2 13572.0 1064.00   1
  15  -2  -1 13217.0 1066.21   1
   1   2  15 14353.3 1115.52   1
  15   2   1 13966.8 1055.82   1
  15   1   2 15548.5 1120.95   1
  -1  -2  15 15593.6 1110.74   5
   2  15   1 12543.2 1055.95   2
   1  15   2 12384.0 1039.32   2
  -1  15  -2 14950.5 1107.67   2
   1   2  15 13190.3 632.608   2
  -2  15  -1 16356.1 1174.94   2
  -2  -1  15 13946.4 1041.27   5
  -1  -2  15 12439.0 1049.96   1
   1  -2 -15 13793.4 621.679   4
   2  -1 -15 15208.3 663.950   4
  -2  15  -1 12782.2 617.164   1
  -1  -2  15 14502.7 562.902   2
  -3  -2 -15 609.128 68.5514   4
   3   2 -15 506.053 114.867   4
   3  -2  15 111.341 149.001   1
  -3  15   2 595.986 156.134   1
   2   3 -15 541.027 102.649   4
  -2   3  15 842.079 193.718   2
  -2  -3 -15 457.085 113.589   4
  -3   2  15 1016.51 224.940   2
   2  15  -3 370.381 137.873   3
   3  15  -2 507.638 161.887   3
   2  -3  15 1028.96 324.268   1
  15   2  -3 563.527 241.977   1
  15   3  -2 507.124 224.663   1
   2 -15   3 788.484 159.983   3
   3 -15   2 743.281 119.286   3
  15   2  -3 1270.47 376.682   3
   3 -15   2 631.572 137.898   1
   2  15  -3 598.215 235.126   2
   2 -15   3 387.307 115.138   1
  -2   3  15 755.539 255.155   5
  -3   2  15 304.819 195.804   5
  15  -3   2 1038.69 303.513   1
  -3  -2 -15 475.285 58.1082   4
  15  -2   3 950.531 313.371   1
  -2  15   3 549.612 214.502   2
  -3  15   2 499.660 230.912   2
  -2  15   3 457.370 114.927   1
  -3  15   0 10034.0 573.693   1
  -3 -15   0 9523.14 886.351   4
   3  15   0 10964.8 602.806   3
   0  -3  15 8739.35 881.185   1
  15   0  -3 10405.4 933.243   1
   0 -15   3 10028.5 370.698   1
  15   3   0 8720.92 832.685   1
  15  -3   0 8774.24 850.671   1
  15   0   3 9479.81 888.986   1
   3  15   0 9153.28 896.685   2
   0  15  -3 9636.73 886.513   2
   3   0  15 8274.45 858.048   1
   0  15   3 10054.7 929.481   2
  -3   0  15 9230.49 860.082   5
  -3  15   0 8871.53 874.596   2
   0   3  15 10043.9 628.449   2
   3   0 -15 10141.3 555.594   4
  -3 -15   2 912.016 295.998   4
  -2  15  -3 599.939 252.278   2
  -2 -15   3 589.157 220.973   4
   2   3  15 350.698 217.307   1
   2  15   3 847.920 104.379   3
   3  15   2 607.439 141.333   3
   3   2  15 145.728 184.726   1
  15  -2  -3 1716.01 390.785   1
  -3  -2  15 1171.45 316.006   5
  -3  15  -2 661.308 173.985   1
  15  -3  -2 732.564 273.120   1
   3  15   2 631.041 276.313   2
   2   3  15 573.454 142.746   2
  -2  -3  15 884.511 296.167   5
   2  15   3 907.008 298.669   2
  15   3   2 209.456 195.807   1
  -3  15  -2 494.305 228.683   2
  15   2   3 809.848 286.543   1
   4   3 -15 11821.8 633.294   4
  -3  -4 -15 12590.6 611.795   4
  -4   3  15 12492.7 804.732   2
   3   4 -15 11565.0 580.107   4
  -3  15   4 10199.5 619.724   1
  -4 -15  -3 11582.5 992.131   4
   4   3 -15 11707.1 945.117   3
   3  15  -4 13061.5 815.378   3
   4  15  -3 12773.0 807.324   3
   4  -3  15 10789.3 987.492   1
   3  -4  15 11108.8 1002.18   1
   4 -15   3 12017.1 592.160   3
   3 -15   4 11175.5 634.242   3
  15   3  -4 10536.6 1018.93   3
   4 -15   3 11762.5 669.273   1
  15   4  -3 12431.8 1111.58   3
  15  -4   3 12460.9 1039.90   1
   3 -15   4 14521.1 722.733   1
  15  -3   4 11197.5 1000.66   1
  -3   4  15 10478.7 889.561   5
  -4   3  15 11659.2 934.885   5
   4 -15   3 13098.0 608.759   5
   3 -15   4 11598.8 639.143   5
  -3  15   4 12501.1 1075.69   2
  -4  15   3 12056.0 1060.15   2
 -15  -4  -3 11474.6 859.904   4
  -4  -3 -15 12307.7 478.666   4
  -3   4  15 11703.4 787.401   2
  15  -4   1 4343.94 593.884   1
  -4 -15  -1 3912.34 587.213   4
  -4   1  15 4584.29 447.576   2
  -1  15   4 4477.31 306.658   1
   4   1 -15 4695.30 571.984   3
   4  15  -1 4055.14 405.421   3
   1 -15   4 4528.48 400.509   3
   4 -15   1 1846.51 267.100   1
  15   4  -1 4417.63 574.829   1
   1  -4  15 4339.53 614.592   1
  -4  15   1 4176.35 404.692   1
  15   1  -4 3791.51 582.943   3
   1 -15   4 4408.60 322.269   1
   1  15  -4 3871.82 556.326   2
  -4   1  15 3036.44 491.891   5
 -15  -4  -1 5314.29 572.906   4
   4  -1  15 3913.15 595.069   1
  -1   4  15 3957.98 428.793   2
  -1  15   4 4134.87 611.096   2
   4   1 -15 4019.92 355.609   4
  -4  15   1 4019.53 623.151   2
  15  -1   4 4793.17 641.565   1
  -4  15  -1 4251.70 418.646   1
  -1  -4  15 4780.39 259.472   2
  -1  -4  15 4762.79 642.327   1
  -4 -15   1 4422.83 590.236   4
  -1 -15   4 3441.45 527.488   4
   4  15   1 4489.31 392.225   3
  -1 -15   4 4632.52 235.103   1
  15  -1  -4 3980.96 579.464   3
  15  -4  -1 4217.39 602.971   1
  -1  -4  15 4564.44 262.969   2
  15   4   1 4349.76 580.311   1
   4  15   1 4596.92 625.040   2
   4  15   1 4943.24 414.623   5
   1   4  15 5304.44 475.117   2
  -1  -4  15 4721.28 613.178   5
  -1  15  -4 5164.00 638.477   2
  -4  -1  15 4958.95 617.729   5
   1  15   4 5276.45 674.613   2
   1   4  15 5386.03 687.295   1
  -4  15  -1 4460.96 625.910   2
  15   1   4 4763.12 626.609   1
   4   1  15 4330.63 615.133   1
  -4 -15   3 10931.5 937.742   4
  -3 -15   4 10708.6 923.418   4
   3  15   4 12723.3 526.504   3
   4  15   3 11675.6 609.517   3
  15  -3  -4 11844.9 1010.87   1
  15  -4  -3 11547.1 987.530   1
  15  -3  -4 10747.9 929.050   3
   4   3  15 13341.3 1082.92   1
  15   4   3 12274.1 976.191   1
   3   4  15 12211.1 638.557   2
   4  15   3 12796.2 1068.06   2
  15   3   4 11854.9 981.941   1
   3  15   4 10941.8 982.432   2
  -3  15  -4 12455.9 1007.13   2
  -4  15  -3 11762.6 983.790   2
  -3  -4  15 11788.7 997.725   5
  -4  -3  15 13834.6 1057.44   5
   3   4  15 13298.5 1069.31   1
   4  -3 -15 10381.0 667.986   4
  -5  15   4 22.8799 152.592   2
   5  -4  15 443.032 255.845   1
  15  -4   5-145.265 189.208   1
   4 -15   5 193.662 128.013   1
  -5  -4 -15 126.096 83.8313   4
  -4  -5 -15 178.764 92.4981   4
  -5 -15  -4 30.7340 156.484   4
  -4 -15  -5 111.368 196.553   4
  -4   5  15-2.81025 147.851   2
   4   5 -15 46.6455 172.269   3
   4  -5  15 188.519 194.290   1
   5   4 -15 291.478 213.818   3
  -5   4  15 112.768 155.705   2
   4  15  -5 84.1351 110.066   3
   5  15  -4 221.135 136.079   3
   5 -15   4 166.715 94.0124   3
   4 -15   5 101.287 78.2328   3
  -5  15   4 145.955 125.203   1
  15   4  -5 233.664 244.378   3
  15   5  -4 93.1861 206.866   3
   5 -15   4 13.3952 80.7130   5
   4 -15   5 39.8861 86.3267   5
  -4   5  15-111.387 137.324   5
  -5   4  15 84.7824 177.099   5
 -15  -4  -5 132.256 110.437   4
 -15  -5  -4 179.615 174.334   4
   5 -15   4-56.7954 120.347   1
  15  -5   4 244.281 211.898   1
  -4  15   5 34.3363 203.829   2
  -5 -15  -2 15061.9 1141.82   4
   5  -2  15 14269.8 1150.99   1
  -5   2  15 13611.3 855.527   2
   2  15  -5 14245.3 886.342   3
   5   2 -15 14030.1 1041.45   3
   5  15  -2 13859.4 864.477   3
   5 -15   2 14568.9 590.314   3
   2 -15   5 15182.8 801.931   3
   5 -15   2 15598.5 811.834   1
  15   2  -5 14423.4 1157.84   3
   2  -5  15 13891.7 1113.21   1
  15  -5   2 15824.3 1164.86   1
  15   5  -2 14255.6 1202.34   3
  -2   5  15 14169.5 999.022   5
  15  -2   5 13940.5 1129.20   1
  -5   2  15 14792.0 1083.52   5
   2 -15   5 17824.6 788.415   1
   5 -15   2 14426.9 581.694   5
  -2  15   5 14051.1 1154.78   2
   2 -15   5 14761.6 791.167   5
  -5  15   2 15052.0 1196.12   2
 -15  -5  -2 15608.3 1026.72   4
  -2   5  15 16340.6 958.890   2
  -2  15   5 14509.3 709.237   1
  15   0   5 170.204 195.224   1
   0 -15   5 70.9649 65.8120   1
  -5 -15   0 363.931 218.004   4
   0 -15   5 325.873 224.786   4
   5   0 -15 502.658 211.795   3
   5  15   0 238.365 146.146   3
   0  -5  15-83.4710 213.996   5
   5 -15   0 406.516 142.537   1
   5   0  15 163.219 166.949   1
  15   0  -5 437.164 257.356   3
   0 -15   5 206.296 132.968   3
  15   5   0 389.481 219.471   1
  15  -5   0 186.822 190.123   1
   0  15  -5-123.529 182.726   2
   5  15   0 78.7444 93.3077   5
  -5   0  15 396.636 211.777   5
   0  -5  15 330.778 203.180   1
   0  15   5 14.7867 152.842   2
 -15  -5   0 127.396 159.139   4
   0   5  15 341.595 161.949   2
  -5  15   0 140.697 131.999   2
   5   0 -15 187.747 131.111   4
  -5 -15   2 11546.0 1003.39   4
  -2 -15   5 14305.1 1062.21   4
   5  -2 -15 16072.5 1043.07   3
  -5  15  -2 13980.9 851.468   1
   2   5  15 14145.8 1110.42   1
   5   2  15 14656.9 1153.47   1
   5  15   2 14804.8 787.777   3
  15  -5  -2 13977.0 1097.33   1
  15   5   2 12628.6 981.947   1
  15  -2  -5 14072.1 1080.35   3
  -2  -5  15 14691.8 1135.57   1
  -2  -5  15 15412.7 653.786   2
  -2  15  -5 14627.9 1088.63   2
   2  15   5 13790.0 1102.08   2
   2   5  15 14986.9 819.416   2
  15   2   5 13981.1 1106.69   1
  -2 -15   5 14766.1 499.848   1
  -2  -5  15 16050.6 1141.13   5
   5  15   2 15083.2 786.888   5
  -5  -2  15 15537.3 1148.53   5
  -5  15  -2 14395.0 1116.39   2
 -15  -5   2 15431.6 1037.11   4
   5  -2 -15 14470.7 811.844   4
  -5 -15   4 423.756 241.929   4
  -4 -15   5-96.5115 134.913   4
   4   5  15 487.983 274.462   1
  -5  15  -4 94.7790 121.691   1
  15  -5  -4-164.171 193.107   1
   4  15   5-1.95437 74.2429   3
   5  15   4-66.9890 100.823   3
  15  -4  -5 244.467 174.105   3
  15  -5  -4 89.0252 156.710   3
   5  15   4 151.378 185.640   2
   4  15   5 265.799 246.270   2
  -4  15  -5-511.186 197.472   1
   5   4  15 115.170 224.327   1
  -4  -5  15 121.090 178.201   5
  -5  -4  15 75.6943 128.796   5
  -4  15  -5-64.0193 157.081   2
  15   5   4 438.306 196.189   1
  -5  15  -4-62.5912 197.295   2
  15   4   5 25.0206 166.568   1
  -5  -6 -15 8752.74 590.955   4
  -5   6  15 8551.84 758.292   2
  -6 -15  -5 8232.64 858.609   4
  -6   5  15 7320.07 698.536   2
  -5 -15  -6 8166.01 837.544   4
  -5   6  15 8789.37 782.732   5
   5   6 -15 9565.66 912.819   3
   6   5 -15 8046.30 834.963   3
   5  15  -6 8855.86 777.900   3
   6  -5  15 10425.4 991.756   1
   6  15  -5 8162.12 739.043   3
  15   5  -6 7822.72 896.038   3
  15   6  -5 9440.52 985.314   3
   6 -15   5 8696.53 674.010   1
  15  -6   5 9502.84 938.964   1
   6 -15   5 8625.04 580.790   5
   5 -15   6 8559.50 614.320   5
  15  -5   6 7614.87 863.376   1
  -6   5  15 8341.52 781.094   5
   5 -15   6 7945.34 633.917   1
   5  -6  15 8539.07 885.041   1
  -5  15   6 8016.05 907.273   2
 -15  -5  -6 7087.13 683.536   4
 -15  -6  -5 8954.21 787.316   4
  -6  15   5 10425.7 1009.58   2
  -6  -5 -15 9060.46 537.234   4
  -6  15   5 8956.48 701.394   1
  -6  15   3 1240.28 387.821   2
   6   3 -15 916.689 199.667   4
  15  -3   6 1179.37 353.590   1
  -3   6  15 1455.84 308.165   2
  -6 -15  -3 587.088 231.445   4
  -3  -6 -15 956.340 210.046   4
   3 -15   6 940.611 201.651   1
   6   3 -15 519.597 227.400   3
   3  15  -6 836.167 241.917   3
  -6   3  15 925.331 240.331   2
   6  15  -3 1273.04 289.196   3
   3  -6  15 821.765 285.454   1
   3 -15   6 1158.82 238.059   3
  15   3  -6 1079.28 358.690   3
  15   6  -3 1349.85 387.632   3
  -6  15   3 837.887 222.600   1
  -6   3  15 607.819 251.820   5
   6 -15   3 1082.25 176.097   5
  -3   6  15 1309.05 305.739   5
   3 -15   6 909.205 223.863   5
   6 -15   3 1195.16 258.992   1
   6  -3  15 801.164 309.381   1
  15  -6   3 1240.77 351.200   1
 -15  -6  -3 779.967 254.902   4
  -3  15   6 1079.43 347.129   2
   6  -1  15 6441.15 768.675   1
  -6 -15  -1 6947.79 779.188   4
   1  -6  15 5517.96 689.833   1
   6   1 -15 6362.38 691.286   3
   1 -15   6 8111.93 618.398   5
   6  15  -1 7577.64 629.015   3
  15   6  -1 7192.96 704.432   1
   6 -15   1 6133.46 527.563   1
   1 -15   6 7365.94 584.903   3
  -6  15   1 6635.65 596.861   1
  15   1  -6 6501.15 762.633   3
  -1   6  15 6879.65 678.288   5
   6  15  -1 6216.13 564.917   5
  -1  15   6 6973.99 800.942   2
   6 -15   1 6736.30 303.108   5
  15  -6   1 6330.81 733.803   1
  -6   1  15 6836.23 751.158   5
  15  -1   6 7468.90 829.529   1
  -1   6  15 6819.69 635.290   2
  -6  15   1 6848.03 795.591   2
 -15  -6  -1 7370.41 719.553   4
   1 -15   6 9207.21 561.698   1
   6   1 -15 6815.13 543.299   4
  -6 -15   1 6071.93 727.616   4
  -1 -15   6 6222.51 682.120   4
  -1  -6  15 6398.83 740.682   1
   6  -1 -15 7422.43 712.836   3
   6   1  15 5988.92 741.454   1
   6  15   1 6711.01 559.255   3
  15   6   1 6306.59 668.882   1
   1  15   6 6883.38 354.557   1
  15  -1  -6 6218.38 723.596   3
  -1 -15   6 6210.25 569.165   3
   1   6  15 6303.86 738.184   1
  -1  15  -6 6901.38 717.775   2
  15  -6  -1 5157.90 669.966   1
   1  15   6 6419.55 765.665   2
   1   6  15 6402.15 576.687   2
  -1  -6  15 5808.10 704.361   5
   6  15   1 6261.77 538.701   5
  -6  -1  15 7093.38 776.354   5
  15   1   6 6167.05 742.483   1
  -6  15  -1 6066.20 583.748   1
 -15  -6   1 6682.09 691.584   4
   6  -1 -15 5724.99 511.095   4
  -6  15  -1 7169.85 807.401   2
  -1 -15   6 6368.29 398.570   1
  15   3   6 1419.54 379.112   1
  -6 -15   3 1277.93 366.712   4
  -3 -15   6 1403.09 334.963   4
   6  -3 -15 1239.71 294.808   3
   6   3  15 1374.88 377.515   1
  -3 -15   6 1200.58 144.167   1
  -3  -6  15 1320.15 351.414   1
  15  -6  -3 1828.56 395.877   1
   6  15   3 1211.24 244.972   3
  15  -3  -6 1421.06 332.979   3
   3   6  15 1065.46 343.632   1
  -6  15  -3 865.633 242.747   1
   3   6  15 1488.66 267.301   2
   3  15   6 1058.55 339.012   2
  -3  15  -6 1153.71 300.971   2
  15   6   3 1822.29 374.013   1
  -3  -6  15 1064.70 311.097   5
  -6  -3  15 1143.91 380.787   5
 -15  -6   3 1699.02 353.331   4
   6  -3 -15 1686.14 288.864   4
  -6  15  -3 1526.10 375.954   2
   6   5  15 7742.55 835.589   1
   5   6  15 8543.28 861.061   1
  15  -5  -6 8026.41 756.954   3
   6  15   5 9849.50 660.297   3
   5  15   6 7590.01 535.548   3
  15  -6  -5 7925.49 747.175   3
   5  15   6 9572.99 931.452   2
  15   6   5 7252.35 744.937   1
  -5  15  -6 7824.40 797.367   2
  15   5   6 8980.61 853.299   1
  -6  15  -5 8855.08 846.236   2
  -5  -6  15 8012.91 844.593   5
  -6  -5  15 8251.70 857.060   5
 -15  -6   5 9076.25 813.034   4
  -6 -15   5 9224.00 862.077   4
  -5 -15   6 9036.61 843.143   4
  -7  -6 -15 736.517 167.130   4
  15  -7   6 362.577 189.991   1
  -6  15   7 526.432 264.943   2
   7 -15   6 397.045 156.772   1
  -7  15   6 910.269 351.842   2
  -6  -7 -15 690.439 189.514   4
  -7 -15  -6 859.600 322.524   4
  15  -6   7 447.331 235.447   1
  -6 -15  -7 1063.76 325.954   4
   6 -15   7 575.650 213.207   1
  -6   7  15 157.628 139.284   2
   6   7 -15 877.283 305.423   3
  -7   6  15 902.383 286.302   2
   7   6 -15 655.200 299.785   3
   6  15  -7 542.459 216.543   3
   7  15  -6 593.816 228.086   3
   7  -6  15 767.332 281.286   1
   6  -7  15 699.801 304.319   1
  15   6  -7 352.135 246.643   3
  15   7  -6 351.526 300.278   3
 -15  -6  -7 578.740 230.068   4
 -15  -7  -6 349.740 196.896   4
  -7 -15  -4 11608.5 1025.93   4
  -4  -7 -15 9557.99 678.988   4
  -7   4  15 8760.62 764.008   2
  -4   7  15 8441.52 753.548   5
   4   7 -15 9591.38 926.277   3
   4  15  -7 9277.11 801.333   3
   7   4 -15 9572.55 912.724   3
   7  15  -4 9523.16 809.399   3
  15   4  -7 10178.2 996.474   3
  15   7  -4 9305.61 975.144   3
   7 -15   4 9270.57 710.206   1
  15  -7   4 9844.94 952.068   1
   4 -15   7 9719.99 690.729   5
   7  -4  15 10499.8 1005.50   1
  15  -4   7 10613.5 1018.01   1
  -4  15   7 10847.3 1047.71   2
 -15  -4  -7 8853.14 739.515   4
 -15  -7  -4 9351.50 834.644   4
  -7  15   4 9431.21 971.438   2
   4 -15   7 9183.52 676.787   1
   4  -7  15 7943.34 865.832   1
  -4   7  15 7828.50 751.354   2
   7   2 -15 2027.02 323.434   4
  -2   7  15 2092.88 376.675   2
  -7  15   2 2002.97 437.124   2
  -7 -15  -2 1688.27 411.062   4
  15  -2   7 1204.94 369.268   1
   2  15  -7 2287.63 374.239   3
   7   2 -15 3036.10 484.576   3
   2 -15   7 1625.76 271.487   1
   7  15  -2 2112.32 369.958   3
   2 -15   7 1896.87 315.706   3
  15   2  -7 1768.02 413.683   3
  15   7  -2 2191.61 489.981   3
   2  -7  15 1928.19 419.858   1
   7 -15   2 1843.76 312.209   1
   7  -2  15 1445.43 395.571   1
   7 -15   2 1837.44 200.692   5
  -2   7  15 1862.83 358.272   5
   2 -15   7 1905.18 313.759   5
  -7  15   2 1667.74 309.596   1
  15  -7   2 2143.66 446.436   1
  -7   2  15 1461.54 359.204   5
 -15  -7  -2 2053.10 400.259   4
  -2  15   7 3378.11 567.605   2
  -7 -15   0 7966.75 845.424   4
   0 -15   7 10136.3 601.469   1
   0 -15   7 9174.39 816.150   4
   7   0 -15 8558.72 812.725   3
   7  15   0 8991.34 708.749   3
  15   7   0 10666.0 847.056   1
   7 -15   0 8997.37 670.866   1
  15   0  -7 8292.99 857.985   3
   0 -15   7 8526.42 681.428   3
  15  -7   0 9515.34 898.409   1
  -7  15   0 10067.9 769.550   1
   0  -7  15 10662.9 957.177   1
   0  15   7 9192.85 925.183   2
   0  -7  15 10019.2 913.352   5
   7  15   0 9121.67 717.591   5
   0   7  15 8929.45 750.117   2
   0 -15   7 9699.84 716.863   5
  -7   0  15 8891.94 888.079   5
  15   0   7 10340.1 995.294   1
   7   0  15 9215.69 935.006   1
  -7  15   0 8958.34 910.975   2
 -15  -7   0 8908.67 816.347   4
   7   0 -15 10086.8 717.856   4
  -7 -15   2 1808.54 400.298   4
  -2 -15   7 1729.70 368.017   4
  15   2   7 1816.61 421.704   1
   7  -2 -15 2022.99 385.935   3
  -2  -7  15 1371.63 358.904   1
   2   7  15 1741.56 412.762   1
   7  15   2 1909.15 320.393   3
  15  -2  -7 1968.02 409.338   3
  15  -7  -2 2042.18 418.959   1
  15   7   2 1292.41 306.858   1
  -2 -15   7 2248.97 256.681   1
  -2  15  -7 2113.13 398.562   2
  -2  -7  15 1744.91 396.094   5
   2  15   7 2021.21 465.069   2
   2   7  15 1879.72 334.859   2
  -7  -2  15 1632.64 374.046   5
  -7  15  -2 2673.15 405.931   1
   7   2  15 2410.79 491.615   1
 -15  -7   2 2396.38 426.677   4
  -7  15  -2 2602.89 494.908   2
   7  -4 -15 9904.03 802.674   3
  15  -4  -7 8639.93 808.031   3
   7  15   4 9511.65 710.167   3
  15  -7  -4 9190.70 796.906   3
  15   7   4 10003.6 839.945   1
   4   7  15 9183.97 878.943   1
  -4  -7  15 8393.58 881.475   1
   4   7  15 10367.8 717.264   2
   4  15   7 9017.66 903.619   2
  -4  15  -7 9114.45 838.437   2
  -4  -7  15 8959.99 895.034   5
  -7  -4  15 9948.61 967.311   5
  -7  15  -4 8308.28 853.213   2
  15   4   7 9621.85 921.576   1
 -15  -7   4 11094.5 919.017   4
   7   4  15 9961.67 959.719   1
  -7 -15   4 8819.64 877.108   4
  -4 -15   7 9489.52 852.277   4
  -7 -15   6 621.047 263.684   4
  -6 -15   7 742.849 263.234   4
  15   6   7 662.652 281.788   1
   6   7  15 327.076 202.174   1
  15  -6  -7 446.845 204.013   3
  15  -7  -6 1089.29 268.953   3
   7  15   6 652.917 218.857   3
  -6  -7  15 606.799 282.628   5
  -7  -6  15 673.922 317.817   5
  -6  15  -7 913.011 284.119   2
   7   6  15 803.064 308.407   1
 -15  -7   6 1265.39 321.867   4
  -7  15  -6 609.609 220.890   2
  15   7   6 427.789 207.654   1
  -7 -15  -8 7110.07 816.344   4
  -7  15   8 5868.77 801.212   2
  -8   7  15 5988.72 705.734   2
  15  -8   7 6492.21 832.974   1
  -8 -15  -7 6415.06 777.353   4
  15  -7   8 6682.95 837.805   1
   8   7 -15 6963.04 830.125   3
   7  -8  15 5714.72 748.938   1
  -7   8  15 6333.23 716.288   2
   7  15  -8 7120.60 778.153   3
   8  15  -7 6068.22 719.630   3
   7   8 -15 6012.12 785.428   3
  15   7  -8 7611.98 914.872   3
   8  -7  15 7040.69 851.839   1
  15   8  -7 5496.78 790.006   3
   8 -15   7 6651.63 668.659   1
 -15  -7  -8 5427.50 634.987   4
   7 -15   8 6301.72 651.565   1
 -15  -8  -7 6350.50 714.708   4
  -8  15   7 6960.90 867.601   2
  -7  -8 -15 7192.26 607.438   4
  -5  15   8-176.026 244.957   2
  -8  15   5 9.82977 196.509   2
  -8 -15  -5 127.711 166.742   4
  -5  -8 -15 121.012 115.865   4
  -5 -15  -8-132.024 233.666   4
  -5   8  15 63.1438 153.443   2
  15  -5   8 611.489 295.823   1
   5   8 -15-38.1757 197.457   3
   5  15  -8-5.47984 132.234   3
   8   5 -15-59.3380 186.447   3
  -8   5  15 169.512 170.285   2
   8  -5  15-2.41742 172.047   1
   5 -15   8 114.443 137.020   1
   8  15  -5-180.164 195.460   3
  15   5  -8 407.674 333.626   3
  15   8  -5-124.985 195.362   3
   5  -8  15 160.861 183.525   1
   5 -15   8-167.428 118.420   5
  -5   8  15-93.3139 153.842   5
 -15  -5  -8 89.5804 141.509   4
 -15  -8  -5-20.4196 130.495   4
   8 -15   5-15.8476 120.073   1
  15  -8   5 74.7931 214.755   1
  -8 -15  -3 11473.4 1026.84   4
   3 -15   8 9559.87 708.057   1
   3  15  -8 10041.6 846.204   3
   8   3 -15 11198.2 978.685   3
   8  15  -3 10649.2 861.174   3
  -8   3  15 9689.99 802.019   2
  15   3  -8 11372.9 1030.18   3
  15   8  -3 10119.0 1036.24   3
   8 -15   3 10362.7 774.052   1
  15  -8   3 9842.31 953.437   1
   8  -3  15 11422.3 1070.63   1
   3 -15   8 12027.7 804.307   5
  -3   8  15 11555.9 844.112   5
  -3  15   8 11276.3 1053.98   2
 -15  -8  -3 9620.60 887.299   4
  15  -3   8 9903.21 1007.83   1
  -3   8  15 10342.9 876.653   2
  -8  15   3 12290.8 1105.72   2
   3  -8  15 11500.3 1009.98   1
  -8  15   1 5431.34 737.442   2
   1 -15   8 5032.06 590.561   4
  -8 -15  -1 4022.98 625.401   4
   1 -15   8 5520.05 483.062   1
  15  -1   8 6723.66 829.266   1
   8   1 -15 4990.81 624.648   3
   8  15  -1 4874.27 565.930   3
   8 -15   1 4544.60 502.476   1
   8  -1  15 4567.02 683.206   1
  15   1  -8 4964.29 670.298   3
  15   8  -1 4964.18 725.496   3
  -1   8  15 5711.47 587.540   5
  15  -8   1 4740.86 646.393   1
   1  -8  15 4736.60 641.875   5
  -1   8  15 5647.67 629.150   2
   1  -8  15 4701.70 642.389   1
   1 -15   8 4016.86 483.609   5
  -1  15   8 5041.26 697.227   2
 -15  -8  -1 5293.18 637.630   4
  -1 -15   8 5231.05 604.611   4
  -8  15  -1 5925.46 753.051   2
   8  -1 -15 5415.76 639.845   3
  -1 -15   8 5144.95 440.769   1
  15   1   8 5351.38 712.624   1
   8 -15  -1 4823.72 515.112   1
  15   8   1 5497.70 587.820   1
   8  15   1 5554.57 582.836   3
  -1  -8  15 4396.00 617.842   1
  15  -1  -8 5397.82 670.171   3
   8   1  15 4365.18 660.287   1
  15  -8  -1 5855.81 719.981   1
   1   8  15 5298.82 591.886   2
   1   8  15 5082.85 666.395   1
  -1  -8  15 5045.07 674.687   5
  -1 -15   8 5304.82 560.073   5
   1  15   8 5383.14 693.771   2
 -15  -8   1 4818.60 626.559   4
  -8 -15   1 7224.87 815.946   4
  -3 -15   8 10479.7 881.524   4
   8  -3 -15 11680.3 907.640   3
  -3  -8  15 9578.18 932.871   1
   8   3  15 9718.12 974.087   1
  15  -8  -3 10601.6 971.139   1
  15  -3  -8 9645.39 877.903   3
  -3 -15   8 12150.9 651.905   1
  15   8   3 11604.0 874.263   1
   8  15   3 11630.4 833.896   3
  -3  -8  15 11509.8 1017.11   5
  15  -8  -3 10289.7 829.183   3
  -3  15  -8 11172.2 905.899   2
   3   8  15 12460.7 866.892   2
   3  15   8 12549.6 1060.96   2
   3   8  15 12018.8 1005.53   1
  -8  15  -3 10946.1 1001.20   2
 -15  -8   3 10947.8 928.465   4
  15   3   8 11259.8 1031.58   1
  -8 -15   3 10790.3 984.103   4
  -8 -15   5-238.581 189.938   4
  -5 -15   8 299.789 203.738   4
  15   5   8 63.4474 180.898   1
   8  -5 -15-333.726 176.939   3
 -15   8  -5 139.188 143.048   2
  15  -5  -8-30.7242 123.946   3
  15  -8  -5 98.2830 136.597   3
   8  15   5 203.425 134.437   3
   8   5  15-121.588 157.422   1
   5   8  15-223.189 163.130   1
   5  15   8 153.890 145.890   2
  -5  15  -8 173.191 133.683   2
  -5  -8  15 135.887 199.245   5
  15   8   5-113.823 150.548   1
 -15  -8   5-45.7253 157.746   4
  -8  15  -5-117.726 181.202   2
 -15   8  -7 6147.13 641.278   2
 -15   7  -8 6184.85 616.060   2
  15  -7  -8 5772.35 628.618   3
  15  -8  -7 6991.39 663.660   3
  -7  15  -8 7284.30 738.160   2
  15   8   7 6803.53 711.237   1
   8   7  15 6632.45 769.194   1
  15   7   8 7339.81 782.070   1
 -15  -8   7 7423.63 773.906   4
   7   8  15 6345.09 738.437   1
  -8  15  -7 5976.06 691.206   2
  -8 -15   7 7980.56 816.593   4
  -7 -15   8 7400.34 774.200   4
   8  -9  15 2433.90 501.400   1
  -8  15   9 2665.74 564.948   2
  -9 -15  -8 1671.95 427.437   4
  15  -9   8 1562.33 429.341   1
  -8 -15  -9 2429.99 494.430   4
  -9  15   8 1167.92 403.793   2
   9 -15   8 2309.89 439.190   1
  15  -8   9 2164.01 504.756   1
  -8   9  15 1595.05 414.260   2
   8 -15   9 2127.23 411.870   1
  -9   8  15 1546.41 381.058   2
   8   9 -15 2693.69 546.785   3
   9   8 -15 2674.43 538.667   3
   8  15  -9 1831.83 434.666   3
 -15   9   8 1985.77 448.586   2
   9  15  -8 1952.79 444.105   3
  15   8  -9 1611.94 474.838   3
  15   9  -8 2181.04 523.556   3
 -15  -8  -9 2567.27 437.804   4
   9  -8  15 1420.49 423.683   1
 -15  -9  -8 2674.13 463.484   4
  -6  -9 -15 6101.06 597.492   4
  -6  15   9 6717.34 855.836   2
   9  -6  15 5175.92 732.116   1
  -9 -15  -6 4741.42 678.808   4
  -9  15   6 5514.00 764.768   2
  -6 -15  -9 5664.60 716.903   4
  -6   9  15 5728.17 717.583   2
  15  -6   9 5868.45 798.167   1
   6   9 -15 6638.06 823.164   3
   6  -9  15 5314.71 726.274   1
  -9   6  15 4710.88 620.643   2
   6  15  -9 5204.07 670.021   3
   9   6 -15 5706.46 744.894   3
 -15   9   6 5720.39 725.459   2
   9  15  -6 6109.47 721.960   3
  15   6  -9 5059.88 747.842   3
  15   9  -6 5603.36 789.769   3
   9 -15   6 5403.90 610.195   1
 -15  -6  -9 6137.85 636.752   4
 -15  -9  -6 4364.34 608.742   4
   6 -15   9 5131.97 589.400   1
  15  -9   6 5431.65 730.416   1
  -4   9  15 1749.14 381.272   2
  -9 -15  -4 2538.15 488.978   4
  -9  15   4 2371.26 502.137   2
  -4  -9 -15 2005.84 358.576   4
   9  -4  15 2413.34 505.817   1
   4   9 -15 2958.51 538.348   3
   4  15  -9 2220.57 422.058   3
  15  -4   9 2064.42 495.401   1
   9   4 -15 1977.97 434.424   3
  -9   4  15 2210.30 408.104   2
 -15   9   4 2293.69 452.137   2
   9  15  -4 2022.35 412.950   3
   4 -15   9 2287.21 374.873   1
  15   4  -9 2433.28 508.364   3
  15   9  -4 2139.19 463.589   3
   4  -9  15 2594.71 500.684   1
   4 -15   9 2265.07 375.464   5
  -4   9  15 1679.45 325.613   5
   9 -15   4 1755.80 349.133   1
 -15  -4  -9 2202.69 361.840   4
  15  -9   4 1394.14 395.681   1
 -15  -9  -4 1346.13 359.302   4
  -4  15   9 1824.03 438.177   2
   2  -9  15 6195.36 742.633   1
   2 -15   9 6087.90 644.533   4
  -9 -15  -2 4882.90 681.137   4
  -9  15   2 6742.10 823.881   2
   2 -15   9 5230.48 527.518   1
   9  -2  15 6208.19 798.172   1
  15  -2   9 6401.80 828.730   1
   9   2 -15 5262.00 691.568   3
   9  15  -2 5344.19 626.244   3
   9 -15   2 5558.17 579.447   1
  15   2  -9 5665.41 717.215   3
  15  -9   2 7536.18 814.535   1
  15   9  -2 5095.61 738.180   3
  -2   9  15 6109.23 590.976   5
   2 -15   9 6420.86 613.970   5
  -2   9  15 5211.70 636.756   2
 -15  -9  -2 5593.43 676.807   4
  -2  15   9 5953.30 782.614   2
  -9 -15   0 2933.61 524.416   4
  -9  15   0 1874.76 458.189   2
   0 -15   9 1913.82 370.733   4
   9   0 -15 2515.34 457.803   3
  15   0   9 2729.30 544.191   1
 -15   9   0 2290.24 447.790   2
   9   0  15 2313.38 491.514   1
  15   0  -9 2807.31 506.360   3
   9  15   0 2201.01 385.597   3
   9 -15   0 1584.07 326.684   1
  15   9   0 2520.05 508.165   3
  15  -9   0 2441.59 469.791   1
   0  -9  15 2165.47 433.135   5
   0 -15   9 1544.80 275.197   1
   0 -15   9 2467.32 383.593   5
   0  -9  15 2019.17 439.407   1
   0  15   9 1190.17 359.770   2
   0   9  15 2509.92 440.812   2
 -15  -9   0 2116.37 442.575   4
  -9  15  -2 3959.99 610.899   2
  -9 -15   2 5149.23 696.078   4
   2   9  15 6402.19 741.072   1
   9  -2 -15 6518.94 705.729   3
 -15   9  -2 6174.02 695.354   2
  15   2   9 5700.87 758.325   1
  15  -2  -9 5870.31 691.898   3
  15   9   2 5391.71 566.878   1
   9   2  15 5607.08 742.776   1
  -2 -15   9 5393.32 479.750   1
   9  15   2 5679.11 613.713   3
  -2  -9  15 4935.22 649.632   1
  15  -9  -2 5141.96 680.006   1
   2  15   9 6734.60 785.252   2
   2   9  15 5885.76 625.600   2
  -2  -9  15 6507.46 748.315   5
 -15  -9   2 6482.34 732.686   4
  -2 -15   9 6471.89 661.801   4
  -9  15  -4 1688.90 387.609   2
  -9 -15   4 1887.19 425.226   4
  -4 -15   9 1911.57 367.444   4
   9  -4 -15 2554.95 430.822   3
  15   4   9 1907.90 433.185   1
 -15   9  -4 2169.25 409.579   2
   9   4  15 2835.19 545.076   1
  15  -4  -9 2295.19 423.962   3
  15  -9  -4 2139.40 374.594   3
   9  15   4 2656.93 420.297   3
  -4  -9  15 2838.54 520.849   1
  -4  15  -9 2238.03 398.665   2
  15   9   4 2257.48 390.283   1
   4   9  15 1945.11 356.543   2
   4  15   9 2496.27 493.126   2
  -4  -9  15 1657.09 396.480   5
 -15  -9   4 1630.50 380.168   4
   4   9  15 3459.99 527.889   1
  -9 -15   6 5596.30 710.660   4
  -6 -15   9 5220.22 613.074   4
   9  -6 -15 6305.74 638.275   3
 -15   6  -9 5831.21 570.010   2
  15   6   9 5018.97 682.226   1
 -15   9  -6 5215.67 607.555   2
  15  -6  -9 5676.59 636.538   3
   9   6  15 5908.51 736.656   1
  15  -9  -6 4169.99 501.273   3
  15   9   6 6259.44 646.010   1
  -6  15  -9 6023.66 657.253   2
  -6  -9  15 5312.73 713.832   5
 -15  -9   6 6184.51 718.219   4
  -9  15  -6 5792.35 694.694   2
   6   9  15 6080.70 706.464   1
  15   9   8 2214.93 403.639   1
  15   8   9 1529.83 399.172   1
   9   8  15 1426.51 383.954   1
  15  -8  -9 1547.22 314.795   3
   8   9  15 1834.28 420.959   1
  15  -9  -8 2152.95 357.428   3
 -15  -9   8 1612.03 379.114   4
  -9  15  -8 1019.57 293.697   2
  -9 -15   8 1670.56 383.765   4
  -8 -15   9 2071.77 412.950   4
 -10 -15  -9 4654.88 692.913   4
  -9 -15 -10 4545.55 679.944   4
  -9  15  10 4977.56 764.215   2
  15 -10   9 3877.12 672.391   1
 -10  15   9 3926.08 677.822   2
  10 -15   9 4032.61 601.123   1
  15  -9  10 4470.76 732.674   1
  -9  10  15 4572.30 682.767   2
 -10   9  15 2513.49 508.958   2
   9 -15  10 4847.96 648.293   1
   9  10 -15 4622.12 756.803   3
  10   9 -15 4111.74 703.621   3
 -15  10   9 3925.03 641.660   2
   9  15 -10 4058.13 651.159   3
 -15   9  10 4557.42 691.028   2
  10  15  -9 3927.62 653.050   3
  15   9 -10 4722.29 749.105   3
  15  10  -9 3640.46 672.514   3
  10  -9  15 4910.42 761.866   1
   9 -10  15 3513.68 626.330   1
 -15  -9 -10 4267.15 602.194   4
 -15 -10  -9 3625.87 570.375   4
  15 -10   7 613.356 304.476   1
  10 -15   7 495.672 223.909   1
   7 -10  15 156.079 192.825   1
  -7  15  10 32.3926 176.757   2
 -10 -15  -7 322.424 234.021   4
  -7 -10 -15 103.860 109.882   4
  -7 -15 -10 394.823 247.129   4
 -10  15   7-111.095 236.223   2
  -7  10  15 403.470 255.488   2
  15  -7  10 347.845 256.733   1
   7  10 -15 488.829 285.171   3
 -10   7  15-59.5056 181.564   2
   7  15 -10-664.979 274.672   3
  10   7 -15 208.818 322.329   3
 -15  10   7 168.543 209.633   2
   7 -15  10 185.665 149.100   1
  10  15  -7 200.958 197.385   3
  15   7 -10 377.839 320.189   3
  15  10  -7 408.222 289.475   3
  10  -7  15 429.148 296.711   1
 -15  -7 -10 369.928 207.378   4
 -15 -10  -7-93.4336 200.545   4
  -5  15  10 6885.05 880.562   2
   5 -15  10 7452.48 721.195   1
  -5 -10 -15 5529.98 611.550   4
 -10 -15  -5 6511.44 809.439   4
  -5 -15 -10 6696.40 776.814   4
 -10  15   5 7171.94 885.155   2
   5  10 -15 7561.03 876.190   3
  10   5 -15 8315.54 909.680   3
   5  15 -10 6043.53 743.015   3
  15  -5  10 6445.85 851.346   1
  10  15  -5 7395.42 818.021   3
 -15  10   5 6549.57 786.314   2
 -10   5  15 5907.58 700.851   2
  15   5 -10 6732.42 848.650   3
  15  10  -5 7443.86 903.926   3
   5 -10  15 7211.76 825.744   1
  10 -15   5 6253.59 678.067   1
   5 -15  10 6773.90 681.821   5
 -15  -5 -10 6003.51 610.912   4
 -15 -10  -5 7208.17 806.190   4
  -5  10  15 7121.80 811.067   2
  15 -10   5 5875.32 773.660   1
  10  -5  15 6149.23 826.979   1
  -3  10  15 1224.79 315.602   2
  10  -3  15 2462.73 528.557   1
 -10 -15  -3 1553.97 387.903   4
 -10  15   3 1179.65 391.042   2
   3 -15  10 1813.99 356.042   4
   3  15 -10 1763.05 398.750   3
  10   3 -15 1908.72 442.485   3
 -15  10   3 1550.00 408.574   2
  15  -3  10 1746.79 457.762   1
  10  15  -3 1461.56 354.391   3
  15   3 -10 1197.70 355.322   3
  15  10  -3 1881.93 476.612   3
   3 -15  10 1630.00 328.677   1
   3 -10  15 2407.43 470.292   1
  10 -15   3 2229.55 393.638   1
  -3  10  15 1656.58 312.312   5
  15 -10   3 1920.62 427.835   1
   3 -15  10 1523.44 322.577   5
 -15 -10  -3 2750.15 504.801   4
  -3  15  10 2178.59 475.473   2
   1 -15  10 5068.50 566.683   4
 -10 -15  -1 5215.37 717.843   4
   1 -10  15 5789.40 716.121   1
 -10  15   1 6923.26 856.747   2
  10  -1  15 4443.38 702.949   1
   1 -15  10 5712.68 563.132   1
  10   1 -15 6436.93 753.561   3
 -15  10   1 4588.26 648.198   2
  15  -1  10 6432.28 836.851   1
  10 -15   1 5489.18 606.646   1
  15 -10   1 6078.55 746.709   1
  15   1 -10 5324.12 714.383   3
  10  15  -1 5237.12 635.398   3
  15  10  -1 4980.41 720.906   3
   1 -10  15 6475.46 760.236   5
  -1  10  15 5958.59 565.426   5
   1 -15  10 5981.43 628.921   5
 -15 -10  -1 6137.45 736.547   4
  -1  15  10 5783.12 754.868   2
  -1  10  15 4574.53 625.130   2
 -10 -15   1 6520.65 784.235   4
  10   1  15 6622.23 834.773   1
  10  -1 -15 6105.45 686.765   3
 -15  10  -1 5212.26 665.957   2
  15   1  10 6432.03 829.785   1
  10 -15  -1 5341.77 599.726   1
  15 -10  -1 6541.19 768.264   1
  10  15   1 5359.84 630.307   3
  -1 -15  10 7041.81 596.895   1
  15  -1 -10 5572.63 700.716   3
  15  10   1 5502.14 738.145   3
  -1 -10  15 6421.10 755.153   5
  -1 -15  10 5596.29 628.858   5
   1  15  10 5078.50 696.276   2
   1  10  15 4612.01 594.857   2
  -1 -10  15 5993.20 714.508   1
 -10  15  -1 7356.99 841.805   2
 -15 -10   1 5593.43 714.873   4
   1  10  15 5411.02 679.418   1
  -1 -15  10 5237.71 579.965   4
 -10 -15   3 1638.36 416.683   4
 -10  15  -3 1506.44 408.966   2
  -3 -15  10 1157.14 289.955   4
  10   3  15 1481.98 407.997   1
  10  -3 -15 1684.72 379.424   3
 -15  10  -3 1241.75 349.097   2
  15   3  10 809.236 345.609   1
   3  10  15 1235.23 338.839   1
  -3 -15  10 1379.02 276.319   1
  15  -3 -10 1759.03 385.512   3
  15 -10  -3 1513.90 397.680   1
  -3 -10  15 1413.36 364.349   1
  10  15   3 2007.41 386.789   3
  15  10   3 1546.56 309.363   1
  15 -10  -3 1447.62 305.262   3
   3  10  15 769.804 245.018   2
   3  15  10 1211.67 355.318   2
  -3 -10  15 1640.98 410.925   5
 -15 -10   3 1177.47 325.868   4
 -15  10  -5 7200.84 749.311   2
   5  10  15 6478.69 730.491   1
  10  -5 -15 7387.15 724.052   3
  10   5  15 5688.05 759.856   1
  -5 -10  15 7809.01 842.603   1
  15   5  10 6840.63 818.113   1
  15  -5 -10 6428.72 701.818   3
  15 -10  -5 5902.72 582.113   3
  15  10   5 5384.78 571.250   1
  10  15   5 7635.50 739.721   3
  -5  15 -10 6725.00 654.286   2
   5  15  10 6168.90 778.426   2
  -5 -10  15 7164.70 852.011   5
 -10  15  -5 6416.66 771.100   2
 -15 -10   5 6435.45 762.591   4
 -10 -15   5 6669.31 779.027   4
  -5 -15  10 6399.21 668.696   4
  10   7  15 596.071 260.917   1
  10  -7 -15 293.268 164.462   3
  15   7  10 567.237 266.673   1
 -15  10  -7 191.789 165.916   2
  15  -7 -10-221.829 181.122   3
   7  10  15 588.507 269.168   1
 -15 -10   7 666.289 281.681   4
 -10  15  -7-58.5191 183.496   2
 -10 -15   7 102.880 158.060   4
  -7 -15  10 298.447 208.106   4
  10   9  15 4156.53 608.959   1
   9  10  15 5097.56 672.947   1
  15   9  10 4102.96 598.013   1
 -15 -10   9 4408.43 625.144   4
  -9 -15  10 3919.28 592.930   4
 -10 -15   9 4713.79 645.198   4
 -11 -15 -10 3008.13 572.502   4
 -10 -15 -11 2546.01 512.844   4
  11 -15  10 2605.20 526.809   1
 -10  11  15 2856.57 594.248   2
 -11  10  15 2241.44 531.211   2
  10 -15  11 2464.69 495.601   1
  10  15 -11 2972.83 609.456   3
  11  15 -10 2481.60 549.748   3
 -15 -10 -11 2757.77 497.740   4
 -15 -11 -10 2379.03 500.275   4
  15 -11   8 1802.50 461.452   1
  11 -15   8 1487.31 370.816   1
 -11 -15  -8 1831.41 443.899   4
  -8  15  11 2012.02 518.249   2
  -8 -15 -11 1657.65 407.560   4
  11  -8  15 1665.22 469.245   1
  -8  11  15 1828.16 452.473   2
   8  11 -15 924.439 351.324   3
 -11   8  15 2504.06 500.670   2
  15  -8  11 1545.62 463.900   1
   8  15 -11 1764.56 455.313   3
 -15   8  11 2245.31 486.763   2
   8 -15  11 1572.16 390.007   1
  11  15  -8 2988.35 587.233   3
  15  11  -8 1803.72 475.478   3
   8 -11  15 2289.13 507.959   1
 -15  -8 -11 1507.96 356.730   4
 -15 -11  -8 1760.28 415.904   4
  -6  15  11 3115.00 610.643   2
 -11 -15  -6 1812.34 434.603   4
   6 -11  15 3280.47 564.523   1
  -6  11  15 3428.56 626.436   2
  -6 -11 -15 2969.50 467.723   4
  -6 -15 -11 2722.91 517.054   4
 -11  15   6 2801.54 588.965   2
   6  11 -15 3143.79 590.014   3
   6  15 -11 3848.30 630.955   3
 -15  11   6 2427.04 507.510   2
 -11   6  15 2830.76 506.763   2
  11   6 -15 3150.70 594.198   3
  15  -6  11 2679.60 573.864   1
  11  15  -6 2912.83 543.429   3
  15   6 -11 3278.24 608.845   3
   6 -15  11 2103.99 420.419   1
  15  11  -6 1609.17 437.696   3
  11  -6  15 2450.76 546.686   1
 -15  -6 -11 2735.41 423.677   4
  11 -15   6 1852.98 395.435   1
  15 -11   6 2035.23 459.693   1
 -15 -11  -6 3067.41 546.255   4
  -4  11  15 1802.57 437.195   2
 -11 -15  -4 2575.97 537.363   4
  -4 -11 -15 2628.09 450.648   4
 -11  15   4 2451.75 527.142   2
  -4 -15 -11 3049.09 532.180   4
   4  11 -15 3145.71 571.893   3
   4  15 -11 2441.04 483.041   3
 -15  11   4 3030.49 554.112   2
  11   4 -15 2293.52 494.764   3
   4 -11  15 2393.24 485.875   1
  15  -4  11 2293.34 526.363   1
  15   4 -11 2547.08 533.885   3
  11  15  -4 1916.90 431.975   3
  15  11  -4 2357.83 536.537   3
   4 -15  11 2459.49 411.709   1
   4 -15  11 2246.97 407.124   5
  11 -15   4 2377.17 424.874   1
  15 -11   4 2305.15 471.503   1
  11  -4  15 2715.45 560.572   1
 -15 -11  -4 2732.48 517.277   4
  -4  15  11 3465.60 618.370   2
   2 -15  11 5506.42 559.428   4
 -11 -15  -2 5772.99 777.860   4
 -11  15   2 5181.90 736.297   2
 -15  11   2 4733.51 671.464   2
  11   2 -15 5028.24 689.277   3
  15  -2  11 5834.77 815.266   1
  15   2 -11 3869.89 627.928   3
  11 -15   2 5728.65 652.517   1
  11  15  -2 3869.51 576.029   3
  15  11  -2 4911.02 722.608   3
  15 -11   2 5346.16 708.892   1
   2 -11  15 4610.56 648.890   1
   2 -11  15 5179.58 689.913   5
   2 -15  11 5093.85 609.836   5
   2 -15  11 4554.03 550.763   1
  -2  15  11 4396.92 699.448   2
 -15 -11  -2 4724.27 672.006   4
  -2  11  15 5171.00 675.090   2
  11  -2  15 4168.57 719.621   1
  11   0  15 1913.65 499.027   1
 -11 -15   0 923.563 305.047   4
   0 -15  11 2055.22 358.352   1
   0 -15  11 1843.15 320.042   4
 -11  15   0 2002.80 457.882   2
   0 -11  15 1872.19 411.193   1
 -15  11   0 1598.73 398.521   2
  11   0 -15 2182.35 431.970   3
  15   0  11 1543.41 451.564   1
  15   0 -11 1157.11 343.263   3
  11  15   0 1421.46 362.309   3
  11 -15   0 1959.41 398.674   1
  15  11   0 1859.88 458.791   3
  15 -11   0 1251.36 344.250   1
   0  11  15 1317.86 350.413   1
   0 -11  15 2357.09 488.516   5
   0 -15  11 1805.18 393.466   5
   0  15  11 2096.30 467.483   2
   0  11  15 1960.02 436.008   2
 -15 -11   0 2088.63 468.360   4
  11   2  15 6499.94 830.904   1
 -11 -15   2 5558.40 722.574   4
 -11  15  -2 6246.93 787.888   2
 -15  11  -2 5400.16 683.703   2
  11  -2 -15 4977.07 639.393   3
  -2 -15  11 4274.54 503.041   1
  15   2  11 5802.41 791.110   1
  15  -2 -11 4352.41 613.312   3
  15 -11  -2 4882.98 678.925   1
  11  15   2 5008.20 634.619   3
   2  11  15 5265.76 655.320   2
   2  15  11 4500.47 654.419   2
  -2 -11  15 4687.24 663.096   5
   2  11  15 5542.85 677.645   1
  -2 -15  11 3664.71 553.064   5
  -2 -11  15 4734.98 629.786   1
 -15 -11   2 5108.25 685.251   4
  -2 -15  11 4464.61 529.059   4
 -11 -15   4 2867.40 543.405   4
  -4 -15  11 2299.78 389.043   4
  11   4  15 1769.80 465.565   1
 -11  15  -4 2564.64 484.234   2
 -15  11  -4 2224.40 454.031   2
  11  -4 -15 2172.52 430.152   3
  15   4  11 2510.63 510.421   1
  15  -4 -11 2033.08 423.677   3
  -4 -11  15 2429.21 462.616   1
  11  15   4 2441.33 451.013   3
   4  11  15 2396.84 448.335   2
   4  15  11 2709.91 525.281   2
  -4 -11  15 2251.74 470.186   5
   4  11  15 2527.34 467.388   1
 -15 -11   4 2078.57 462.797   4
 -11  15  -6 2702.80 515.099   2
 -15  11  -6 2357.69 447.131   2
  11  -6 -15 3018.72 472.067   3
  15   6  11 3645.87 602.741   1
  15  -6 -11 2925.67 479.250   3
  -6 -11  15 2456.73 503.956   1
   6  11  15 2128.38 427.269   1
 -15 -11   6 3184.34 552.262   4
  11   6  15 3118.20 576.473   1
  -6 -15  11 3047.11 464.216   4
 -11 -15   6 3268.64 568.761   4
  15   8  11 1153.67 336.273   1
   8  11  15 1496.92 348.102   1
  15  -8 -11 1647.75 345.454   3
  -8 -11  15 2148.98 532.198   1
 -15 -11   8 1493.24 406.500   4
  11   8  15 1412.40 401.581   1
  -8 -15  11 1770.93 393.341   4
 -11 -15   8 2058.32 458.532   4
 -10 -15  11 2506.19 477.811   4
 -11 -15  10 2451.15 499.975   4
 -11 -15 -12 2524.25 525.817   4
 -15 -12 -11 1486.86 418.976   4
 -12 -15  -9 812.862 298.455   4
  12 -15   9 618.022 249.212   1
  -9 -15 -12 1483.48 434.861   4
  -9  12  15 1318.05 383.653   2
   9  15 -12 1303.04 414.584   3
   9 -15  12 1263.99 370.467   1
  12  15  -9 1192.24 421.497   3
   9 -12  15 1236.30 403.702   1
 -15 -12  -9 990.751 348.479   4
  -7 -12 -15 6635.43 720.142   4
 -12 -15  -7 5199.54 740.556   4
  -7  15  12 5916.48 846.853   2
  -7  12  15 5164.11 759.557   2
  -7 -15 -12 4930.99 693.481   4
   7  12 -15 5178.60 776.827   3
   7  15 -12 6232.13 831.387   3
 -12   7  15 6830.72 815.471   2
   7 -12  15 7535.77 880.867   1
  12  15  -7 5798.46 796.787   3
  15  12  -7 7337.63 934.728   3
   7 -15  12 5119.71 685.100   1
  12 -15   7 5184.03 698.699   1
  15 -12   7 5767.28 783.385   1
 -15 -12  -7 4428.12 669.688   4
  -5  15  12 485.709 293.617   2
  -5  12  15 109.561 172.564   2
 -12 -15  -5 293.587 248.892   4
   5 -12  15 276.064 209.527   1
  -5 -12 -15-150.997 160.886   4
  -5 -15 -12-2.22573 159.287   4
 -12  15   5 477.755 312.669   2
   5  12 -15 383.530 257.598   3
   5  15 -12 33.4531 178.188   3
 -15  12   5 214.393 220.509   2
  12   5 -15 451.585 257.941   3
 -12   5  15 217.068 194.904   2
  15  -5  12-116.172 238.810   1
  15   5 -12 309.070 283.078   3
  12  15  -5-149.845 175.873   3
  15  12  -5-29.7759 164.868   3
   5 -15  12 132.683 157.473   1
  12  -5  15-143.301 250.266   1
   5 -15  12 178.069 154.667   5
  12 -15   5-1.99193 194.731   1
  15 -12   5 128.907 167.647   1
 -15 -12  -5 261.829 220.545   4
 -12  15   3 5546.34 782.856   2
   3 -15  12 6455.35 690.820   1
 -15  12   3 6071.49 781.253   2
  12   3 -15 5959.53 792.576   3
  15   3 -12 5911.37 802.455   3
  15  -3  12 7233.50 930.684   1
  12  15  -3 6133.90 753.435   3
  15  12  -3 5808.04 804.473   3
   3 -12  15 6089.70 750.353   1
   3 -12  15 7808.78 857.297   5
  12 -15   3 5348.17 666.116   1
   3 -15  12 6334.46 701.601   5
  15 -12   3 6401.87 794.429   1
  12  -3  15 7833.28 953.712   1
  -3  15  12 5743.98 794.790   2
 -12 -15  -3 6877.12 848.509   4
 -15 -12  -3 5411.47 747.474   4
  -3  12  15 5806.21 758.382   2
   1 -15  12 2416.03 395.831   1
 -12 -15  -1 1990.88 483.562   4
 -12  15   1 2839.06 563.498   2
 -15  12   1 2065.96 471.814   2
  12   1 -15 2840.50 522.482   3
  15   1 -12 1902.77 464.357   3
  15  -1  12 2821.16 584.513   1
  12  15  -1 2009.91 434.082   3
  15  12  -1 2714.34 546.688   3
  12 -15   1 3204.85 504.935   1
  15 -12   1 2405.58 482.750   1
   1 -12  15 2117.46 424.997   1
   1 -12  15 2619.09 504.741   5
   1 -15  12 2200.84 436.796   5
  12  -1  15 3181.96 607.586   1
  -1  15  12 2389.75 502.591   2
  -1  12  15 3519.37 585.953   2
 -15 -12  -1 3604.68 616.154   4
 -12 -15   1 2640.50 540.524   4
  -1 -15  12 2624.31 385.025   4
 -12  15  -1 4015.36 670.189   2
  -1 -12  15 2995.12 504.352   1
 -15  12  -1 2839.98 537.131   2
  -1 -15  12 2669.32 417.583   1
  12  -1 -15 2377.53 455.520   3
   1  12  15 2378.58 460.793   1
  15  -1 -12 3029.10 544.155   3
  15   1  12 2980.62 574.181   1
  12 -15  -1 2499.32 459.428   1
  12  15   1 2644.68 491.794   3
  15 -12  -1 2153.75 448.970   1
  15  12   1 2681.72 543.908   3
  -1 -12  15 2638.19 526.531   5
  -1 -15  12 1622.13 369.505   5
   1  15  12 2390.70 494.143   2
   1  12  15 2963.68 516.491   2
  12   1  15 3231.96 628.959   1
 -15 -12   1 2660.85 526.047   4
 -12  15  -3 7089.63 847.645   2
  12  -3 -15 6893.13 748.772   3
 -15  12  -3 6025.85 748.896   2
  15  -3 -12 7055.48 787.359   3
  15   3  12 5804.62 816.746   1
   3  12  15 7025.35 739.152   1
  12  15   3 5562.31 697.474   3
   3  12  15 6746.57 749.309   2
   3  15  12 6986.81 829.163   2
  -3 -12  15 7702.44 863.397   5
  -3 -15  12 7165.22 787.088   5
  -3 -12  15 5094.19 636.951   1
  12   3  15 6373.08 856.573   1
 -12 -15   3 7016.19 838.626   4
  -3 -15  12 6255.80 621.207   4
 -15 -12   3 6861.89 814.422   4
 -12  15  -5 119.853 155.003   2
   5  12  15 172.355 150.164   1
 -15  12  -5 241.441 199.522   2
  12  -5 -15-285.646 196.260   3
  15  -5 -12-3.79693 169.049   3
  15   5  12 172.032 211.653   1
  -5 -12  15-20.6184 159.605   1
  12  15   5 267.343 214.035   3
   5  12  15 245.002 197.468   2
   5  15  12 283.542 194.961   2
  -5 -12  15-89.1504 147.176   5
  12   5  15-147.196 216.378   1
 -15 -12   5 11.8219 158.089   4
  -5 -15  12 305.005 181.469   4
 -12 -15   5-73.1096 221.205   4
  12  -7 -15 5435.63 623.766   3
  -7 -12  15 4623.48 661.812   1
  15   7  12 6093.02 780.370   1
  15  -7 -12 5406.37 631.918   3
  12   7  15 6322.16 815.195   1
  -7 -15  12 6173.92 674.989   4
 -12 -15   7 7077.30 848.991   4
 -15 -12   7 5320.14 720.943   4
  -9 -12  15 1314.56 438.197   1
  12   9  15 978.898 320.899   1
  -9 -15  12 1143.44 342.482   4
 -12 -15   9 777.242 317.737   4
 -11 -15  12 1412.25 379.581   4
 -10 -15 -13 735.049 287.214   4
  -8 -15 -13 4042.47 623.859   4
  13  15  -8 5205.16 803.674   3
   8 -15  13 4299.72 662.786   1
   8 -13  15 5199.90 778.058   1
  13 -15   8 4773.63 693.576   1
 -15 -13  -8 4346.28 681.362   4
  -6  15  13 644.058 327.920   2
 -13 -15  -6 389.303 225.582   4
  -6  13  15 828.611 345.413   2
  -6 -13 -15 678.368 270.735   4
  -6 -15 -13 602.039 262.218   4
   6  13 -15 974.313 360.190   3
   6  15 -13 423.439 261.183   3
 -13   6  15 609.893 286.909   2
  13  15  -6 532.240 290.743   3
  15  13  -6 53.5841 208.015   3
   6 -15  13 964.257 322.087   1
   6 -15  13 143.699 206.937   5
  13 -15   6 92.5783 178.844   1
   6 -13  15 688.362 327.406   1
  15 -13   6 678.154 277.107   1
 -15 -13  -6 511.582 252.051   4
 -13 -15  -4 5300.69 768.226   4
   4 -13  15 6257.51 773.880   1
  -4 -13 -15 5637.24 687.560   4
  -4 -15 -13 5026.36 681.848   4
 -13  15   4 6060.29 838.841   2
   4 -15  13 6438.60 743.211   1
 -15  13   4 6352.12 834.710   2
  13   4 -15 6449.73 825.836   3
  15   4 -13 5345.21 785.879   3
  15  -4  13 6110.55 886.940   1
  13  15  -4 6343.48 810.746   3
  15  13  -4 6372.58 851.579   3
  13  -4  15 7371.70 970.484   1
   4 -13  15 5754.04 749.881   5
  13 -15   4 5220.77 687.172   1
   4 -15  13 5315.21 671.070   5
  15 -13   4 5919.90 779.668   1
  -4  15  13 6979.50 902.154   2
 -15 -13  -4 6061.23 819.857   4
  -4  13  15 5827.58 797.332   2
 -13 -15  -2 1201.75 388.465   4
 -13  15   2 1165.30 405.442   2
 -15  13   2 617.307 317.285   2
  13   2 -15 583.275 307.932   3
   2 -13  15 454.712 259.208   1
  15   2 -13 679.077 321.071   3
  15  -2  13 1317.41 385.166   1
  13  15  -2 719.256 306.762   3
  15  13  -2 1082.53 378.624   3
  13 -15   2 568.472 276.152   1
  15 -13   2 531.019 207.167   1
  13  -2  15 1005.48 388.630   1
   2 -13  15 890.131 283.484   5
   2 -15  13 964.221 315.319   5
  -2  15  13 775.196 324.774   2
  -2  13  15 989.020 338.334   2
   2 -15  13 993.104 306.093   1
 -15 -13  -2 910.294 359.040   4
 -15  13   0 7960.71 904.190   2
 -13  15   0 6462.41 844.004   2
  13   0 -15 7169.49 828.087   3
  13 -15   0 7744.14 819.652   1
  15   0 -13 6471.90 797.803   3
  13  15   0 7693.02 864.495   3
  15  13   0 9362.80 989.488   3
   0  13  15 7905.79 821.391   1
  15   0  13 7395.58 961.255   1
   0 -15  13 6637.79 702.324   1
  15 -13   0 6765.12 811.193   1
   0 -13  15 7793.57 860.722   5
   0 -15  13 6884.24 771.773   5
  13   0  15 7874.06 962.949   1
   0 -13  15 7116.43 780.905   1
   0  15  13 7337.23 878.120   2
   0  13  15 6744.54 816.548   2
 -15 -13   0 8479.48 950.488   4
 -13 -15   0 8395.66 960.574   4
 -13  15  -2 735.016 310.077   2
  -2 -13  15 959.289 300.624   1
 -15  13  -2 1343.98 378.130   2
  13  -2 -15 763.838 291.182   3
  15  -2 -13 785.163 317.912   3
   2  13  15 1407.51 344.746   1
  15 -13  -2 482.000 277.106   1
  15   2  13 920.913 355.732   1
  13  15   2 1001.54 331.616   3
  15  13   2 435.537 241.302   3
  13   2  15 1444.93 470.543   1
   2  15  13 1170.18 347.218   2
   2  13  15 571.644 238.457   2
  -2 -13  15 622.752 258.016   5
  -2 -15  13 450.543 261.771   5
 -15 -13   2 1530.69 412.744   4
 -13 -15   2 789.460 401.063   4
 -13  15  -4 5585.36 750.161   2
 -15  13  -4 5027.36 688.930   2
  13  -4 -15 4918.26 643.585   3
  15  -4 -13 5123.57 663.256   3
  15   4  13 6007.94 841.401   1
  13  15   4 5206.38 682.396   3
   4  13  15 5735.35 714.991   2
   4  15  13 5589.42 737.619   2
  13   4  15 4848.15 749.978   1
  -4 -13  15 4978.88 714.208   5
  -4 -13  15 5309.02 651.708   1
 -15 -13   4 5123.94 732.642   4
 -13 -15   4 5681.33 787.509   4
 -13  15  -6 532.743 227.617   2
 -15  13  -6 168.191 188.368   2
  13  -6 -15 685.286 250.056   3
  15  -6 -13 1109.26 307.402   3
  -6 -13  15 98.9462 156.797   1
  15   6  13 300.980 238.682   1
  13   6  15 452.290 233.558   1
  -6 -15  13 506.774 223.734   4
  13   8  15 4023.62 673.393   1
  -8 -15  13 3980.17 563.292   4
 -10 -15  13 408.882 244.814   4
  -7 -15 -14 526.459 295.752   4
   7 -15  14-101.536 155.297   1
   7 -14  15 593.356 300.026   1
  14 -15   7 711.763 310.153   1
  -5 -14 -15 5341.21 704.199   4
  -5 -15 -14 5686.41 737.003   4
   5  14 -15 6222.53 853.943   3
   5  15 -14 6062.24 838.118   3
  14  15  -5 5210.30 764.720   3
  15  14  -5 6149.84 834.079   3
   5 -15  14 6055.56 770.850   1
   5 -14  15 6169.92 787.500   5
   5 -15  14 6575.98 774.417   5
  14 -15   5 5318.03 715.151   1
  15 -14   5 6157.91 792.633   1
   5 -14  15 6009.60 780.170   1
  -5  15  14 6248.58 889.080   2
  -5  14  15 5828.69 839.791   2
   3 -14  15 591.800 261.369   1
  14  15  -3 474.006 254.622   3
  15  14  -3 186.866 214.416   3
   3 -15  14 626.680 252.244   5
  14 -15   3 708.692 278.216   1
  15 -14   3 666.612 321.105   1
   3 -14  15 1487.42 398.363   5
   3 -15  14 1503.37 385.330   1
  -3  15  14 421.618 291.491   2
  -3  14  15 458.139 294.734   2
   1 -15  14 4783.11 635.790   1
 -14  15   1 4407.61 715.749   2
 -15  14   1 4235.79 700.281   2
  14   1 -15 5091.22 735.160   3
   1 -14  15 5720.66 720.647   1
  15   1 -14 4321.09 682.851   3
  14  15  -1 4019.88 655.942   3
  15  14  -1 6029.34 798.533   3
  14 -15   1 4077.25 628.131   1
  15 -14   1 4159.83 654.072   1
   1 -15  14 5707.78 717.381   5
   1 -14  15 5564.69 735.354   5
  -1  15  14 3842.77 634.862   2
  -1  14  15 4298.68 686.478   2
 -14  15  -1 4683.06 743.256   2
 -15  14  -1 5310.11 763.497   2
  14  -1 -15 5232.88 714.454   3
  15  -1 -14 5319.50 727.079   3
  14 -15  -1 4762.35 675.691   1
  15 -14  -1 6028.14 766.128   1
  15   1  14 5343.88 830.791   1
  14  15   1 3835.73 625.281   3
  15  14   1 5593.01 767.041   3
  14   1  15 5151.13 817.353   1
  -1 -14  15 3864.55 571.331   1
  -1 -14  15 5755.85 761.593   5
   1  15  14 3801.32 642.282   2
  -1 -15  14 5574.54 726.963   5
   1  14  15 3511.70 582.081   2
  -3 -14  15 1054.73 308.969   1
 -14  15  -3 552.644 290.680   2
 -15  14  -3 570.718 281.484   2
  14  -3 -15 387.005 284.119   3
  15  -3 -14 1111.84 342.916   3
  15   3  14 1463.72 439.418   1
  14  15   3 219.189 203.155   3
  15  14   3 447.385 292.197   3
  14   3  15 914.330 368.859   1
   3  14  15 711.688 323.526   2
   3  15  14 569.330 274.863   2
  -3 -14  15 1232.87 381.267   5
  -3 -15  14 536.141 312.585   5
 -14  15  -5 5462.83 759.388   2
 -15  14  -5 6311.31 785.617   2
  14  -5 -15 5156.23 671.205   3
  15  -5 -14 6170.36 741.667   3
  15   5  14 7711.97 949.895   1
  14  15   5 6227.31 784.810   3
  14   5  15 7674.69 939.893   1
   5  15  14 6307.20 794.807   2
  15   7  14 754.622 348.683   1
  14   7  15 318.417 250.791   1
  -6 -15 -15 3665.12 609.734   4
   6 -15  15 5715.60 763.742   1
   6 -15  15 5119.85 706.524   5
  -4 -15 -15 500.076 227.139   4
  15  15  -4 579.843 295.149   3
  15 -15   4 46.3250 276.744   1
   4 -15  15 169.047 208.617   5
   4 -15  15-279.519 215.302   1
   2 -15  15 4934.20 650.952   1
  15  15  -2 6425.18 839.420   3
  15 -15   2 5409.72 740.496   1
   2 -15  15 6219.39 786.552   5
  -2  15  15 6387.65 857.370   2
 -15  15   0 264.284 259.548   2
  15  15   0 325.967 234.138   3
   0 -15  15-149.156 189.894   5
   0  15  15-75.1019 187.933   2
 -15  15  -2 4724.78 739.734   2
  15  -2 -15 3898.93 620.275   3
  15  15   2 4596.49 695.534   3
   2  15  15 5704.18 791.747   2
  -2 -15  15 5584.69 759.452   5
 -15  15  -4 277.533 301.916   2
  15  -4 -15-151.505 197.397   3
  15  15   4 219.399 214.350   3
   4  15  15-505.942 290.180   2
  15   6  15 4373.04 739.514   1
  15  15   6 4050.52 657.645   3
  16   0   0 32660.7 1757.60   1
   0   0  16 30732.8 1765.89   1
   0  16   0 30695.2 1721.57   2
   0   0  16 32487.8 956.806   2
  -1   1  16 29.9423 74.8056   2
   1  -1  16-165.239 207.816   1
  16  -1   1 154.137 225.352   1
  16   1  -1-97.6616 206.881   1
  -1   1  16-542.862 232.596   5
   1  16  -1 2.12421 166.212   2
  -1  16   1 175.245 257.363   2
  -1  -1  16-72.2383 59.7903   2
  -1  -1  16-143.417 259.362   1
   1   1  16-40.1992 196.023   1
  16  -1  -1 21.0768 183.729   1
  16   1   1 68.5484 143.830   1
  -1  -1  16-9.93181 194.953   5
   1   1  16 7.37184 50.5605   2
   1  16   1 53.5341 152.748   2
  -1  16  -1 50.4605 182.175   2
   2  16  -2 26491.9 1094.20   3
   2 -16   2 27568.1 897.176   1
  16   2  -2 25542.8 1551.72   1
  16  -2   2 28964.9 1650.11   1
   2  16  -2 28646.8 1641.62   2
  -2   2  16 26452.4 1496.12   5
  -2  16   2 27460.2 1660.41   2
   2  -2  16 27356.5 1656.59   1
  -2   2  16 27025.2 1144.83   2
  -2   0  16-27.8462 92.6402   2
   2  16   0-29.3675 68.4362   3
  16   0  -2 99.3578 190.935   1
  16   2   0 172.039 206.508   1
   0  -2  16-106.964 244.746   1
   2   0  16 249.433 176.011   1
  16  -2   0 294.069 206.925   1
   2  16   0 150.907 217.313   2
   0  16  -2-83.6807 193.749   2
  -2   0  16 204.039 206.103   5
  16   0   2-362.738 319.155   1
   0  16   2-17.3359 195.912   2
  -2  16   0 82.1926 207.086   2
   0   2  16-20.1860 179.654   1
   0   2  16 55.6706 97.3814   2
   2   2  16 26825.2 1649.26   1
  -2  -2  16 29999.9 990.413   2
  -2 -16   2 27467.5 1574.20   4
  16  -2  -2 29633.6 1669.96   1
  16   2   2 26097.5 1552.67   1
   2  16   2 28672.8 1669.13   2
  -2  16  -2 27255.9 1595.19   2
  -2  -2  16 25915.8 1545.88   5
  -3   3  16-324.641 151.076   2
   3  16  -3 203.336 126.828   3
  16   3  -3-279.364 218.594   3
   3 -16   3 9.82572 77.9894   1
  -3   3  16-356.844 209.893   5
  16  -3   3 182.442 178.754   1
  -3  16   3-64.9693 168.003   2
   3  -3  16-52.2571 139.469   1
  -1   3  16 3311.67 383.565   2
   3  -1  16 2294.03 475.357   1
  -3 -16  -1 2057.79 448.808   4
   3  16  -1 3060.99 333.090   3
  -3   1  16 2863.53 346.072   2
   1 -16   3 2570.81 209.625   1
  16   1  -3 3026.36 520.164   1
  16   3  -1 3832.16 581.548   1
  16   1  -3 1860.60 445.095   3
   1  -3  16 2909.91 542.349   1
   3  16  -1 2880.39 518.161   2
   1  16  -3 2376.74 461.657   2
  16  -3   1 2466.32 482.796   1
  -1   3  16 2204.04 424.857   5
  -3   1  16 2209.60 441.821   5
  -1  16   3 2736.33 513.509   2
  16  -1   3 3530.45 568.538   1
  -3  16   1 3523.35 573.249   2
  -3 -16   1 3018.45 509.579   4
  -1 -16   3 2333.25 454.261   4
   3  16   1 2854.00 281.192   3
  -3  -1  16 2445.97 288.149   2
   3   1  16 2749.26 521.661   1
  -1  -3  16 2359.74 481.618   1
   1  16   3 2523.43 506.046   2
  16  -1  -3 2762.32 531.725   1
  16  -3  -1 3007.15 540.403   1
  16   3   1 2975.79 509.539   1
   1   3  16 2650.95 300.575   2
   3  16   1 3662.25 604.091   2
  -1  -3  16 2240.40 440.959   5
  -1  16  -3 2870.17 511.173   2
  -3  -1  16 3021.51 533.921   5
  16   1   3 2912.11 517.162   1
  -3  16  -1 2813.39 513.836   2
   1   3  16 3038.36 549.017   1
  -1  -3  16 2852.79 189.008   2
  -3 -16   3-192.821 180.119   4
   3   3  16-35.9130 172.434   1
  16  -3  -3-80.3013 143.708   1
   3  16   3 108.158 211.953   2
  -3  -3  16-159.657 203.995   5
  16   3   3-6.13782 164.248   1
  -3  16  -3 195.681 196.011   2
  -4   4  16 12819.2 862.535   2
  -4 -16  -4 11276.9 1006.35   4
   4  -4  16 12300.3 1094.40   1
   4   4 -16 11171.1 979.283   3
   4  16  -4 12695.6 852.686   3
  16   4  -4 13276.7 1191.66   3
   4 -16   4 12025.9 693.596   1
  16  -4   4 13402.8 1117.77   1
  -4   4  16 10080.4 904.591   5
   4 -16   4 12755.2 662.341   5
  -4  16   4 11278.5 1074.08   2
  -2   4  16-28.8917 95.3776   2
   2  -4  16 186.802 158.675   1
  -2  -4 -16 73.0878 79.3827   4
  -4 -16  -2-17.0043 177.705   4
   2  16  -4 30.3376 115.691   3
  -4   2  16 1.15111 104.691   2
   4  16  -2 16.2184 77.4061   3
  16   4  -2-106.136 185.837   1
  16   2  -4 270.955 248.544   3
   4 -16   2 88.4286 71.8583   1
  16   4  -2 42.6590 203.900   3
   4  -2  16 94.3291 160.796   1
  -2   4  16 310.994 182.772   5
   2 -16   4 132.435 83.9604   1
  -4   2  16 158.017 162.093   5
  16  -4   2 28.3464 185.867   1
  -2  16   4 205.709 201.062   2
  16  -2   4 46.9713 182.440   1
  -4  16   2-525.099 255.812   2
   0  -4  16 19573.7 1370.37   1
  -4 -16   0 17544.1 1260.54   4
  -4   0  16 19816.8 967.920   2
   4  16   0 19396.9 904.340   3
  16   4   0 20230.3 1309.77   1
   0 -16   4 19171.9 619.028   1
   4   0  16 16778.3 1305.52   1
  16  -4   0 20605.9 1382.16   1
  16   0  -4 19250.3 1361.99   3
   0   4  16 21546.0 1430.71   1
  16   0   4 18950.0 1335.96   1
   0  16  -4 19197.1 1309.79   2
   0  16   4 20472.9 1401.72   2
   0  -4  16 22833.3 1429.11   5
  -4   0  16 18840.8 1283.64   5
  -4  16   0 17918.3 1325.58   2
   0   4  16 19701.3 982.751   2
   4   2  16 188.632 236.514   1
   2   4  16-37.9222 194.204   1
  -4 -16   2 39.3787 176.443   4
  -2 -16   4 93.4082 154.135   4
  -2  -4  16 99.0522 52.9969   2
   4  16   2 44.1768 73.5559   3
  -2  -4  16 2.26807 178.527   1
  16  -4  -2 71.0867 136.861   1
  16  -2  -4-120.736 175.302   3
   4  16   2-552.190 267.365   2
  16   4   2-88.8999 177.434   1
   2   4  16-74.1434 99.5812   2
   2  16   4-41.7853 173.655   2
  -2  -4  16 43.7810 172.294   5
  -2  16  -4 129.541 141.223   2
  -4  -2  16-10.4167 187.068   5
  -4  16  -2 101.478 204.542   2
  16   2   4 48.8195 169.258   1
  -4 -16   4 9031.49 880.101   4
  16  -4  -4 10118.8 906.985   3
   4   4  16 9879.03 966.765   1
  16   4   4 10884.9 958.517   1
   4  16   4 10177.1 990.493   2
  -4  16  -4 11158.4 978.932   2
  -4  -4  16 10293.7 967.489   5
  -5 -16  -5-17.6655 145.651   4
  -5   5  16 63.4469 122.185   2
   5   5 -16 68.1872 166.861   3
   5  16  -5 108.666 138.099   3
  16   5  -5-2.60292 222.311   3
   5 -16   5 153.229 93.7996   5
  -5   5  16 58.0617 131.266   5
 -16  -5  -5 89.9242 124.998   4
   5 -16   5 155.605 120.210   1
   5  -5  16 87.4679 162.961   1
  16  -5   5-158.909 237.398   1
  -5  16   5-226.894 219.564   2
   5  -3  16 8172.58 901.957   1
  -3  -5 -16 8979.09 557.301   4
  -5 -16  -3 9905.73 945.687   4
  -5   3  16 9610.02 743.143   2
   5   3 -16 9035.54 864.953   3
   3  16  -5 8581.77 701.113   3
   5  16  -3 9158.56 709.391   3
   3  -5  16 9276.47 944.299   1
   5 -16   3 8359.96 591.229   1
  16   3  -5 10130.4 1026.71   3
  16   5  -3 8859.68 974.280   3
  16  -5   3 8094.62 876.011   1
   3 -16   5 7527.13 528.840   1
  16  -3   5 9718.66 967.574   1
  -3   5  16 7772.16 779.153   5
  -5   3  16 7278.65 780.652   5
   5 -16   3 10239.1 518.207   5
   3 -16   5 7987.07 563.677   5
  -3  16   5 8320.28 928.762   2
  -5  16   3 8458.46 935.557   2
 -16  -5  -3 9479.96 820.575   4
  -3   5  16 8506.22 718.093   2
  -5 -16  -1 3658.06 575.752   4
  -5   1  16 4616.71 484.229   2
   5   1 -16 3630.59 543.578   3
   5  16  -1 4699.88 466.864   3
   1  -5  16 2760.26 503.756   1
   5 -16   1 3705.71 386.815   1
   5  -1  16 3903.77 624.906   1
  16   5  -1 3660.21 535.227   1
  16   1  -5 3683.16 600.966   3
   1 -16   5 4215.01 332.854   1
  16  -5   1 3808.20 600.045   1
  -1   5  16 3778.95 535.773   5
  -5   1  16 3992.78 588.755   5
  -1   5  16 4381.33 487.346   2
 -16  -5  -1 4502.80 567.895   4
  -1  16   5 4142.48 638.924   2
  -5  16   1 3658.27 598.506   2
  16  -1   5 3076.50 557.533   1
  -5 -16   1 4295.46 622.631   4
   1   5  16 3803.52 582.161   1
  -1 -16   5 3876.13 572.750   4
  -1  -5  16 3484.29 574.346   1
   5  16   1 3631.40 387.251   3
   5   1  16 4018.16 632.854   1
  16  -1  -5 4466.28 626.390   3
  16  -5  -1 3566.58 585.583   1
  16   5   1 3696.37 551.750   1
   1   5  16 4085.07 431.605   2
  -1  16  -5 3814.16 567.116   2
  -5  -1  16 3939.22 589.803   5
   1  16   5 3892.19 617.002   2
 -16  -5   1 4021.80 535.448   4
  -5  16  -1 3626.64 579.437   2
  -1  -5  16 4092.74 601.213   5
  16   1   5 2798.93 505.403   1
  -5 -16   3 8111.63 851.175   4
  -3 -16   5 7008.64 785.405   4
   5   3  16 10824.0 1012.05   1
   5  16   3 8858.44 569.528   3
  16  -5  -3 7858.30 858.763   1
  16  -3  -5 8551.36 843.544   3
  16   5   3 10486.7 915.898   1
   3   5  16 9800.00 608.790   2
   3  16   5 9112.16 932.793   2
  16   3   5 8938.88 906.273   1
  -3  16  -5 9183.77 880.374   2
  -3  -5  16 9454.56 918.834   5
  -5  16  -3 9102.22 912.348   2
  -5  -3  16 10993.5 994.618   5
  -3  -5  16 9626.31 973.754   1
   3   5  16 7601.24 852.309   1
  -5 -16   5 201.180 191.825   4
  16  -5  -5-59.4244 159.630   3
   5   5  16 199.572 236.813   1
   5  16   5 110.161 178.153   2
  -5  -5  16-85.7775 171.006   5
  -5  16  -5 100.344 147.261   2
  16   5   5-115.088 168.502   1
  -6   6  16 8898.58 813.366   2
  -6 -16  -6 8288.67 884.753   4
   6   6 -16 9361.96 944.201   3
   6  16  -6 9013.41 819.085   3
  16   6  -6 8764.64 996.916   3
   6 -16   6 9511.78 723.936   1
  16  -6   6 9587.52 999.096   1
   6 -16   6 10386.5 675.308   5
   6  -6  16 7919.00 907.748   1
  -6   6  16 8330.03 808.199   5
  -6  16   6 10754.5 1079.99   2
 -16  -6  -6 8288.82 788.868   4
  -6  16   4 88.4159 197.284   2
  16  -4   6-336.962 265.655   1
   4 -16   6-113.687 137.236   1
   4  -6  16 120.575 171.549   1
  -6 -16  -4-47.0010 152.199   4
  -4   6  16 194.553 174.845   2
  -4 -16  -6 118.209 201.551   4
   4   6 -16-234.582 214.996   3
   6   4 -16-187.849 230.173   3
  -6   4  16 121.954 163.133   2
   4  16  -6-30.6712 131.101   3
   6  16  -4 273.545 160.586   3
  16   4  -6-277.294 239.805   3
  16   6  -4-39.6722 187.760   3
   6 -16   4-105.517 73.1414   5
   4 -16   6 106.791 71.0003   5
  -4   6  16 86.3093 147.072   5
   6 -16   4 9.12994 88.0448   1
  -6   4  16 45.8181 142.226   5
   6  -4  16 2.41636 193.066   1
 -16  -6  -4-65.4033 114.505   4
  16  -6   4-223.167 206.785   1
  -4  16   6 75.4635 223.317   2
  -6 -16  -2 10722.2 996.317   4
   2  16  -6 9050.35 731.653   3
  -6   2  16 9092.59 733.990   2
   6   2 -16 10225.0 918.641   3
   6  16  -2 9339.77 727.010   3
   2  -6  16 8378.76 904.167   1
   6 -16   2 9473.24 660.259   1
  16   2  -6 10151.9 1015.10   3
  16  -6   2 9751.28 954.609   1
  16   6  -2 10549.4 1065.89   3
  -2   6  16 10323.9 864.447   5
  16  -2   6 8277.39 913.928   1
  -2  16   6 9716.33 980.873   2
  -6   2  16 9540.37 905.224   5
   2 -16   6 9780.02 594.096   1
   2 -16   6 10412.8 693.435   5
  -6  16   2 8160.10 921.455   2
 -16  -6  -2 9548.25 850.239   4
  -2   6  16 9268.08 756.914   2
   6  -2  16 9423.04 969.540   1
  16   0   6 316.437 235.952   1
   6   0  16-82.8675 178.183   1
  -6 -16   0 166.644 214.085   4
   0 -16   6 64.9934 67.4238   1
   0 -16   6-118.412 183.913   4
   6   0 -16 163.072 183.807   3
   6  16   0 176.014 147.606   3
   0  -6  16-262.510 254.784   1
  16   6   0 241.562 187.372   1
  16   0  -6 210.619 231.410   3
  16  -6   0 151.059 203.812   1
   0  -6  16-8.59917 143.710   5
  -6   0  16 77.8866 183.121   5
   0  16   6 149.486 199.056   2
 -16  -6   0 57.4571 149.967   4
   0   6  16-23.8797 135.239   2
  -6  16   0-103.925 235.415   2
  -6 -16   2 8579.51 899.528   4
  -2 -16   6 9748.72 894.887   4
   6   2  16 9145.30 947.629   1
   2   6  16 8873.42 928.182   1
   6  -2 -16 10466.4 875.330   3
  -2  -6  16 10336.0 991.175   1
   6  16   2 10475.2 691.526   3
  16  -6  -2 10589.3 982.985   1
  16   6   2 7971.10 796.972   1
  16  -2  -6 10117.3 934.327   3
  -2  16  -6 10085.7 917.771   2
   2  16   6 9945.66 967.788   2
   2   6  16 9827.88 688.739   2
  16   2   6 9358.51 947.423   1
  -2  -6  16 10553.7 976.810   5
  -6  -2  16 10648.0 994.837   5
  -6  16  -2 11024.0 1021.29   2
 -16  -6   2 9707.71 866.357   4
   4   6  16 276.248 216.988   1
  -6 -16   4-193.131 214.660   4
  -4 -16   6 59.6654 162.945   4
   6   4  16-2.29460 161.127   1
   6  16   4 57.0034 107.524   3
  16  -4  -6-17.2466 150.185   3
  16  -6  -4-188.393 168.420   3
   4  16   6 507.714 250.453   2
  -4  16  -6 54.9719 172.472   2
  -4  -6  16 321.722 231.179   5
  16   6   4-20.8708 173.078   1
  -6  -4  16 269.269 223.815   5
  -6  16  -4-121.826 217.213   2
  16   4   6 92.4341 168.844   1
   6   6  16 6865.83 813.123   1
  16  -6  -6 8421.53 802.764   3
  16   6   6 8101.99 849.966   1
  -6  16  -6 8359.28 843.098   2
  -6  -6  16 8664.60 931.790   5
  -6 -16   6 7821.62 823.841   4
  -7  16   7 310.385 178.787   2
  16  -7   7 249.060 157.421   1
   7 -16   7-104.977 114.913   1
  -7 -16  -7 70.5571 132.893   4
  -7   7  16-116.725 206.267   2
   7   7 -16 283.120 206.968   3
   7  16  -7-186.113 180.357   3
   7  -7  16 350.132 254.084   1
  16   7  -7 268.420 270.048   3
   7 -16   7-34.6266 137.529   5
 -16  -7  -7 7.37646 147.510   4
  -7 -16  -5 11090.8 1031.29   4
  -5 -16  -7 10811.8 1007.75   4
  -7   5  16 9208.07 826.690   2
   5   7 -16 10253.0 993.719   3
   7   5 -16 11346.6 1033.00   3
   5  16  -7 9398.74 846.987   3
   7  16  -5 10679.4 884.808   3
  16   5  -7 8659.83 997.325   3
  16   7  -5 9525.55 1041.47   3
   7 -16   5 11802.8 821.257   1
  16  -7   5 9466.00 991.896   1
   7  -5  16 9883.43 1025.51   1
   5 -16   7 9098.25 674.956   5
  16  -5   7 9142.87 991.817   1
  -5   7  16 9928.36 857.477   5
   5 -16   7 10372.0 749.715   1
   5  -7  16 8929.39 954.821   1
  -5  16   7 10001.7 1056.51   2
 -16  -5  -7 9011.26 797.167   4
 -16  -7  -5 10432.0 909.297   4
  -7  16   5 11091.7 1094.77   2
  -5   7  16 10800.0 912.715   2
  -7  16   3 2382.89 525.446   2
  -3   7  16 2737.65 440.632   2
  16  -3   7 3972.07 642.757   1
  -7 -16  -3 2942.72 537.074   4
  -3  -7 -16 2780.79 368.303   4
   3 -16   7 3011.18 368.946   1
   3  -7  16 3275.91 572.457   1
   3  16  -7 3237.45 468.075   3
   7   3 -16 2891.25 516.543   3
  -7   3  16 2726.18 427.769   2
   7  16  -3 3120.56 455.992   3
  16   3  -7 3146.82 584.689   3
  16   7  -3 3990.17 666.339   3
   7  -3  16 2948.13 575.228   1
   7 -16   3 3621.61 437.131   1
  -3   7  16 3087.59 471.792   5
   3 -16   7 3219.42 401.017   5
  -7   3  16 3450.98 559.404   5
  16  -7   3 2813.07 532.412   1
 -16  -7  -3 3139.07 509.689   4
  -3  16   7 2612.56 533.635   2
  -7 -16  -1 8070.06 883.569   4
   1 -16   7 8668.32 826.429   4
   7   1 -16 8091.93 820.594   3
   7  16  -1 7746.24 672.221   3
   7 -16   1 8990.47 673.499   1
  16   1  -7 8932.76 917.767   3
   1  -7  16 8002.99 859.092   1
  16  -7   1 8690.31 907.063   1
  16   7  -1 8573.22 959.222   3
   1  -7  16 8426.51 871.662   5
  -1   7  16 6265.14 673.977   5
  -1  16   7 8275.78 908.458   2
   1 -16   7 7860.61 646.971   5
  -7   1  16 8813.10 913.721   5
  16  -1   7 8716.35 949.019   1
  -1   7  16 8022.92 722.148   2
   7  -1  16 7204.52 879.800   1
  -7  16   1 7430.07 877.358   2
 -16  -7  -1 8439.90 809.274   4
   1 -16   7 8326.56 555.234   1
  -7 -16   1 8279.81 887.134   4
  -1 -16   7 8447.56 821.847   4
  16   1   7 6946.45 842.206   1
   7  -1 -16 7625.60 757.252   3
   7  16   1 8430.01 672.167   3
  16   7   1 6923.92 713.745   1
  16  -7  -1 7212.94 817.478   1
  16  -1  -7 8183.19 849.177   3
   1   7  16 7906.27 855.136   1
  -1  -7  16 6002.47 758.079   1
   1  16   7 6941.31 821.864   2
   1   7  16 8207.97 694.465   2
  -1  -7  16 8115.77 875.423   5
  -7  -1  16 9030.34 920.854   5
  -7  16  -1 8168.88 897.150   2
 -16  -7   1 7933.47 793.831   4
   7   1  16 7585.34 883.060   1
  16   3   7 2554.83 504.034   1
  -7 -16   3 1806.97 434.519   4
  -3 -16   7 2386.95 437.030   4
   7  -3 -16 3417.49 498.259   3
   3   7  16 2752.98 525.165   1
  16  -7  -3 3173.44 567.524   1
   7  16   3 2575.25 367.802   3
  16  -3  -7 2286.96 436.715   3
  16  -7  -3 2712.91 455.222   3
  16   7   3 2415.01 436.713   1
  -3  16  -7 1923.90 405.402   2
   3   7  16 2449.25 361.749   2
   3  16   7 2336.15 486.362   2
  -3  -7  16 4308.98 651.397   5
  -7  -3  16 4301.52 643.655   5
  -3  -7  16 2432.99 512.372   1
 -16  -7   3 2916.39 490.346   4
   7   3  16 3643.37 607.040   1
  -7  16  -3 3065.35 550.566   2
   5   7  16 9560.07 937.187   1
  16  -5  -7 10509.2 903.728   3
  16  -7  -5 10326.7 880.656   3
  16   7   5 9012.15 840.953   1
   5  16   7 7996.58 876.196   2
  -5  16  -7 8834.63 851.531   2
  16   5   7 9829.43 944.813   1
  -7  16  -5 10895.7 985.418   2
  -5  -7  16 11342.7 1059.22   5
  -7  -5  16 9547.90 992.029   5
 -16  -7   5 9320.65 872.531   4
   7   5  16 10435.4 1000.76   1
  -7 -16   5 8640.10 887.718   4
  -5 -16   7 10122.5 907.597   4
  -7 -16   7-127.323 205.693   4
 -16   7  -7 27.6292 122.062   2
  16  -7  -7 124.940 141.017   3
  -7  -7  16 130.605 165.455   5
  -7  16  -7-22.0952 157.603   2
   7   7  16 267.120 236.614   1
  16   7   7-311.383 196.727   1
  -8   8  16 7984.69 851.047   2
  -8 -16  -8 8220.79 913.711   4
  -8  16   8 6565.62 877.163   2
   8  -8  16 7561.44 911.556   1
   8   8 -16 8885.47 991.902   3
   8  16  -8 8470.94 886.979   3
  16   8  -8 8438.81 993.616   3
  16  -8   8 8532.90 981.087   1
   8 -16   8 6991.46 721.977   1
 -16  -8  -8 8276.43 824.507   4
  -6  16   8 119.463 221.395   2
  -8  16   6 377.450 267.284   2
  -8 -16  -6-83.9330 162.606   4
  16  -6   8 161.161 225.061   1
  -6 -16  -8-20.8446 163.896   4
  -6   8  16 56.1144 182.569   2
   6 -16   8-124.785 153.646   1
   6   8 -16-71.3769 165.546   3
   8  -6  16 158.979 197.805   1
  -8   6  16-17.1993 152.498   2
   8   6 -16-19.4182 200.152   3
   6  16  -8 124.322 176.860   3
   8  16  -6-117.873 158.873   3
   6  -8  16-126.259 247.081   1
  16   6  -8 62.7402 225.855   3
  16   8  -6 144.859 200.801   3
   6 -16   8-178.501 147.752   5
 -16  -6  -8-32.8120 132.391   4
 -16  -8  -6-5.90170 134.709   4
   8 -16   6-53.2656 142.176   1
  16  -8   6-98.1160 205.726   1
  -8  16   4 4548.67 719.757   2
  -4  -8 -16 4481.36 496.074   4
  -4   8  16 4855.55 624.519   2
  -8 -16  -4 5351.51 729.163   4
  16  -4   8 5586.25 789.617   1
  -4 -16  -8 4658.50 668.027   4
   4   8 -16 5417.16 735.314   3
   4  16  -8 4938.12 608.915   3
   8   4 -16 4996.52 692.661   3
  -8   4  16 3710.88 525.503   2
   8  -4  16 4809.61 716.768   1
   8  16  -4 3445.62 514.767   3
  16   4  -8 6503.10 833.268   3
  16   8  -4 6009.82 824.699   3
   4 -16   8 4643.73 502.343   5
   4  -8  16 4166.02 645.474   1
   8 -16   4 3762.38 477.576   1
  -4   8  16 4831.14 576.717   5
  16  -8   4 5133.68 712.031   1
   4 -16   8 5100.55 515.143   1
 -16  -8  -4 4647.14 619.684   4
  -4  16   8 4958.72 740.722   2
  -8  16   2 2.55001 204.435   2
  -8 -16  -2 44.4220 140.662   4
   2 -16   8-3.62725 146.193   4
  16  -2   8 581.058 292.542   1
   8   2 -16 426.476 254.099   3
   2  -8  16 188.738 198.005   1
   2 -16   8-16.0629 128.819   1
   8  16  -2-86.6288 144.919   3
   8  -2  16 218.028 218.653   1
  16   2  -8-100.481 174.441   3
  16   8  -2 196.857 180.775   3
   8 -16   2 43.7616 108.289   1
  16  -8   2-45.9459 198.198   1
  -2   8  16-74.8114 126.544   5
   2 -16   8 114.947 132.960   5
  -2  16   8 187.358 270.987   2
 -16  -8  -2 69.4256 140.703   4
  -2   8  16 157.939 169.118   2
   0  -8  16 4401.90 651.668   1
  -8  16   0 4486.72 678.245   2
  -8 -16   0 4704.45 677.203   4
   0 -16   8 4557.12 586.939   4
  16   0   8 3257.75 601.610   1
   8   0 -16 3626.81 556.537   3
   8 -16   0 4427.75 494.657   1
   0   8  16 3448.28 585.547   1
  16   8   0 3096.27 461.890   1
   8  16   0 4559.58 534.675   3
  16   0  -8 3966.58 603.368   3
   8   0  16 4048.74 666.043   1
  16  -8   0 3011.33 569.412   1
   0  -8  16 3761.08 603.541   5
   0 -16   8 4534.91 519.860   5
   0  16   8 4196.66 650.054   2
   0   8  16 4120.97 540.490   2
 -16  -8   0 3140.39 527.170   4
   2   8  16 225.191 237.913   1
  -8 -16   2 129.661 183.494   4
  -2 -16   8-96.2178 173.819   4
  16   2   8-97.8925 185.009   1
   8  -2 -16 360.416 205.976   3
   8  16   2 237.150 134.586   3
  16  -2  -8 76.4236 150.232   3
  16  -8  -2 189.404 243.424   1
  16   8   2 270.369 171.546   1
   8   2  16 78.6732 186.952   1
  -2  -8  16-386.337 232.947   1
   2  16   8 152.021 209.010   2
  -2  -8  16-355.516 219.453   5
   2   8  16 109.148 153.242   2
 -16  -8   2 92.0825 201.567   4
  -8  16  -2 469.435 256.137   2
   4   8  16 4726.79 661.588   1
  -8 -16   4 5344.24 705.942   4
  -4 -16   8 4480.21 595.953   4
  16   4   8 4338.81 673.024   1
   8  -4 -16 4389.08 568.440   3
   8  16   4 5047.61 538.470   3
  16  -4  -8 4353.76 602.450   3
  16  -8  -4 4127.97 550.909   3
   8   4  16 4516.88 680.416   1
   4   8  16 4080.04 473.214   2
  16   8   4 4467.16 572.476   1
   4  16   8 3929.80 619.535   2
  -4  16  -8 4671.75 611.849   2
  -4  -8  16 5298.62 717.554   5
 -16  -8   4 5695.21 692.219   4
  -8  16  -4 4727.83 672.465   2
  -4  -8  16 4472.05 670.913   1
  -8 -16   6-249.570 190.799   4
  -6 -16   8-181.137 240.294   4
  16   6   8-212.863 216.140   1
   6   8  16-67.3619 188.704   1
 -16   8  -6 117.681 162.862   2
  16  -6  -8 221.654 209.614   3
  16  -8  -6 3.29014 122.741   3
   8   6  16-193.590 182.267   1
  -6  16  -8-26.5442 136.836   2
  -6  -8  16-62.0768 172.577   5
  16   8   6 38.2815 160.344   1
 -16  -8   6-193.569 179.269   4
  -8  16  -6 16.9536 133.293   2
  16  -8  -8 9233.91 795.656   3
  -8  16  -8 8766.31 843.500   2
  16   8   8 8758.53 860.389   1
   8   8  16 8857.51 921.243   1
  -8 -16   8 8636.39 878.326   4
  -9 -16  -9-102.896 216.626   4
   9 -16   9 305.930 237.749   1
  -9   9  16 206.444 184.442   2
   9  16  -9-120.033 184.589   3
 -16  -9  -9-209.897 193.052   4
   9  -9  16-211.026 272.369   1
  16  -9   7 3551.09 618.152   1
  -7  16   9 4049.90 683.239   2
   9  -7  16 4309.17 698.028   1
  -9  16   7 4791.30 762.684   2
  -9 -16  -7 4277.74 666.487   4
  -7 -16  -9 3386.62 576.086   4
  16  -7   9 3607.85 652.205   1
   7  -9  16 3174.15 587.619   1
  -7   9  16 3403.49 565.216   2
   7 -16   9 3122.54 487.318   1
   7   9 -16 3076.70 583.905   3
  -9   7  16 3129.01 550.536   2
   9   7 -16 3544.10 633.731   3
   7  16  -9 2468.68 504.644   3
 -16   9   7 2786.57 523.847   2
   9  16  -7 3279.58 564.565   3
  16   7  -9 4848.61 755.527   3
  16   9  -7 3707.31 672.003   3
   7 -16   9 3665.54 476.338   5
 -16  -7  -9 2714.42 464.365   4
 -16  -9  -7 4142.98 602.736   4
   9 -16   7 3128.97 486.278   1
  -9  16   5 1755.87 490.124   2
  -5   9  16 2778.61 507.630   2
  -9 -16  -5 2831.97 553.087   4
  -5 -16  -9 2095.80 467.723   4
   9  -5  16 3501.03 631.970   1
  16  -5   9 3183.05 615.163   1
   5   9 -16 2068.34 478.913   3
   5  16  -9 2740.33 493.595   3
   9   5 -16 1160.69 381.886   3
  -9   5  16 1953.44 411.700   2
   5 -16   9 3065.73 446.718   1
   9  16  -5 2477.13 473.652   3
   5  -9  16 2842.09 554.093   1
  16   5  -9 2938.34 585.085   3
  16   9  -5 2453.16 538.013   3
   5 -16   9 2359.71 386.546   5
   9 -16   5 2210.74 388.203   1
 -16  -5  -9 2578.29 425.680   4
  16  -9   5 2400.57 511.869   1
 -16  -9  -5 2650.26 484.884   4
  -5  16   9 2612.60 581.106   2
  -9 -16  -3 7478.45 868.990   4
   3 -16   9 8288.57 675.707   1
   3 -16   9 6851.12 716.149   4
  -3  -9 -16 7604.12 685.322   4
   3  16  -9 6591.42 726.984   3
   9   3 -16 7423.87 839.301   3
  -9   3  16 7684.30 776.164   2
   9  -3  16 6962.03 892.367   1
   9  16  -3 7418.07 756.479   3
   9 -16   3 6896.02 668.607   1
  16   3  -9 5740.54 798.438   3
  16  -9   3 8236.59 908.359   1
  16   9  -3 8239.99 959.782   3
   3 -16   9 7737.79 679.956   5
  -3   9  16 9323.24 765.898   5
  -3   9  16 9350.49 871.549   2
  16  -3   9 8471.43 975.924   1
 -16  -9  -3 8414.51 860.438   4
   3  -9  16 8154.84 881.107   1
  -9  16   3 7670.31 924.588   2
  -3  16   9 6999.60 886.406   2
   1 -16   9 8935.27 806.178   4
  -9 -16  -1 6919.21 834.774   4
   1 -16   9 8068.02 632.581   1
   1  -9  16 7370.20 833.746   1
   9   1 -16 7921.41 834.424   3
   9  -1  16 6638.43 872.506   1
   9  16  -1 8215.26 766.958   3
  16   1  -9 8182.74 888.435   3
   9 -16   1 7962.06 703.616   1
  16  -9   1 7021.58 831.748   1
  16   9  -1 7486.40 908.561   3
   1  -9  16 8896.65 921.603   5
  -1   9  16 8239.44 728.334   5
  -1  16   9 8051.52 918.064   2
   1 -16   9 7840.40 701.334   5
  -1   9  16 7284.02 759.904   2
 -16  -9  -1 9807.33 931.136   4
  16  -1   9 8686.48 990.781   1
  -9  16   1 8879.65 988.852   2
  -1 -16   9 7619.59 765.452   4
   9  -1 -16 7762.10 810.515   3
 -16   9  -1 8164.72 844.073   2
  16   9   1 7956.11 720.764   1
   1   9  16 8653.72 891.257   1
  16  -1  -9 8012.66 857.588   3
   9  16   1 7935.44 734.752   3
  16  -9  -1 8896.78 936.146   1
  -1  -9  16 7446.96 833.594   1
   9   1  16 8369.87 942.079   1
   1  16   9 8058.96 894.260   2
   1   9  16 7797.05 742.093   2
  -1  -9  16 8851.97 909.879   5
  -1 -16   9 6016.88 641.838   5
 -16  -9   1 7860.86 832.698   4
  -9  16  -1 8844.14 957.185   2
  16   1   9 10399.4 1057.94   1
  -9 -16   1 8474.25 906.985   4
   9  -3 -16 7963.89 792.053   3
 -16   9  -3 7191.93 777.240   2
  16   3   9 7136.86 861.209   1
  16  -3  -9 7272.63 791.127   3
  16   9   3 7341.28 702.219   1
   9   3  16 7052.21 862.408   1
   9  16   3 6940.41 684.666   3
  16  -9  -3 7537.26 855.969   1
  16  -9  -3 7311.10 722.598   3
   3   9  16 8425.39 730.690   2
   3  16   9 8051.07 882.827   2
   3   9  16 7415.16 822.913   1
  -3  -9  16 8588.89 915.893   5
  -9  16  -3 7414.33 865.425   2
 -16  -9   3 8336.67 861.379   4
  -9 -16   3 7860.34 873.582   4
  -3  -9  16 7072.19 829.239   1
  -3 -16   9 7280.72 741.204   4
  -9 -16   5 3234.62 551.776   4
  -5 -16   9 2365.11 447.551   4
  -5  -9  16 2440.80 518.153   1
  16   5   9 2414.95 523.849   1
   9  -5 -16 1977.07 386.656   3
 -16   9  -5 1981.08 409.082   2
   9   5  16 1670.09 430.611   1
  16  -5  -9 1752.27 382.648   3
   5   9  16 1503.88 352.009   1
  16  -9  -5 2456.21 421.163   3
   5  16   9 2817.53 535.351   2
  -5  16  -9 2702.01 443.884   2
  16   9   5 2421.44 414.447   1
  -5  -9  16 1468.33 426.594   5
 -16  -9   5 2291.26 463.423   4
  -9  16  -5 1591.45 374.463   2
  -9 -16   7 4589.36 654.410   4
  -7 -16   9 3103.89 518.245   4
  16   7   9 2771.55 496.294   1
 -16   9  -7 3075.23 479.190   2
   9   7  16 3457.85 587.607   1
  16  -7  -9 3843.00 538.687   3
  16  -9  -7 3685.73 499.224   3
   7   9  16 3761.14 591.813   1
 -16  -9   7 3745.79 578.274   4
  16   9   7 3478.93 519.559   1
  -9  16  -7 2208.87 443.378   2
   9   9  16-153.591 203.630   1
  -9 -16   9 220.902 185.259   4
 -10  10  16 10230.2 1049.38   2
  10  16 -10 9909.81 1065.98   3
  10 -16  10 9730.63 945.019   1
 -16 -10 -10 9457.61 935.428   4
 -10 -16 -10 9172.96 990.332   4
  10 -16   8-97.7460 186.053   1
  16 -10   8 362.063 304.735   1
 -10 -16  -8-59.1441 233.004   4
  -8 -16 -10 54.2357 189.106   4
  -8  10  16-153.845 216.410   2
   8 -16  10-254.562 189.214   1
 -10   8  16 34.9375 197.214   2
   8  16 -10-419.231 221.578   3
  10  16  -8 137.360 153.584   3
 -16  -8 -10-188.476 221.720   4
 -16 -10  -8 100.176 169.728   4
   8 -10  16-94.3745 228.454   1
  -6  16  10 7025.68 908.722   2
  -6 -16 -10 7213.36 848.245   4
  -6  10  16 6616.00 811.488   2
 -10  16   6 8097.70 975.039   2
 -10   6  16 7851.27 825.866   2
   6  16 -10 6874.12 820.433   3
   6 -10  16 5919.55 783.880   1
  16  -6  10 6275.40 861.884   1
   6  10 -16 6711.31 869.003   3
  10   6 -16 7109.96 875.923   3
 -16  10   6 6078.97 814.643   2
  16   6 -10 8134.27 972.331   3
  10  16  -6 6462.38 784.941   3
  16  10  -6 6866.71 905.664   3
  10 -16   6 7794.78 769.043   1
   6 -16  10 5580.20 626.219   5
 -16  -6 -10 7303.23 716.364   4
 -16 -10  -6 6952.97 800.008   4
  16 -10   6 7557.16 890.503   1
   6 -16  10 6957.70 717.195   1
  10  -6  16 5117.08 813.184   1
 -10 -16  -6 7832.19 903.862   4
  -4  10  16-21.7854 199.343   2
  10  -4  16 373.701 328.432   1
 -10 -16  -4 327.352 249.342   4
 -10  16   4-346.565 262.064   2
  -4 -10 -16-375.998 177.000   4
   4 -16  10 161.611 134.593   4
  -4 -16 -10 269.981 215.869   4
   4  16 -10-62.1701 194.832   3
  16  -4  10 48.1900 274.858   1
  10   4 -16 41.2374 207.803   3
 -16  10   4-265.845 259.866   2
 -10   4  16-178.273 220.089   2
  10  16  -4 178.506 222.266   3
   4 -16  10-53.7586 102.696   1
  16   4 -10 31.7247 213.965   3
   4 -10  16 11.8167 150.717   1
  16  10  -4-33.4165 217.121   3
  10 -16   4-76.9739 153.864   1
   4 -16  10 60.8240 132.818   5
  16 -10   4 318.324 279.725   1
 -16 -10  -4-26.8332 169.473   4
  -4  16  10-63.1404 286.982   2
 -10 -16  -2 848.511 294.927   4
 -10  16   2 1109.54 371.560   2
   2 -16  10 654.071 248.605   4
  10  -2  16 1444.51 425.530   1
  16  -2  10-2.80463 191.853   1
  10   2 -16 756.273 287.593   3
 -16  10   2 1233.18 364.390   2
  10  16  -2 1202.36 329.753   3
  16   2 -10 1333.95 386.435   3
  16  10  -2 1599.15 438.950   3
   2 -16  10 998.546 256.948   1
  10 -16   2 1115.26 290.329   1
  16 -10   2 610.753 289.074   1
   2 -10  16 967.152 334.356   5
   2 -16  10 716.052 236.372   5
  -2  16  10 761.494 319.462   2
   2 -10  16 1421.91 385.845   1
 -16 -10  -2 486.828 258.268   4
  -2  10  16 681.514 283.877   2
 -10 -16   0 200.764 173.722   4
 -10  16   0-259.751 310.698   2
   0 -16  10-109.863 143.384   4
  10   0  16-164.039 248.352   1
  16   0  10 2.75437 181.963   1
  10   0 -16 40.0306 177.245   3
 -16  10   0-297.614 187.889   2
  16   0 -10 22.8335 161.932   3
  10  16   0 234.064 194.980   3
   0 -10  16-85.3698 196.729   1
  10 -16   0 3.16341 158.128   1
  16  10   0 149.122 203.709   3
  16 -10   0 373.755 261.615   1
   0  10  16-2.23919 149.559   1
   0  10  16-29.6570 101.421   5
   0 -10  16 37.0633 155.836   5
   0 -16  10 189.792 135.784   5
   0  16  10 39.7656 192.842   2
   0  10  16-111.529 139.897   2
 -16 -10   0 44.6988 173.819   4
 -10  16  -2 1628.79 430.009   2
 -10 -16   2 867.414 351.757   4
  -2 -16  10 493.253 233.735   4
  -2 -10  16 909.784 315.150   1
  10   2  16 867.126 317.370   1
  16   2  10 1084.94 415.698   1
  10  -2 -16 943.014 274.272   3
 -16  10  -2 1061.43 322.250   2
  16  -2 -10 2304.82 471.915   3
  16 -10  -2 859.344 311.878   1
  10  16   2 925.386 291.125   3
   2  16  10 1105.13 383.913   2
   2  10  16 745.292 255.196   2
  -2 -10  16 866.825 310.503   5
   2  10  16 1044.31 325.769   1
 -16 -10   2 1221.94 373.616   4
 -10 -16   4-378.753 242.858   4
  -4 -16  10-133.549 136.198   4
  10   4  16 223.241 246.712   1
  16   4  10 203.540 204.846   1
  10  -4 -16-38.6568 189.379   3
 -16  10  -4 10.1974 168.417   2
  16  -4 -10-9.93957 126.915   3
  10  16   4-23.9387 148.248   3
  16 -10  -4-323.782 167.800   3
   4  10  16 302.580 153.053   2
   4  16  10-133.998 212.624   2
  -4 -10  16-342.257 229.519   5
  -4 -10  16 238.964 242.158   1
   4  10  16-442.281 239.998   1
 -16 -10   4 187.984 207.175   4
 -10  16  -4 469.159 291.533   2
  -6 -10  16 6506.69 848.029   1
 -16  10  -6 8293.29 817.786   2
  10  -6 -16 6937.27 721.295   3
  10   6  16 6075.81 800.013   1
  16  -6 -10 7334.44 761.788   3
  -6 -10  16 7692.73 906.289   5
  16   6  10 8061.43 909.828   1
 -16 -10   6 7688.22 855.230   4
 -10 -16   6 7510.05 858.807   4
  -6 -16  10 6725.65 727.564   4
   6  10  16 7974.45 839.594   1
 -10  16  -6 5796.74 741.315   2
  10   8  16-16.6354 182.850   1
  16   8  10 168.912 165.375   1
   8  10  16-86.1460 147.499   1
 -16 -10   8-135.887 171.736   4
  -8 -16  10 227.381 199.180   4
 -10 -16   8 109.714 155.290   4
 -10 -16  10 9414.06 951.838   4
  11 -16  11-117.676 253.903   1
  11 -16   9-173.531 185.473   1
  -9 -16 -11 220.300 206.234   4
  -9  11  16-48.1275 204.379   2
 -11   9  16-120.157 232.680   2
   9 -16  11-176.024 222.166   1
   9  16 -11 180.029 223.703   3
  11  16  -9 94.9249 208.990   3
 -16  -9 -11 183.424 178.497   4
 -16 -11  -9-255.770 245.475   4
 -11 -16  -7 2112.90 502.727   4
  -7  11  16 2217.25 495.254   2
  -7 -16 -11 2107.63 471.830   4
   7  16 -11 2405.53 495.035   3
 -11   7  16 1604.75 372.006   2
   7 -16  11 2007.01 414.698   1
  11  16  -7 1463.71 390.433   3
   7 -16  11 2006.14 383.092   5
 -16  -7 -11 2237.57 412.743   4
  11 -16   7 2229.22 444.738   1
 -16 -11  -7 1876.36 436.604   4
  16 -11   7 2289.55 517.820   1
   7 -11  16 2513.65 535.294   1
  -5  11  16 4170.96 659.571   2
 -11 -16  -5 3744.11 645.339   4
 -11  16   5 5614.06 812.833   2
  -5 -16 -11 4598.82 661.749   4
   5  11 -16 3936.00 667.289   3
   5  16 -11 4017.22 628.707   3
   5 -11  16 4415.65 682.400   1
  16  -5  11 2586.39 570.807   1
 -16  11   5 3804.86 649.962   2
  11   5 -16 3352.38 588.873   3
 -11   5  16 4718.44 660.982   2
  11  16  -5 4127.32 637.583   3
  16   5 -11 4858.50 764.367   3
   5 -16  11 3990.47 543.682   1
  16  11  -5 3199.82 629.749   3
   5 -16  11 4092.72 560.226   5
  11 -16   5 2700.59 469.452   1
  16 -11   5 3631.48 633.443   1
  11  -5  16 4994.83 786.803   1
 -16 -11  -5 3862.98 633.234   4
  -5  16  11 3520.00 671.095   2
 -11 -16  -3 5579.03 779.281   4
   3 -16  11 6889.20 690.246   1
 -11  16   3 7292.78 918.821   2
  16  -3  11 8408.93 1008.17   1
 -16  11   3 5600.51 760.035   2
  11   3 -16 6767.29 827.775   3
  16   3 -11 5668.50 788.101   3
  11 -16   3 6065.34 677.742   1
  11  16  -3 5969.15 737.527   3
   3 -11  16 6057.55 771.283   1
  16  11  -3 7877.78 949.608   3
   3 -11  16 7166.58 831.198   5
  16 -11   3 7101.52 846.955   1
   3 -16  11 5144.00 618.894   5
  -3  16  11 6276.51 857.815   2
 -16 -11  -3 6419.61 795.822   4
  11  -3  16 5004.72 810.598   1
  -3  11  16 5714.20 740.681   2
   1 -16  11 6600.23 647.565   4
  11  -1  16 6578.34 878.324   1
 -11 -16  -1 6274.19 816.756   4
 -16  11   1 6785.37 831.583   2
  11   1 -16 6452.19 786.495   3
  16  -1  11 6537.37 893.123   1
  11  16  -1 8044.13 824.811   3
  16   1 -11 5279.19 746.938   3
  11 -16   1 5001.89 613.617   1
  16  11  -1 7243.54 916.052   3
  16 -11   1 6594.40 805.072   1
   1 -16  11 6606.57 694.239   5
   1 -11  16 5968.20 796.028   5
 -16 -11  -1 6407.12 795.950   4
  -1  16  11 6130.72 820.406   2
  -1  11  16 4952.99 662.053   2
 -11  16   1 8024.03 944.751   2
   1 -11  16 6759.02 780.423   1
 -11 -16   1 6143.93 801.941   4
  11   1  16 6004.14 859.297   1
 -11  16  -1 6604.99 854.760   2
 -16  11  -1 6908.96 809.279   2
  11  -1 -16 6683.68 770.648   3
  -1 -11  16 7183.14 799.337   1
  16   1  11 5642.99 832.716   1
   1  11  16 5424.51 716.066   1
  16  -1 -11 5992.91 755.865   3
  11 -16  -1 5037.56 607.155   1
  11  16   1 5228.55 665.244   3
  16 -11  -1 6750.59 820.405   1
  16  11   1 5991.85 817.043   3
   1  11  16 6654.26 748.666   2
  -1 -16  11 6629.76 720.868   5
  -1 -11  16 5939.76 776.806   5
   1  16  11 5388.42 743.420   2
 -16 -11   1 7487.94 859.753   4
  -1 -16  11 6538.51 660.689   4
 -11 -16   3 5813.02 784.007   4
 -11  16  -3 6934.80 859.459   2
  11   3  16 6560.13 859.080   1
  -3 -11  16 5756.32 726.215   1
   3  11  16 5272.88 680.234   1
  11  -3 -16 6860.62 748.750   3
 -16  11  -3 5824.17 736.464   2
  16   3  11 6153.96 841.951   1
  16  -3 -11 5830.78 712.423   3
  11  16   3 5926.48 687.436   3
   3  11  16 6014.86 691.654   2
   3  16  11 5822.41 775.663   2
  -3 -11  16 5813.68 776.749   5
 -16 -11   3 7768.69 870.635   4
  -3 -16  11 5887.90 651.919   4
 -11 -16   5 3420.67 591.511   4
  -5 -16  11 3518.94 508.947   4
  11   5  16 2330.70 521.433   1
   5  11  16 3282.21 522.832   1
 -16  11  -5 2666.96 487.279   2
  11  -5 -16 3115.23 505.333   3
  16   5  11 4164.14 692.321   1
  16  -5 -11 3767.85 558.179   3
   5  16  11 3640.26 611.144   2
  -5 -11  16 3514.25 584.869   1
  -5 -11  16 4033.99 674.637   5
 -16 -11   5 4383.15 675.242   4
 -11  16  -5 3261.95 567.698   2
  16   7  11 2194.09 499.382   1
  11  -7 -16 1319.58 327.101   3
  16  -7 -11 2382.47 442.434   3
   7  11  16 2674.01 487.101   1
  -7 -11  16 3591.48 648.234   1
  11   7  16 2258.89 515.523   1
  -7 -16  11 1814.80 389.666   4
 -11 -16   7 1867.14 443.958   4
  11   9  16-318.334 241.269   1
  -9 -16  11 278.412 201.034   4
 -11 -16   9-87.2748 227.182   4
  10 -16  12-687.404 305.672   1
  -8  12  16 7849.65 958.089   2
  -8 -16 -12 6994.45 858.994   4
   8  16 -12 6306.24 863.085   3
  12  16  -8 5468.64 819.011   3
   8 -16  12 7775.28 863.580   1
 -16 -12  -8 5670.11 791.470   4
  12 -16   8 7100.37 808.300   1
   6 -12  16-243.266 223.281   1
  -6  12  16-213.566 209.440   2
  -6 -16 -12 64.8010 159.322   4
   6  16 -12-249.651 239.271   3
 -12   6  16-99.7451 223.558   2
  12  16  -6-30.3014 157.722   3
   6 -16  12-350.279 228.757   1
   6 -16  12 15.2935 97.2341   5
  12 -16   6-114.262 196.792   1
 -16 -12  -6-285.362 240.815   4
 -12 -16  -4 5100.16 748.633   4
 -12  16   4 4568.98 749.816   2
  -4 -12 -16 4005.90 559.867   4
  -4 -16 -12 3963.35 626.970   4
   4 -12  16 4183.74 650.445   1
 -16  12   4 2810.20 565.928   2
  12   4 -16 4228.33 691.750   3
 -12   4  16 3508.43 573.623   2
  12  16  -4 3334.63 574.458   3
  16  12  -4 4911.35 755.006   3
   4 -16  12 4287.64 581.650   1
  12 -16   4 3937.57 591.657   1
   4 -12  16 4329.26 639.640   5
  16 -12   4 4681.34 720.426   1
   4 -16  12 4525.31 604.734   5
  -4  16  12 3801.14 698.769   2
 -16 -12  -4 3538.00 631.586   4
  -4  12  16 4199.29 672.301   2
 -12 -16  -2 56.1630 162.802   4
 -12  16   2 467.225 309.964   2
 -16  12   2 587.679 301.415   2
  12   2 -16 61.4380 217.383   3
  16  -2  12 437.283 352.461   1
  16   2 -12 33.6226 199.534   3
  12  16  -2-172.685 210.138   3
  16  12  -2-365.203 277.674   3
   2 -12  16 253.034 233.476   1
  12 -16   2 230.779 194.972   1
  16 -12   2-34.3096 137.192   1
   2 -12  16-378.721 231.113   5
   2 -16  12 137.211 151.509   5
  12  -2  16 207.992 231.989   1
  -2  16  12-334.580 231.079   2
  -2  12  16-141.152 207.623   2
 -16 -12  -2 98.5859 181.243   4
 -12 -16   0 463.583 302.327   4
 -12  16   0 233.251 221.579   2
 -16  12   0-14.5699 145.796   2
   0  12  16 209.597 226.507   1
  12   0 -16 167.704 218.294   3
  16   0  12-250.654 220.584   1
  16   0 -12-238.625 203.295   3
  12 -16   0 291.869 172.869   1
  12  16   0-233.368 196.060   3
  16  12   0-98.5789 181.421   3
  16 -12   0 529.065 241.681   1
   0 -12  16 188.760 180.043   5
   0 -16  12 89.3571 201.992   5
   0  16  12 650.893 323.209   2
   0  12  16 2.18135 215.110   2
  12   0  16 505.800 284.129   1
 -16 -12   0 242.143 146.658   4
   0 -12  16 362.000 246.901   1
 -12 -16   2 531.239 310.393   4
  -2 -16  12 3.07322 132.062   4
 -12  16  -2-68.8528 308.339   2
 -16  12  -2 187.204 250.753   2
  12  -2 -16 157.057 183.193   3
  16   2  12 176.835 228.011   1
  16  -2 -12-123.799 190.346   3
  16 -12  -2 517.804 260.157   1
   2  12  16 56.4202 162.527   1
  -2 -12  16 156.267 160.163   1
  12  16   2 184.179 172.132   3
  16  12   2 555.582 283.463   3
   2  16  12 2.48468 190.129   2
   2  12  16-117.779 213.989   2
  -2 -12  16 233.995 274.091   5
  -2 -16  12 338.018 194.186   5
  12   2  16 314.541 237.239   1
 -16 -12   2 110.455 206.044   4
 -12  16  -4 3458.66 603.549   2
  -4 -12  16 4923.01 686.013   1
 -16  12  -4 3502.18 579.926   2
  12  -4 -16 3619.90 562.027   3
  16   4  12 3391.85 643.784   1
  16  -4 -12 4677.64 646.806   3
   4  12  16 3476.63 536.952   1
  12  16   4 4383.50 600.350   3
   4  12  16 3595.35 558.759   2
   4  16  12 3810.22 640.430   2
  -4 -12  16 4481.92 704.953   5
  12   4  16 4314.45 700.152   1
 -12 -16   4 4470.31 687.123   4
  -4 -16  12 4057.72 533.595   4
  12  -6 -16-14.8119 175.230   3
  16   6  12-250.509 237.206   1
  16  -6 -12-118.880 177.065   3
  -6 -12  16-117.956 176.632   1
  12   6  16-344.099 255.608   1
  -6 -16  12-232.382 149.893   4
 -12  16  -6-14.1572 212.831   2
  -8 -12  16 8173.85 990.824   1
  12   8  16 7406.29 892.701   1
  -8 -16  12 6861.21 763.201   4
  16   8  12 8247.34 917.750   1
 -10 -16  12-455.076 254.904   4
   9 -16  13 1423.35 419.723   1
  -7 -16 -13-293.579 232.106   4
  13  16  -7-302.621 287.122   3
   7 -16  13 95.7705 210.471   1
   7 -16  13-2.10426 163.992   5
  13 -16   7 518.060 287.432   1
  -5  13  16 3618.36 646.094   2
   5 -13  16 2879.99 569.858   1
  -5 -16 -13 3189.68 565.401   4
   5  16 -13 3453.30 618.841   3
 -13   5  16 3371.20 578.034   2
  13  16  -5 3071.90 580.923   3
   5 -16  13 3096.19 530.648   1
   5 -13  16 3762.32 630.603   5
   5 -16  13 4546.17 620.994   5
  13 -16   5 3005.10 527.522   1
  -3 -13 -16 3056.28 512.787   4
   3 -13  16 3363.48 574.223   1
  13  16  -3 2759.45 531.095   3
  16  13  -3 2523.97 548.686   3
  13 -16   3 3702.84 564.596   1
  16 -13   3 2970.30 562.320   1
   3 -13  16 3130.61 585.099   5
   3 -16  13 3208.33 507.212   5
  -3  16  13 2200.70 531.961   2
  -3  13  16 2706.95 554.578   2
 -13  16   1 5133.25 786.118   2
 -16  13   1 5123.25 776.733   2
  13   1 -16 4727.53 724.830   3
  13 -16   1 6482.90 740.681   1
  16   1 -13 3861.45 655.369   3
  13  16  -1 4767.68 689.003   3
  16  13  -1 3816.70 655.942   3
   1 -13  16 6187.12 762.948   1
  16 -13   1 4806.54 714.535   1
  -1  13  16 4671.45 676.548   1
   1 -13  16 5291.48 733.949   5
   1 -16  13 5151.32 676.062   5
  -1  16  13 4544.08 731.061   2
  -1  13  16 5748.31 751.988   2
 -13  16  -1 5709.52 842.869   2
 -16  13  -1 6070.03 810.197   2
  13  -1 -16 5073.44 700.844   3
  16  -1 -13 5955.32 771.534   3
  16   1  13 7272.01 969.748   1
  13 -16  -1 5596.51 694.340   1
  16 -13  -1 6254.27 803.667   1
  13  16   1 5171.61 706.304   3
  16  13   1 5359.97 786.273   3
  13   1  16 6316.35 892.668   1
  -1 -13  16 6935.90 852.257   5
   1  16  13 5671.60 785.863   2
   1  13  16 5354.56 718.112   2
  -1 -16  13 5319.02 702.854   5
   1  13  16 4384.80 627.005   1
  -1 -13  16 4784.54 648.634   1
 -13  16  -3 2751.03 569.501   2
 -16  13  -3 2309.00 494.063   2
  13  -3 -16 2250.26 461.373   3
  16   3  13 2259.35 533.906   1
  16  -3 -13 2147.59 440.768   3
  -3 -13  16 2743.95 490.158   1
  13  16   3 3253.20 552.658   3
  16  13   3 2693.10 556.295   3
   3  13  16 2804.66 496.292   2
   3  16  13 2946.47 553.121   2
  13   3  16 2818.61 611.475   1
  -3 -13  16 2511.14 529.653   5
  -5 -13  16 3285.10 559.269   1
 -13  16  -5 2787.24 581.587   2
 -16  13  -5 2444.69 501.727   2
  13  -5 -16 2762.61 503.371   3
  16   5  13 2644.81 568.915   1
  16  -5 -13 2725.68 500.864   3
   5  16  13 2678.84 550.204   2
  13   5  16 2739.59 609.617   1
  16   7  13 342.985 233.204   1
  13   7  16-345.239 274.916   1
  -6 -16 -14 4755.54 703.664   4
   6 -16  14 4823.91 690.369   1
   6 -16  14 5742.55 723.114   5
  14 -16   6 5037.60 719.212   1
   6 -14  16 5343.36 774.952   1
   4 -14  16-97.0076 241.647   1
  -4 -16 -14 606.840 308.602   4
  14  16  -4 10.6487 240.022   3
   4 -16  14 2.20666 164.387   5
  14 -16   4-176.506 251.889   1
  -4  14  16-513.628 289.015   2
   2 -14  16 4760.60 682.748   1
  14  16  -2 3753.61 630.847   3
  16  14  -2 2946.06 579.896   3
  14 -16   2 3253.26 572.078   1
  16 -14   2 3050.25 584.696   1
   2 -14  16 3712.24 635.736   5
   2 -16  14 3603.18 574.675   5
  -2  14  16 3767.75 654.751   2
 -14  16   0 223.890 294.264   2
 -16  14   0-98.7545 226.438   2
  14 -16   0 235.940 238.482   1
   0 -14  16 546.622 269.917   1
  14  16   0-88.2320 180.553   3
  16 -14   0-687.985 310.357   1
  16  14   0-389.541 278.373   3
   0 -14  16 213.150 211.277   5
   0 -16  14 173.080 190.522   5
   0  16  14-791.772 315.317   2
   0  14  16 324.107 275.975   2
 -14  16  -2 3835.71 679.474   2
 -16  14  -2 3063.27 622.907   2
  14  -2 -16 3590.44 610.218   3
  16  -2 -14 3235.00 576.756   3
  14  16   2 4001.71 626.374   3
  16  14   2 3339.62 621.398   3
   2  14  16 4155.22 648.173   2
   2  16  14 4833.24 728.023   2
  -2 -16  14 4115.90 634.484   5
  -2 -14  16 3900.21 594.204   1
 -14  16  -4 172.139 260.672   2
 -16  14  -4-295.203 257.843   2
  14  -4 -16 50.8615 166.838   3
  16  -4 -14 164.538 218.813   3
  16  14   4-308.812 212.012   3
   4  14  16 57.0270 192.143   2
   4  16  14-7.64768 161.962   2
  16   6  14 5646.35 825.197   1
   5 -15  16 103.649 276.283   1
  -3 -15 -16 3711.09 623.870   4
  -3 -16 -15 3812.33 636.172   4
   3 -16  15 4193.45 665.147   5
   3 -15  16 3444.36 568.322   1
  15  16  -1 1066.54 398.188   3
  15 -16   1 1486.83 426.817   1
   1 -16  15 2144.42 480.701   5
  -1  15  16 1371.02 435.522   2
  15  16   1 1818.12 480.021   3
  16  15   1 1223.60 395.029   3
   1  15  16 1952.83 472.932   2
 -15  16  -3 3108.70 641.424   2
 -16  15  -3 3909.84 700.527   2
  15  16   3 2702.65 572.590   3
  16  15   3 4235.20 696.969   3
   3  15  16 4727.39 707.208   2
   1   0  17 3663.48 618.917   1
  -1   0  17 4404.09 679.522   1
   0   1  17 4172.73 661.006   1
  17   0  -1 3363.19 563.433   1
   0  -1  17 2831.71 533.844   1
  17   1   0 2922.33 530.277   1
  17  -1   0 3916.42 618.837   1
  17   0   1 3464.67 565.918   1
  -1   0  17 2917.46 522.475   5
   1  17   0 3456.80 624.175   2
   0  17  -1 3096.62 542.699   2
   0  17   1 2747.70 528.053   2
  -1  17   0 3047.19 544.721   2
  -2   1  17 1707.55 254.408   2
   1  -2  17 1763.15 445.237   1
   2  -1  17 2308.88 484.221   1
  17   1  -2 1594.11 403.043   1
  17   2  -1 2014.55 458.110   1
  17  -2   1 2042.01 473.091   1
   2  17  -1 2154.83 484.333   2
   1  17  -2 2114.49 455.412   2
  -1   2  17 1457.54 386.655   5
  17  -1   2 1380.95 382.413   1
  -2   1  17 1360.98 355.021   5
  -1  17   2 1291.38 369.638   2
  -2  17   1 2273.46 491.934   2
  -1   2  17 1984.82 271.885   2
  -2 -17   1 2090.04 456.995   4
  -1  -2  17 2172.13 484.132   1
   1   2  17 1885.24 475.921   1
  17  -1  -2 1977.78 442.930   1
  17  -2  -1 2657.77 513.580   1
   2   1  17 2124.16 488.221   1
  17   2   1 1711.03 414.302   1
   2  17   1 1952.01 451.442   2
  17   1   2 1655.74 411.132   1
  -1  -2  17 1845.11 414.439   5
  -2  -1  17 2231.61 479.550   5
   1  17   2 2139.32 469.709   2
  -1  17  -2 2077.33 464.485   2
  -2  17  -1 1417.99 393.268   2
  -3 -17  -2 9074.77 917.930   4
   3  17  -2 7975.01 579.231   3
  17   3  -2 8482.22 889.369   1
   3  -2  17 8530.96 936.012   1
  17  -3   2 7002.76 838.466   1
  17   2  -3 8446.94 965.245   3
  17  -2   3 9282.81 961.304   1
  17   3  -2 9229.67 1008.83   3
   2  -3  17 7483.35 872.192   1
  -2  17   3 7290.38 862.051   2
  -2   3  17 8247.95 843.037   5
  -3   2  17 7774.91 826.070   5
  -3  17   2 8123.73 923.840   2
  -2   3  17 9244.11 674.741   2
  -3   2  17 8035.02 614.239   2
   0  -3  17 139.719 180.978   1
   0   3  17 121.245 210.885   1
  -3 -17   0-126.371 155.540   4
   3   0  17 112.412 192.717   1
  -3   0  17-37.7947 89.3648   2
  17   0  -3 517.414 270.825   1
  17   3   0-56.7748 169.327   1
  17   0  -3-53.8381 204.040   3
  17  -3   0 131.996 184.587   1
   3  17   0-84.4489 192.594   2
   0  17  -3 26.7142 186.757   2
   0  -3  17-216.564 210.410   5
  -3   0  17 118.551 147.229   5
  17   0   3 11.6327 178.491   1
   0  17   3 138.145 157.799   2
  -3  17   0-299.186 227.552   2
   0   3  17-40.8696 94.9192   2
  -3 -17   2 7270.13 830.427   4
  -2 -17   3 8022.26 848.339   4
  17  -2  -3 7588.43 865.188   1
  17  -3  -2 9689.63 961.514   1
  17   3   2 7214.82 811.811   1
  17   2   3 7001.43 811.926   1
  17  -2  -3 8976.82 932.306   3
   3  17   2 7614.78 884.616   2
   2  17   3 8523.08 924.794   2
  -2  17  -3 9232.48 926.111   2
   3   2  17 7844.28 898.382   1
  -2  -3  17 8420.86 921.576   1
  -3  17  -2 6827.74 811.036   2
  -2  -3  17 8408.07 881.210   5
  -3  -2  17 8040.69 864.465   5
   2   3  17 6814.67 835.869   1
  -3   4  17 139.717 103.702   2
  -4 -17  -3 11.4486 152.946   4
  -4   3  17 193.577 151.609   2
   3  17  -4 107.736 104.860   3
   4  17  -3 198.661 144.787   3
   4  -3  17-126.526 198.037   1
  17   3  -4 147.487 214.113   3
  17   4  -3 192.339 213.167   3
   4 -17   3 36.9360 71.9683   1
   3  -4  17 147.094 174.792   1
  -3   4  17 137.647 196.199   5
  -4   3  17 85.2449 191.595   5
  17  -4   3 9.64651 172.584   1
  17  -3   4 102.555 189.434   1
  -3  17   4-50.7322 184.579   2
  -4  17   3 91.9673 191.104   2
  -4 -17  -1 2775.05 507.014   4
  -4   1  17 3407.73 396.873   2
   4  17  -1 2742.05 338.072   3
   1  -4  17 3070.41 563.640   1
  17   4  -1 3137.45 543.996   1
  17   1  -4 3947.31 642.233   3
   1  17  -4 2679.26 513.820   2
  17  -4   1 3031.04 542.267   1
  -1   4  17 2784.08 478.425   5
  -4   1  17 2739.86 514.476   5
   4  -1  17 3472.63 593.715   1
  -1  17   4 3740.66 627.181   2
  17  -1   4 3804.73 620.237   1
  -4  17   1 4535.72 691.015   2
  -1   4  17 2832.10 373.641   2
  -4 -17   1 3137.98 544.513   4
  -4  -1  17 3574.20 380.551   2
  -1 -17   4 3971.84 593.492   4
  -1  -4  17 3924.64 637.085   1
  17  -1  -4 3544.60 599.701   3
  17  -4  -1 2917.94 546.073   1
  17   4   1 3606.76 585.269   1
   1   4  17 4118.10 647.844   1
  -1  17  -4 3941.01 593.863   2
  -1  -4  17 2956.07 541.820   5
   1  17   4 3342.99 573.480   2
  -4  -1  17 3341.30 569.441   5
   1   4  17 1434.04 246.773   2
  17   1   4 3358.34 588.916   1
  -4  17  -1 3877.39 629.586   2
   4   1  17 3902.03 629.051   1
  -4 -17   3 104.593 163.022   4
  -3 -17   4 19.5389 155.379   4
   3   4  17-41.0082 218.306   1
  17  -4  -3-59.1435 206.148   1
  17  -3  -4 290.969 230.817   3
  17  -4  -3-255.002 245.523   3
   4  17   3 98.2793 222.927   2
   3  17   4 289.615 221.065   2
  -3  -4  17-620.708 287.783   1
  17   4   3 238.347 227.701   1
  -3  -4  17-203.727 201.487   5
  -4  -3  17 45.9718 163.705   5
  -3  17  -4-215.574 196.700   2
  17   3   4-29.3001 153.475   1
  -4  17  -3-117.351 189.007   2
   4   3  17-95.1097 227.321   1
  -5   4  17 7925.08 714.661   2
   5  -4  17 6484.31 829.063   1
  -5 -17  -4 8763.18 923.859   4
   4  -5  17 7523.58 886.277   1
  -4 -17  -5 7122.77 826.419   4
   5   4 -17 9277.61 923.302   3
   4  17  -5 7033.29 658.643   3
   5  17  -4 7703.44 685.550   3
  17   4  -5 8778.09 1014.21   3
   5 -17   4 8091.08 595.851   1
   4 -17   5 8114.00 573.405   1
  17   5  -4 6682.19 884.590   3
  17  -5   4 7304.51 872.104   1
  17  -4   5 8036.71 921.659   1
  -4   5  17 8558.50 840.443   5
  -5   4  17 8720.62 886.269   5
  -4  17   5 8301.92 957.489   2
  -5  17   4 8091.73 943.298   2
 -17  -5  -4 7908.73 771.632   4
  -4   5  17 8560.19 743.763   2
  -2   5  17 209.791 144.750   2
  -5 -17  -2 361.440 267.353   4
   5  -2  17 466.014 229.085   1
  -5   2  17 187.411 155.111   2
   5  17  -2 30.2455 122.073   3
   5 -17   2 262.972 135.562   1
  17   2  -5 93.4134 230.071   3
  17   5  -2-100.093 243.123   3
  17  -5   2 490.947 248.066   1
  -2   5  17 254.838 209.339   5
  -5   2  17-26.2356 177.829   5
  -2  17   5 522.389 322.072   2
   2  -5  17 548.362 263.707   1
  -5  17   2 141.658 175.812   2
  17  -2   5 391.195 232.966   1
  -5 -17   0 7835.11 880.648   4
   0 -17   5 7693.75 821.334   4
  -5   0  17 9084.26 665.187   2
   5   0  17 7438.07 894.369   1
   5  17   0 8005.31 599.381   3
  17   5   0 8647.53 860.312   1
  17  -5   0 8126.13 893.630   1
  17   0  -5 8240.54 918.776   3
   0  17  -5 8440.91 875.812   2
  17   0   5 7926.91 902.465   1
   0  17   5 9380.28 989.577   2
   0   5  17 9836.48 1017.49   1
   0  -5  17 8250.30 890.201   5
   0   5  17 8117.31 643.504   2
  -5   0  17 8824.84 908.075   5
  -5  17   0 9936.40 1010.02   2
   0  -5  17 7313.08 864.428   1
  -5 -17   2 70.7799 190.014   4
  -2 -17   5 85.2801 135.237   4
   5   2  17 354.391 225.002   1
  17  -5  -2 113.086 170.420   1
  17  -2  -5 38.1870 178.983   3
  17   5   2 234.505 188.937   1
  -2  17  -5 364.260 253.335   2
  -2  -5  17 120.195 220.465   1
   2  17   5 304.655 237.274   2
  -2  -5  17 11.5072 142.920   5
  -5  -2  17 323.846 262.262   5
  -5  17  -2 75.3578 171.306   2
  17   2   5 518.703 269.244   1
   2   5  17 98.4619 210.157   1
  -5 -17   4 7232.79 823.931   4
  -4 -17   5 7294.77 825.913   4
  17  -4  -5 9178.13 904.473   3
   4   5  17 10313.7 1020.86   1
  17  -5  -4 8238.81 851.908   3
  17   5   4 8905.34 900.020   1
  17   4   5 8614.38 900.489   1
   4  17   5 9138.33 964.104   2
   5   4  17 7069.03 862.649   1
  -4  17  -5 7872.52 857.968   2
  -5  17  -4 8680.21 891.760   2
  -4  -5  17 10151.9 992.202   5
  -5  -4  17 9633.43 976.390   5
  -6 -17  -5 873.507 336.715   4
  -5 -17  -6 603.327 295.910   4
  -5   6  17 427.345 215.133   2
   5   6 -17 386.412 226.755   3
  -6   5  17 530.156 218.757   2
   6   5 -17 436.275 236.153   3
   5  17  -6 411.953 205.979   3
   6  17  -5 77.4946 136.290   3
  17   5  -6 543.271 291.739   3
  17   6  -5 368.470 248.544   3
   6  -5  17 435.245 235.056   1
   5  -6  17 625.833 291.688   1
  -5   6  17 487.896 228.713   5
  -6   5  17 198.911 211.232   5
   6 -17   5 395.673 153.636   1
 -17  -5  -6 836.215 267.239   4
 -17  -6  -5 503.184 227.211   4
  17  -6   5 444.004 289.865   1
   5 -17   6 523.089 179.246   1
  -5  17   6 578.900 281.488   2
  17  -5   6 400.988 280.837   1
  -6  17   5 359.947 254.525   2
  -3   6  17 4741.92 560.889   2
  -6 -17  -3 5613.89 746.722   4
   3  17  -6 5973.67 607.439   3
   6   3 -17 4824.73 665.822   3
   6  17  -3 4862.50 544.849   3
  -6   3  17 4536.06 539.648   2
   3  -6  17 4578.30 680.128   1
   6 -17   3 4878.30 473.554   1
  17   3  -6 4639.89 720.755   3
  17   6  -3 4169.45 707.302   3
   3 -17   6 5121.67 484.276   5
  -3   6  17 4693.07 600.765   5
  17  -6   3 5174.84 732.505   1
  -6   3  17 4640.60 661.179   5
   6  -3  17 5738.79 776.078   1
 -17  -6  -3 4728.04 622.840   4
  -3  17   6 4406.89 692.449   2
  -6  17   3 5148.11 772.072   2
  17  -3   6 3662.16 631.816   1
   6  -1  17 378.920 238.746   1
   1  -6  17 855.289 336.751   1
  -6 -17  -1 556.736 270.956   4
   1 -17   6 966.678 313.741   4
   6   1 -17 643.861 314.811   3
  -6   1  17 565.954 218.541   2
   6  17  -1 1083.85 250.204   3
  17   6  -1 821.355 274.609   1
   6 -17   1 801.424 202.650   1
  17   1  -6 765.786 311.378   3
  17   6  -1 973.365 378.318   3
  17  -6   1 650.695 314.410   1
   1  -6  17 475.919 254.125   5
  -1   6  17 706.147 271.038   5
  -6   1  17 1410.10 393.403   5
  -1  17   6 568.234 297.680   2
 -17  -6  -1 556.451 250.043   4
  -1   6  17 1027.37 269.870   2
  -6  17   1 738.324 347.088   2
  17  -1   6 1025.60 373.688   1
  -6 -17   1 1324.40 382.163   4
   6   1  17 1185.64 379.372   1
  -1 -17   6 628.845 261.034   4
  17  -1  -6 525.974 243.527   3
  17   6   1 1011.56 316.826   1
  17  -6  -1 1292.64 364.313   1
  -1  17  -6 1025.85 305.777   2
   1   6  17 903.499 355.545   1
  -1  -6  17 671.093 275.069   5
  -1  -6  17 591.058 301.061   1
   1  17   6 1348.16 387.696   2
  -6  -1  17 451.278 266.431   5
   1   6  17 762.995 223.120   2
 -17  -6   1 1313.42 330.131   4
  -6  17  -1 971.187 353.995   2
  17   1   6 450.352 296.226   1
  -3  -6  17 3670.92 618.706   1
  -6 -17   3 4598.54 670.445   4
  -3 -17   6 4016.97 608.523   4
   6   3  17 4514.63 695.270   1
   3   6  17 5319.29 727.942   1
  17  -6  -3 4983.39 713.920   1
  17  -3  -6 4885.30 678.592   3
  17  -6  -3 4950.48 653.883   3
  17   6   3 4803.71 641.156   1
   3  17   6 5231.95 739.549   2
  -3  17  -6 4595.30 641.927   2
  -3  -6  17 5418.28 732.604   5
  -6  -3  17 5847.50 778.010   5
  -6  17  -3 4990.46 706.062   2
  17   3   6 4481.68 673.414   1
  -6 -17   5 697.663 290.695   4
  -5 -17   6 342.652 251.797   4
   6   5  17 334.723 248.509   1
  17  -5  -6 293.727 166.923   3
  17  -6  -5 297.639 216.443   3
   5   6  17 1330.24 399.986   1
   5  17   6 490.495 250.985   2
  -5  17  -6 219.059 166.816   2
  -5  -6  17 891.666 337.961   5
  -6  -5  17 645.720 291.521   5
  17   6   5 605.155 280.050   1
  -6  17  -5 303.091 201.969   2
  17   5   6 317.723 223.282   1
  -7  17   6 4880.97 788.324   2
  17  -6   7 5039.91 759.338   1
  -7 -17  -6 5516.88 757.440   4
  -6 -17  -7 5453.26 733.378   4
  -6   7  17 4017.07 587.424   2
   7  17  -6 5915.95 679.830   3
  -7   6  17 4146.92 584.986   2
   6   7 -17 5841.14 781.040   3
   7   6 -17 5262.71 740.247   3
   6  17  -7 5428.41 661.733   3
   7  -6  17 4899.79 745.128   1
   6  -7  17 4499.81 725.150   1
  17   6  -7 6322.84 883.371   3
  17   7  -6 6106.79 867.099   3
   7 -17   6 5933.74 584.634   1
   6 -17   7 5386.48 558.482   1
 -17  -6  -7 4769.48 613.597   4
 -17  -7  -6 5825.79 689.336   4
  17  -7   6 5561.82 789.236   1
  -6  17   7 5317.03 796.054   2
  -7  17   4 1912.52 514.101   2
  17  -4   7 1342.45 401.402   1
  -4   7  17 1551.01 361.663   2
  -7 -17  -4 1557.70 429.132   4
  -4 -17  -7 1791.06 446.739   4
   7   4 -17 790.852 305.915   3
   4  17  -7 1480.10 355.292   3
  -7   4  17 1039.04 285.362   2
   7  17  -4 1365.69 328.070   3
  17   4  -7 1382.14 434.513   3
  17   7  -4 1988.24 500.750   3
   7  -4  17 1719.14 463.839   1
   7 -17   4 1378.68 279.003   1
   4 -17   7 1476.43 280.977   5
  -4   7  17 1420.50 346.581   5
  -7   4  17 2185.51 465.089   5
  17  -7   4 1666.56 438.674   1
 -17  -7  -4 1337.76 347.807   4
   4  -7  17 1242.86 397.528   1
  -4  17   7 1341.31 438.708   2
  -7 -17  -2 8886.59 955.878   4
   2 -17   7 7393.93 799.786   4
  -7   2  17 7647.32 706.846   2
   7   2 -17 8446.88 866.744   3
   2  -7  17 9294.59 971.144   1
   7  17  -2 8964.70 749.953   3
   7 -17   2 9145.72 685.572   1
  17  -7   2 7869.72 904.523   1
  17   7  -2 8687.34 1020.53   3
  17   2  -7 7708.16 917.758   3
  -2   7  17 7558.73 775.543   5
  -2  17   7 9088.90 988.380   2
  17  -2   7 11107.8 1107.93   1
   2 -17   7 9850.44 714.819   5
  -7   2  17 6925.94 831.851   5
  -2   7  17 8802.18 785.838   2
  -7  17   2 8792.94 997.068   2
   7  -2  17 9282.54 1010.52   1
 -17  -7  -2 8522.58 850.085   4
  17   0   7 1467.28 418.896   1
  -7 -17   0 841.870 327.436   4
   0 -17   7 713.269 289.288   4
   0  -7  17 651.740 305.126   1
   7   0 -17 687.011 296.218   3
   7  17   0 1169.18 279.858   3
  17   7   0 1096.68 312.233   1
   0   7  17 1289.94 363.478   1
  17   0  -7 1396.10 383.049   3
  17  -7   0 740.508 311.907   1
   0   7  17 352.738 208.225   5
   0  -7  17 804.594 293.828   5
   7   0  17 769.402 325.038   1
  -7   0  17 662.028 272.331   5
   0  17   7 991.570 371.177   2
   0   7  17 1314.51 293.413   2
 -17  -7   0 1719.95 393.077   4
  -7  17   0 1124.18 394.150   2
  -7 -17   2 9540.43 973.753   4
  -2 -17   7 8331.42 852.548   4
   7  -2 -17 8340.12 818.421   3
  17  -7  -2 9326.60 968.532   1
  17   7   2 8301.02 814.400   1
  17  -2  -7 8316.72 885.565   3
  -2  17  -7 7685.25 822.921   2
   2   7  17 8030.28 669.781   2
   2  17   7 10571.7 1037.94   2
  17   2   7 8604.77 949.196   1
  -2  -7  17 8119.66 904.932   5
  -7  17  -2 9033.00 975.724   2
  -7  -2  17 7651.22 899.368   5
 -17  -7   2 9699.46 909.699   4
   7   2  17 8845.60 979.669   1
  -2  -7  17 7328.80 875.649   1
   2   7  17 7967.32 899.672   1
  -7 -17   4 1058.16 340.651   4
  -4 -17   7 1316.12 377.363   4
  -4  -7  17 1541.65 452.077   1
  17  -4  -7 1642.20 395.559   3
  17  -7  -4 1269.97 330.967   3
   4  17   7 1239.47 391.780   2
  17   7   4 1543.30 390.601   1
  -4  17  -7 1572.66 394.493   2
  -4  -7  17 1305.75 378.871   5
  -7  -4  17 1168.51 363.437   5
  -7  17  -4 1933.38 458.731   2
   7   4  17 1278.22 380.777   1
   4   7  17 2402.76 503.849   1
  17   4   7 1168.27 361.661   1
  -6 -17   7 4387.50 662.037   4
   6   7  17 5829.44 769.686   1
  17  -7  -6 6229.76 703.347   3
  17  -6  -7 5300.67 659.958   3
  -6  17  -7 5762.77 716.069   2
  -6  -7  17 5971.11 820.183   5
  -7  -6  17 6559.66 842.174   5
  17   7   6 4645.89 638.115   1
  -7  17  -6 5162.49 694.975   2
   7   6  17 6006.53 793.497   1
  17   6   7 4915.86 685.184   1
  -7 -17   6 6338.25 792.642   4
  -7  17   8 876.950 380.268   2
  -8  17   7 1251.19 459.305   2
  17  -7   8 2093.39 500.271   1
   7 -17   8 1387.94 312.869   1
  -8 -17  -7 1458.32 389.982   4
  -7 -17  -8 1686.02 434.841   4
  -7   8  17 1620.37 396.186   2
   8  -7  17 1636.70 476.112   1
  -8   7  17 1267.88 344.871   2
   7   8 -17 2197.64 511.889   3
   8   7 -17 2285.18 537.071   3
   7  -8  17 1787.79 460.850   1
   7  17  -8 1589.36 389.225   3
   8  17  -7 1955.32 423.745   3
  17   7  -8 1088.79 404.176   3
  17   8  -7 2780.17 625.906   3
 -17  -7  -8 2049.44 419.345   4
 -17  -8  -7 1965.34 435.653   4
   8 -17   7 1594.39 353.058   1
  17  -8   7 1454.73 434.592   1
  -8  17   5 6057.10 847.906   2
  17  -5   8 5829.27 830.403   1
  -8   5  17 6210.52 693.149   2
  -5   8  17 5417.35 686.441   2
  -8 -17  -5 5352.03 741.865   4
  -5 -17  -8 6098.86 776.328   4
   5   8 -17 5124.93 740.057   3
   8   5 -17 4950.10 727.972   3
   5  17  -8 4636.02 615.253   3
   8  17  -5 6224.69 716.261   3
   8  -5  17 6307.28 847.211   1
  17   5  -8 5840.09 824.577   3
   8 -17   5 5011.67 555.841   1
  17   8  -5 4786.14 798.947   3
   5  -8  17 7078.47 876.298   1
  -5   8  17 5672.17 664.873   5
  17  -8   5 5234.13 777.155   1
 -17  -8  -5 5476.80 688.993   4
  -5  17   8 6310.20 865.192   2
  -3   8  17-5.63615 158.456   2
   3  -8  17-22.1377 213.508   1
  -8  17   3-240.410 298.330   2
  17  -3   8-597.007 304.256   1
  -8 -17  -3 2.50706 213.855   4
   3 -17   8 367.809 184.753   4
   3  17  -8-59.8912 146.364   3
   8   3 -17-421.943 288.233   3
  -8   3  17-57.5500 128.753   2
   8  17  -3 114.716 129.045   3
   8  -3  17 243.151 315.600   1
  17   3  -8 259.603 190.641   3
  17   8  -3 453.208 319.959   3
   8 -17   3-71.0935 156.365   1
  17  -8   3 123.582 185.037   1
  -3   8  17 144.663 150.734   5
   3 -17   8 351.911 178.284   5
 -17  -8  -3-71.5305 150.054   4
  -3  17   8 305.840 284.746   2
  -8  17   1 3746.41 672.578   2
  -8 -17  -1 2311.59 487.790   4
  17  -1   8 2191.17 512.283   1
   1 -17   8 2452.71 443.585   4
   8   1 -17 3059.08 545.382   3
   8  17  -1 2763.02 425.797   3
   8 -17   1 2435.52 373.205   1
  17   1  -8 3209.47 585.063   3
   8  -1  17 3035.32 589.831   1
  17   8  -1 2610.09 565.457   3
   1  -8  17 2384.66 510.547   1
  17  -8   1 2200.62 485.308   1
   1  -8  17 1805.74 417.581   5
  -1   8  17 2177.74 415.472   5
   1 -17   8 2235.98 372.959   5
  -1  17   8 3349.84 627.952   2
 -17  -8  -1 2622.55 481.880   4
  -1   8  17 2219.51 416.329   2
  -8 -17   1 2910.70 562.927   4
  17   1   8 2545.38 554.411   1
  -1 -17   8 2618.74 485.592   4
   8  -1 -17 3000.55 501.707   3
  -1  -8  17 2922.34 565.243   1
   8  17   1 1897.81 354.332   3
  17   8   1 2065.49 411.673   1
  17  -1  -8 1474.61 387.201   3
  17  -8  -1 2744.75 521.732   1
   1   8  17 2743.98 538.396   1
   8   1  17 2529.17 538.805   1
  -1  -8  17 2341.98 481.298   5
   1  17   8 2262.12 511.679   2
   1   8  17 2339.57 376.668   2
 -17  -8   1 2494.98 466.511   4
  -8  17  -1 3494.72 623.419   2
  -8 -17   3 342.042 249.636   4
  17   3   8-10.1911 227.148   1
  -3 -17   8-57.3388 119.423   4
   8  -3 -17 77.7594 181.105   3
   3   8  17-168.695 268.082   1
  17  -8  -3-169.691 207.785   1
  17  -3  -8 502.419 260.073   3
  17  -8  -3-155.905 167.409   3
  17   8   3 83.5967 135.177   1
   8   3  17-179.848 212.344   1
  -3  17  -8 94.6041 176.659   2
   3  17   8-86.5772 211.787   2
  -3  -8  17 326.118 252.796   5
 -17  -8   3 171.299 207.563   4
  -8  17  -3 262.302 213.801   2
  -3  -8  17-233.643 199.065   1
  17   5   8 5725.01 760.619   1
  -8 -17   5 5925.76 783.590   4
  -5 -17   8 5708.86 722.002   4
 -17   8  -5 4698.53 630.560   2
  17   8   5 6339.54 712.601   1
  17  -5  -8 5688.85 695.701   3
   5   8  17 3993.47 640.059   1
  17  -8  -5 5799.42 672.987   3
  -5  17  -8 6550.02 750.159   2
   8   5  17 5603.37 774.686   1
   5  17   8 6490.27 848.119   2
  -5  -8  17 7297.45 907.289   1
  -5  -8  17 5710.51 787.291   5
 -17  -8   5 6468.31 761.340   4
  -8  17  -5 5870.90 762.256   2
  -8 -17   7 2258.82 485.682   4
  -7 -17   8 2349.29 495.904   4
 -17   8  -7 1604.20 356.202   2
  17  -7  -8 2529.51 459.299   3
  17  -8  -7 1774.49 379.754   3
   8   7  17 2283.91 505.560   1
  -7  17  -8 1670.88 383.939   2
   7   8  17 1341.70 393.005   1
  -7  -8  17 1757.44 476.472   5
  -8  17  -7 2024.15 429.153   2
  17   8   7 1581.27 381.110   1
  17   7   8 1369.20 372.463   1
  -9 -17  -8 4462.33 696.738   4
  -8 -17  -9 5514.47 781.445   4
  -8   9  17 4647.51 660.900   2
  -9   8  17 3428.95 594.573   2
   8  17  -9 6116.48 789.788   3
   9  17  -8 5415.86 745.430   3
   8 -17   9 5957.14 670.632   1
 -17  -8  -9 4382.57 627.815   4
 -17  -9  -8 5471.27 712.822   4
   9 -17   8 5234.74 627.455   1
  -9  17   6 2804.83 578.404   2
  -9 -17  -6 3263.44 591.514   4
  17  -6   9 3619.17 662.681   1
   9  -6  17 2240.32 542.815   1
  -6   9  17 2754.98 506.837   2
  -6 -17  -9 3538.73 602.069   4
   6 -17   9 2700.62 427.125   1
   6   9 -17 3827.57 672.712   3
  -9   6  17 3392.02 547.932   2
   6  17  -9 3298.62 548.741   3
   9   6 -17 3537.77 634.054   3
   6  -9  17 2758.03 555.380   1
 -17   9   6 3310.48 569.721   2
   9  17  -6 3468.04 577.747   3
  17   6  -9 3226.28 664.958   3
  17   9  -6 3003.35 611.790   3
 -17  -6  -9 4239.39 570.836   4
   9 -17   6 3798.46 519.080   1
  17  -9   6 3457.83 640.198   1
 -17  -9  -6 3809.61 596.574   4
  -6  17   9 3382.70 662.333   2
  -9 -17  -4 7267.45 883.371   4
  -9  17   4 7073.34 926.239   2
   4 -17   9 6553.51 719.816   4
  17  -4   9 6260.31 869.422   1
  -9   4  17 5505.06 667.447   2
  -4 -17  -9 5526.73 752.059   4
   4  17  -9 5845.42 701.137   3
   9   4 -17 8020.17 893.954   3
   9  -4  17 6100.42 845.977   1
   9  17  -4 7976.37 806.844   3
   9 -17   4 6797.90 668.657   1
  17   4  -9 7253.57 915.901   3
  17   9  -4 7554.66 966.078   3
   4  -9  17 6479.82 830.324   1
   4 -17   9 6894.18 650.879   5
  17  -9   4 6318.76 827.720   1
 -17  -9  -4 7981.80 853.901   4
  -4   9  17 6867.13 788.518   2
  -4  17   9 6191.90 865.779   2
  -9  17   2 4093.41 711.770   2
  -9 -17  -2 2916.84 582.040   4
   2  -9  17 3559.73 611.109   1
   2 -17   9 3810.11 566.496   4
  17  -2   9 4356.59 725.494   1
   9   2 -17 2779.23 524.644   3
   9  -2  17 3051.06 607.977   1
  -9   2  17 2898.27 477.331   2
   9  17  -2 3478.95 510.255   3
  17   2  -9 4011.70 678.649   3
  17   9  -2 4456.79 740.508   3
   9 -17   2 3491.70 467.725   1
  17  -9   2 3525.09 632.552   1
   2  -9  17 3374.32 582.218   5
  -2   9  17 3975.01 524.867   5
   2 -17   9 3866.19 484.377   5
  -2  17   9 3214.30 621.353   2
 -17  -9  -2 3270.74 569.705   4
  -2   9  17 2356.45 449.725   2
  -9  17   0 7026.88 911.491   2
  -9 -17   0 6658.05 850.891   4
   0 -17   9 5626.75 680.257   4
  17   0   9 6919.75 895.304   1
   9   0 -17 6846.70 782.565   3
   9  17   0 6558.19 672.240   3
   9 -17   0 6672.62 633.451   1
   9   0  17 6841.68 886.562   1
  17   0  -9 6340.26 797.699   3
  17   9   0 7022.57 897.386   3
  17  -9   0 6528.64 833.156   1
   0   9  17 7074.78 717.100   5
   0   9  17 6729.33 709.753   2
   0  -9  17 7357.23 862.052   5
   0  -9  17 7415.58 857.454   1
   0 -17   9 7047.65 682.295   5
   0  17   9 7362.23 899.531   2
 -17  -9   0 6526.70 786.737   4
   0   9  17 5655.24 754.071   1
  -9 -17   2 3525.61 624.863   4
  -2 -17   9 4242.94 596.645   4
  17   2   9 3777.29 668.390   1
   9  -2 -17 3156.05 514.508   3
  -2  -9  17 3554.99 610.150   1
 -17   9  -2 3803.50 583.613   2
   9   2  17 2271.97 517.818   1
  17  -2  -9 4681.70 672.430   3
  17  -9  -2 5075.96 715.750   1
  17   9   2 3510.20 502.870   1
   2   9  17 4735.86 687.328   1
   2   9  17 3436.05 480.198   2
   2  17   9 3079.36 578.170   2
  -2  -9  17 3798.28 639.703   5
 -17  -9   2 2999.77 531.504   4
  -9  17  -2 3039.92 576.552   2
  -4  -9  17 7111.61 892.133   1
  17   4   9 6972.25 861.785   1
   9  -4 -17 7552.58 766.514   3
 -17   9  -4 6940.96 781.457   2
  17  -4  -9 6422.32 754.277   3
  17   9   4 7372.51 733.188   1
   9   4  17 6667.29 861.329   1
  17  -9  -4 6123.47 672.239   3
  -4  17  -9 7705.60 780.772   2
   4  17   9 6467.85 836.034   2
  -4  -9  17 7134.12 880.684   5
 -17  -9   4 7236.21 826.162   4
   4   9  17 6881.58 811.130   1
  -9  17  -4 7047.94 852.910   2
  -9 -17   4 7615.29 893.860   4
  -4 -17   9 7039.01 773.364   4
  -9 -17   6 3236.29 561.059   4
   6   9  17 2915.20 549.923   1
  -6 -17   9 3843.81 588.330   4
  17   6   9 4025.87 651.668   1
 -17   9  -6 3082.46 517.956   2
   9   6  17 3006.03 604.369   1
  17  -6  -9 4118.35 584.886   3
  17  -9  -6 3038.08 486.282   3
  -6  -9  17 3457.05 635.815   5
  -6  -9  17 4096.67 710.727   1
 -17  -9   6 3991.92 615.454   4
  -9  17  -6 3525.83 572.173   2
  -9 -17   8 5086.68 710.137   4
  -8 -17   9 5874.98 742.419   4
   9   8  17 4334.70 686.799   1
   8   9  17 4843.68 708.614   1
  17   8   9 6819.44 797.678   1
  10 -17   9 1953.27 438.160   1
   9 -17  10 2073.25 445.145   1
  -9  10  17 2887.05 563.603   2
 -10   9  17 2059.79 469.438   2
   9  17 -10 1838.66 485.198   3
  10  17  -9 2307.96 515.914   3
 -17  -9 -10 2458.86 474.354   4
 -17 -10  -9 1569.96 397.369   4
   7 -10  17 5037.29 777.596   1
  -7  10  17 4678.02 708.365   2
  -7 -17 -10 4756.72 703.875   4
 -10   7  17 4642.01 675.338   2
   7  17 -10 4369.60 682.259   3
  10  17  -7 4102.52 653.865   3
 -17  -7 -10 5495.94 656.542   4
  10 -17   7 4272.14 602.942   1
 -17 -10  -7 3719.09 602.933   4
  -5  10  17-71.9168 207.352   2
 -10  17   5 612.163 345.794   2
 -10 -17  -5-283.747 242.707   4
  -5 -17 -10 266.249 261.796   4
   5  17 -10 240.207 189.157   3
 -10   5  17 876.998 298.461   2
 -17  10   5 116.515 210.218   2
   5 -10  17 119.732 241.394   1
  10  17  -5 255.885 256.643   3
  17  10  -5-178.799 291.385   3
   5 -17  10 375.835 175.484   5
  10 -17   5 393.245 238.760   1
  17 -10   5 290.304 293.640   1
 -17 -10  -5 264.064 208.192   4
  -5  17  10 317.280 271.932   2
 -10  17   3 6286.33 889.068   2
 -10 -17  -3 6017.96 808.332   4
  10  -3  17 4669.01 747.854   1
   3 -17  10 4481.31 575.308   4
  17  -3  10 4639.42 774.977   1
  10   3 -17 3700.40 640.242   3
 -17  10   3 3258.21 592.243   2
 -10   3  17 4954.79 631.465   2
  10  17  -3 4964.52 644.968   3
  17   3 -10 4804.64 739.135   3
  17  10  -3 4156.65 721.248   3
  10 -17   3 4268.60 555.491   1
   3 -10  17 4085.89 668.976   1
   3 -10  17 4592.35 700.098   5
  17 -10   3 4601.50 706.599   1
   3 -17  10 4558.62 556.061   5
  -3  17  10 4824.29 767.213   2
 -17 -10  -3 4418.29 654.178   4
  -3  10  17 4801.04 670.324   2
 -10  17   1 1163.30 413.530   2
 -10 -17  -1 1113.14 385.738   4
   1 -17  10 784.288 266.206   4
   1 -10  17 1017.12 366.547   1
  10  -1  17 689.648 340.369   1
  17  -1  10 952.394 390.149   1
  10   1 -17 346.820 198.122   3
 -17  10   1 1015.00 344.489   2
  10  17  -1 651.461 260.672   3
  17   1 -10 745.835 336.091   3
  10 -17   1 839.393 258.815   1
  17  10  -1 691.518 314.521   3
  17 -10   1 579.953 285.251   1
   1 -10  17 756.056 275.094   5
   1 -17  10 800.031 253.542   5
  -1  17  10 538.656 269.731   2
  -1  10  17 569.451 264.274   2
 -17 -10  -1 943.296 337.351   4
 -10  17  -1 1022.17 386.662   2
 -10 -17   1 1248.20 385.223   4
  -1 -17  10 1136.48 326.346   4
  17   1  10 1668.14 466.084   1
   1  10  17 351.803 251.344   1
  10   1  17 470.218 275.006   1
  10  -1 -17 1045.26 314.468   3
 -17  10  -1 1195.78 365.176   2
  17  -1 -10 804.223 342.058   3
  10  17   1 687.993 248.992   3
  17 -10  -1 1506.05 424.599   1
  17  10   1 965.931 345.388   3
  -1 -10  17 324.527 187.610   5
   1  17  10 971.693 389.199   2
   1  10  17 732.187 249.788   2
  -1 -10  17 1129.73 370.677   1
 -17 -10   1 825.137 301.538   4
 -10 -17   3 5972.69 799.616   4
  -3 -17  10 4785.48 628.135   4
  17   3  10 5155.68 781.796   1
   3  10  17 4794.22 678.692   1
  10   3  17 3376.52 635.565   1
  10  -3 -17 4767.13 643.592   3
 -17  10  -3 3846.25 613.671   2
  -3 -10  17 4448.04 684.625   1
  17 -10  -3 4207.84 670.338   1
  17  -3 -10 4954.37 678.172   3
  17 -10  -3 3982.20 541.407   3
   3  10  17 4614.28 574.655   2
   3  17  10 4524.42 683.508   2
  -3 -10  17 4696.85 706.957   5
 -17 -10   3 5081.34 717.579   4
 -10  17  -3 4490.70 707.235   2
 -10 -17   5 580.554 310.980   4
  -5 -17  10 66.4104 181.569   4
  -5 -10  17 147.740 273.661   1
  17   5  10 256.246 244.905   1
  10  -5 -17 263.626 212.652   3
 -17  10  -5 432.607 228.219   2
   5  10  17 358.641 238.425   1
  17  -5 -10 262.424 176.473   3
   5  17  10 311.057 239.799   2
  -5 -10  17 307.132 234.453   5
 -10  17  -5 676.697 297.192   2
  17   7  10 4964.75 714.011   1
  10   7  17 5528.99 769.533   1
  17  -7 -10 5010.93 625.224   3
  -7 -10  17 6590.53 942.949   1
   7  10  17 4943.44 703.798   1
 -10 -17   7 5400.06 755.563   4
  -7 -17  10 4083.57 620.782   4
  10   9  17 1800.84 456.489   1
   9  10  17 2394.47 498.587   1
  -9 -17  10 2735.27 522.586   4
  -8  11  17 4228.22 690.255   2
 -11   8  17 3461.11 622.488   2
   8  17 -11 5099.36 773.847   3
  11  17  -8 4257.38 690.211   3
 -17 -11  -8 3101.18 575.083   4
  11 -17   8 5547.44 704.438   1
  -6  11  17 2614.04 537.537   2
  -6 -17 -11 2716.02 553.939   4
   6 -11  17 2810.47 604.834   1
   6  17 -11 2559.12 524.790   3
 -11   6  17 2901.99 538.103   2
  11  17  -6 3531.65 601.010   3
  11 -17   6 3539.82 546.825   1
 -17 -11  -6 2496.34 529.917   4
  -4 -17 -11 5069.24 726.789   4
 -11   4  17 3936.20 593.996   2
   4 -11  17 3384.58 623.299   1
  11  17  -4 4376.50 656.390   3
  17  11  -4 4572.66 753.594   3
  11 -17   4 4884.97 607.748   1
   4 -11  17 3609.47 619.434   5
  17 -11   4 4573.06 712.158   1
   4 -17  11 4585.85 574.688   5
 -17 -11  -4 4875.35 713.153   4
  -4  11  17 4142.20 656.021   2
 -11  17   2 3995.07 692.117   2
  17  -2  11 3694.42 698.090   1
  11   2 -17 4755.79 703.196   3
 -17  11   2 4714.40 695.657   2
  17   2 -11 4287.60 703.403   3
  11  17  -2 4595.15 623.709   3
  17  11  -2 4976.99 777.322   3
  11 -17   2 4564.68 585.675   1
  17 -11   2 4050.53 664.264   1
   2 -11  17 3612.54 611.786   1
   2 -11  17 4037.21 665.011   5
   2 -17  11 4314.99 559.328   5
  -2  17  11 5660.72 812.321   2
  -2  11  17 4595.26 666.208   2
 -17 -11  -2 4233.45 673.621   4
   0  11  17 5142.49 715.454   1
 -11 -17   0 4676.07 726.337   4
 -11  17   0 5143.81 804.650   2
  11   0  17 5433.01 813.669   1
   0 -17  11 5569.47 643.319   4
   0 -11  17 4517.02 679.605   1
  17   0  11 5513.55 834.229   1
  11   0 -17 4811.69 693.617   3
 -17  11   0 5997.83 780.426   2
  17   0 -11 3280.78 600.121   3
  11 -17   0 4943.32 596.035   1
  11  17   0 4121.94 603.442   3
  17  11   0 5541.65 816.478   3
  17 -11   0 4629.92 707.535   1
   0 -17  11 5726.79 659.688   5
   0 -11  17 5284.10 754.015   5
   0  17  11 6196.13 833.568   2
   0  11  17 4490.61 639.642   2
 -17 -11   0 5683.90 772.030   4
 -11  17  -2 4480.28 708.949   2
  -2 -17  11 5144.60 622.633   4
  11   2  17 4497.44 750.945   1
  17   2  11 4851.98 764.823   1
  11  -2 -17 5362.08 709.370   3
 -17  11  -2 4140.74 659.305   2
  17  -2 -11 4539.25 660.586   3
  17 -11  -2 4147.42 705.207   1
   2  11  17 4205.24 626.091   1
  17  11   2 3372.48 648.107   3
   2  11  17 4040.61 592.817   2
   2  17  11 4470.90 697.516   2
  -2 -11  17 5226.91 753.241   5
  -2 -11  17 5070.21 710.096   1
  -4 -17  11 4773.53 615.086   4
  11   4  17 4570.82 717.908   1
  17   4  11 5131.32 767.985   1
  11  -4 -17 5157.61 664.382   3
 -17  11  -4 4954.95 700.196   2
  -4 -11  17 4508.12 688.014   1
  17  -4 -11 4113.04 617.568   3
   4  11  17 4188.44 629.456   1
   4  17  11 3525.64 623.756   2
 -11  17  -4 5228.61 768.815   2
  11   6  17 2265.90 526.981   1
  17   6  11 2123.70 539.282   1
  11  -6 -17 2829.70 487.948   3
  17  -6 -11 3171.19 537.651   3
   6  11  17 3739.83 605.390   1
 -11  17  -6 3686.23 615.357   2
  -6 -11  17 3765.50 674.424   1
  -6 -17  11 3669.68 572.412   4
  -8 -11  17 4453.14 796.518   1
  11   8  17 3953.94 672.995   1
  -8 -17  11 4232.65 622.960   4
  -7  12  17 1021.45 372.523   2
   7  17 -12 1330.11 422.823   3
  12  17  -7 284.435 244.616   3
  12 -17   7 1783.61 404.935   1
  -5  12  17 5695.71 793.265   2
  -5 -17 -12 5162.38 732.414   4
   5 -12  17 4756.56 741.995   1
   5  17 -12 5524.07 761.326   3
 -12   5  17 4475.39 660.106   2
  12  17  -5 5589.78 754.632   3
  12 -17   5 5396.85 687.621   1
   5 -17  12 4672.40 603.783   5
   3 -12  17 263.704 223.302   1
  12  17  -3 217.928 242.548   3
  12 -17   3-152.219 176.484   1
   3 -17  12 92.8372 137.973   5
  -3  12  17 199.998 229.601   2
 -12  17   1 3032.96 632.012   2
 -17  12   1 2778.77 555.908   2
  12   1 -17 2237.37 499.091   3
  17   1 -12 2676.55 573.160   3
  12  17  -1 3765.90 602.369   3
  12 -17   1 2716.16 483.963   1
  17  12  -1 3058.32 598.960   3
  17 -12   1 2367.46 533.545   1
   1 -12  17 3099.14 566.846   1
   1 -12  17 2544.92 538.224   5
   1 -17  12 2169.32 421.586   5
  -1  12  17 1971.93 467.124   1
  -1  17  12 3039.07 630.816   2
  -1  12  17 2195.18 461.042   2
 -12  17  -1 2525.29 551.930   2
  -1 -12  17 2520.77 517.217   1
 -17  12  -1 2070.15 466.075   2
  17   1  12 2089.75 533.006   1
  12  -1 -17 2447.87 513.001   3
  17  -1 -12 2270.37 492.733   3
  17 -12  -1 2969.14 590.016   1
  17  12   1 2762.11 577.345   3
   1  17  12 2158.22 499.996   2
   1  12  17 1895.94 434.925   2
  -1 -17  12 2406.93 457.162   5
   1  12  17 2423.78 501.413   1
 -12  17  -3 636.472 314.436   2
 -17  12  -3 359.320 254.659   2
  12  -3 -17-101.249 201.586   3
  17   3  12 101.890 242.481   1
  17  -3 -12-292.824 214.884   3
  17  12   3 396.695 264.754   3
   3  17  12 331.992 228.216   2
  -3 -12  17-160.595 200.814   1
  12   3  17 252.621 251.989   1
   3  12  17-204.178 226.683   1
 -17  12  -5 5529.78 731.940   2
  17   5  12 5177.96 782.063   1
  12  -5 -17 4293.20 618.167   3
  -5 -12  17 4804.79 709.773   1
  17  -5 -12 4556.36 656.695   3
  12   5  17 3727.13 669.025   1
 -12  17  -5 4795.03 738.126   2
  -5 -17  12 4927.72 629.042   4
  17   7  12 1209.26 353.435   1
  12   7  17 608.225 328.307   1
  -7 -17  12 725.807 304.801   4
  13  17  -6 5070.85 813.329   3
  13 -17   6 5040.48 677.770   1
  -4 -17 -13 1692.87 452.601   4
   4 -13  17 1684.59 454.256   1
 -13   4  17 1019.44 335.632   2
  13  17  -4 2184.02 467.859   3
  13 -17   4 870.039 318.746   1
   4 -17  13 1458.65 382.005   5
  -4  13  17 2100.92 499.508   2
   2 -13  17 4837.19 694.238   1
  13  17  -2 5132.41 740.844   3
  13 -17   2 3798.60 601.289   1
   2 -17  13 3644.53 576.694   5
  -2  13  17 5874.13 806.302   2
  13 -17   0 2814.35 496.705   1
  13  17   0 2363.38 495.990   3
   0 -13  17 2665.89 514.641   1
   0 -17  13 3072.09 536.504   5
   0  13  17 3427.56 595.825   2
 -13  17  -2 4917.69 771.098   2
  -2 -13  17 3888.81 600.788   1
 -17  13  -2 3823.24 668.363   2
  13  -2 -17 5688.64 745.295   3
  17  -2 -13 4209.80 673.552   3
  17  13   2 4502.76 742.122   3
   2  13  17 4589.06 658.426   2
 -13  17  -4 1729.10 459.445   2
 -17  13  -4 1669.84 484.219   2
  13  -4 -17 1575.12 395.068   3
  17  -4 -13 1960.26 464.651   3
  -4 -13  17 1730.83 451.445   1
  17   6  13 6037.65 842.604   1
   3 -14  17 4636.32 705.386   1
  14  17  -3 4501.58 698.318   3
  14 -17   3 4899.42 683.211   1
   3 -17  14 4897.28 677.295   5
  -3  14  17 4308.56 725.581   2
   1 -14  17 930.362 361.806   1
  14  17  -1 1592.25 441.263   3
  14 -17   1 890.494 328.566   1
   1 -17  14 843.279 325.225   5
  -1  14  17 1296.23 414.403   2
  -1 -14  17 1265.16 390.927   1
   1  14  17 1227.79 374.636   2
  -1 -17  14 1627.06 421.301   5
 -14  17  -3 6177.15 878.914   2
 -17  14  -3 3606.52 642.707   2
   0   0  18-54.3847 180.555   1
  18   0   0 12.3606 235.985   1
   0   0  18 183.759 223.356   5
   0  18   0-116.824 159.761   2
  -1   1  18 417.580 260.607   1
  18   1  -1 511.891 268.886   1
  18  -1   1 374.564 250.674   1
   1  18  -1 498.613 305.687   2
   1  -1  18 591.645 296.999   1
  -1   1  18 334.890 276.385   5
  -1  18   1 296.200 235.913   2
  -1  -1  18 407.934 264.512   1
  18  -1  -1 251.801 217.221   1
  18   1   1 500.360 284.302   1
   1  18   1 17.2438 176.395   2
  -1  -1  18 119.858 152.278   5
  -1  18  -1 43.2413 222.157   2
   1   1  18 353.023 219.695   1
   2  -2  18 80.9289 130.563   1
  18   2  -2 73.3399 188.607   1
   2  18  -2-61.3727 186.062   2
  18  -2   2 227.990 251.526   1
  -2   2  18 100.804 216.272   5
  -2  18   2-186.534 219.761   2
   0  -2  18 22760.9 1585.78   1
  -2 -18   0 22707.2 1512.09   4
  18   0  -2 20560.8 1504.73   1
  18   2   0 22351.8 1525.59   1
  18  -2   0 21773.9 1536.01   1
   0   2  18 24030.0 1635.50   1
  18   0   2 22147.8 1543.72   1
   2  18   0 25646.0 1643.64   2
   0  18  -2 23258.0 1558.84   2
   0  18   2 23605.4 1585.91   2
  -2  18   0 22547.2 1556.62   2
   0  -2  18 22594.6 1524.54   5
  -2   0  18 19603.3 1414.62   5
   2   0  18 21028.1 1537.55   1
  -2 -18   2-62.6565 141.737   4
  -2  -2  18 228.725 241.497   1
  18  -2  -2-32.8210 230.996   1
   2   2  18 25.9936 246.134   1
  18   2   2 216.517 232.969   1
   2  18   2 161.689 227.425   2
  -2  -2  18 21.4796 186.333   5
  -2  18  -2-235.280 230.328   2
  -3 -18  -3 3415.76 591.869   4
  18   3  -3 3724.46 683.614   3
  -3   3  18 3447.99 569.372   5
  18  -3   3 4319.79 705.613   1
   3  -3  18 3483.49 638.957   1
  -3  18   3 4272.08 692.939   2
   3  -1  18 1599.62 435.686   1
  -3 -18  -1 703.462 303.173   4
   1  -3  18 885.929 341.799   1
  18   3  -1 607.230 269.190   1
  -1   3  18 1226.64 389.995   1
  18   1  -3 1603.48 469.095   3
  18  -3   1-30.3419 187.767   1
   1  18  -3 1032.22 339.201   2
  -1   3  18 737.265 282.939   5
  -3   1  18 892.095 361.266   5
  18  -1   3 496.954 244.710   1
  -1  18   3 552.165 306.206   2
  -3  18   1 583.954 262.170   2
  -3 -18   1 928.709 328.137   4
   3   1  18 532.443 297.752   1
  -1 -18   3 971.776 333.311   4
   1   3  18 1199.95 377.387   1
  -1  -3  18 687.496 330.771   1
  18  -1  -3 366.011 255.260   1
  18  -3  -1 1103.27 387.876   1
  18  -1  -3 246.545 242.152   3
  18   3   1 974.477 321.015   1
   3  18   1 1167.01 353.840   2
  -1  18  -3 807.456 320.221   2
  -1  -3  18 239.351 232.985   5
   1  18   3 670.100 300.341   2
  18   1   3 1724.67 452.500   1
  -3  -1  18 842.221 303.019   5
  -3  18  -1 1125.79 378.543   2
  -3 -18   3 3527.64 587.185   4
  -3  -3  18 3572.88 650.928   1
   3   3  18 4684.59 730.536   1
  18  -3  -3 2906.24 579.537   1
  18  -3  -3 3957.64 631.652   3
   3  18   3 3508.27 626.354   2
  18   3   3 4142.79 659.448   1
  -3  -3  18 3270.14 589.560   5
  -3  18  -3 4204.77 641.413   2
  -4   4  18-145.388 179.845   2
  -4 -18  -4-408.860 247.093   4
   4  -4  18-406.498 261.540   1
  18   4  -4 413.008 288.805   3
  -4   4  18-198.452 210.181   5
  18  -4   4-122.678 190.630   1
  -4  18   4 99.9067 256.819   2
  -4 -18  -2 13646.1 1194.91   4
   4  -2  18 15580.0 1321.76   1
   2  -4  18 14372.5 1265.05   1
  18  -4   2 15157.9 1286.99   1
  18   2  -4 16156.8 1399.04   3
  18   4  -2 15789.9 1393.17   3
  18  -2   4 14819.4 1283.22   1
  -2  18   4 16228.9 1354.64   2
  -2   4  18 15413.2 1190.26   5
  -4   2  18 14986.8 1214.27   5
  -4  18   2 15439.6 1323.53   2
  -4 -18   0 98.7158 182.399   4
   0 -18   4 8.92831 145.325   4
   0   4  18-125.375 265.167   1
  18   4   0 126.669 215.732   1
  18   0  -4-530.971 284.567   3
   0  -4  18 488.547 315.225   1
  18  -4   0-225.206 249.985   1
   0  18  -4-108.792 241.870   2
   0   4  18-168.322 172.568   5
   0  -4  18-142.489 172.858   5
  -4   0  18-164.166 243.300   5
   0  18   4-134.465 248.865   2
   4   0  18 597.078 365.122   1
  18   0   4 310.492 248.008   1
  -4  18   0 172.607 234.497   2
  -4 -18   2 14387.6 1203.07   4
  -2 -18   4 14672.3 1195.49   4
  -2  -4  18 15696.2 1318.27   1
  18  -4  -2 15621.2 1295.17   1
   4   2  18 14899.7 1297.93   1
  18   4   2 16557.7 1273.29   1
  18  -2  -4 12832.2 1166.89   3
  18   2   4 13673.4 1202.49   1
   4  18   2 17342.5 1360.43   2
   2  18   4 13702.5 1205.14   2
  -2  18  -4 13254.5 1162.40   2
  -4  18  -2 16032.7 1286.60   2
  -2  -4  18 15215.8 1259.28   5
  -4  -2  18 14512.2 1230.14   5
   2   4  18 15278.1 1288.33   1
  -4 -18   4-16.6716 190.721   4
  18  -4  -4 172.069 179.910   3
   4  18   4 100.065 164.994   2
  18   4   4-168.542 232.184   1
  -4  -4  18 202.401 251.568   5
  -4  18  -4-141.017 217.216   2
   4   4  18 85.9569 236.602   1
  -5 -18  -5 8855.95 965.325   4
   5  18  -5 9291.67 781.822   3
  18   5  -5 9367.18 1088.61   3
  18  -5   5 9527.55 1047.64   1
  -5   5  18 7871.42 845.919   5
  -5  18   5 11286.8 1159.31   2
   5  -5  18 9897.16 1062.36   1
  -5   5  18 8862.65 796.543   2
  -3   5  18 857.250 245.035   2
   5  -3  18 475.171 279.499   1
  -5 -18  -3 958.653 340.970   4
  -5   3  18 753.802 224.174   2
   3  -5  18 809.309 340.483   1
  18   3  -5 687.714 307.218   3
  18   5  -3 629.485 293.533   3
  18  -5   3 1444.78 421.768   1
  -3   5  18 468.340 200.357   5
  -5   3  18 736.695 281.224   5
  -3  18   5 1263.50 447.013   2
  18  -3   5 618.199 321.546   1
  -5  18   3 952.504 344.898   2
   1  -5  18 4897.44 726.730   1
  -5 -18  -1 5974.61 770.285   4
   5  -1  18 4106.37 691.619   1
  18   5  -1 4727.24 661.272   1
  18   1  -5 4431.12 711.595   3
  18  -5   1 4566.28 700.117   1
   1  -5  18 5888.54 782.523   5
  -1   5  18 3828.96 602.339   5
  -5   1  18 4925.26 710.899   5
  -1  18   5 4254.93 683.531   2
  18  -1   5 6766.86 884.129   1
  -5  18   1 5002.02 753.823   2
  -5 -18   1 4389.62 682.617   4
  -1 -18   5 4143.11 632.729   4
   1   5  18 5368.52 766.841   1
   5   1  18 4796.78 738.444   1
  18  -1  -5 3776.89 633.353   3
  18  -5  -1 3751.21 630.885   1
  18   5   1 4381.00 646.979   1
  -1  18  -5 4445.93 644.309   2
  -1  -5  18 5433.94 734.773   5
   1  18   5 4858.19 739.362   2
  -5  -1  18 4722.75 693.538   5
  -1  -5  18 4853.37 730.268   1
  -5  18  -1 5245.99 753.621   2
  18   1   5 5035.82 739.505   1
  -5 -18   3 1162.13 365.685   4
  -3 -18   5 612.514 260.103   4
  -3  -5  18 1214.91 408.497   1
   3   5  18 516.590 287.400   1
  18  -5  -3 909.419 372.047   1
   5   3  18 1317.83 406.592   1
  18  -3  -5 700.411 311.801   3
  18  -5  -3 771.372 320.728   3
  18   5   3 650.477 275.056   1
   3  18   5 1194.19 361.623   2
  -3  18  -5 932.789 355.912   2
  -3  -5  18 710.925 306.347   5
  -5  -3  18 610.636 308.947   5
  18   3   5 920.626 396.526   1
  -5  18  -3 1001.77 333.552   2
  -5 -18   5 6350.31 806.596   4
   5   5  18 7890.64 944.368   1
  18  -5  -5 8754.84 901.348   3
  18   5   5 9261.50 945.204   1
  -5  18  -5 8675.13 912.797   2
  -5  -5  18 7215.09 895.658   5
  -6 -18  -6-285.130 217.228   4
  -6   6  18-22.6964 204.726   2
   6   6 -18-222.405 236.239   3
   6  18  -6-104.385 152.327   3
  18   6  -6-37.4343 261.337   3
   6  -6  18-117.756 228.035   1
  -6   6  18 232.288 209.291   5
 -18  -6  -6 184.337 201.910   4
  18  -6   6 39.9892 192.386   1
  -6  18   6-234.894 285.266   2
   4  -6  18 6766.64 864.839   1
  -6 -18  -4 8365.35 928.560   4
  -4   6  18 5531.69 628.304   2
  -4 -18  -6 6500.67 826.657   4
   6   4 -18 7342.90 852.548   3
   4  18  -6 6298.83 642.960   3
  -6   4  18 4830.11 579.239   2
  18   4  -6 5339.50 826.578   3
  18   6  -4 5505.31 841.004   3
   6  -4  18 4396.04 735.623   1
  -4   6  18 6323.46 747.491   5
  -6   4  18 6329.90 775.734   5
  18  -6   4 7528.63 924.735   1
 -18  -6  -4 4294.61 605.284   4
  -4  18   6 5687.84 846.816   2
  18  -4   6 5772.12 837.673   1
  -6  18   4 7016.78 945.504   2
  -6 -18  -2-98.4884 209.801   4
  -6   2  18-358.218 168.878   2
  18   2  -6 226.158 239.947   3
  18   6  -2 60.8021 217.316   3
   2  -6  18 20.9012 182.654   1
  18  -6   2 343.759 300.840   1
  -2   6  18 136.083 133.630   5
  -6   2  18 65.9938 159.473   5
 -18  -6  -2 180.368 213.954   4
  -2  18   6-453.314 256.174   2
   6  -2  18 60.7035 206.993   1
  -6  18   2 217.838 240.009   2
  18  -2   6 193.860 267.116   1
  -2   6  18-9.38521 140.919   2
  -6 -18   0 7814.59 911.832   4
   0 -18   6 9018.29 925.848   4
   0  -6  18 6868.61 876.350   1
  18   6   0 8644.99 880.007   1
  18  -6   0 7725.67 917.780   1
  18   0  -6 8779.23 985.915   3
   0   6  18 10300.5 1053.00   1
   0  18   6 9532.37 1024.41   2
   0   6  18 8727.51 863.936   5
   0  -6  18 8170.38 932.986   5
  -6  18   0 9773.08 1055.54   2
  -6   0  18 8842.20 963.467   5
  18   0   6 7641.52 933.668   1
   6   0  18 9279.85 1021.38   1
  -6 -18   2-256.492 253.346   4
  -2 -18   6-45.5500 193.346   4
   6   2  18-29.7067 176.949   1
  18  -6  -2-273.053 237.052   1
  18  -2  -6 365.111 262.991   3
  18   6   2-277.081 209.894   1
   2   6  18 38.5881 192.069   1
  -2  18  -6 9.10993 174.306   2
   2  18   6-182.514 261.696   2
  -2  -6  18-141.952 160.917   5
  -6  -2  18-41.7010 200.231   5
  -6  18  -2 151.983 235.009   2
  18   2   6-216.701 258.625   1
  -2  -6  18-119.822 191.116   1
  -6 -18   4 5763.61 774.174   4
  -4 -18   6 5668.81 753.710   4
   6   4  18 5016.93 770.950   1
  18  -4  -6 5659.48 723.719   3
  18  -6  -4 5404.06 717.193   3
   4  18   6 6866.69 861.260   2
  18   6   4 5005.09 694.182   1
  -4  18  -6 5677.35 746.779   2
  -4  -6  18 5998.90 800.694   5
  -6  -4  18 6551.51 855.942   5
  -4  -6  18 7050.95 900.244   1
  -6  18  -4 6270.71 802.765   2
  18   4   6 6841.72 838.784   1
   4   6  18 5116.13 730.597   1
  -6 -18   6-208.456 201.613   4
   6   6  18 526.353 327.187   1
  18  -6  -6-99.1043 142.311   3
  -6  18  -6 16.1141 166.510   2
  -6  -6  18 41.4560 206.311   5
  18   6   6 272.227 224.866   1
  -7 -18  -7 5836.22 802.725   4
  -7   7  18 4568.38 648.914   2
   7  18  -7 4619.32 628.267   3
 -18  -7  -7 5406.76 683.943   4
  -5   7  18 364.658 259.240   2
  -7 -18  -5 311.960 225.305   4
  -5 -18  -7 459.255 305.598   4
   7   5 -18 697.220 296.962   3
  -7   5  18 660.795 269.494   2
   5  18  -7 667.757 257.176   3
   7  18  -5 549.974 254.664   3
   7  -5  18 1260.76 433.419   1
  18   5  -7 543.591 374.346   3
  18   7  -5 479.383 335.944   3
   5  -7  18 947.558 387.325   1
  -5   7  18 725.657 255.502   5
  18  -7   5 1000.28 395.086   1
 -18  -7  -5 1006.62 316.644   4
  -5  18   7 719.526 348.275   2
  18  -5   7 710.645 323.380   1
  -7  18   5 933.290 408.916   2
  -7   3  18 6674.93 689.567   2
  -7 -18  -3 7244.07 889.405   4
   3  -7  18 5945.39 802.051   1
   7   3 -18 6017.07 773.705   3
  18   3  -7 6603.11 891.945   3
  18   7  -3 6139.01 904.274   3
   7  -3  18 5681.56 834.579   1
  -3   7  18 6288.36 712.366   5
  18  -7   3 5316.46 788.067   1
  -7   3  18 5054.62 713.102   5
  -3   7  18 6561.63 700.055   2
 -18  -7  -3 5465.33 691.337   4
  -3  18   7 6185.36 858.939   2
  -7  18   3 6688.41 908.464   2
  18  -3   7 6938.88 901.899   1
  -7 -18  -1 4939.17 726.488   4
   1 -18   7 4848.67 674.506   4
   7   1 -18 3980.99 624.810   3
  -7   1  18 3239.09 457.964   2
  18   1  -7 3823.77 654.100   3
  18   7  -1 5158.51 817.121   3
  18  -7   1 4143.87 692.569   1
   7  -1  18 4177.21 707.980   1
   1  -7  18 3805.99 629.519   5
  -1   7  18 4315.94 606.098   5
  -7   1  18 3964.59 652.747   5
   1  -7  18 4388.19 708.144   1
  -1  18   7 5244.10 776.597   2
 -18  -7  -1 3986.98 603.201   4
  -7  18   1 3632.52 666.702   2
  18  -1   7 5326.68 783.315   1
  -7 -18   1 4761.06 721.955   4
  -1 -18   7 3397.93 571.342   4
   1   7  18 3472.30 625.503   1
  -1  -7  18 4564.49 710.616   1
  18   7   1 4309.36 611.846   1
  18  -1  -7 3358.88 604.853   3
  18  -7  -1 3655.01 632.118   1
  -1  -7  18 5000.60 722.367   5
   1  18   7 4902.15 735.243   2
  -7  -1  18 4101.79 670.333   5
   7   1  18 5119.93 780.523   1
 -18  -7   1 3456.87 557.881   4
  -7  18  -1 4334.29 711.578   2
  18   1   7 3475.88 656.183   1
  -7 -18   3 6697.25 837.738   4
  -3 -18   7 5939.32 748.084   4
  -3  -7  18 6592.08 886.882   1
   3   7  18 6048.47 824.621   1
  18   7   3 6735.78 764.199   1
  18  -7  -3 5788.00 795.420   1
  18  -3  -7 6531.82 806.360   3
  18  -7  -3 5274.05 688.571   3
  -3  18  -7 5414.88 716.487   2
   3  18   7 7068.47 874.980   2
  -3  -7  18 6707.43 852.116   5
  -7  -3  18 6696.13 874.794   5
   7   3  18 5705.05 811.650   1
  -7  18  -3 7170.52 874.597   2
  18   3   7 4851.92 746.930   1
  -5  -7  18 715.421 334.762   1
  -7 -18   5 572.529 298.574   4
  -5 -18   7 170.946 183.813   4
   5   7  18 412.330 303.698   1
  18  -5  -7 210.566 216.803   3
  18  -7  -5 1077.59 372.107   3
   5  18   7 520.916 264.498   2
  18   7   5 49.6038 172.655   1
  -5  18  -7 408.993 236.372   2
  -5  -7  18 445.832 237.915   5
  -7  -5  18 930.277 382.361   5
  -7  18  -5 622.809 283.923   2
   7   5  18 378.398 296.651   1
  18   5   7 153.335 216.420   1
  -7 -18   7 4785.78 704.078   4
  18  -7  -7 3072.73 510.391   3
  -7  18  -7 3191.24 562.095   2
   7   7  18 5347.69 756.263   1
  18   7   7 4009.59 621.041   1
  -8   8  18-202.319 266.839   2
   8  18  -8-179.478 233.677   3
 -18  -8  -8-483.507 242.753   4
  -6   8  18 3103.82 537.737   2
  -6 -18  -8 3038.34 589.015   4
  -8   6  18 3377.56 549.699   2
   6  18  -8 3140.13 522.972   3
   8  18  -6 3193.98 525.582   3
   6  -8  18 2648.21 576.476   1
 -18  -8  -6 3579.97 586.877   4
  -8  18   4-731.720 339.633   2
  18  -4   8-38.9481 196.917   1
  -4   8  18-94.6057 182.569   2
  -8 -18  -4-354.905 245.620   4
  -4 -18  -8-78.8431 184.062   4
   4  18  -8-97.0288 182.972   3
   8   4 -18 35.4959 208.883   3
  -8   4  18-37.0868 109.483   2
   8  18  -4-104.027 165.519   3
   8  -4  18-49.8983 180.139   1
  18   4  -8-175.612 261.546   3
  18   8  -4 9.47181 230.320   3
   4  -8  18-75.5000 233.245   1
  18  -8   4 2.76864 160.055   1
  -4   8  18-285.631 209.719   5
 -18  -8  -4 422.397 255.404   4
  -4  18   8-143.211 285.351   2
  18  -2   8 2697.65 592.312   1
  -8 -18  -2 2905.38 581.902   4
   2 -18   8 2561.29 493.135   4
   8   2 -18 2518.51 522.434   3
  -8   2  18 2902.09 462.777   2
   2  -8  18 2976.09 564.196   1
   8  -2  18 3077.82 625.861   1
  18   2  -8 3253.26 611.521   3
  18   8  -2 2727.41 605.853   3
  18  -8   2 2320.05 536.704   1
   2  -8  18 2706.84 546.150   5
  -2   8  18 1997.23 425.008   5
  -2  18   8 3137.09 632.370   2
 -18  -8  -2 2582.56 512.784   4
  -2   8  18 3035.88 508.712   2
  -8  18   2 3719.47 684.963   2
  18   0   8-34.6009 167.566   1
  -8 -18   0-394.420 246.640   4
   0 -18   8-79.7309 153.251   4
   0   8  18-5.22867 222.395   1
   8   0 -18 24.4695 192.422   3
  18   0  -8-41.4555 184.690   3
   8   0  18-206.245 295.497   1
  18   8   0 119.848 240.997   3
  18  -8   0-163.089 253.105   1
   0   8  18-90.3343 132.989   5
   0  -8  18 171.234 187.916   5
   0  18   8 418.641 195.838   2
 -18  -8   0 144.378 187.463   4
   0  -8  18 344.486 254.992   1
  -8  18   0-223.293 254.269   2
  18   2   8 3002.75 590.470   1
  -8 -18   2 3852.85 648.671   4
  -2 -18   8 2765.02 505.400   4
   8  -2 -18 3451.35 567.077   3
  -2  -8  18 3322.89 602.390   1
  18  -8  -2 2630.96 553.066   1
  18  -2  -8 2151.01 499.553   3
  18   8   2 2268.23 442.136   1
   2   8  18 3510.75 620.123   1
   8   2  18 3596.66 657.498   1
   2  18   8 3636.89 607.870   2
  -2  -8  18 3886.36 652.890   5
 -18  -8   2 2059.99 455.696   4
  -8  18  -2 2899.15 590.987   2
  -8 -18   4 28.3760 210.183   4
  -4 -18   8 314.653 232.459   4
  -4  -8  18-239.081 303.097   1
  18  -4  -8-15.7513 176.706   3
  18  -8  -4-229.301 256.568   3
   8   4  18 278.124 282.221   1
  18   8   4 131.861 164.076   1
  -4  18  -8-71.7556 175.844   2
   4  18   8-330.986 288.111   2
  -4  -8  18-38.1528 173.263   5
   4   8  18 10.0525 206.410   1
  -8  18  -4-217.306 259.745   2
  18   4   8-406.909 219.061   1
  -8 -18   6 3275.44 584.268   4
  -6 -18   8 2590.41 501.863   4
   6   8  18 3002.94 579.762   1
  -6  -8  18 3312.30 670.045   1
 -18   8  -6 3822.22 572.691   2
  18  -6  -8 3479.30 562.478   3
  18  -8  -6 3719.21 558.128   3
   8   6  18 2752.23 580.822   1
  18   8   6 3193.78 531.892   1
  -8  18  -6 2706.08 527.241   2
  18   6   8 3370.84 637.110   1
  -8 -18   8 300.061 201.212   4
   8   8  18-139.407 235.306   1
  -9   9  18 227.242 225.673   2
 -18  -9  -9 767.579 306.345   4
  -7   9  18 225.362 230.300   2
  -9   7  18 365.461 290.454   2
   7  18  -9 1116.81 381.957   3
   9  18  -7 858.532 303.544   3
 -18  -7  -9 842.141 307.947   4
 -18  -9  -7 279.338 226.243   4
  -5   9  18 5064.96 683.462   2
  -5 -18  -9 4623.34 709.535   4
   5  18  -9 3649.49 575.826   3
  -9   5  18 3441.91 556.274   2
   9  18  -5 4009.99 596.542   3
   5  -9  18 3872.18 681.110   1
 -18  -9  -5 5298.65 721.841   4
  -9  18   3 5941.65 888.045   2
  18  -3   9 5311.29 832.778   1
   3 -18   9 4523.22 634.730   4
   9   3 -18 5298.16 750.205   3
  -9   3  18 5379.92 655.536   2
  18   3  -9 4771.14 766.563   3
  18   9  -3 3521.19 693.370   3
  18  -9   3 5552.90 811.458   1
   3  -9  18 4928.88 731.108   5
   3  -9  18 5066.03 756.011   1
  -3  18   9 4691.56 763.029   2
 -18  -9  -3 4541.90 680.081   4
  -3   9  18 5299.83 674.422   2
  -9 -18  -1 7181.11 894.541   4
  18  -1   9 5049.92 797.883   1
   1 -18   9 5748.81 716.690   4
  -1   9  18 6443.61 852.226   1
  -9   1  18 6685.79 698.986   2
   9   1 -18 6274.61 785.793   3
   1  -9  18 7125.97 886.857   1
   9  -1  18 6907.90 908.770   1
  18   1  -9 5933.03 834.738   3
  18   9  -1 8232.14 1009.56   3
  18  -9   1 7981.00 935.226   1
   1  -9  18 7414.24 906.680   5
  -1   9  18 7083.86 735.475   5
  -1   9  18 8088.44 798.763   2
 -18  -9  -1 7074.31 837.823   4
  -1  18   9 5272.15 804.674   2
  -9  18   1 5906.27 852.511   2
  -9 -18   1 6657.46 861.391   4
  18   1   9 6414.04 879.297   1
  -1 -18   9 5889.67 716.823   4
   1   9  18 7880.16 917.098   1
   9  -1 -18 5743.84 757.791   3
 -18   9  -1 5608.42 738.139   2
  18  -1  -9 7323.89 870.772   3
   9   1  18 6282.89 890.578   1
  18  -9  -1 6900.11 864.551   1
  18   9   1 4968.90 795.504   3
   1   9  18 5388.79 653.283   5
  -1  -9  18 7410.35 894.946   5
   1  18   9 5923.48 813.025   2
 -18  -9   1 5521.49 741.461   4
  -1  -9  18 5476.44 777.277   1
  -9  18  -1 6296.11 858.701   2
  -9 -18   3 4674.35 730.306   4
  18   3   9 4553.59 732.137   1
  -3 -18   9 4255.57 626.963   4
   3   9  18 4776.80 717.117   1
   9  -3 -18 5076.12 671.892   3
 -18   9  -3 5402.29 716.085   2
   9   3  18 4257.90 704.389   1
  18  -9  -3 5008.20 745.060   1
  18  -3  -9 5856.09 769.626   3
  -3  -9  18 5191.42 761.305   1
  18  -9  -3 5181.56 656.550   3
   3  18   9 4858.64 736.304   2
  -3  -9  18 4207.63 702.898   5
  -9  18  -3 4670.91 747.098   2
  18   5   9 4055.76 668.780   1
  -9 -18   5 3076.78 576.593   4
  -5 -18   9 3710.27 584.373   4
  -5  -9  18 3886.44 714.548   1
 -18   9  -5 3837.41 586.030   2
   5   9  18 4011.66 654.489   1
   9   5  18 4095.54 693.773   1
  18  -5  -9 3618.17 599.505   3
  18  -9  -5 3709.53 534.842   3
  -9  18  -5 3654.03 634.787   2
  -7 -18   9 565.297 305.942   4
  -7  -9  18 602.776 341.380   1
   9   7  18 558.350 282.084   1
  18  -7  -9 763.937 301.550   3
   7   9  18 1226.74 388.353   1
  18   7   9 470.771 320.330   1
   9   9  18 1041.68 370.569   1
  -8  10  18 1431.32 400.568   2
 -10   8  18 1607.30 417.220   2
   8  18 -10 3559.81 639.565   3
  10  18  -8 3499.97 616.441   3
  -6  10  18-252.632 241.448   2
   6  18 -10 115.068 230.321   3
 -10   6  18-15.8657 164.857   2
  10  18  -6-439.224 215.559   3
 -18 -10  -6-161.287 223.144   4
  -4 -18 -10 1745.11 464.440   4
 -10   4  18 1329.91 381.029   2
   4 -10  18 435.841 316.436   1
 -18 -10  -4 1270.21 405.106   4
  -4  10  18 1073.07 358.215   2
 -10  18   2 287.680 281.715   2
   2 -18  10 185.623 209.589   4
  10   2 -18 91.0572 176.475   3
 -18  10   2 162.059 283.889   2
 -10   2  18 40.1904 120.184   2
   2 -10  18 125.077 169.157   1
  -2  10  18-589.021 261.135   2
 -10  18   0 361.293 277.352   2
   0 -18  10 201.157 196.537   4
  18   0  10 365.957 296.209   1
  10   0 -18 241.918 189.302   3
 -18  10   0 506.202 263.007   2
   0 -10  18 335.977 224.774   1
  18   0 -10 506.936 302.881   3
  18  10   0 432.172 312.844   3
   0  10  18-88.1131 174.887   1
  -2 -18  10 107.005 188.459   4
  18   2  10 185.670 228.070   1
  10  -2 -18-699.465 290.856   3
  10   2  18 86.4542 255.384   1
 -18  10  -2-451.555 253.527   2
  18  -2 -10-26.9688 204.661   3
   2  10  18 227.588 205.713   1
   2  18  10-40.8967 274.233   2
  -2 -10  18-49.7563 229.753   1
 -10  18  -2 463.358 295.245   2
  -4 -18  10 453.497 242.714   4
  18   4  10 836.093 342.316   1
  10  -4 -18 1419.83 371.317   3
  10   4  18 838.563 376.332   1
 -18  10  -4 1063.88 350.882   2
  18  -4 -10 946.534 332.191   3
  -4 -10  18 1564.54 442.207   1
   4  10  18 1045.89 388.032   1
 -10  18  -4 1519.87 460.989   2
  -6 -18  10 22.6582 221.074   4
  18   6  10 66.1381 177.231   1
  10   6  18-114.813 244.138   1
  -6 -10  18-536.660 347.781   1
  18  -6 -10-55.6574 184.190   3
 -10  18  -6 2.50811 212.044   2
   6  10  18 99.7078 207.626   1
  10   8  18 3100.58 598.333   1
   8  10  18 2652.67 540.526   1
  -8 -10  18 2494.44 664.486   1
  -8 -18  10 2427.00 521.819   4
  -7  11  18 209.180 283.024   2
   7  18 -11 492.156 268.831   3
 -11   7  18 981.194 348.259   2
  11  18  -7 335.866 213.706   3
  -5  11  18 4571.87 705.630   2
   5  18 -11 4652.99 693.057   3
 -11   5  18 4763.35 659.935   2
  11  18  -5 3052.89 555.074   3
 -11   3  18 3835.27 582.331   2
   3 -11  18 3667.59 647.796   1
  -3  11  18 4630.83 685.449   2
  -1  11  18 6825.62 862.383   1
 -18  11   1 6166.90 800.611   2
   1 -18  11 5925.42 678.557   5
  -1  11  18 7304.51 828.552   2
   1 -11  18 5565.69 787.697   1
 -11  18  -1 5727.11 860.477   2
  11  -1 -18 6367.09 794.002   3
 -18  11  -1 5907.35 801.562   2
  -1 -11  18 5732.34 778.580   1
  18  -1 -11 5770.25 793.667   3
   1  11  18 7729.23 905.254   1
  -3 -18  11 3745.63 553.291   4
  18   3  11 3851.10 702.373   1
  11  -3 -18 3992.04 619.241   3
 -18  11  -3 3939.33 649.680   2
  18  -3 -11 3158.18 565.631   3
  -3 -11  18 3367.57 628.558   1
 -11  18  -3 2816.45 620.055   2
   3  11  18 4266.49 659.964   1
  -5 -18  11 3985.84 602.940   4
  18   5  11 4550.27 768.663   1
   5  11  18 3958.07 648.798   1
  11  -5 -18 3271.76 542.547   3
 -18  11  -5 4387.45 659.540   2
  18  -5 -11 4633.60 666.666   3
  -5 -11  18 4051.36 728.965   1
 -11  18  -5 3909.29 676.451   2
  18   7  11 519.101 313.512   1
  -7 -11  18 657.406 305.270   1
  -7 -18  11 989.152 340.759   4
 -12   4  18 263.190 230.477   2
  -4  12  18-254.521 217.793   2
   2 -12  18 859.545 346.381   1
  -2  12  18 754.016 297.989   2
   0  12  18 25.5500 169.480   1
   0 -18  12 169.751 132.445   5
   0 -12  18 346.058 271.592   1
 -12  18  -2 632.055 329.724   2
   2  12  18 1444.55 431.903   1
  12  -2 -18 1142.19 389.098   3
 -18  12  -2 1057.88 372.061   2
  -2 -12  18 574.031 289.866   1
  12  -4 -18 38.1468 171.654   3
 -18  12  -4-585.084 265.418   2
  18  -4 -12-23.9837 187.691   3
  -4 -12  18 302.076 285.575   1
 -12  18  -4 157.525 229.584   2
  -3  13  18 5677.59 801.423   2
   1 -13  18 2449.71 545.661   1
   1 -18  13 1892.91 443.569   5
  -1 -13  18 3566.01 601.759   1
  -3 -13  18 4719.65 693.098   1
   0   1  19-345.209 259.361   1
  19   0  -1 421.973 326.732   1
  19   1   0 5.29790 174.462   1
  19  -1   0-188.614 221.751   1
  19   0   1-222.855 291.794   1
   1   0  19 30.6327 189.964   1
   1  19   0 195.558 226.546   2
   0  19  -1 252.594 197.201   2
   0   1  19 74.3713 186.976   5
   0  -1  19 217.402 240.296   5
  -1   0  19-150.497 188.740   5
   0  19   1-10.4846 172.666   2
  -1  19   0-207.438 286.093   2
  -1   0  19-321.076 252.511   1
   0  -1  19 317.243 241.214   1
  -2 -19  -1 1952.17 462.121   4
   2  -1  19 1796.87 476.037   1
  -2   1  19 2012.22 530.108   1
   1  -2  19 1965.07 514.192   1
  19   1  -2 1830.18 484.979   1
  19   2  -1 1295.78 418.459   1
  19   1  -2 1064.28 462.827   3
  19  -2   1 1880.52 498.026   1
   2  19  -1 1539.20 453.823   2
  -1   2  19 1361.73 413.548   1
   1  19  -2 1206.06 376.645   2
  19  -1   2 945.783 351.348   1
  -1   2  19 1225.43 388.034   5
  -2   1  19 1564.23 412.082   5
  -1  19   2 1773.24 479.330   2
  -2  19   1 1498.56 443.659   2
  -2 -19   1 1514.76 412.753   4
  -1 -19   2 1200.98 387.644   4
  -1  -2  19 1399.37 445.510   1
   2   1  19 1724.49 490.419   1
  19  -1  -2 1307.19 394.633   1
  19  -2  -1 1866.91 489.418   1
  19   2   1 1296.59 433.374   1
  19   1   2 806.003 351.914   1
   2  19   1 1255.42 401.429   2
   1  19   2 1192.25 410.434   2
  -1  19  -2 825.039 336.491   2
  -1  -2  19 1458.59 409.823   5
  -2  -1  19 331.177 246.516   5
  -2  19  -1 1270.06 384.201   2
   1   2  19 1676.37 457.920   1
  -2  -1  19 707.798 369.143   1
   2  -3  19 437.281 266.124   1
  -3 -19  -2 233.188 283.761   4
  19   2  -3 225.801 203.190   3
  19   3  -2 184.403 265.448   3
  19  -3   2 769.539 369.456   1
  19  -2   3-267.203 279.460   1
  -2   3  19 45.0966 191.373   5
  -3   2  19 17.1024 161.722   5
  -2  19   3 406.555 301.922   2
   3  -2  19 53.6294 232.355   1
  -3  19   2 152.642 241.215   2
  -3 -19   0 2488.82 531.152   4
   0 -19   3 2808.03 548.872   4
  19   3   0 2959.16 574.145   1
  19   0  -3 2425.59 550.318   3
  19  -3   0 1540.45 438.323   1
   0  -3  19 2526.84 545.435   1
   3  19   0 1930.33 473.422   2
   0   3  19 2287.51 547.411   1
   0  19  -3 1783.85 456.567   2
  19   0   3 2615.24 574.322   1
   0   3  19 2251.24 486.437   5
   0  -3  19 2004.49 489.354   5
   0  19   3 3041.87 604.003   2
  -3   0  19 2626.32 532.074   5
  -3  19   0 2259.69 512.096   2
   3   0  19 2651.00 569.203   1
   3   2  19 471.463 232.552   1
  -3 -19   2 258.807 238.860   4
  -2 -19   3-9.85742 197.994   4
  19  -2  -3-33.0855 201.947   1
  19  -3  -2 298.874 258.450   1
   2   3  19 50.1522 215.125   1
  19  -2  -3-201.658 280.812   3
  19   3   2 61.6675 199.789   1
   3  19   2-163.384 298.195   2
  19   2   3 132.538 204.149   1
   2  19   3 256.054 256.079   2
  -3  -2  19-2.86572 195.488   1
  -2  19  -3-7.56157 190.712   2
  -2  -3  19 149.399 210.571   5
  -3  -2  19 203.353 229.460   5
  -2  -3  19 189.402 298.061   1
  -3  19  -2 130.565 199.329   2
  -4 -19  -3 2625.78 536.779   4
  -3 -19  -4 3882.99 653.132   4
   4  -3  19 2958.36 609.159   1
   3  -4  19 3970.37 700.826   1
  19   3  -4 3357.18 662.210   3
  19   4  -3 1978.03 494.936   3
  19  -4   3 2128.92 529.418   1
  -3   4  19 3501.25 596.603   5
  -4   3  19 2370.17 497.880   5
  19  -3   4 3391.13 643.808   1
  -3  19   4 2791.22 594.496   2
  -4  19   3 2844.41 635.203   2
  -4 -19  -1 286.095 248.218   4
  -1   4  19 90.6699 224.420   1
   1  -4  19-67.0573 236.031   1
  19   4  -1-266.771 238.314   1
   4  -1  19 79.8428 188.001   1
  19   1  -4 176.789 272.796   3
  19  -4   1-143.233 228.032   1
   1  -4  19 80.0768 161.923   5
  -1   4  19 122.922 165.443   5
  -4   1  19 265.956 276.592   5
  19  -1   4-44.8841 175.880   1
  -1  19   4-170.390 243.603   2
  -4  19   1-254.475 299.136   2
   1   4  19 306.514 250.554   1
  -4 -19   1 33.2467 162.276   4
  -1 -19   4-176.441 186.088   4
  19  -4  -1 13.6774 220.613   1
  19  -1  -4 162.492 189.494   3
  19   4   1 201.231 201.080   1
  -1  19  -4 185.148 245.586   2
   1  19   4-24.2013 215.135   2
  -1  -4  19-164.389 234.682   5
  19   1   4 125.709 241.871   1
  -4  -1  19 222.253 279.349   5
   4   1  19 594.972 348.426   1
  -4  19  -1-69.4459 217.123   2
  -1  -4  19-101.174 195.152   1
  -4 -19   3 3439.98 616.434   4
  -3 -19   4 2487.94 530.366   4
   3   4  19 3961.17 663.518   1
  -3  -4  19 3258.86 632.197   1
  19  -4  -3 3301.51 642.463   1
  19  -3  -4 2326.69 504.145   3
  19  -4  -3 2663.81 552.246   3
   4  19   3 3074.36 624.743   2
  19   4   3 3610.49 615.506   1
   3  19   4 4276.52 695.592   2
  19   3   4 2182.12 507.516   1
  -3  19  -4 3585.54 628.016   2
  -3  -4  19 2701.00 578.373   5
  -4  -3  19 3047.74 590.087   5
  -4  19  -3 3101.49 575.812   2
   4   3  19 3411.56 634.363   1
   4  -5  19 1145.54 413.562   1
  -5 -19  -4 574.335 299.326   4
  -4 -19  -5 914.808 356.726   4
  19   4  -5 1215.39 464.272   3
  19   5  -4 1061.57 428.710   3
  19  -5   4 1175.70 382.008   1
  -4   5  19 1217.28 367.850   5
  -5   4  19 1392.76 388.770   5
  19  -4   5 1240.08 440.660   1
  -4  19   5 1671.39 478.583   2
  -5  19   4 1348.19 447.716   2
   5  -4  19 1634.80 458.791   1
   5  -2  19 4793.92 770.213   1
  -5 -19  -2 4791.69 711.652   4
  19   2  -5 4693.75 760.999   3
  19   5  -2 4852.58 811.019   3
  19  -5   2 4301.90 729.266   1
  -2   5  19 3665.47 580.998   5
  -5   2  19 3950.95 652.390   5
   2  -5  19 4987.34 765.815   1
  -2  19   5 5514.84 812.915   2
  19  -2   5 5393.19 806.225   1
  -5  19   2 4547.21 751.703   2
  -5 -19   0 1721.81 467.271   4
   0 -19   5 1561.78 420.826   4
   5   0  19 991.268 387.622   1
   0  -5  19 1550.98 451.689   1
  19   5   0 1107.18 375.739   1
  19   0  -5 1337.26 445.542   3
  19  -5   0 1005.05 334.520   1
   0   5  19 1348.43 401.098   5
   0  -5  19 1306.63 411.161   5
   0   5  19 888.286 337.822   1
   0  19   5 1667.25 463.175   2
  -5   0  19 526.201 279.459   5
  19   0   5 661.876 346.093   1
  -5  19   0 1510.48 445.168   2
  -2  -5  19 4283.55 721.204   1
  -5 -19   2 3462.26 614.173   4
  -2 -19   5 4720.17 700.812   4
   5   2  19 4754.59 751.052   1
  19  -5  -2 4579.87 729.603   1
   2   5  19 4315.46 725.685   1
  19  -2  -5 4092.24 663.739   3
  19   5   2 4710.94 700.070   1
  -2  19  -5 4744.12 700.679   2
   2  19   5 4419.71 715.034   2
  -2  -5  19 4505.03 730.536   5
  -5  -2  19 5219.33 774.115   5
  19   2   5 3629.04 660.215   1
  -5  19  -2 5303.06 773.100   2
  -5 -19   4 1378.70 409.715   4
  -4 -19   5 1538.52 408.689   4
   5   4  19 2312.62 534.046   1
  19  -4  -5 1395.87 403.453   3
  19  -5  -4 1067.82 346.866   3
   4  19   5 1828.18 487.959   2
  19   5   4 911.852 364.241   1
  -4  19  -5 1210.94 380.682   2
  19   4   5 959.598 360.799   1
  -4  -5  19 1823.52 469.372   5
  -5  -4  19 1850.67 509.482   5
  -5  19  -4 1831.84 455.103   2
   4   5  19 869.073 380.852   1
  -4  -5  19 1260.45 444.355   1
  -5   6  19 4782.29 673.379   5
  -6   5  19 3971.08 634.465   5
  -6 -19  -3 317.949 236.957   4
  -3 -19  -6 346.171 261.640   4
   3  -6  19 73.6418 205.532   1
  19   3  -6-142.913 205.081   3
  19   6  -3 46.1355 257.093   3
  19  -6   3 155.096 259.131   1
  -3   6  19-490.830 247.833   5
  -6   3  19 90.0795 257.786   5
   6  -3  19-186.966 195.221   1
  -3  19   6-247.436 246.402   2
  19  -3   6 381.032 267.370   1
  -6  19   3 343.235 263.284   2
  -6 -19  -1 1186.17 417.823   4
   1 -19   6 421.672 289.375   4
  -1   6  19 1646.54 463.853   1
  19   1  -6 1176.95 421.274   3
  19   6  -1 1216.78 458.916   3
  19  -6   1 1198.39 444.635   1
   1  -6  19 1523.16 407.425   5
  -1   6  19 1175.41 362.647   5
  -6   1  19 882.460 337.679   5
  -1  19   6 666.486 331.554   2
  19  -1   6 1114.49 450.384   1
   1  -6  19 1330.72 422.371   1
  -6  19   1 1650.05 497.591   2
   6  -1  19 732.466 370.311   1
   1   6  19 786.705 350.099   1
   6   1  19 1096.96 368.651   1
  -6 -19   1 919.409 354.269   4
  -1 -19   6 956.664 311.815   4
  -1  -6  19 585.605 304.955   1
  19   6   1 1100.46 373.701   1
  19  -1  -6 710.842 311.289   3
  19  -6  -1 487.833 300.565   1
   1  19   6 1312.30 437.193   2
  -1  -6  19 1315.45 432.864   5
  -6  -1  19 739.276 324.508   5
  -6  19  -1 424.635 294.389   2
  19   1   6 433.913 280.142   1
  -6 -19   3 214.313 199.733   4
  -3 -19   6 252.566 232.865   4
   6   3  19 157.828 203.636   1
   3   6  19 333.358 247.739   1
  -3  -6  19 247.479 318.380   1
  19  -6  -3 19.5802 249.785   1
  19  -3  -6 526.407 236.028   3
  19  -6  -3-47.2164 206.011   3
  19   6   3-35.1431 165.077   1
   3  19   6-104.145 223.858   2
  -3  19  -6 559.302 329.822   2
  -3  -6  19 324.696 224.671   5
  -6  -3  19 236.157 207.298   5
  -6  19  -3-82.3748 183.258   2
  19   3   6-414.605 265.883   1
  -6 -19   5 3181.97 583.531   4
  -5 -19   6 2406.66 556.910   4
   6   5  19 3313.83 633.135   1
  -5  -6  19 3279.92 682.380   1
   5   6  19 3973.53 681.976   1
  19  -5  -6 3535.38 611.608   3
  19  -6  -5 3808.51 612.507   3
  19   6   5 4270.38 667.679   1
  -5  19  -6 4590.23 692.819   2
  -6  19  -5 3559.17 635.920   2
  19   5   6 3884.89 621.982   1
 -19  -7  -6 2325.64 454.452   4
  -4   7  19 5236.81 673.834   5
 -19  -7  -4 5801.75 737.000   4
   2 -19   7 2473.49 491.593   4
   2  -7  19 2162.88 541.216   1
  19   2  -7 1554.86 469.412   3
  -2   7  19 2880.47 542.489   5
  -7   2  19 2367.05 532.375   5
  -7  19   2 1790.39 514.458   2
  19  -2   7 2011.45 554.052   1
  -7 -19   0 6513.92 852.273   4
   0 -19   7 6488.63 794.076   4
  19   0  -7 7301.26 914.302   3
  19  -7   0 6925.69 911.376   1
  19   7   0 6687.80 944.851   3
   0   7  19 5730.24 710.600   5
   0   7  19 6011.75 833.729   1
   0  -7  19 5951.92 829.504   5
   7   0  19 6910.72 920.820   1
   0  19   7 6712.40 888.470   2
  -7   0  19 4921.63 768.804   5
  -7  19   0 5040.30 816.011   2
  19   0   7 6285.42 883.045   1
   0  -7  19 5001.84 762.257   1
  -7 -19   2 3154.64 599.405   4
  -2 -19   7 1820.64 455.668   4
  19  -2  -7 1999.53 460.051   3
   2   7  19 2440.01 540.845   1
  -2  -7  19 1519.69 462.359   1
  19   7   2 2372.07 479.260   1
  -7  -2  19 1405.43 419.812   5
   7   2  19 2884.93 611.651   1
  -7  19  -2 2811.36 613.466   2
  19   2   7 2167.63 518.318   1
  -7 -19   4 5418.04 787.834   4
  -4 -19   7 6558.36 829.235   4
  -4  -7  19 8424.12 1032.11   1
  19  -4  -7 5617.97 754.381   3
  19  -7  -4 5610.61 728.785   3
  19   7   4 6808.92 807.596   1
  -4  19  -7 6112.09 785.755   2
   4   7  19 7241.85 895.462   1
  -7  19  -4 6182.23 818.807   2
   7   4  19 4589.49 761.378   1
  19   4   7 5253.43 776.788   1
  -7 -19   6 3389.29 611.331   4
  -6 -19   7 2850.56 567.640   4
   6   7  19 2175.58 535.006   1
  19  -6  -7 2692.46 524.485   3
  19  -7  -6 1297.05 392.236   3
  19   7   6 3109.03 563.242   1
  -6  19  -7 3133.05 565.344   2
  -7  19  -6 2399.98 521.071   2
   7   6  19 3286.76 628.618   1
  19   6   7 1816.56 469.749   1
  -8   7  19 4422.12 666.022   2
 -19  -8  -7 5618.16 739.865   4
 -19  -8  -5 763.946 303.582   4
   3 -19   8 2484.76 486.764   4
 -19  -8  -3 2673.34 532.769   4
  -1   8  19 311.971 249.089   1
   1 -19   8-348.976 216.395   4
   8   1 -19-12.2247 227.140   3
   1  -8  19 61.3589 245.998   1
  19   1  -8 556.184 291.090   3
  -1   8  19-415.499 213.782   5
  -8  19   1 71.7894 267.001   2
  19  -1   8 322.266 299.914   1
  -1  -8  19 594.811 317.155   1
  -1 -19   8 375.385 234.658   4
  19   8   1-534.305 245.045   1
  19  -1  -8-238.518 199.063   3
   1   8  19-189.053 176.385   5
  -8  19  -1 196.098 199.801   2
   1   8  19 367.432 245.303   1
  19   1   8 30.3218 202.932   1
  -3 -19   8 3326.62 574.386   4
   3   8  19 3372.06 632.809   1
  19  -3  -8 3075.62 573.948   3
  19   8   3 3263.02 534.323   1
  19  -8  -3 1605.35 393.904   3
  -3  -8  19 1440.31 466.390   1
   8   3  19 2758.46 604.498   1
  -8  19  -3 2599.93 583.636   2
  19   3   8 3197.76 628.969   1
  -5 -19   8 1118.23 377.124   4
 -19   8  -5 798.126 339.031   2
   5   8  19 1220.05 374.467   1
  -5  -8  19 2088.96 547.847   1
  19  -5  -8 1111.51 365.785   3
  19  -8  -5 1320.78 378.097   3
   8   5  19 698.174 360.036   1
  -8  19  -5 756.927 373.943   2
  19   5   8 1999.21 496.316   1
  19  -7  -8 4336.26 637.280   3
   8   7  19 3864.39 694.205   1
   7   8  19 3526.18 630.360   1
  19   7   8 2596.07 546.264   1
  -9   6  19 5302.40 716.203   2
   2 -19   9 4217.85 619.725   4
   0 -19   9 4647.12 679.766   4
   9   0 -19 4800.73 705.132   3
   0  -9  19 4069.86 693.086   1
   0   9  19 4872.45 759.079   1
  -9  19   0 4276.62 744.595   2
  19   2   9 3428.06 659.501   1
  -2 -19   9 5149.77 705.730   4
  -2  -9  19 5396.33 803.611   1
   9  -2 -19 3475.76 596.901   3
 -19   9  -2 4101.94 646.722   2
   2   9  19 5067.39 757.578   1
  19  -2  -9 3611.62 632.121   3
  19  -9  -2 4711.07 661.574   3
  -9  19  -2 5012.51 803.909   2
  -4 -19   9 4659.63 672.067   4
 -19   9  -4 3116.32 575.503   2
  19  -4  -9 3969.75 648.508   3
  -4  -9  19 4211.38 737.111   1
   4   9  19 4112.19 662.596   1
  -9  19  -4 4054.16 670.756   2
  19   4   9 3056.54 616.884   1
  -6 -19   9 4852.37 711.574   4
  19  -6  -9 4148.86 628.216   3
  19   6   9 4224.14 713.524   1
   6   9  19 4914.59 751.834   1
  -1  10  19 930.936 370.046   1
  -1 -19  10 476.245 273.858   4
   1  10  19 790.296 369.229   1
  -3 -19  10-116.344 270.430   4
  10  -3 -19 339.221 266.651   3
 -19  10  -3 42.6052 191.457   2
  19  -3 -10-625.099 285.330   3
 -10  19  -3 32.4833 204.673   2
   3  10  19-114.100 195.781   1
  19   5  10 4083.72 719.849   1
  -5 -19  10 3303.93 584.992   4
   5  10  19 3449.33 620.475   1
  19  -5 -10 4145.93 638.308   3
 -10  19  -5 4378.68 699.078   2
  -2  11  19 4980.73 806.863   1
   0  11  19 1800.82 478.069   1
   2  11  19 4910.48 770.677   1
  11  -4 -19 3921.37 632.330   3
 -11  19  -4 4711.07 794.123   2
   0   0  20 21646.4 1652.76   1
  20   0   0 20403.3 1597.73   1
   0  20   0 22726.9 1642.05   2
   0   0  20 20615.3 1557.39   5
   1  -1  20-238.615 232.865   1
  20   1  -1 348.032 260.218   1
  20  -1   1 271.836 234.355   1
   1  20  -1-226.432 305.078   2
  -1   1  20 505.822 273.792   1
   1  -1  20 301.257 300.129   5
  -1   1  20 162.270 201.178   5
  -1  20   1 274.560 271.749   2
  -1 -20   1-107.230 185.968   4
  -1  -1  20-573.381 334.841   1
  20  -1  -1 195.995 202.139   1
   1   1  20-238.294 245.788   1
  20   1   1-102.935 228.393   1
   1  20   1 94.9967 221.324   2
   1   1  20 243.204 171.384   5
  -1  20  -1 115.451 283.617   2
  -1  -1  20 357.560 277.674   5
  -2 -20  -2 19419.8 1498.86   4
  20  -2   2 20175.0 1598.67   1
   2  -2  20 19186.6 1552.11   1
  20   2  -2 21406.2 1720.89   3
  -2  20   2 20924.2 1591.84   2
  -2   2  20 19257.5 1570.67   1
  -2   2  20 16652.7 1364.19   5
   0   2  20 581.826 299.959   1
  -2 -20   0 271.860 225.072   4
   2   0  20 278.363 217.182   1
  -2   0  20 15.0936 206.120   1
  20   0  -2 301.038 234.351   1
  20   2   0 315.434 245.323   1
  20  -2   0 67.3334 187.285   1
  20   0  -2 177.202 239.989   3
   0  -2  20 653.482 380.536   1
  20   0   2 361.187 338.895   1
   2  20   0 706.351 303.717   2
   0  20  -2 54.4661 210.276   2
   0   2  20 299.359 236.712   5
   0  -2  20 5.60306 178.725   5
   0  20   2 335.808 301.186   2
  -2   0  20 409.477 278.981   5
  -2  20   0 750.563 366.826   2
  -2 -20   2 20634.9 1520.28   4
  -2  -2  20 20507.2 1622.31   1
  20  -2  -2 20368.4 1598.09   1
  20   2   2 17293.9 1462.87   1
  20  -2  -2 21363.1 1621.16   3
   2  20   2 21308.7 1597.08   2
  -2  20  -2 22670.9 1620.83   2
   2   2  20 20903.6 1625.31   1
  -2  -2  20 19815.5 1527.29   5
  -3   3  20-227.081 228.118   5
  -1   3  20 796.224 357.267   1
  -3 -20  -1 1306.85 390.003   4
   1  -3  20 1450.05 473.111   1
  20   3  -1 1896.29 492.700   1
  20   1  -3 1554.68 485.263   3
  20  -3   1 1207.88 412.130   1
  20  -1   3 2306.51 546.648   1
   1  -3  20 1422.24 417.198   5
  -1   3  20 1310.51 409.800   5
  -3   1  20 1789.29 475.410   5
  -1  20   3 1434.27 425.427   2
  -3  20   1 1678.27 483.448   2
  -3 -20   1 1069.71 320.885   4
  -1 -20   3 1371.05 393.161   4
  20  -3  -1 1298.22 424.856   1
  20   3   1 1989.81 486.314   1
  20  -1  -3 1861.16 517.284   3
   3  20   1 1166.95 393.259   2
  20   1   3 2504.80 576.219   1
  -1  20  -3 1609.19 443.307   2
   1  20   3 2437.15 532.959   2
   1   3  20 1819.36 502.287   1
  -1  -3  20 460.843 287.153   5
  -3  -1  20 1338.28 431.019   5
  -3  20  -1 1966.25 516.604   2
  -1  -3  20 1526.08 455.934   1
   3   1  20 1675.77 478.583   1
   3   3  20-53.9111 224.859   1
  20  -3  -3-364.834 235.887   3
  20   3   3-136.520 203.716   1
  -3  20  -3-295.312 230.528   2
  -3  -3  20 17.1477 266.175   5
  -4   4  20 10340.8 1060.15   5
  -2   4  20-462.006 292.871   1
  20  -2   4-3.05557 208.137   1
  -2   4  20-192.509 204.612   5
  -4   2  20-158.216 221.012   5
  -4  20   2-96.9011 245.479   2
   0 -20   4 17506.7 1370.86   4
   0   4  20 18910.3 1538.14   1
  20   4   0 18435.2 1452.99   1
  20   0  -4 16739.8 1473.49   3
  20   0   4 16043.0 1417.03   1
   0  20  -4 17224.5 1396.82   2
  -4  20   0 16562.4 1425.58   2
   0   4  20 15174.6 1294.10   5
  -4   0  20 16227.5 1376.37   5
  -4 -20   2 59.9145 167.180   4
  -2 -20   4-257.922 206.297   4
   2   4  20 202.523 252.866   1
  20  -2  -4 71.6128 167.227   3
  20   4   2-206.533 226.001   1
   4   2  20-184.186 241.802   1
  -2  20  -4-172.184 225.694   2
  20   2   4-548.019 311.644   1
  -4  -2  20 214.967 229.406   5
  -4  20  -2-35.9704 211.962   2
  -4 -20   4 13841.4 1252.97   4
   4   4  20 12474.7 1254.08   1
  20   4   4 10498.5 1102.04   1
  20  -4  -4 10869.0 1113.93   3
  -4  20  -4 12259.2 1176.38   2
  -5   5  20-278.201 244.496   5
  -3   5  20 4513.98 701.906   5
  -5   3  20 5637.17 794.813   5
   1 -20   5 3007.83 573.662   4
  -1   5  20 2101.85 538.386   1
  -1   5  20 2054.69 482.224   5
  -5   1  20 1399.03 429.313   5
  20  -1   5 1950.41 539.683   1
  -5  20   1 2376.46 569.370   2
  -1 -20   5 2652.42 529.098   4
  20   5   1 1960.01 486.477   1
  20  -1  -5 1548.58 438.677   3
  -1  20  -5 1637.00 466.678   2
   1   5  20 1827.27 459.882   5
  20   1   5 1563.96 460.527   1
  -5  -1  20 1991.75 557.400   5
   1   5  20 2113.37 542.908   1
  -5  20  -1 1697.69 486.603   2
   3   5  20 5085.71 810.330   1
  -3 -20   5 6686.96 858.067   4
  20  -3  -5 5180.85 770.455   3
  20  -5  -3 3450.94 632.138   3
  20   5   3 5404.09 765.520   1
  -3  20  -5 5077.66 746.795   2
  20   3   5 5698.28 829.577   1
  -5  20  -3 5223.39 763.613   2
  20  -5  -5-56.2780 117.990   3
  20   5   5-134.469 263.102   1
  -5  20  -5-141.582 188.486   2
  -6   6  20 2808.19 567.335   5
  -4   6  20 91.8323 197.407   5
  -6   4  20-312.410 302.770   5
  -2   6  20 5352.10 727.973   5
  -6   2  20 6208.31 853.539   5
   0 -20   6-481.799 277.943   4
   0   6  20-117.258 321.268   1
  20   6   0 275.579 251.484   1
   0   6  20 175.810 192.419   5
  -6   0  20-237.579 307.327   5
  -6  20   0 3.05577 240.637   2
  -2 -20   6 8052.50 931.453   4
  20   6   2 8181.97 928.341   1
   2   6  20 6870.47 924.161   1
  20  -2  -6 7774.23 965.834   3
  20  -6  -2 7034.82 882.778   3
  -2  20  -6 8297.36 948.188   2
  20   2   6 7526.15 966.190   1
  -6  20  -2 8172.60 991.191   2
  -4 -20   6 120.867 182.109   4
  20  -4  -6-246.325 163.568   3
  20  -6  -4-706.963 324.108   3
  20   6   4-78.6881 265.109   1
  -4  20  -6-64.2844 239.670   2
  20   4   6-133.510 199.491   1
  -6  20  -4-5.44755 214.472   2
  20  -6  -6 3321.42 576.770   3
  20   6   6 1925.49 472.535   1
  -6  20  -6 1954.06 463.273   2
   3 -20   7 1378.97 380.271   4
  -3   7  20 1628.67 432.551   5
  -7   3  20 1973.67 473.056   5
   1 -20   7 4387.91 670.945   4
  -1   7  20 3654.78 607.287   5
  -7   1  20 4522.62 735.823   5
  -1 -20   7 4827.47 696.692   4
  20   7   1 4171.20 656.541   1
   1   7  20 3525.62 572.032   5
   1   7  20 4632.26 773.343   1
  -7  20  -1 4898.40 806.084   2
  -3 -20   7 1847.98 474.345   4
  20  -3  -7 1389.88 432.941   3
  20   7   3 1360.10 408.793   1
  20  -7  -3 1158.69 352.901   3
  -3  20  -7 1836.97 485.375   2
  -7  20  -3 459.991 306.332   2
  20   3   7 1607.92 453.977   1
  20  -5  -7 5023.85 735.186   3
  20  -7  -5 5147.70 723.370   3
  20   7   5 5147.94 733.536   1
  -5  20  -7 5064.73 743.065   2
  -7  20  -5 4241.26 714.252   2
  20   5   7 4588.65 747.851   1
   4 -20   8 1777.92 422.555   4
   2 -20   8 148.624 194.680   4
   0 -20   8 2435.12 502.257   4
  -2 -20   8-182.419 294.551   4
  20  -8  -2-500.730 276.657   3
  -4 -20   8 2529.48 515.266   4
  20  -4  -8 2265.48 506.005   3
  20  -8  -4 2107.96 471.831   3
  -8  20  -4 2325.65 547.343   2
  20  -6  -8-431.942 265.978   3
  20   6   8 110.782 246.887   1
   1 -20   9 4301.65 661.119   4
  -1 -20   9 4716.57 683.406   4
  -3 -20   9 4919.09 706.725   4
 -20   9  -3 5697.17 788.790   2
  21   1   0 58.5483 216.381   1
   0   1  21 359.795 262.995   5
  21   2  -1 121.467 228.116   1
  -1   2  21 333.850 288.511   5
  -2   1  21 478.405 287.453   5
  21   2   1-9.06298 231.159   1
   1   2  21 356.028 269.075   5
  -2   3  21 2792.38 569.630   5
  -3   2  21 1391.99 437.057   5
  21   3   0 2502.31 578.688   1
   0  21  -3 3036.92 620.007   2
   0   3  21 1560.51 425.162   5
  21   3   2 787.305 318.747   1
  21   2   3 1277.63 467.752   1
  -2  21  -3 1792.73 531.814   2
  -3   4  21 793.004 338.591   5
  -4   3  21 1404.13 427.022   5
  -1   4  21-66.9232 181.478   5
  21   4   1 607.981 306.251   1
  -1  21  -4 345.293 244.132   2
  21   4   3 1482.54 486.016   1
  21   3   4 1276.94 451.607   1
  -3  21  -4 1343.08 417.021   2
  -4   5  21 3189.88 626.270   5
  -5   4  21 3342.29 634.081   5
   2 -21   5 2242.73 522.569   4
  -2   5  21 2490.37 540.711   5
  21   5   0 2484.95 564.368   1
   0   5  21 2461.31 537.125   5
  21   5   2 3170.43 617.805   1
  21  -5  -2 3257.28 655.087   3
  -2  21  -5 2558.88 544.935   2
  21  -5  -4 3271.57 652.472   3
  21   5   4 3512.64 654.203   1
  -4  21  -5 3080.51 600.119   2
  -5  21  -4 2856.97 609.099   2
  -6   5  21 2513.83 564.452   5
   3 -21   6 746.450 289.812   4
  -3   6  21 1469.41 409.756   5
   1 -21   6 471.855 261.369   4
  -1   6  21 435.367 244.536   5
  21   6   1 95.0411 199.947   1
   1   6  21 71.9644 196.523   5
  21   6   3 101.432 176.337   1
  21  -6  -3 137.243 221.872   3
   4 -21   7 4461.83 682.021   4
   2 -21   7 3516.99 613.283   4
   0   7  21 3013.13 556.470   5
  21  -7  -2 4050.61 679.200   3
   2   7  21 2305.20 497.219   5
   0   0   0    0.00    0.00   0

TITL LV195_WCo3pyz2_cubic in I-43d
REM I-43d (#220 in standard setting)
CELL 0.71073  16.138342  16.138342  16.138342  90.0000  90.0000  90.0000
ZERR   15.00   0.000167   0.000167   0.000167   0.0000   0.0000   0.0000
LATT -2
SYMM -x+1/2,-y, z+1/2
SYMM -x, y+1/2,-z+1/2
SYMM  x+1/2,-y+1/2,-z
SYMM  z, x, y
SYMM  z+1/2,-x+1/2,-y
SYMM -z+1/2,-x, y+1/2
SYMM -z, x+1/2,-y+1/2
SYMM  y, z, x
SYMM -y, z+1/2,-x+1/2
SYMM  y+1/2,-z+1/2,-x
SYMM -y+1/2,-z, x+1/2
SYMM  y+1/4, x+1/4, z+1/4
SYMM -y+1/4,-x+3/4, z+3/4
SYMM  y+3/4,-x+1/4,-z+3/4
SYMM -y+3/4, x+3/4,-z+1/4
SYMM  x+1/4, z+1/4, y+1/4
SYMM -x+3/4, z+3/4,-y+1/4
SYMM -x+1/4,-z+3/4, y+3/4
SYMM  x+3/4,-z+1/4,-y+3/4
SYMM  z+1/4, y+1/4, x+1/4
SYMM  z+3/4,-y+1/4,-x+3/4
SYMM -z+3/4, y+3/4,-x+1/4
SYMM -z+1/4,-y+3/4, x+3/4
SFAC C H N O W
UNIT 135.00 90.00 45.00 45.00 15.00
TREF
HKLF 4
END
;
_shelx_hkl_checksum              1865
_olex2_date_sample_data_collection 2019-03-06
_olex2_submission_special_instructions 'No special instructions were received'
_oxdiff_exptl_absorpt_empirical_details
;
Empirical correction (ABSPACK) includes:
- Absorption correction using spherical harmonics
- Frame scaling
;
_oxdiff_exptl_absorpt_empirical_full_max 1.460
_oxdiff_exptl_absorpt_empirical_full_min 0.744
loop_
_space_group_symop_operation_xyz
'x, y, z'
'y+1/4, -x+3/4, -z+1/4'
'-x, -y+1/2, z'
'-y+1/4, x+1/4, -z+3/4'
'-x+1/4, z+1/4, -y+3/4'
'x, -y, -z+1/2'
'-x+3/4, -z+1/4, y+1/4'
'-z+3/4, -y+1/4, x+1/4'
'-x+1/2, y, -z'
'z+1/4, -y+3/4, -x+1/4'
'z, x, y'
'y, z, x'
'-y, -z+1/2, x'
'z, -x, -y+1/2'
'-y+1/2, z, -x'
'-z, -x+1/2, y'
'-z+1/2, x, -y'
'y, -z, -x+1/2'
'-y+3/4, -x+1/4, z+1/4'
'y+1/4, x+1/4, z+1/4'
'x+1/4, -z+3/4, -y+1/4'
'x+1/4, z+1/4, y+1/4'
'-z+1/4, y+1/4, -x+3/4'
'z+1/4, y+1/4, x+1/4'
'x+1/2, y+1/2, z+1/2'
'y+3/4, -x+5/4, -z+3/4'
'-x+1/2, -y+1, z+1/2'
'-y+3/4, x+3/4, -z+5/4'
'-x+3/4, z+3/4, -y+5/4'
'x+1/2, -y+1/2, -z+1'
'-x+5/4, -z+3/4, y+3/4'
'-z+5/4, -y+3/4, x+3/4'
'-x+1, y+1/2, -z+1/2'
'z+3/4, -y+5/4, -x+3/4'
'z+1/2, x+1/2, y+1/2'
'y+1/2, z+1/2, x+1/2'
'-y+1/2, -z+1, x+1/2'
'z+1/2, -x+1/2, -y+1'
'-y+1, z+1/2, -x+1/2'
'-z+1/2, -x+1, y+1/2'
'-z+1, x+1/2, -y+1/2'
'y+1/2, -z+1/2, -x+1'
'-y+5/4, -x+3/4, z+3/4'
'y+3/4, x+3/4, z+3/4'
'x+3/4, -z+5/4, -y+3/4'
'x+3/4, z+3/4, y+3/4'
'-z+3/4, y+3/4, -x+5/4'
'z+3/4, y+3/4, x+3/4'
loop_
_atom_site_label
_atom_site_type_symbol
_atom_site_fract_x
_atom_site_fract_y
_atom_site_fract_z
_atom_site_U_iso_or_equiv
_atom_site_adp_type
_atom_site_occupancy
_atom_site_site_symmetry_order
_atom_site_calc_flag
_atom_site_refinement_flags_posn
_atom_site_refinement_flags_adp
_atom_site_refinement_flags_occupancy
_atom_site_disorder_assembly
_atom_site_disorder_group
W1 W 0.97579(2) 0.47579(2) 0.02421(2) 0.01045(7) Uani 1 3 d S T P . .
C3 C 0.9953(3) 0.4657(3) -0.0941(3) 0.0189(10) Uani 1 1 d . . . . .
N4 N 0.9882(2) 0.3369(2) 0.0417(2) 0.0123(8) Uani 1 1 d . . . . .
O2 O 1.0098(2) 0.4629(3) -0.16525(19) 0.0360(10) Uani 1 1 d . . . . .
C5 C 0.9252(3) 0.2833(3) 0.0433(3) 0.0185(10) Uani 1 1 d . . . . .
H5 H 0.871421 0.303913 0.044037 0.022 Uiso 1 1 calc R U . . .
C6 C 1.0635(3) 0.3011(3) 0.0438(3) 0.0201(10) Uani 1 1 d . . . . .
H6 H 1.109984 0.335031 0.045736 0.024 Uiso 1 1 calc R U . . .
loop_
_atom_site_aniso_label
_atom_site_aniso_U_11
_atom_site_aniso_U_22
_atom_site_aniso_U_33
_atom_site_aniso_U_23
_atom_site_aniso_U_13
_atom_site_aniso_U_12
W1 0.01045(7) 0.01045(7) 0.01045(7) 0.00045(7) 0.00045(7) -0.00045(7)
C3 0.016(2) 0.020(3) 0.021(2) 0.000(2) -0.0016(18) -0.0002(18)
N4 0.0144(19) 0.0137(18) 0.0088(18) -0.0005(14) 0.0002(14) 0.0000(15)
O2 0.048(2) 0.047(3) 0.0125(17) -0.0016(18) 0.0096(15) -0.0013(19)
C5 0.011(2) 0.015(2) 0.030(3) -0.0033(19) 0.0002(18) 0.0023(18)
C6 0.014(2) 0.016(2) 0.030(3) -0.0006(18) -0.0028(19) -0.0031(17)
loop_
_atom_type_symbol
_atom_type_description
_atom_type_scat_dispersion_real
_atom_type_scat_dispersion_imag
_atom_type_scat_source
C C 0.0033 0.0016 'International Tables Vol C Tables 4.2.6.8 and 6.1.1.4'
H H 0.0000 0.0000 'International Tables Vol C Tables 4.2.6.8 and 6.1.1.4'
N N 0.0061 0.0033 'International Tables Vol C Tables 4.2.6.8 and 6.1.1.4'
O O 0.0106 0.0060 'International Tables Vol C Tables 4.2.6.8 and 6.1.1.4'
W W -0.8490 6.8722 'International Tables Vol C Tables 4.2.6.8 and 6.1.1.4'
loop_
_geom_angle_atom_site_label_1
_geom_angle_atom_site_label_2
_geom_angle_atom_site_label_3
_geom_angle
_geom_angle_site_symmetry_1
_geom_angle_site_symmetry_3
_geom_angle_publ_flag
C3 W1 C3 86.3(2) . 41_545 ?
C3 W1 C3 86.3(2) . 42 ?
C3 W1 C3 86.3(2) 41_545 42 ?
C3 W1 N4 93.63(17) . 42 ?
C3 W1 N4 177.80(15) 42 . ?
C3 W1 N4 177.80(15) 41_545 42 ?
C3 W1 N4 91.46(18) . . ?
C3 W1 N4 177.80(16) . 41_545 ?
C3 W1 N4 91.46(18) 42 42 ?
C3 W1 N4 93.63(17) 41_545 . ?
C3 W1 N4 93.63(17) 42 41_545 ?
C3 W1 N4 91.46(18) 41_545 41_545 ?
N4 W1 N4 88.57(13) 42 41_545 ?
N4 W1 N4 88.57(13) 41_545 . ?
N4 W1 N4 88.57(13) 42 . ?
O2 C3 W1 176.7(5) . . ?
C5 N4 W1 125.1(3) . . ?
C5 N4 C6 114.1(4) . . ?
C6 N4 W1 120.5(3) . . ?
N4 C5 H5 118.6 . . ?
N4 C5 C6 122.8(4) . 3_755 ?
C6 C5 H5 118.6 3_755 . ?
N4 C6 C5 123.0(4) . 3_755 ?
N4 C6 H6 118.5 . . ?
C5 C6 H6 118.5 3_755 . ?
loop_
_geom_bond_atom_site_label_1
_geom_bond_atom_site_label_2
_geom_bond_distance
_geom_bond_site_symmetry_2
_geom_bond_publ_flag
W1 C3 1.942(4) . ?
W1 C3 1.942(4) 41_545 ?
W1 C3 1.942(4) 42 ?
W1 N4 2.269(3) 42 ?
W1 N4 2.269(3) 41_545 ?
W1 N4 2.269(3) . ?
C3 O2 1.172(5) . ?
N4 C5 1.335(5) . ?
N4 C6 1.346(5) . ?
C5 H5 0.9300 . ?
C5 C6 1.373(6) 3_755 ?
C6 H6 0.9300 . ?
loop_
_geom_torsion_atom_site_label_1
_geom_torsion_atom_site_label_2
_geom_torsion_atom_site_label_3
_geom_torsion_atom_site_label_4
_geom_torsion
_geom_torsion_site_symmetry_1
_geom_torsion_site_symmetry_2
_geom_torsion_site_symmetry_3
_geom_torsion_site_symmetry_4
_geom_torsion_publ_flag
W1 N4 C5 C6 171.8(4) . . . 3_755 ?
W1 N4 C6 C5 -171.2(4) . . . 3_755 ?
C5 N4 C6 C5 3.2(6) . . . 3_755 ?
C6 N4 C5 C6 -2.3(5) . . . 3_755 ?
