#------------------------------------------------------------------------------
#$Date: 2021-10-06 16:59:38 +0300 (Wed, 06 Oct 2021) $
#$Revision: 269654 $
#$URL: file:///home/coder/svn-repositories/cod/cif/7/12/87/7128763.cif $
#------------------------------------------------------------------------------
#
# This file is available in the Crystallography Open Database (COD),
# http://www.crystallography.net/
#
# All data on this site have been placed in the public domain by the
# contributors.
#
data_7128763
loop_
_publ_author_name
'Dong, Long-Zhang'
'Zhang, Yu'
'Lu, Yun-Feng'
'Zhang, Lei'
'Huang, Xin'
'Wang, Jian-Hui'
'Liu, Jiang'
'Li, Shun-Li'
'Lan, Ya-Qian'
_publ_section_title
;
 A well-defined dual Mn-site based metal-organic framework to promote
 CO<sub>2</sub> reduction/evolution in Li-CO<sub>2</sub> batteries.
;
_journal_issue                   71
_journal_name_full
'Chemical communications (Cambridge, England)'
_journal_page_first              8937
_journal_page_last               8940
_journal_paper_doi               10.1039/d1cc03431f
_journal_volume                  57
_journal_year                    2021
_chemical_formula_moiety         'C32 H22 Co2 N12 O9 S2, 0.5(C4 H16 N2)'
_chemical_formula_sum            'C34 H30 Co2 N13 O9 S2'
_chemical_formula_weight         946.69
_space_group_crystal_system      orthorhombic
_space_group_IT_number           53
_space_group_name_Hall           '-P 2ac 2'
_space_group_name_H-M_alt        'P m n a'
_atom_sites_solution_hydrogens   mixed
_atom_sites_solution_primary     dual
_audit_creation_date             2021-06-02
_audit_creation_method
;
Olex2 1.3-alpha
(compiled 2020.11.12 svn.r5f609507 for OlexSys, GUI svn.r6272)
;
_audit_update_record
;
2021-06-03 deposited with the CCDC.	2021-08-09 downloaded from the CCDC.
;
_cell_angle_alpha                90
_cell_angle_beta                 90
_cell_angle_gamma                90
_cell_formula_units_Z            4
_cell_length_a                   22.1875(12)
_cell_length_b                   13.4774(7)
_cell_length_c                   15.9045(9)
_cell_measurement_reflns_used    6594
_cell_measurement_temperature    296.15
_cell_measurement_theta_max      26.172
_cell_measurement_theta_min      2.561
_cell_volume                     4755.9(4)
_computing_cell_refinement       'SAINT V8.40A (Bruker, 2019)'
_computing_data_reduction        'SAINT V8.40A (Bruker, 2019)'
_computing_molecular_graphics    'Olex2 1.3-alpha (Dolomanov et al., 2009)'
_computing_publication_material  'Olex2 1.3-alpha (Dolomanov et al., 2009)'
_computing_structure_refinement  'SHELXL 2018/3 (Sheldrick, 2015)'
_computing_structure_solution    'SHELXT 2014/5 (Sheldrick, 2014)'
_diffrn_ambient_temperature      296.15
_diffrn_detector_area_resol_mean 8
_diffrn_measured_fraction_theta_full 0.984
_diffrn_measured_fraction_theta_max 0.979
_diffrn_measurement_device_type  'Bruker APEX-II CCD'
_diffrn_measurement_method       '\f and \w scans'
_diffrn_radiation_type           MoK\a
_diffrn_radiation_wavelength     0.71073
_diffrn_reflns_av_R_equivalents  0.0275
_diffrn_reflns_av_unetI/netI     0.0317
_diffrn_reflns_Laue_measured_fraction_full 0.984
_diffrn_reflns_Laue_measured_fraction_max 0.979
_diffrn_reflns_limit_h_max       27
_diffrn_reflns_limit_h_min       -26
_diffrn_reflns_limit_k_max       16
_diffrn_reflns_limit_k_min       -16
_diffrn_reflns_limit_l_max       19
_diffrn_reflns_limit_l_min       -14
_diffrn_reflns_number            20722
_diffrn_reflns_point_group_measured_fraction_full 0.984
_diffrn_reflns_point_group_measured_fraction_max 0.979
_diffrn_reflns_theta_full        25.242
_diffrn_reflns_theta_max         26.431
_diffrn_reflns_theta_min         2.183
_diffrn_source_current           30.0
_diffrn_source_power             1.5
_diffrn_source_voltage           50.0
_diffrn_standards_number         0
_exptl_absorpt_coefficient_mu    0.845
_exptl_absorpt_correction_T_max  0.7454
_exptl_absorpt_correction_T_min  0.6927
_exptl_absorpt_correction_type   multi-scan
_exptl_absorpt_process_details
;
SADABS-2016/2 (Bruker,2016/2) was used for absorption correction.
wR2(int) was 0.0535 before and 0.0405 after correction.
The Ratio of minimum to maximum transmission is 0.9293.
The \l/2 correction factor is Not present.
;
_exptl_crystal_colour            'metallic dark blue'
_exptl_crystal_colour_lustre     metallic
_exptl_crystal_colour_modifier   dark
_exptl_crystal_colour_primary    blue
_exptl_crystal_density_diffrn    1.322
_exptl_crystal_description       block
_exptl_crystal_F_000             1932
_exptl_crystal_size_max          0.252
_exptl_crystal_size_mid          0.142
_exptl_crystal_size_min          0.132
_refine_diff_density_max         0.618
_refine_diff_density_min         -0.774
_refine_diff_density_rms         0.075
_refine_ls_extinction_method     none
_refine_ls_goodness_of_fit_ref   1.033
_refine_ls_hydrogen_treatment    constr
_refine_ls_matrix_type           full
_refine_ls_number_parameters     310
_refine_ls_number_reflns         4919
_refine_ls_number_restraints     72
_refine_ls_restrained_S_all      1.065
_refine_ls_R_factor_all          0.0886
_refine_ls_R_factor_gt           0.0602
_refine_ls_shift/su_max          0.000
_refine_ls_shift/su_mean         0.000
_refine_ls_structure_factor_coef Fsqd
_refine_ls_weighting_details
'w=1/[\s^2^(Fo^2^)+(0.0889P)^2^+7.3056P] where P=(Fo^2^+2Fc^2^)/3'
_refine_ls_weighting_scheme      calc
_refine_ls_wR_factor_gt          0.1626
_refine_ls_wR_factor_ref         0.1829
_reflns_Friedel_coverage         0.000
_reflns_number_gt                3311
_reflns_number_total             4919
_reflns_threshold_expression     'I > 2\s(I)'
_cod_data_source_file            d1cc03431f2.cif
_cod_data_source_block           cotpzp-co
_cod_depositor_comments
'Adding full bibliography for 7128762--7128764.cif.'
_cod_database_code               7128763
_shelx_shelxl_version_number     2018/3
_shelx_space_group_comment
;
The symmetry employed for this shelxl refinement is uniquely defined
by the following loop, which should always be used as a source of
symmetry information in preference to the above space-group names.
They are only intended as comments.
;
_shelx_estimated_absorpt_t_max   0.897
_shelx_estimated_absorpt_t_min   0.815
_olex2_refinement_description
;
1. Fixed Uiso
 At 1.2 times of:
  All C(H) groups, All N(H) groups, All N(H,H) groups
 At 1.5 times of:
  All C(H,H,H) groups, All O(H,H) groups
2. Uiso/Uaniso restraints and constraints
S1 \\sim O2A \\sim O3A \\sim O4A \\sim O4B \\sim O3B \\sim O2B: within 2A with
sigma of 0.01 and sigma for terminal atoms of 0.02 within 2A
3. Others
 Sof(O4B)=Sof(O3B)=Sof(O2B)=1-FVAR(1)
 Sof(O2A)=Sof(O3A)=Sof(O4A)=FVAR(1)
 Fixed Sof: H18A(0.5) H18B(0.5) H18C(0.5) H17A(0.5) H17B(0.5) H17C(0.5)
 H8A(0.5) H8B(0.5)
4.a Riding coordinates:
 O5(H5A,H5B), C18(H18A,H18B,H18C), C17(H17A,H17B,H17C)
4.b Secondary CH2 refined with riding coordinates:
 N8(H8A,H8B)
4.c Aromatic/amide H refined with riding coordinates:
 C13(H13), N2(H2), C4(H4), N4(H4A), C1(H1), C14(H14), C8(H8), C9(H9), C3(H3),
 C16(H16)
;
_shelx_res_file
;
TITL mo_210320_29_0ma_a.res in Pmna
    cotpzp-co.res
    created by SHELXL-2018/3 at 22:05:43 on 02-Jun-2021
REM Old TITL mo_210320_29_0ma in Pmna
REM SHELXT solution in Pmna
REM R1 0.297, Rweak 0.005, Alpha 0.034, Orientation as input
REM Formula found by SHELXT: C45 N6 O4 Co2
CELL 0.71073 22.1875 13.4774 15.9045 90 90 90
ZERR 4 0.0012 0.0007 0.0009 0 0 0
LATT 1
SYMM 0.5-X,-Y,0.5+Z
SYMM 0.5-X,+Y,0.5-Z
SYMM +X,-Y,-Z
SFAC C H Co N O S
UNIT 136 120 8 52 36 8
SIMU 0.01 0.02 2 S1 O2A O3A O4A O4B O3B O2B

L.S. 5 0 37
PLAN  9
SIZE 0.252 0.142 0.132
TEMP 23
CONF
BIND O5 Co2
MORE -1
BOND $H
ABIN
fmap 2
acta
OMIT 0 1 3
OMIT 4 1 0
OMIT 0 1 2
OMIT 0 3 3
OMIT 1 3 4
OMIT 3 1 5
OMIT 2 0 0
OMIT 4 1 1
OMIT 3 1 1
OMIT 5 1 2
OMIT 4 0 0
OMIT 0 1 1
OMIT 1 0 1
OMIT 2 0 2
OMIT 0 0 2
OMIT 0 3 2
OMIT 0 4 4
OMIT 5 1 1
OMIT 3 5 1
OMIT 5 0 3
OMIT 4 1 4
OMIT 2 3 1
OMIT 6 5 1
OMIT 3 1 2
OMIT 5 1 3
OMIT 3 1 6
OMIT 2 9 0
OMIT 3 2 3
REM <olex2.extras>
REM <HklSrc "%.\\CoTPzP-Co.hkl">
REM </olex2.extras>

WGHT    0.088900    7.305600
FVAR       0.35844   0.62039
CO1   3    0.250000    0.642496    0.250000    10.50000    0.03352    0.02193 =
         0.09073    0.00000    0.02338    0.00000
S1    6    0.358549    0.644828    0.394889    11.00000    0.04235    0.08743 =
         0.12464    0.00601    0.00547    0.00391
N7    4    0.500000   -0.006154    0.106948    10.50000    0.03369    0.01894 =
         0.04893   -0.00025    0.00000    0.00000
N5    4    0.500000    0.284217    0.121808    10.50000    0.03354    0.02117 =
         0.05506   -0.00397    0.00000    0.00000
N6    4    0.411369    0.138117    0.125425    11.00000    0.03445    0.02255 =
         0.05261    0.00029    0.00734    0.00192
N3    4    0.289095   -0.244604    0.171002    11.00000    0.03661    0.02939 =
         0.08347    0.00328    0.00918   -0.00742
O1    5    0.330887    0.640522    0.321896    11.00000    0.03694    0.09068 =
         0.11406   -0.00336    0.01273    0.00604
N1    4    0.289133    0.526414    0.173715    11.00000    0.04522    0.02876 =
         0.10152   -0.00107    0.02165    0.00568
C12   1    0.450764   -0.067368    0.096029    11.00000    0.03468    0.02317 =
         0.04831    0.00121   -0.00064   -0.00100
C5    1    0.450589    0.346021    0.115839    11.00000    0.04289    0.02013 =
         0.05759   -0.00438    0.00570    0.00333
C11   1    0.391725   -0.040350    0.114891    11.00000    0.03435    0.02538 =
         0.05353    0.00439    0.00402   -0.00652
C6    1    0.390796    0.317631    0.127371    11.00000    0.04021    0.02691 =
         0.06109   -0.00624    0.00794    0.00497
C10   1    0.374800    0.056624    0.132855    11.00000    0.03275    0.02918 =
         0.05978    0.00483    0.00811   -0.00237
C13   1    0.469653   -0.164079    0.070986    11.00000    0.04672    0.02368 =
         0.06024   -0.00372    0.00270   -0.00468
AFIX  43
H13   2    0.444748   -0.217159    0.057241    11.00000   -1.20000
AFIX   0
C15   1    0.345250   -0.119649    0.120075    11.00000    0.03546    0.02773 =
         0.06667    0.00153    0.00530   -0.00495
C7    1    0.374342    0.219152    0.137748    11.00000    0.03534    0.02791 =
         0.06477   -0.00366    0.01147    0.00478
N2    4    0.261373    0.480099    0.110203    11.00000    0.07557    0.06436 =
         0.10283   -0.01428   -0.00588    0.03999
AFIX  43
H2    2    0.227542    0.498755    0.089072    11.00000   -1.20000
AFIX   0
C4    1    0.469535    0.446744    0.101832    11.00000    0.04704    0.02100 =
         0.07727    0.00253    0.00111    0.00401
AFIX  43
H4    2    0.444601    0.501479    0.094221    11.00000   -1.20000
AFIX   0
C2    1    0.343682    0.395360    0.131743    11.00000    0.04149    0.03064 =
         0.07874   -0.00377    0.01234    0.00875
N4    4    0.267681   -0.214466    0.098013    11.00000    0.09301    0.09173 =
         0.09452    0.02248   -0.02932   -0.06804
AFIX  43
H4A   2    0.237067   -0.240292    0.073094    11.00000   -1.20000
AFIX   0
C1    1    0.338625    0.474983    0.186331    11.00000    0.03764    0.03646 =
         0.10285   -0.01567    0.01156    0.00345
AFIX  43
H1    2    0.367049    0.490319    0.227295    11.00000   -1.20000
AFIX   0
C14   1    0.336228   -0.187463    0.184170    11.00000    0.04086    0.05547 =
         0.08969    0.02538   -0.00871   -0.01683
AFIX  43
H14   2    0.360793   -0.192134    0.231384    11.00000   -1.20000
AFIX   0
C8    1    0.315384    0.186145    0.159263    11.00000    0.03514    0.03980 =
         0.10056   -0.00011    0.02119    0.00602
AFIX  43
H8    2    0.282710    0.226385    0.172633    11.00000   -1.20000
AFIX   0
C9    1    0.315350    0.087108    0.156830    11.00000    0.03614    0.03879 =
         0.09318    0.00424    0.01934   -0.00070
AFIX  43
H9    2    0.282871    0.045716    0.168493    11.00000   -1.20000
AFIX   0
C3    1    0.292472    0.401597    0.083657    11.00000    0.08110    0.07934 =
         0.10151   -0.03103   -0.01312    0.04297
AFIX  43
H3    2    0.281485    0.358811    0.040416    11.00000   -1.20000
AFIX   0
C16   1    0.299932   -0.138196    0.067716    11.00000    0.13068    0.10814 =
         0.09187    0.04820   -0.04400   -0.08605
AFIX  43
H16   2    0.291895   -0.103937    0.018211    11.00000   -1.20000
AFIX   0
PART 1
O2A   5    0.322435    0.608813    0.459351    21.00000    0.10148    0.20533 =
         0.11499    0.01898    0.00949   -0.06291
PART 0
O5    5    0.500000    0.128184    0.276377    10.50000    0.25607    0.12465 =
         0.11578   -0.00617    0.00000    0.00000
AFIX   3
H5A   2    0.500000    0.175334    0.311877    10.50000   -1.50000
H5B   2    0.500000    0.075804    0.306147    10.50000   -1.50000
AFIX   0

C18   1    0.500000    0.662148    0.245609    10.50000    0.28189    0.22126 =
         0.12011   -0.03096    0.00000    0.00000
PART -1
AFIX   3
H18A  2    0.462930    0.625518    0.247859    10.50000   -1.50000
H18B  2    0.533280    0.617788    0.254279    10.50000   -1.50000
H18C  2    0.503800    0.693288    0.191579    10.50000   -1.50000
AFIX   0
PART 0
C17   1    0.500000    0.845903    0.297428    10.50000    0.19271    0.16175 =
         0.13660    0.05062    0.00000    0.00000
PART -1
AFIX   3
H17A  2    0.468880    0.859763    0.257178    10.50000   -1.50000
H17B  2    0.538400    0.864223    0.274348    10.50000   -1.50000
H17C  2    0.492720    0.883283    0.347798    10.50000   -1.50000
AFIX   0

PART 1
O3A   5    0.370857    0.754033    0.399775    21.00000    0.10347    0.11355 =
         0.17105   -0.04587   -0.05580    0.01745
O4A   5    0.416318    0.600711    0.396393    21.00000    0.06761    0.11948 =
         0.19250    0.01600   -0.00993    0.03445

PART 0
N8    4    0.500000    0.741520    0.319749    10.50000    0.07081    0.25963 =
         0.16437    0.08050    0.00000    0.00000
AFIX  23
H8A   2    0.467726    0.730178    0.351559    10.50000   -1.20000
H8B   2    0.532274    0.730179    0.351560    10.50000   -1.20000
AFIX   0

PART 2
O4B   5    0.368107    0.531378    0.403449   -21.00000    0.11998    0.07682 =
         0.16237    0.01886   -0.03933    0.00461
O3B   5    0.412732    0.681992    0.422739   -21.00000    0.05595    0.15893 =
         0.18465   -0.01637   -0.01910   -0.02988
O2B   5    0.317367    0.669078    0.468781   -21.00000    0.06294    0.12224 =
         0.10466    0.02668    0.00188    0.06113
PART 0
CO2   3    0.500000    0.138871    0.121138    10.50000    0.02944    0.01780 =
         0.05397    0.00007    0.00000    0.00000
HKLF 4




REM  mo_210320_29_0ma_a.res in Pmna
REM wR2 = 0.1829, GooF = S = 1.033, Restrained GooF = 1.065 for all data
REM R1 = 0.0602 for 3311 Fo > 4sig(Fo) and 0.0886 for all 4919 data
REM 310 parameters refined using 72 restraints

END

WGHT      0.0889      7.3056

REM Highest difference peak  0.618,  deepest hole -0.774,  1-sigma level  0.075
Q1    1   0.5483  0.1059  0.3089  11.00000  0.05    0.62
Q2    1   0.5480  0.1564  0.3106  11.00000  0.05    0.52
Q3    1   0.3289  0.6344  0.3631  11.00000  0.05    0.48
Q4    1   0.3077  0.6408  0.2969  11.00000  0.05    0.41
Q5    1   0.3134  0.6446  0.4556  11.00000  0.05    0.40
Q6    1   0.5000  0.1222  0.1865  10.50000  0.05    0.40
Q7    1   0.2802 -0.1197  0.1060  11.00000  0.05    0.37
Q8    1   0.3384  0.5420  0.4667  11.00000  0.05    0.34
Q9    1   0.2557  0.3605  0.0129  11.00000  0.05    0.33
;
_shelx_res_checksum              17828
_shelx_fab_file
;
    6    0    0      5.59      0.00
    8    0    0     18.41      0.00
   10    0    0     -2.85      0.00
   12    0    0      5.39      0.00
   14    0    0      6.97      0.00
   16    0    0      2.23      0.00
   18    0    0      2.46      0.00
   20    0    0      1.17      0.00
   22    0    0     -0.24      0.00
   24    0    0     -1.73      0.00
   26    0    0     -1.09      0.00
    6    1    0      3.09      0.00
    8    1    0      5.32      0.00
   10    1    0     -4.47      0.00
   12    1    0      1.67      0.00
   14    1    0      0.36      0.00
   16    1    0     -1.01      0.00
   18    1    0      0.33      0.00
   20    1    0     -0.89      0.00
   22    1    0     -1.51      0.00
   24    1    0     -2.16      0.00
   26    1    0     -0.42      0.00
    0    2    0     28.79      0.00
    2    2    0      5.93      0.00
    4    2    0      3.95      0.00
    6    2    0     13.39      0.00
    8    2    0      0.60      0.00
   10    2    0     -2.44      0.00
   12    2    0      1.33      0.00
   14    2    0      1.26      0.00
   16    2    0      1.43      0.00
   18    2    0      2.27      0.00
   20    2    0      1.34      0.00
   22    2    0      0.48      0.00
   24    2    0     -1.70      0.00
   26    2    0     -1.11      0.00
    0    3    0     27.91      0.00
    2    3    0      0.14      0.00
    4    3    0    -17.97      0.00
    6    3    0     -4.79      0.00
    8    3    0      0.03      0.00
   10    3    0     -1.66      0.00
   12    3    0     -1.69      0.00
   14    3    0      0.73      0.00
   16    3    0      0.23      0.00
   18    3    0     -0.50      0.00
   20    3    0      0.68      0.00
   22    3    0      0.86      0.00
   24    3    0     -0.87      0.00
   26    3    0     -0.70      0.00
    2    4    0    -19.11      0.00
    4    4    0     -2.78      0.00
    6    4    0      8.31      0.00
    8    4    0      2.04      0.00
   10    4    0     -1.53      0.00
   12    4    0     -3.98      0.00
   14    4    0     -1.40      0.00
   16    4    0      1.47      0.00
   18    4    0     -0.96      0.00
   20    4    0     -0.61      0.00
   22    4    0      0.87      0.00
   24    4    0      1.07      0.00
   26    4    0     -0.68      0.00
    0    5    0     11.86      0.00
    2    5    0      4.47      0.00
    4    5    0      1.71      0.00
    6    5    0      1.81      0.00
    8    5    0     -3.12      0.00
   10    5    0      0.10      0.00
   12    5    0      0.92      0.00
   14    5    0      0.78      0.00
   16    5    0      2.20      0.00
   18    5    0     -0.64      0.00
   20    5    0     -0.23      0.00
   22    5    0      1.38      0.00
   24    5    0     -0.07      0.00
   26    5    0     -4.02      0.00
    0    6    0     -0.56      0.00
    2    6    0     -6.18      0.00
    4    6    0     -4.38      0.00
    6    6    0      3.77      0.00
    8    6    0      1.77      0.00
   10    6    0      0.67      0.00
   12    6    0      0.65      0.00
   14    6    0     -0.60      0.00
   16    6    0     -0.98      0.00
   18    6    0     -1.98      0.00
   20    6    0      0.01      0.00
   22    6    0      0.10      0.00
   24    6    0     -1.64      0.00
    0    7    0      1.01      0.00
    2    7    0      1.37      0.00
    4    7    0      1.66      0.00
    6    7    0      2.99      0.00
    8    7    0      0.88      0.00
   10    7    0     -0.86      0.00
   12    7    0     -0.67      0.00
   14    7    0     -0.16      0.00
   16    7    0      1.26      0.00
   18    7    0      0.54      0.00
   20    7    0      0.39      0.00
   22    7    0     -0.61      0.00
   24    7    0      0.25      0.00
    0    8    0      2.31      0.00
    2    8    0      1.55      0.00
    4    8    0     -2.19      0.00
    6    8    0     -1.62      0.00
    8    8    0      1.18      0.00
   10    8    0      1.41      0.00
   12    8    0     -0.32      0.00
   14    8    0     -0.48      0.00
   16    8    0     -0.68      0.00
   18    8    0     -2.07      0.00
   20    8    0     -0.72      0.00
   22    8    0      0.53      0.00
   24    8    0      1.34      0.00
    0    9    0      1.01      0.00
    4    9    0     -1.24      0.00
    6    9    0      1.40      0.00
    8    9    0      1.09      0.00
   10    9    0     -2.73      0.00
   12    9    0     -1.36      0.00
   14    9    0      2.82      0.00
   16    9    0      0.02      0.00
   18    9    0     -1.37      0.00
   20    9    0      1.94      0.00
   22    9    0      3.39      0.00
    0   10    0      3.27      0.00
    2   10    0      1.66      0.00
    4   10    0     -2.04      0.00
    6   10    0     -0.38      0.00
    8   10    0      2.46      0.00
   10   10    0     -0.44      0.00
   12   10    0     -0.70      0.00
   14   10    0      1.94      0.00
   16   10    0     -0.13      0.00
   18   10    0     -0.69      0.00
   20   10    0     -0.01      0.00
   22   10    0      0.01      0.00
    0   11    0     -2.36      0.00
    2   11    0     -0.80      0.00
    4   11    0     -0.08      0.00
    6   11    0      0.09      0.00
    8   11    0      0.27      0.00
   10   11    0     -1.30      0.00
   12   11    0     -0.23      0.00
   14   11    0      2.12      0.00
   16   11    0     -0.07      0.00
   18   11    0     -0.95      0.00
   20   11    0      0.46      0.00
    0   12    0     -2.43      0.00
    2   12    0     -2.78      0.00
    4   12    0     -1.77      0.00
    6   12    0      0.79      0.00
    8   12    0     -0.75      0.00
   10   12    0     -2.88      0.00
   12   12    0     -0.13      0.00
   14   12    0      1.67      0.00
   16   12    0     -0.92      0.00
   18   12    0     -0.75      0.00
    2   13    0     -0.20      0.00
    4   13    0      0.74      0.00
    6   13    0      0.12      0.00
    8   13    0      0.90      0.00
   10   13    0      2.48      0.00
   12   13    0      1.34      0.00
   14   13    0     -1.04      0.00
   16   13    0     -0.72      0.00
    4   14    0     -1.72      0.00
    6   14    0      0.31      0.00
    8   14    0     -0.94      0.00
   10   14    0      0.15      0.00
   12   14    0      0.13      0.00
   14   14    0     -1.36      0.00
    8   15    0      0.44      0.00
   10   15    0      0.34      0.00
   12   15    0      2.09      0.00
    3    0    1    -23.93      0.00
    5    0    1    -18.14      0.00
    7    0    1     20.44      0.00
    9    0    1      0.02      0.00
   11    0    1     -2.15      0.00
   13    0    1      4.26      0.00
   15    0    1      2.20      0.00
   17    0    1      2.43      0.00
   19    0    1      0.92      0.00
   21    0    1      0.35      0.00
   23    0    1      0.02      0.00
   25    0    1     -0.26      0.00
   27    0    1     -0.51      0.00
    1    1    1     32.65      0.00
    2    1    1    -25.74      0.00
    6    1    1      9.37      0.00
    7    1    1     13.06      0.00
    8    1    1     -4.53      0.00
    9    1    1     -1.29      0.00
   10    1    1     -0.32      0.00
   11    1    1     -1.32      0.00
   12    1    1     -2.46      0.00
   13    1    1      1.54      0.00
   14    1    1     -2.55      0.00
   15    1    1     -1.89      0.00
   16    1    1     -1.19      0.00
   17    1    1     -0.15      0.00
   18    1    1     -0.60      0.00
   19    1    1      0.11      0.00
   20    1    1      0.30      0.00
   21    1    1     -0.48      0.00
   22    1    1      0.56      0.00
   23    1    1     -1.37      0.00
   24    1    1      1.02      0.00
   25    1    1     -1.28      0.00
   26    1    1      0.54      0.00
   27    1    1     -0.28      0.00
    1    2    1     19.05      0.00
    2    2    1     17.75      0.00
    3    2    1     -3.57      0.00
    4    2    1     22.29      0.00
    5    2    1      7.99      0.00
    6    2    1      4.74      0.00
    7    2    1      6.19      0.00
    8    2    1     -0.92      0.00
    9    2    1     -3.08      0.00
   10    2    1      0.34      0.00
   11    2    1     -1.03      0.00
   12    2    1     -1.60      0.00
   13    2    1      1.23      0.00
   14    2    1      0.81      0.00
   15    2    1      0.54      0.00
   16    2    1      0.47      0.00
   17    2    1      2.39      0.00
   18    2    1     -0.18      0.00
   19    2    1      1.82      0.00
   20    2    1      0.54      0.00
   21    2    1      0.89      0.00
   22    2    1      1.15      0.00
   23    2    1     -0.53      0.00
   24    2    1      1.00      0.00
   25    2    1     -1.48      0.00
   26    2    1     -0.80      0.00
   27    2    1      0.18      0.00
    0    3    1    -23.22      0.00
    1    3    1      9.17      0.00
    3    3    1    -10.63      0.00
    4    3    1     -4.06      0.00
    5    3    1     -7.74      0.00
    6    3    1      0.80      0.00
    7    3    1     -2.33      0.00
    8    3    1      0.43      0.00
    9    3    1     -0.96      0.00
   10    3    1     -0.50      0.00
   11    3    1     -1.39      0.00
   12    3    1     -2.55      0.00
   13    3    1     -0.97      0.00
   14    3    1     -1.09      0.00
   15    3    1      0.85      0.00
   16    3    1     -0.90      0.00
   17    3    1      0.69      0.00
   18    3    1     -1.00      0.00
   19    3    1     -0.23      0.00
   20    3    1     -0.38      0.00
   21    3    1      0.24      0.00
   22    3    1      0.86      0.00
   23    3    1     -0.44      0.00
   24    3    1      1.33      0.00
   25    3    1     -1.35      0.00
   26    3    1     -0.01      0.00
   27    3    1     -0.09      0.00
    0    4    1      0.47      0.00
    1    4    1    -12.38      0.00
    2    4    1      2.37      0.00
    3    4    1    -11.86      0.00
    4    4    1      7.40      0.00
    5    4    1      2.21      0.00
    6    4    1      3.91      0.00
    7    4    1      4.88      0.00
    8    4    1     -1.60      0.00
    9    4    1      1.35      0.00
   10    4    1     -0.38      0.00
   11    4    1     -1.30      0.00
   12    4    1      1.22      0.00
   13    4    1     -2.63      0.00
   14    4    1      0.37      0.00
   15    4    1     -0.21      0.00
   16    4    1      0.09      0.00
   17    4    1     -0.26      0.00
   18    4    1      0.59      0.00
   19    4    1     -0.18      0.00
   20    4    1     -0.16      0.00
   21    4    1      0.08      0.00
   22    4    1      0.40      0.00
   23    4    1      0.22      0.00
   24    4    1      0.17      0.00
   25    4    1      0.26      0.00
   26    4    1     -1.95      0.00
    0    5    1      6.15      0.00
    1    5    1      6.38      0.00
    2    5    1     -0.13      0.00
    4    5    1     -4.36      0.00
    5    5    1      2.79      0.00
    7    5    1     -0.89      0.00
    8    5    1      0.00      0.00
    9    5    1     -1.85      0.00
   10    5    1      1.59      0.00
   11    5    1      0.59      0.00
   12    5    1      2.01      0.00
   13    5    1     -0.01      0.00
   14    5    1     -0.71      0.00
   15    5    1      2.10      0.00
   16    5    1     -1.61      0.00
   17    5    1      1.02      0.00
   18    5    1      0.06      0.00
   19    5    1     -0.55      0.00
   20    5    1      0.10      0.00
   21    5    1     -0.10      0.00
   22    5    1      0.02      0.00
   23    5    1      0.28      0.00
   24    5    1     -0.41      0.00
   25    5    1     -1.47      0.00
   26    5    1     -0.50      0.00
    0    6    1     -2.14      0.00
    1    6    1     -2.80      0.00
    2    6    1     -1.60      0.00
    3    6    1     -4.67      0.00
    4    6    1     -0.20      0.00
    5    6    1      0.75      0.00
    6    6    1      1.46      0.00
    7    6    1      2.18      0.00
    8    6    1      0.67      0.00
    9    6    1      1.45      0.00
   10    6    1     -0.19      0.00
   11    6    1      1.07      0.00
   12    6    1      0.61      0.00
   13    6    1     -1.36      0.00
   14    6    1     -1.09      0.00
   15    6    1     -0.67      0.00
   16    6    1     -0.61      0.00
   17    6    1     -0.70      0.00
   18    6    1      1.26      0.00
   19    6    1     -0.64      0.00
   20    6    1     -0.10      0.00
   21    6    1      0.03      0.00
   22    6    1     -1.66      0.00
   23    6    1     -0.90      0.00
   24    6    1      0.23      0.00
   25    6    1     -2.04      0.00
    0    7    1      2.24      0.00
    1    7    1      1.42      0.00
    2    7    1      2.53      0.00
    3    7    1      1.23      0.00
    4    7    1      0.51      0.00
    5    7    1      1.95      0.00
    6    7    1     -0.52      0.00
    7    7    1      1.64      0.00
    8    7    1     -0.33      0.00
    9    7    1     -1.16      0.00
   10    7    1      0.90      0.00
   11    7    1     -0.50      0.00
   12    7    1      1.38      0.00
   13    7    1      0.19      0.00
   14    7    1     -0.65      0.00
   15    7    1      0.39      0.00
   16    7    1     -0.20      0.00
   17    7    1      0.21      0.00
   18    7    1      0.10      0.00
   19    7    1      0.47      0.00
   20    7    1     -1.03      0.00
   21    7    1      0.00      0.00
   22    7    1     -0.10      0.00
   23    7    1     -0.47      0.00
   24    7    1      2.13      0.00
   25    7    1      0.78      0.00
    0    8    1     -1.76      0.00
    1    8    1      1.59      0.00
    2    8    1     -1.14      0.00
    3    8    1     -0.40      0.00
    4    8    1     -0.92      0.00
    5    8    1     -1.93      0.00
    6    8    1     -0.79      0.00
    7    8    1      1.07      0.00
    8    8    1     -0.69      0.00
    9    8    1      1.02      0.00
   10    8    1      0.00      0.00
   11    8    1     -0.02      0.00
   12    8    1      0.17      0.00
   13    8    1     -0.15      0.00
   14    8    1     -0.15      0.00
   15    8    1      0.49      0.00
   16    8    1     -0.21      0.00
   17    8    1     -1.10      0.00
   18    8    1     -0.61      0.00
   19    8    1     -1.09      0.00
   20    8    1     -0.13      0.00
   21    8    1      0.61      0.00
   22    8    1      1.51      0.00
   23    8    1      1.02      0.00
   24    8    1      0.84      0.00
    0    9    1      0.77      0.00
    1    9    1      1.47      0.00
    2    9    1      1.07      0.00
    3    9    1     -0.12      0.00
    4    9    1      0.98      0.00
    5    9    1     -1.43      0.00
    6    9    1      0.72      0.00
    7    9    1      0.99      0.00
    8    9    1      0.10      0.00
    9    9    1      0.28      0.00
   10    9    1      0.11      0.00
   11    9    1     -1.52      0.00
   12    9    1      0.72      0.00
   13    9    1     -0.28      0.00
   14    9    1      0.55      0.00
   15    9    1      0.64      0.00
   16    9    1      0.55      0.00
   17    9    1     -0.55      0.00
   18    9    1      0.48      0.00
   19    9    1      0.72      0.00
   20    9    1     -0.33      0.00
   21    9    1      1.58      0.00
   22    9    1      0.01      0.00
   23    9    1      1.44      0.00
    0   10    1     -1.24      0.00
    1   10    1      1.55      0.00
    2   10    1     -0.02      0.00
    3   10    1      0.12      0.00
    4   10    1      0.31      0.00
    5   10    1     -0.54      0.00
    6   10    1     -1.82      0.00
    7   10    1      1.49      0.00
    8   10    1     -1.39      0.00
    9   10    1     -0.31      0.00
   10   10    1      0.65      0.00
   11   10    1     -1.49      0.00
   12   10    1      0.04      0.00
   13   10    1      1.38      0.00
   14   10    1     -0.49      0.00
   15   10    1      1.43      0.00
   16   10    1      0.54      0.00
   17   10    1     -0.55      0.00
   18   10    1     -0.26      0.00
   19   10    1      0.38      0.00
   20   10    1     -1.02      0.00
   21   10    1      0.18      0.00
   22   10    1     -0.51      0.00
    0   11    1     -0.52      0.00
    1   11    1     -0.90      0.00
    2   11    1     -0.33      0.00
    3   11    1     -1.22      0.00
    4   11    1      0.77      0.00
    5   11    1     -0.51      0.00
    6   11    1     -0.50      0.00
    7   11    1      1.02      0.00
    8   11    1     -1.16      0.00
    9   11    1     -0.43      0.00
   10   11    1     -0.30      0.00
   11   11    1     -1.16      0.00
   12   11    1     -0.79      0.00
   13   11    1      0.81      0.00
   14   11    1     -0.39      0.00
   15   11    1      0.86      0.00
   16   11    1      0.37      0.00
   17   11    1     -1.05      0.00
   18   11    1     -0.05      0.00
   19   11    1     -0.05      0.00
   20   11    1      0.58      0.00
   21   11    1      0.63      0.00
    0   12    1      0.31      0.00
    1   12    1     -1.86      0.00
    2   12    1     -0.15      0.00
    3   12    1     -2.22      0.00
    4   12    1     -0.23      0.00
    5   12    1     -0.78      0.00
    6   12    1     -0.75      0.00
    7   12    1      0.31      0.00
    8   12    1      0.05      0.00
    9   12    1     -0.75      0.00
   10   12    1      1.29      0.00
   11   12    1     -0.50      0.00
   12   12    1      0.32      0.00
   13   12    1      0.44      0.00
   14   12    1     -0.54      0.00
   15   12    1     -0.15      0.00
   16   12    1      0.30      0.00
   17   12    1     -0.49      0.00
   18   12    1      0.29      0.00
   19   12    1      0.79      0.00
    0   13    1      1.27      0.00
    1   13    1     -1.99      0.00
    2   13    1      0.32      0.00
    3   13    1      0.17      0.00
    4   13    1     -0.01      0.00
    5   13    1      0.83      0.00
    6   13    1      0.25      0.00
    7   13    1      0.52      0.00
    8   13    1      0.42      0.00
    9   13    1      0.26      0.00
   10   13    1      0.61      0.00
   11   13    1      0.79      0.00
   12   13    1      0.09      0.00
   13   13    1      0.30      0.00
   14   13    1     -0.60      0.00
   15   13    1     -0.47      0.00
   16   13    1      0.05      0.00
   17   13    1      0.19      0.00
    2   14    1     -1.58      0.00
    3   14    1     -2.59      0.00
    4   14    1     -2.07      0.00
    5   14    1     -0.67      0.00
    6   14    1      0.88      0.00
    7   14    1     -0.26      0.00
    8   14    1     -0.01      0.00
    9   14    1     -0.16      0.00
   10   14    1     -1.58      0.00
   11   14    1      0.81      0.00
   12   14    1      0.44      0.00
   13   14    1     -0.25      0.00
   14   14    1      1.02      0.00
   15   14    1     -1.18      0.00
    5   15    1      2.21      0.00
    6   15    1      0.33      0.00
    7   15    1      1.90      0.00
    8   15    1      0.30      0.00
    9   15    1     -0.11      0.00
   10   15    1     -0.13      0.00
   11   15    1      1.25      0.00
   12   15    1      0.41      0.00
    8   16    1     -0.68      0.00
    4    0    2      1.34      0.00
    6    0    2     21.07      0.00
    8    0    2      2.55      0.00
   10    0    2     -5.66      0.00
   12    0    2     -2.35      0.00
   14    0    2     -3.51      0.00
   16    0    2     -0.72      0.00
   18    0    2      0.32      0.00
   20    0    2      0.46      0.00
   22    0    2      1.10      0.00
   24    0    2      2.07      0.00
   26    0    2      0.53      0.00
    1    1    2    -82.08      0.00
    2    1    2     -1.30      0.00
    4    1    2     -6.37      0.00
    6    1    2     15.66      0.00
    7    1    2     -4.18      0.00
    8    1    2      3.47      0.00
    9    1    2     -2.95      0.00
   10    1    2     -2.71      0.00
   11    1    2      0.15      0.00
   12    1    2      0.47      0.00
   13    1    2     -3.12      0.00
   14    1    2     -1.50      0.00
   15    1    2     -1.49      0.00
   16    1    2     -0.20      0.00
   17    1    2     -0.10      0.00
   18    1    2      0.71      0.00
   19    1    2      0.35      0.00
   20    1    2     -0.33      0.00
   21    1    2      0.03      0.00
   22    1    2      0.03      0.00
   23    1    2      0.43      0.00
   24    1    2      0.14      0.00
   25    1    2      0.93      0.00
   26    1    2     -0.88      0.00
   27    1    2      0.29      0.00
    0    2    2     19.54      0.00
    1    2    2     11.90      0.00
    2    2    2      1.26      0.00
    3    2    2     28.60      0.00
    4    2    2     -4.86      0.00
    5    2    2     13.35      0.00
    6    2    2      4.12      0.00
    7    2    2     -2.60      0.00
    8    2    2     -0.88      0.00
    9    2    2      0.67      0.00
   10    2    2     -2.85      0.00
   11    2    2     -0.49      0.00
   12    2    2     -0.50      0.00
   13    2    2     -0.24      0.00
   14    2    2     -0.77      0.00
   15    2    2      1.71      0.00
   16    2    2      1.03      0.00
   17    2    2      0.20      0.00
   18    2    2      1.88      0.00
   19    2    2      0.39      0.00
   20    2    2      0.43      0.00
   21    2    2      0.08      0.00
   22    2    2      0.65      0.00
   23    2    2      0.63      0.00
   24    2    2     -0.86      0.00
   25    2    2      0.50      0.00
   26    2    2     -0.52      0.00
   27    2    2     -1.14      0.00
    1    3    2    -27.36      0.00
    2    3    2     -6.70      0.00
    3    3    2    -12.66      0.00
    4    3    2     -7.24      0.00
    5    3    2     -0.19      0.00
    6    3    2     -3.15      0.00
    7    3    2      1.11      0.00
    8    3    2     -1.66      0.00
    9    3    2      1.65      0.00
   10    3    2      0.59      0.00
   11    3    2     -1.50      0.00
   12    3    2      0.38      0.00
   13    3    2     -2.26      0.00
   14    3    2     -0.47      0.00
   15    3    2     -1.20      0.00
   16    3    2      0.55      0.00
   17    3    2     -1.59      0.00
   18    3    2      0.97      0.00
   19    3    2     -1.00      0.00
   20    3    2     -0.09      0.00
   21    3    2     -0.88      0.00
   22    3    2     -0.69      0.00
   23    3    2      0.87      0.00
   24    3    2     -1.70      0.00
   25    3    2      1.30      0.00
   26    3    2     -0.26      0.00
   27    3    2     -0.41      0.00
    0    4    2     -1.01      0.00
    1    4    2      1.17      0.00
    2    4    2     -4.55      0.00
    3    4    2      7.00      0.00
    4    4    2     -1.18      0.00
    5    4    2      8.10      0.00
    6    4    2      1.44      0.00
    7    4    2     -0.02      0.00
    8    4    2      1.26      0.00
    9    4    2     -1.58      0.00
   10    4    2      1.99      0.00
   11    4    2      0.57      0.00
   12    4    2     -1.13      0.00
   13    4    2      1.15      0.00
   14    4    2     -1.28      0.00
   15    4    2      0.26      0.00
   16    4    2     -0.08      0.00
   17    4    2      0.98      0.00
   18    4    2      0.33      0.00
   19    4    2      0.77      0.00
   20    4    2      0.08      0.00
   21    4    2      0.20      0.00
   22    4    2     -1.16      0.00
   23    4    2      1.23      0.00
   24    4    2     -0.80      0.00
   25    4    2     -0.60      0.00
   26    4    2      0.48      0.00
    0    5    2      4.29      0.00
    1    5    2      5.24      0.00
    2    5    2     -0.62      0.00
    3    5    2     -4.58      0.00
    4    5    2     -1.08      0.00
    5    5    2     -4.92      0.00
    6    5    2     -0.99      0.00
    7    5    2     -1.48      0.00
    8    5    2     -0.70      0.00
    9    5    2      0.11      0.00
   10    5    2      1.48      0.00
   11    5    2      2.02      0.00
   12    5    2     -0.62      0.00
   13    5    2      1.89      0.00
   14    5    2      0.08      0.00
   15    5    2     -2.04      0.00
   16    5    2      1.17      0.00
   17    5    2     -1.08      0.00
   18    5    2      0.52      0.00
   19    5    2      0.20      0.00
   20    5    2      0.27      0.00
   21    5    2     -0.20      0.00
   22    5    2     -1.72      0.00
   23    5    2     -0.59      0.00
   24    5    2     -0.90      0.00
   25    5    2     -1.28      0.00
   26    5    2      0.50      0.00
    0    6    2     -1.94      0.00
    1    6    2     -2.62      0.00
    2    6    2     -2.23      0.00
    3    6    2     -0.49      0.00
    4    6    2      1.06      0.00
    5    6    2      1.59      0.00
    6    6    2      2.07      0.00
    7    6    2      2.20      0.00
    8    6    2      0.38      0.00
    9    6    2     -0.37      0.00
   10    6    2      0.53      0.00
   11    6    2     -0.14      0.00
   12    6    2     -0.12      0.00
   13    6    2      0.35      0.00
   14    6    2     -0.50      0.00
   15    6    2     -1.63      0.00
   16    6    2     -0.18      0.00
   17    6    2      0.08      0.00
   18    6    2     -0.24      0.00
   19    6    2      0.86      0.00
   20    6    2     -0.18      0.00
   21    6    2     -0.66      0.00
   22    6    2     -1.31      0.00
   23    6    2     -0.73      0.00
   24    6    2     -0.80      0.00
   25    6    2      1.01      0.00
    0    7    2      0.69      0.00
    1    7    2      3.29      0.00
    2    7    2      1.40      0.00
    3    7    2      1.92      0.00
    4    7    2      1.01      0.00
    5    7    2     -1.12      0.00
    6    7    2     -0.01      0.00
    7    7    2     -0.05      0.00
    8    7    2     -0.33      0.00
    9    7    2      0.87      0.00
   10    7    2     -0.68      0.00
   11    7    2      1.85      0.00
   12    7    2     -0.45      0.00
   13    7    2      0.82      0.00
   14    7    2      0.04      0.00
   15    7    2     -0.63      0.00
   16    7    2      0.17      0.00
   17    7    2     -0.21      0.00
   18    7    2     -0.18      0.00
   19    7    2     -0.41      0.00
   20    7    2      0.37      0.00
   21    7    2     -0.15      0.00
   22    7    2      0.44      0.00
   23    7    2      2.06      0.00
   24    7    2     -0.16      0.00
   25    7    2      2.58      0.00
    0    8    2      0.51      0.00
    1    8    2     -1.23      0.00
    2    8    2      1.14      0.00
    3    8    2     -1.78      0.00
    4    8    2     -0.95      0.00
    5    8    2     -0.99      0.00
    6    8    2     -0.09      0.00
    7    8    2     -0.10      0.00
    8    8    2      1.26      0.00
    9    8    2     -0.82      0.00
   10    8    2      0.37      0.00
   11    8    2      0.05      0.00
   12    8    2      0.76      0.00
   13    8    2      0.88      0.00
   14    8    2      0.51      0.00
   15    8    2     -0.16      0.00
   16    8    2      0.08      0.00
   17    8    2     -1.14      0.00
   18    8    2      0.51      0.00
   19    8    2     -0.71      0.00
   20    8    2      1.08      0.00
   21    8    2      0.32      0.00
   22    8    2      0.14      0.00
   23    8    2      1.49      0.00
   24    8    2     -0.13      0.00
    0    9    2      0.80      0.00
    1    9    2      1.48      0.00
    2    9    2      1.84      0.00
    3    9    2      0.83      0.00
    4    9    2     -0.05      0.00
    5    9    2      0.48      0.00
    6    9    2      0.03      0.00
    7    9    2      0.75      0.00
    8    9    2     -0.31      0.00
    9    9    2      0.26      0.00
   10    9    2     -1.20      0.00
   11    9    2      0.08      0.00
   12    9    2     -0.23      0.00
   13    9    2      0.67      0.00
   14    9    2     -0.26      0.00
   15    9    2      0.50      0.00
   16    9    2     -0.19      0.00
   17    9    2      0.40      0.00
   18    9    2      0.39      0.00
   19    9    2      0.27      0.00
   20    9    2      0.04      0.00
   21    9    2     -0.03      0.00
   22    9    2     -0.58      0.00
   23    9    2      0.81      0.00
    0   10    2      0.57      0.00
    1   10    2     -1.04      0.00
    2   10    2      1.03      0.00
    3   10    2      1.05      0.00
    4   10    2     -0.42      0.00
    5   10    2     -0.93      0.00
    6   10    2     -0.08      0.00
    7   10    2     -2.67      0.00
    8   10    2      0.31      0.00
    9   10    2     -0.08      0.00
   10   10    2     -0.12      0.00
   11   10    2      0.70      0.00
   12   10    2     -0.40      0.00
   13   10    2     -0.70      0.00
   14   10    2     -0.17      0.00
   15   10    2      0.04      0.00
   16   10    2      0.50      0.00
   17   10    2      0.42      0.00
   18   10    2      1.53      0.00
   19   10    2     -0.52      0.00
   20   10    2      1.57      0.00
   21   10    2     -0.25      0.00
   22   10    2      0.40      0.00
    0   11    2     -0.66      0.00
    1   11    2     -1.11      0.00
    2   11    2     -1.15      0.00
    3   11    2     -0.42      0.00
    4   11    2     -1.08      0.00
    5   11    2      0.09      0.00
    6   11    2      1.12      0.00
    7   11    2     -1.39      0.00
    8   11    2     -0.04      0.00
    9   11    2     -0.88      0.00
   10   11    2     -0.74      0.00
   11   11    2     -0.47      0.00
   12   11    2     -0.11      0.00
   13   11    2     -0.60      0.00
   14   11    2     -0.12      0.00
   15   11    2     -0.09      0.00
   16   11    2     -0.52      0.00
   17   11    2     -0.45      0.00
   18   11    2      0.07      0.00
   19   11    2     -0.34      0.00
   20   11    2      0.44      0.00
    0   12    2     -0.47      0.00
    1   12    2      0.72      0.00
    2   12    2     -1.58      0.00
    3   12    2      0.32      0.00
    4   12    2     -1.62      0.00
    5   12    2     -0.51      0.00
    6   12    2      0.89      0.00
    7   12    2     -0.58      0.00
    8   12    2      0.19      0.00
    9   12    2      1.10      0.00
   10   12    2      0.29      0.00
   11   12    2      0.68      0.00
   12   12    2      0.59      0.00
   13   12    2     -0.40      0.00
   14   12    2     -0.02      0.00
   15   12    2      0.11      0.00
   16   12    2     -0.04      0.00
   17   12    2      0.81      0.00
   18   12    2      0.54      0.00
   19   12    2     -0.18      0.00
    0   13    2     -0.84      0.00
    1   13    2     -0.31      0.00
    2   13    2     -1.03      0.00
    3   13    2      0.12      0.00
    4   13    2     -0.96      0.00
    5   13    2     -0.13      0.00
    6   13    2      0.13      0.00
    7   13    2     -0.26      0.00
    8   13    2     -0.27      0.00
    9   13    2      0.36      0.00
   10   13    2     -0.48      0.00
   11   13    2      0.28      0.00
   12   13    2     -0.33      0.00
   13   13    2     -0.03      0.00
   14   13    2     -0.32      0.00
   15   13    2     -0.05      0.00
   16   13    2     -0.19      0.00
   17   13    2      0.33      0.00
    1   14    2      1.06      0.00
    2   14    2     -1.78      0.00
    3   14    2     -2.66      0.00
    4   14    2     -0.38      0.00
    5   14    2      0.44      0.00
    6   14    2     -0.64      0.00
    7   14    2      1.88      0.00
    8   14    2      0.12      0.00
    9   14    2     -1.55      0.00
   10   14    2      0.83      0.00
   11   14    2     -1.01      0.00
   12   14    2      0.41      0.00
   13   14    2      1.65      0.00
   14   14    2      0.07      0.00
   15   14    2      0.55      0.00
    3   15    2      0.45      0.00
    4   15    2      0.63      0.00
    5   15    2      0.94      0.00
    6   15    2      0.04      0.00
    7   15    2      0.60      0.00
    8   15    2     -0.10      0.00
    9   15    2     -0.99      0.00
   10   15    2      0.49      0.00
   11   15    2     -0.39      0.00
   12   15    2      0.27      0.00
    6   16    2      0.67      0.00
    7   16    2     -1.88      0.00
    8   16    2     -0.06      0.00
    1    0    3    -38.81      0.00
    3    0    3     20.04      0.00
    7    0    3      5.17      0.00
    9    0    3     -9.87      0.00
   11    0    3     -2.09      0.00
   13    0    3     -6.38      0.00
   15    0    3     -3.82      0.00
   17    0    3     -0.10      0.00
   19    0    3     -1.04      0.00
   21    0    3     -0.20      0.00
   23    0    3      1.72      0.00
   25    0    3      2.02      0.00
   27    0    3      0.61      0.00
    1    1    3     10.06      0.00
    2    1    3    -14.45      0.00
    3    1    3     10.80      0.00
    4    1    3     19.96      0.00
    6    1    3      1.99      0.00
    7    1    3      7.77      0.00
    8    1    3     -3.40      0.00
    9    1    3     -2.47      0.00
   10    1    3      1.97      0.00
   11    1    3      1.21      0.00
   12    1    3      1.01      0.00
   13    1    3     -0.84      0.00
   14    1    3     -0.53      0.00
   15    1    3     -0.96      0.00
   16    1    3      0.05      0.00
   17    1    3      0.88      0.00
   18    1    3      1.18      0.00
   19    1    3     -0.12      0.00
   20    1    3      0.22      0.00
   21    1    3     -0.14      0.00
   22    1    3     -0.94      0.00
   23    1    3      1.06      0.00
   24    1    3     -0.45      0.00
   25    1    3      0.39      0.00
   26    1    3      0.44      0.00
   27    1    3     -0.44      0.00
    0    2    3     -1.47      0.00
    1    2    3     10.29      0.00
    2    2    3     15.36      0.00
    4    2    3     16.30      0.00
    5    2    3     -3.17      0.00
    6    2    3     -4.91      0.00
    7    2    3      0.76      0.00
    8    2    3     -4.80      0.00
    9    2    3     -1.76      0.00
   10    2    3      1.70      0.00
   11    2    3     -0.58      0.00
   12    2    3      0.36      0.00
   13    2    3     -1.02      0.00
   14    2    3      1.37      0.00
   15    2    3     -1.35      0.00
   16    2    3      2.30      0.00
   17    2    3      0.19      0.00
   18    2    3      1.24      0.00
   19    2    3     -0.87      0.00
   20    2    3     -0.50      0.00
   21    2    3     -0.32      0.00
   22    2    3     -1.87      0.00
   23    2    3      0.16      0.00
   24    2    3     -0.22      0.00
   25    2    3     -0.89      0.00
   26    2    3      0.64      0.00
   27    2    3      0.53      0.00
    1    3    3    -13.58      0.00
    2    3    3    -12.69      0.00
    3    3    3     -4.27      0.00
    4    3    3     -3.98      0.00
    5    3    3      0.81      0.00
    6    3    3     -0.17      0.00
    7    3    3     -3.05      0.00
    8    3    3      2.99      0.00
    9    3    3     -0.88      0.00
   10    3    3      2.81      0.00
   11    3    3      1.56      0.00
   12    3    3     -0.56      0.00
   13    3    3      0.22      0.00
   14    3    3     -1.11      0.00
   15    3    3      0.12      0.00
   16    3    3     -1.66      0.00
   17    3    3      1.45      0.00
   18    3    3     -0.66      0.00
   19    3    3      0.41      0.00
   20    3    3     -0.72      0.00
   21    3    3      0.78      0.00
   22    3    3     -2.09      0.00
   23    3    3     -0.15      0.00
   24    3    3      0.48      0.00
   25    3    3     -0.97      0.00
   26    3    3      0.32      0.00
    0    4    3      3.16      0.00
    1    4    3      7.44      0.00
    2    4    3      3.56      0.00
    3    4    3      0.76      0.00
    4    4    3      4.54      0.00
    5    4    3     -1.32      0.00
    6    4    3      1.45      0.00
    7    4    3     -2.28      0.00
    8    4    3     -1.12      0.00
    9    4    3      1.61      0.00
   10    4    3     -1.08      0.00
   11    4    3      1.89      0.00
   12    4    3      0.45      0.00
   13    4    3     -0.01      0.00
   14    4    3      1.15      0.00
   15    4    3     -0.88      0.00
   16    4    3      0.54      0.00
   17    4    3     -0.42      0.00
   18    4    3      1.14      0.00
   19    4    3      0.24      0.00
   20    4    3      0.67      0.00
   21    4    3     -0.17      0.00
   22    4    3      0.07      0.00
   23    4    3     -1.89      0.00
   24    4    3      1.26      0.00
   25    4    3     -0.84      0.00
   26    4    3     -0.37      0.00
    0    5    3      0.54      0.00
    1    5    3     -1.23      0.00
    2    5    3     -0.54      0.00
    3    5    3     -2.50      0.00
    4    5    3     -1.94      0.00
    5    5    3     -1.28      0.00
    6    5    3     -2.41      0.00
    7    5    3     -2.29      0.00
    8    5    3     -1.07      0.00
    9    5    3      0.80      0.00
   10    5    3     -0.39      0.00
   11    5    3      0.56      0.00
   12    5    3      1.23      0.00
   13    5    3     -0.42      0.00
   14    5    3     -0.04      0.00
   15    5    3      0.65      0.00
   16    5    3     -1.08      0.00
   17    5    3      0.14      0.00
   18    5    3     -0.09      0.00
   19    5    3      0.35      0.00
   20    5    3      0.21      0.00
   21    5    3     -0.71      0.00
   22    5    3      0.01      0.00
   23    5    3     -2.37      0.00
   24    5    3     -1.19      0.00
   25    5    3      0.48      0.00
   26    5    3     -2.36      0.00
    0    6    3     -1.78      0.00
    1    6    3     -1.55      0.00
    2    6    3     -0.30      0.00
    3    6    3      2.14      0.00
    4    6    3      1.35      0.00
    5    6    3      2.88      0.00
    6    6    3      1.93      0.00
    7    6    3      0.67      0.00
    8    6    3      0.94      0.00
    9    6    3      0.82      0.00
   10    6    3     -1.49      0.00
   11    6    3      0.07      0.00
   12    6    3      0.60      0.00
   13    6    3     -0.59      0.00
   14    6    3     -0.18      0.00
   15    6    3      0.09      0.00
   16    6    3     -1.55      0.00
   17    6    3     -0.46      0.00
   18    6    3     -0.04      0.00
   19    6    3      0.05      0.00
   20    6    3      0.45      0.00
   21    6    3     -0.44      0.00
   22    6    3      0.21      0.00
   23    6    3     -0.60      0.00
   24    6    3      0.04      0.00
   25    6    3      0.92      0.00
    0    7    3      3.12      0.00
    1    7    3      1.03      0.00
    2    7    3      1.68      0.00
    3    7    3      0.60      0.00
    4    7    3     -1.01      0.00
    5    7    3     -1.10      0.00
    6    7    3     -0.05      0.00
    7    7    3     -1.60      0.00
    8    7    3      1.52      0.00
    9    7    3     -1.38      0.00
   10    7    3      0.11      0.00
   11    7    3      0.00      0.00
   12    7    3      1.62      0.00
   13    7    3      1.26      0.00
   14    7    3      1.71      0.00
   15    7    3      0.30      0.00
   16    7    3     -0.41      0.00
   17    7    3     -0.85      0.00
   18    7    3     -0.97      0.00
   19    7    3      0.07      0.00
   20    7    3      0.63      0.00
   21    7    3      0.16      0.00
   22    7    3      1.83      0.00
   23    7    3      0.02      0.00
   24    7    3      2.03      0.00
    0    8    3      0.06      0.00
    1    8    3      0.36      0.00
    2    8    3     -0.91      0.00
    3    8    3      1.14      0.00
    4    8    3     -1.51      0.00
    5    8    3      0.22      0.00
    6    8    3      0.04      0.00
    7    8    3      1.04      0.00
    8    8    3      1.34      0.00
    9    8    3      0.00      0.00
   10    8    3      0.37      0.00
   11    8    3      0.38      0.00
   12    8    3      0.13      0.00
   13    8    3      1.10      0.00
   14    8    3     -0.01      0.00
   15    8    3      0.40      0.00
   16    8    3     -0.84      0.00
   17    8    3      0.56      0.00
   18    8    3     -0.80      0.00
   19    8    3      1.34      0.00
   20    8    3     -0.19      0.00
   21    8    3     -0.11      0.00
   22    8    3      0.09      0.00
   23    8    3     -0.84      0.00
   24    8    3      0.40      0.00
    0    9    3      0.73      0.00
    1    9    3      0.74      0.00
    2    9    3      0.63      0.00
    3    9    3      2.69      0.00
    4    9    3      0.66      0.00
    5    9    3     -0.30      0.00
    6    9    3     -0.10      0.00
    7    9    3     -1.16      0.00
    8    9    3     -0.15      0.00
    9    9    3     -0.71      0.00
   10    9    3     -0.37      0.00
   11    9    3      0.61      0.00
   12    9    3      0.17      0.00
   13    9    3     -0.96      0.00
   14    9    3      0.34      0.00
   15    9    3     -1.13      0.00
   16    9    3     -0.25      0.00
   17    9    3      0.99      0.00
   18    9    3      0.18      0.00
   19    9    3      1.36      0.00
   20    9    3      0.25      0.00
   21    9    3     -0.86      0.00
   22    9    3      0.23      0.00
   23    9    3     -0.89      0.00
    0   10    3     -0.21      0.00
    1   10    3     -0.66      0.00
    2   10    3     -0.11      0.00
    3   10    3      1.03      0.00
    4   10    3      0.09      0.00
    5   10    3      0.82      0.00
    6   10    3     -0.43      0.00
    7   10    3     -0.59      0.00
    8   10    3     -0.48      0.00
    9   10    3     -1.02      0.00
   10   10    3     -0.29      0.00
   11   10    3      0.75      0.00
   12   10    3      0.12      0.00
   13   10    3     -0.11      0.00
   14   10    3      0.32      0.00
   15   10    3     -0.35      0.00
   16   10    3     -0.09      0.00
   17   10    3      0.57      0.00
   18   10    3     -0.52      0.00
   19   10    3      1.61      0.00
   20   10    3      1.14      0.00
   21   10    3      1.02      0.00
    0   11    3     -1.34      0.00
    1   11    3     -0.36      0.00
    2   11    3     -1.14      0.00
    3   11    3     -1.70      0.00
    4   11    3     -1.34      0.00
    5   11    3      0.29      0.00
    6   11    3     -1.94      0.00
    7   11    3      1.10      0.00
    8   11    3     -0.88      0.00
    9   11    3     -0.29      0.00
   10   11    3      0.66      0.00
   11   11    3     -0.06      0.00
   12   11    3     -0.31      0.00
   13   11    3     -1.01      0.00
   14   11    3     -1.25      0.00
   15   11    3     -0.64      0.00
   16   11    3     -0.70      0.00
   17   11    3      0.41      0.00
   18   11    3     -0.80      0.00
   19   11    3      0.69      0.00
   20   11    3      0.22      0.00
    0   12    3      0.13      0.00
    1   12    3     -0.32      0.00
    2   12    3      1.35      0.00
    3   12    3     -0.88      0.00
    4   12    3      1.27      0.00
    5   12    3     -0.42      0.00
    6   12    3     -0.35      0.00
    7   12    3     -0.09      0.00
    8   12    3     -0.18      0.00
    9   12    3      0.36      0.00
   10   12    3     -0.05      0.00
   11   12    3      1.52      0.00
   12   12    3     -0.13      0.00
   13   12    3     -0.16      0.00
   14   12    3      0.56      0.00
   15   12    3     -0.36      0.00
   16   12    3      0.93      0.00
   17   12    3      0.97      0.00
   18   12    3      0.47      0.00
   19   12    3      0.96      0.00
    0   13    3     -2.33      0.00
    1   13    3     -0.53      0.00
    2   13    3     -0.95      0.00
    3   13    3     -1.82      0.00
    4   13    3     -0.17      0.00
    5   13    3     -0.38      0.00
    6   13    3     -0.57      0.00
    7   13    3      0.42      0.00
    8   13    3     -0.37      0.00
    9   13    3     -1.38      0.00
   10   13    3     -0.54      0.00
   11   13    3     -0.90      0.00
   12   13    3      0.35      0.00
   13   13    3      0.09      0.00
   14   13    3      0.86      0.00
   15   13    3     -0.25      0.00
   16   13    3     -0.08      0.00
   17   13    3     -0.22      0.00
    0   14    3      2.47      0.00
    1   14    3     -1.04      0.00
    2   14    3      0.40      0.00
    3   14    3      0.33      0.00
    4   14    3     -0.06      0.00
    5   14    3     -0.88      0.00
    6   14    3      1.39      0.00
    7   14    3     -0.41      0.00
    8   14    3      0.30      0.00
    9   14    3      1.04      0.00
   10   14    3     -0.61      0.00
   11   14    3      0.86      0.00
   12   14    3      0.44      0.00
   13   14    3     -0.16      0.00
   14   14    3      0.66      0.00
    1   15    3      1.18      0.00
    2   15    3     -0.78      0.00
    3   15    3      1.90      0.00
    4   15    3     -0.76      0.00
    5   15    3     -2.15      0.00
    6   15    3      1.47      0.00
    7   15    3     -2.26      0.00
    8   15    3     -1.04      0.00
    9   15    3      0.96      0.00
   10   15    3     -1.98      0.00
   11   15    3      0.69      0.00
    4   16    3     -0.42      0.00
    5   16    3     -0.86      0.00
    6   16    3     -0.23      0.00
    7   16    3      0.18      0.00
    2    0    4    -11.40      0.00
    4    0    4     42.19      0.00
    6    0    4     19.37      0.00
    8    0    4    -11.06      0.00
   10    0    4     -0.82      0.00
   12    0    4      0.50      0.00
   14    0    4     -5.00      0.00
   16    0    4     -0.92      0.00
   18    0    4     -0.31      0.00
   20    0    4     -1.72      0.00
   22    0    4     -0.91      0.00
   24    0    4      0.55      0.00
   26    0    4      1.17      0.00
    0    1    4      1.47      0.00
    1    1    4     -4.77      0.00
    2    1    4      7.33      0.00
    3    1    4      3.05      0.00
    5    1    4     -3.78      0.00
    6    1    4      9.48      0.00
    7    1    4     -2.95      0.00
    8    1    4     -5.83      0.00
    9    1    4      2.55      0.00
   10    1    4      0.44      0.00
   11    1    4      2.76      0.00
   12    1    4      2.01      0.00
   13    1    4      1.88      0.00
   14    1    4     -0.53      0.00
   15    1    4      0.62      0.00
   16    1    4      1.40      0.00
   17    1    4      0.87      0.00
   18    1    4      0.30      0.00
   19    1    4      0.75      0.00
   20    1    4     -1.31      0.00
   21    1    4     -0.82      0.00
   22    1    4     -0.19      0.00
   23    1    4     -1.46      0.00
   24    1    4      0.40      0.00
   25    1    4     -0.48      0.00
   26    1    4      0.65      0.00
   27    1    4      0.58      0.00
    0    2    4     11.21      0.00
    1    2    4      3.08      0.00
    2    2    4     -1.64      0.00
    3    2    4      8.06      0.00
    4    2    4     -5.91      0.00
    5    2    4     -6.19      0.00
    6    2    4      1.18      0.00
    7    2    4     -9.17      0.00
    8    2    4      0.09      0.00
    9    2    4      0.31      0.00
   10    2    4      0.71      0.00
   11    2    4      2.76      0.00
   12    2    4      0.31      0.00
   13    2    4      1.20      0.00
   14    2    4     -0.98      0.00
   15    2    4      1.76      0.00
   16    2    4     -1.16      0.00
   17    2    4      1.62      0.00
   18    2    4     -1.60      0.00
   19    2    4      1.21      0.00
   20    2    4     -1.92      0.00
   21    2    4     -0.74      0.00
   22    2    4     -0.16      0.00
   23    2    4     -2.18      0.00
   24    2    4     -0.81      0.00
   25    2    4     -0.26      0.00
   26    2    4     -0.36      0.00
    0    3    4    -13.63      0.00
    2    3    4     -8.66      0.00
    3    3    4     -0.62      0.00
    4    3    4      0.53      0.00
    5    3    4      0.00      0.00
    6    3    4      0.18      0.00
    7    3    4      0.01      0.00
    8    3    4     -1.95      0.00
    9    3    4      3.14      0.00
   10    3    4      0.48      0.00
   11    3    4      2.05      0.00
   12    3    4      0.89      0.00
   13    3    4     -0.20      0.00
   14    3    4     -0.22      0.00
   15    3    4     -0.21      0.00
   16    3    4     -0.18      0.00
   17    3    4     -0.02      0.00
   18    3    4      0.31      0.00
   19    3    4      0.94      0.00
   20    3    4      0.95      0.00
   21    3    4     -1.81      0.00
   22    3    4      2.67      0.00
   23    3    4     -2.41      0.00
   24    3    4      0.64      0.00
   25    3    4      0.43      0.00
   26    3    4      0.12      0.00
    1    4    4      3.97      0.00
    2    4    4      6.21      0.00
    3    4    4      3.07      0.00
    4    4    4      2.62      0.00
    5    4    4     -0.46      0.00
    6    4    4     -2.38      0.00
    7    4    4     -2.23      0.00
    8    4    4     -2.80      0.00
    9    4    4     -0.46      0.00
   10    4    4      0.59      0.00
   11    4    4     -0.69      0.00
   12    4    4      1.04      0.00
   13    4    4     -0.12      0.00
   14    4    4      0.32      0.00
   15    4    4      0.86      0.00
   16    4    4      0.06      0.00
   17    4    4      0.58      0.00
   18    4    4     -0.74      0.00
   19    4    4      1.00      0.00
   20    4    4      0.07      0.00
   21    4    4     -0.07      0.00
   22    4    4      0.45      0.00
   23    4    4     -0.22      0.00
   24    4    4     -1.38      0.00
   25    4    4      0.51      0.00
   26    4    4     -1.08      0.00
    0    5    4     -1.77      0.00
    1    5    4     -3.68      0.00
    2    5    4     -2.50      0.00
    3    5    4      0.01      0.00
    4    5    4     -1.64      0.00
    5    5    4      0.04      0.00
    6    5    4     -1.33      0.00
    7    5    4     -0.40      0.00
    8    5    4     -1.28      0.00
    9    5    4     -0.87      0.00
   10    5    4      0.47      0.00
   11    5    4     -0.59      0.00
   12    5    4      0.14      0.00
   13    5    4      0.59      0.00
   14    5    4     -0.13      0.00
   15    5    4     -0.66      0.00
   16    5    4     -0.04      0.00
   17    5    4     -0.59      0.00
   18    5    4     -0.33      0.00
   19    5    4      0.34      0.00
   20    5    4      0.37      0.00
   21    5    4      0.57      0.00
   22    5    4     -1.30      0.00
   23    5    4     -0.06      0.00
   24    5    4     -1.05      0.00
   25    5    4     -1.12      0.00
    0    6    4     -0.16      0.00
    1    6    4     -1.40      0.00
    2    6    4      1.45      0.00
    3    6    4      2.08      0.00
    4    6    4      2.55      0.00
    5    6    4      2.25      0.00
    6    6    4      1.43      0.00
    7    6    4      1.63      0.00
    8    6    4      0.40      0.00
    9    6    4     -0.88      0.00
   10    6    4      0.41      0.00
   11    6    4     -1.69      0.00
   12    6    4      0.26      0.00
   13    6    4      0.66      0.00
   14    6    4      0.63      0.00
   15    6    4     -0.55      0.00
   16    6    4     -0.39      0.00
   17    6    4     -0.47      0.00
   18    6    4     -1.35      0.00
   19    6    4     -0.32      0.00
   20    6    4     -0.04      0.00
   21    6    4      0.54      0.00
   22    6    4     -0.29      0.00
   23    6    4      0.46      0.00
   24    6    4      1.66      0.00
   25    6    4     -0.80      0.00
    0    7    4      0.27      0.00
    1    7    4      2.04      0.00
    2    7    4      0.19      0.00
    3    7    4      0.01      0.00
    4    7    4     -1.09      0.00
    5    7    4     -1.93      0.00
    6    7    4     -1.41      0.00
    7    7    4      0.38      0.00
    8    7    4     -1.11      0.00
    9    7    4      1.89      0.00
   10    7    4     -0.34      0.00
   11    7    4      0.66      0.00
   12    7    4      1.02      0.00
   13    7    4      1.42      0.00
   14    7    4      1.53      0.00
   15    7    4      0.89      0.00
   16    7    4      0.01      0.00
   17    7    4     -0.07      0.00
   18    7    4     -0.22      0.00
   19    7    4     -0.26      0.00
   20    7    4      0.16      0.00
   21    7    4      1.47      0.00
   22    7    4     -0.90      0.00
   23    7    4      0.91      0.00
   24    7    4      0.36      0.00
    0    8    4      0.21      0.00
    1    8    4     -1.21      0.00
    2    8    4      1.25      0.00
    3    8    4     -0.34      0.00
    4    8    4      1.47      0.00
    5    8    4      1.25      0.00
    6    8    4      0.45      0.00
    7    8    4      1.76      0.00
    8    8    4     -0.37      0.00
    9    8    4      0.65      0.00
   10    8    4     -0.21      0.00
   11    8    4     -0.13      0.00
   12    8    4      0.83      0.00
   13    8    4      0.26      0.00
   14    8    4      0.27      0.00
   15    8    4     -0.14      0.00
   16    8    4     -0.63      0.00
   17    8    4     -0.53      0.00
   18    8    4      0.77      0.00
   19    8    4     -0.69      0.00
   20    8    4     -0.19      0.00
   21    8    4     -0.31      0.00
   22    8    4     -2.12      0.00
   23    8    4     -0.34      0.00
    0    9    4     -0.70      0.00
    1    9    4      0.68      0.00
    2    9    4      1.64      0.00
    3    9    4      0.36      0.00
    4    9    4      2.49      0.00
    5    9    4     -0.35      0.00
    6    9    4     -0.32      0.00
    7    9    4     -0.77      0.00
    8    9    4     -1.45      0.00
    9    9    4      0.20      0.00
   10    9    4     -0.21      0.00
   11    9    4      0.18      0.00
   12    9    4      0.53      0.00
   13    9    4     -0.24      0.00
   14    9    4     -0.25      0.00
   15    9    4     -0.52      0.00
   16    9    4      0.15      0.00
   17    9    4     -0.50      0.00
   18    9    4      1.20      0.00
   19    9    4     -0.16      0.00
   20    9    4      1.28      0.00
   21    9    4      0.97      0.00
   22    9    4      0.43      0.00
    0   10    4     -1.10      0.00
    1   10    4     -0.01      0.00
    2   10    4     -0.34      0.00
    3   10    4     -0.31      0.00
    4   10    4      0.81      0.00
    5   10    4      0.31      0.00
    6   10    4     -0.16      0.00
    7   10    4      0.31      0.00
    8   10    4     -0.81      0.00
    9   10    4      0.22      0.00
   10   10    4      1.00      0.00
   11   10    4      0.26      0.00
   12   10    4      0.60      0.00
   13   10    4     -0.08      0.00
   14   10    4     -1.11      0.00
   15   10    4     -0.12      0.00
   16   10    4     -0.44      0.00
   17   10    4     -0.25      0.00
   18   10    4      0.59      0.00
   19   10    4      0.77      0.00
   20   10    4      0.72      0.00
   21   10    4      1.58      0.00
    0   11    4     -0.15      0.00
    1   11    4     -1.54      0.00
    2   11    4     -0.96      0.00
    3   11    4     -1.22      0.00
    4   11    4     -0.22      0.00
    5   11    4     -1.03      0.00
    6   11    4      0.80      0.00
    7   11    4     -1.43      0.00
    8   11    4      0.10      0.00
    9   11    4     -1.47      0.00
   10   11    4     -0.23      0.00
   11   11    4      0.26      0.00
   12   11    4     -0.53      0.00
   13   11    4     -0.11      0.00
   14   11    4     -0.51      0.00
   15   11    4     -0.77      0.00
   16   11    4      0.30      0.00
   17   11    4     -1.04      0.00
   18   11    4      0.87      0.00
   19   11    4     -0.60      0.00
   20   11    4     -0.34      0.00
    0   12    4     -0.67      0.00
    1   12    4      0.90      0.00
    2   12    4     -0.38      0.00
    3   12    4      1.37      0.00
    4   12    4     -0.01      0.00
    5   12    4     -0.36      0.00
    6   12    4      0.01      0.00
    7   12    4     -0.78      0.00
    8   12    4     -0.44      0.00
    9   12    4     -0.27      0.00
   10   12    4     -0.16      0.00
   11   12    4      0.49      0.00
   12   12    4      0.67      0.00
   13   12    4      0.72      0.00
   14   12    4      0.40      0.00
   15   12    4      0.32      0.00
   16   12    4      0.57      0.00
   17   12    4      0.43      0.00
   18   12    4      0.73      0.00
    0   13    4      0.57      0.00
    1   13    4     -2.23      0.00
    2   13    4     -0.71      0.00
    3   13    4      0.44      0.00
    4   13    4     -1.78      0.00
    5   13    4     -0.21      0.00
    6   13    4     -0.19      0.00
    7   13    4     -0.67      0.00
    8   13    4      0.14      0.00
    9   13    4     -0.18      0.00
   10   13    4     -0.02      0.00
   11   13    4     -0.23      0.00
   12   13    4      0.09      0.00
   13   13    4      0.22      0.00
   14   13    4     -1.43      0.00
   15   13    4      0.10      0.00
   16   13    4     -0.71      0.00
    0   14    4      1.06      0.00
    1   14    4      1.48      0.00
    2   14    4      0.81      0.00
    3   14    4      0.75      0.00
    4   14    4     -0.31      0.00
    5   14    4      0.21      0.00
    6   14    4     -0.38      0.00
    7   14    4     -0.57      0.00
    8   14    4     -0.07      0.00
    9   14    4      0.12      0.00
   10   14    4      0.35      0.00
   11   14    4      0.63      0.00
   12   14    4      0.35      0.00
   13   14    4      0.02      0.00
   14   14    4     -0.86      0.00
    0   15    4     -0.23      0.00
    1   15    4      2.16      0.00
    2   15    4      1.19      0.00
    3   15    4     -2.42      0.00
    4   15    4     -0.63      0.00
    5   15    4      0.37      0.00
    6   15    4     -3.03      0.00
    7   15    4      0.16      0.00
    8   15    4     -0.67      0.00
    9   15    4     -1.96      0.00
   10   15    4      1.29      0.00
   11   15    4     -0.49      0.00
    3   16    4     -1.13      0.00
    4   16    4      0.62      0.00
    5   16    4      1.35      0.00
    6   16    4     -1.08      0.00
    1    0    5    -14.78      0.00
    3    0    5     13.20      0.00
    5    0    5     19.60      0.00
    7    0    5     -3.72      0.00
    9    0    5     -4.07      0.00
   11    0    5      5.55      0.00
   13    0    5      0.57      0.00
   15    0    5     -1.46      0.00
   17    0    5      0.77      0.00
   19    0    5     -0.81      0.00
   21    0    5     -2.13      0.00
   23    0    5     -1.56      0.00
   25    0    5     -0.32      0.00
    0    1    5     19.04      0.00
    1    1    5      5.45      0.00
    2    1    5      5.45      0.00
    4    1    5    -12.62      0.00
    5    1    5      6.13      0.00
    6    1    5     -6.61      0.00
    7    1    5     -7.02      0.00
    8    1    5      5.47      0.00
    9    1    5     -4.01      0.00
   10    1    5      3.56      0.00
   11    1    5      3.88      0.00
   12    1    5      1.44      0.00
   13    1    5      0.70      0.00
   14    1    5      1.49      0.00
   15    1    5      0.61      0.00
   16    1    5     -0.60      0.00
   17    1    5      1.54      0.00
   18    1    5      0.00      0.00
   19    1    5     -0.67      0.00
   20    1    5      0.44      0.00
   21    1    5     -1.60      0.00
   22    1    5     -0.32      0.00
   23    1    5     -1.21      0.00
   24    1    5     -0.84      0.00
   25    1    5     -0.41      0.00
   26    1    5      0.03      0.00
    0    2    5     -2.78      0.00
    1    2    5      2.04      0.00
    2    2    5      2.99      0.00
    3    2    5     -4.11      0.00
    4    2    5      0.76      0.00
    5    2    5      1.66      0.00
    6    2    5     -7.68      0.00
    7    2    5      1.07      0.00
    8    2    5     -2.52      0.00
    9    2    5      0.89      0.00
   10    2    5      1.61      0.00
   11    2    5      1.93      0.00
   12    2    5      0.10      0.00
   13    2    5      0.38      0.00
   14    2    5      1.18      0.00
   15    2    5     -0.34      0.00
   16    2    5      1.06      0.00
   17    2    5     -0.35      0.00
   18    2    5      0.83      0.00
   19    2    5     -0.93      0.00
   20    2    5      1.72      0.00
   21    2    5     -1.22      0.00
   22    2    5     -0.05      0.00
   23    2    5     -0.83      0.00
   24    2    5     -1.39      0.00
   25    2    5     -1.13      0.00
   26    2    5      0.13      0.00
    0    3    5     -4.12      0.00
    1    3    5     -6.90      0.00
    2    3    5      0.06      0.00
    3    3    5     -2.96      0.00
    4    3    5      2.41      0.00
    5    3    5      1.94      0.00
    6    3    5     -1.63      0.00
    7    3    5      0.89      0.00
    8    3    5      0.17      0.00
    9    3    5     -0.85      0.00
   10    3    5      2.64      0.00
   11    3    5     -1.36      0.00
   12    3    5      0.18      0.00
   13    3    5     -0.50      0.00
   14    3    5      0.18      0.00
   15    3    5     -0.72      0.00
   16    3    5      0.45      0.00
   17    3    5     -0.69      0.00
   18    3    5      0.60      0.00
   19    3    5     -0.33      0.00
   20    3    5      1.19      0.00
   21    3    5      1.41      0.00
   22    3    5     -1.23      0.00
   23    3    5      2.76      0.00
   24    3    5     -0.87      0.00
   25    3    5      0.52      0.00
   26    3    5     -0.33      0.00
    0    4    5      5.09      0.00
    1    4    5      6.23      0.00
    2    4    5      3.08      0.00
    3    4    5      3.79      0.00
    4    4    5      0.39      0.00
    5    4    5      0.18      0.00
    6    4    5     -2.55      0.00
    7    4    5     -2.01      0.00
    8    4    5     -2.04      0.00
    9    4    5     -1.60      0.00
   10    4    5     -0.02      0.00
   11    4    5      0.35      0.00
   12    4    5     -0.26      0.00
   13    4    5      0.39      0.00
   14    4    5      0.22      0.00
   15    4    5      0.12      0.00
   16    4    5      0.89      0.00
   17    4    5     -0.27      0.00
   18    4    5      1.04      0.00
   19    4    5     -0.17      0.00
   20    4    5      0.47      0.00
   21    4    5      1.28      0.00
   22    4    5     -1.53      0.00
   23    4    5      1.08      0.00
   24    4    5     -0.42      0.00
   25    4    5     -0.74      0.00
   26    4    5     -0.28      0.00
    0    5    5     -8.47      0.00
    1    5    5     -3.17      0.00
    2    5    5     -2.62      0.00
    3    5    5     -1.58      0.00
    4    5    5      2.54      0.00
    5    5    5      1.23      0.00
    6    5    5      0.82      0.00
    7    5    5      0.47      0.00
    8    5    5      0.75      0.00
    9    5    5     -1.54      0.00
   10    5    5     -0.58      0.00
   11    5    5     -0.14      0.00
   12    5    5     -1.20      0.00
   13    5    5     -0.56      0.00
   14    5    5     -0.78      0.00
   15    5    5     -0.56      0.00
   16    5    5     -0.61      0.00
   17    5    5      0.00      0.00
   18    5    5     -0.35      0.00
   19    5    5      0.36      0.00
   20    5    5      0.22      0.00
   21    5    5     -0.82      0.00
   22    5    5      0.30      0.00
   23    5    5     -1.14      0.00
   24    5    5      0.30      0.00
   25    5    5     -0.14      0.00
    0    6    5     -1.97      0.00
    1    6    5      3.29      0.00
    2    6    5      1.09      0.00
    3    6    5      0.88      0.00
    4    6    5      2.10      0.00
    5    6    5     -0.24      0.00
    6    6    5      0.38      0.00
    7    6    5      0.39      0.00
    8    6    5      0.70      0.00
    9    6    5      0.35      0.00
   10    6    5     -1.05      0.00
   11    6    5      0.18      0.00
   12    6    5      0.26      0.00
   13    6    5      0.20      0.00
   14    6    5      0.61      0.00
   15    6    5      1.16      0.00
   16    6    5     -0.01      0.00
   17    6    5     -0.35      0.00
   18    6    5     -0.11      0.00
   19    6    5     -0.70      0.00
   20    6    5     -0.66      0.00
   21    6    5     -1.00      0.00
   22    6    5      0.06      0.00
   23    6    5      0.54      0.00
   24    6    5      0.15      0.00
   25    6    5      2.42      0.00
    0    7    5      1.30      0.00
    1    7    5     -0.52      0.00
    2    7    5      0.93      0.00
    3    7    5     -1.26      0.00
    4    7    5     -0.43      0.00
    5    7    5     -0.77      0.00
    6    7    5     -1.08      0.00
    7    7    5      0.15      0.00
    8    7    5      0.74      0.00
    9    7    5      0.17      0.00
   10    7    5      0.65      0.00
   11    7    5      0.68      0.00
   12    7    5      0.99      0.00
   13    7    5      1.23      0.00
   14    7    5      0.78      0.00
   15    7    5      1.01      0.00
   16    7    5      0.91      0.00
   17    7    5     -0.43      0.00
   18    7    5     -0.08      0.00
   19    7    5      0.52      0.00
   20    7    5     -0.84      0.00
   21    7    5     -0.80      0.00
   22    7    5     -0.01      0.00
   23    7    5     -0.37      0.00
   24    7    5     -0.41      0.00
    0    8    5     -2.04      0.00
    1    8    5      0.09      0.00
    2    8    5     -0.45      0.00
    3    8    5      1.70      0.00
    4    8    5      1.15      0.00
    5    8    5      1.70      0.00
    6    8    5      0.65      0.00
    7    8    5     -0.23      0.00
    8    8    5      1.57      0.00
    9    8    5     -0.83      0.00
   10    8    5      1.07      0.00
   11    8    5     -0.34      0.00
   12    8    5     -0.54      0.00
   13    8    5      0.22      0.00
   14    8    5     -0.94      0.00
   15    8    5     -0.79      0.00
   16    8    5      0.82      0.00
   17    8    5     -0.43      0.00
   18    8    5     -0.36      0.00
   19    8    5     -0.03      0.00
   20    8    5     -0.33      0.00
   21    8    5     -2.42      0.00
   22    8    5      0.68      0.00
   23    8    5     -1.08      0.00
    0    9    5      0.12      0.00
    1    9    5      1.41      0.00
    2    9    5      0.57      0.00
    3    9    5      1.31      0.00
    4    9    5      1.10      0.00
    5    9    5      0.93      0.00
    6    9    5     -0.40      0.00
    7    9    5     -0.21      0.00
    8    9    5     -0.82      0.00
    9    9    5      0.05      0.00
   10    9    5      0.78      0.00
   11    9    5      0.27      0.00
   12    9    5      1.07      0.00
   13    9    5      0.79      0.00
   14    9    5     -0.44      0.00
   15    9    5     -0.08      0.00
   16    9    5     -0.16      0.00
   17    9    5      0.52      0.00
   18    9    5     -0.79      0.00
   19    9    5      1.81      0.00
   20    9    5      0.12      0.00
   21    9    5      1.70      0.00
   22    9    5      1.16      0.00
    0   10    5      0.94      0.00
    1   10    5     -1.47      0.00
    2   10    5     -0.96      0.00
    3   10    5     -1.00      0.00
    4   10    5     -0.76      0.00
    5   10    5      0.83      0.00
    6   10    5      1.04      0.00
    7   10    5      0.00      0.00
    8   10    5     -0.03      0.00
    9   10    5     -0.29      0.00
   10   10    5     -0.43      0.00
   11   10    5      0.14      0.00
   12   10    5      0.20      0.00
   13   10    5      0.01      0.00
   14   10    5      0.12      0.00
   15   10    5     -0.79      0.00
   16   10    5      0.05      0.00
   17   10    5     -0.55      0.00
   18   10    5     -0.15      0.00
   19   10    5      0.00      0.00
   20   10    5      0.51      0.00
   21   10    5     -0.06      0.00
    0   11    5     -0.51      0.00
    1   11    5      0.02      0.00
    2   11    5     -0.29      0.00
    3   11    5     -0.43      0.00
    4   11    5     -0.36      0.00
    5   11    5     -0.05      0.00
    6   11    5     -1.17      0.00
    7   11    5      0.08      0.00
    8   11    5     -1.96      0.00
    9   11    5      0.38      0.00
   10   11    5     -0.57      0.00
   11   11    5     -0.50      0.00
   12   11    5      0.48      0.00
   13   11    5     -0.09      0.00
   14   11    5     -0.48      0.00
   15   11    5      0.30      0.00
   16   11    5     -0.68      0.00
   17   11    5      1.09      0.00
   18   11    5     -0.29      0.00
   19   11    5      0.13      0.00
    0   12    5     -0.34      0.00
    1   12    5     -0.45      0.00
    2   12    5      0.18      0.00
    3   12    5     -0.39      0.00
    4   12    5      0.02      0.00
    5   12    5     -0.12      0.00
    6   12    5     -0.73      0.00
    7   12    5      0.39      0.00
    8   12    5     -1.31      0.00
    9   12    5     -0.14      0.00
   10   12    5     -0.09      0.00
   11   12    5     -0.64      0.00
   12   12    5      1.85      0.00
   13   12    5      0.63      0.00
   14   12    5      0.46      0.00
   15   12    5      0.26      0.00
   16   12    5     -0.52      0.00
   17   12    5      0.54      0.00
   18   12    5      0.41      0.00
    0   13    5     -0.51      0.00
    1   13    5      0.47      0.00
    2   13    5      0.16      0.00
    3   13    5     -0.98      0.00
    4   13    5      0.48      0.00
    5   13    5     -0.82      0.00
    6   13    5     -0.26      0.00
    7   13    5      0.41      0.00
    8   13    5     -0.16      0.00
    9   13    5      0.38      0.00
   10   13    5      0.07      0.00
   11   13    5      0.08      0.00
   12   13    5      0.01      0.00
   13   13    5     -1.35      0.00
   14   13    5     -0.86      0.00
   15   13    5     -1.34      0.00
   16   13    5     -0.35      0.00
    0   14    5      0.36      0.00
    1   14    5      2.00      0.00
    2   14    5      0.72      0.00
    3   14    5     -0.36      0.00
    4   14    5     -0.10      0.00
    5   14    5     -0.30      0.00
    6   14    5     -2.47      0.00
    7   14    5     -0.22      0.00
    8   14    5     -0.90      0.00
    9   14    5     -0.78      0.00
   10   14    5      1.40      0.00
   11   14    5      0.63      0.00
   12   14    5      0.57      0.00
   13   14    5     -0.47      0.00
    0   15    5      2.70      0.00
    1   15    5     -0.53      0.00
    2   15    5      0.20      0.00
    3   15    5     -0.02      0.00
    4   15    5     -0.21      0.00
    5   15    5     -0.06      0.00
    6   15    5      0.68      0.00
    7   15    5     -0.28      0.00
    8   15    5     -0.54      0.00
    9   15    5     -0.29      0.00
   10   15    5     -0.72      0.00
    1   16    5      0.80      0.00
    2   16    5     -1.26      0.00
    3   16    5      2.57      0.00
    4   16    5      0.07      0.00
    5   16    5      0.62      0.00
    0    0    6      8.85      0.00
    2    0    6      3.09      0.00
    4    0    6      0.43      0.00
    6    0    6     -0.04      0.00
    8    0    6     -1.19      0.00
   10    0    6      4.17      0.00
   12    0    6      3.76      0.00
   14    0    6     -0.85      0.00
   16    0    6     -0.49      0.00
   18    0    6      1.49      0.00
   20    0    6     -0.32      0.00
   22    0    6     -1.57      0.00
   24    0    6     -1.37      0.00
   26    0    6      0.94      0.00
    0    1    6     10.84      0.00
    1    1    6     10.20      0.00
    2    1    6      5.52      0.00
    4    1    6      0.76      0.00
    5    1    6     -7.11      0.00
    6    1    6     -4.66      0.00
    7    1    6      4.00      0.00
    8    1    6     -6.45      0.00
    9    1    6      5.23      0.00
   10    1    6      1.19      0.00
   11    1    6     -1.31      0.00
   12    1    6      1.62      0.00
   13    1    6      0.60      0.00
   14    1    6     -0.43      0.00
   15    1    6      1.04      0.00
   16    1    6      0.87      0.00
   17    1    6     -1.02      0.00
   18    1    6      0.88      0.00
   19    1    6      0.26      0.00
   20    1    6     -0.62      0.00
   21    1    6      1.19      0.00
   22    1    6     -1.22      0.00
   23    1    6     -0.10      0.00
   24    1    6     -2.57      0.00
   25    1    6     -0.29      0.00
   26    1    6     -0.82      0.00
    0    2    6     -1.58      0.00
    1    2    6     -0.92      0.00
    2    2    6     -2.94      0.00
    3    2    6      0.55      0.00
    4    2    6      0.63      0.00
    5    2    6     -1.92      0.00
    6    2    6      2.11      0.00
    7    2    6      0.31      0.00
    8    2    6     -0.43      0.00
    9    2    6      2.62      0.00
   10    2    6      1.23      0.00
   11    2    6     -1.61      0.00
   12    2    6      0.71      0.00
   13    2    6     -0.34      0.00
   14    2    6      0.34      0.00
   15    2    6     -0.04      0.00
   16    2    6      0.97      0.00
   17    2    6     -1.22      0.00
   18    2    6      1.24      0.00
   19    2    6      0.75      0.00
   20    2    6     -0.46      0.00
   21    2    6      2.23      0.00
   22    2    6     -1.01      0.00
   23    2    6      0.97      0.00
   24    2    6     -1.34      0.00
   25    2    6      0.24      0.00
   26    2    6     -0.82      0.00
    0    3    6      0.12      0.00
    1    3    6     -1.06      0.00
    2    3    6     -1.87      0.00
    3    3    6      3.25      0.00
    4    3    6     -1.01      0.00
    5    3    6      1.46      0.00
    6    3    6      2.27      0.00
    7    3    6     -1.85      0.00
    8    3    6      0.94      0.00
    9    3    6      0.52      0.00
   10    3    6     -1.39      0.00
   11    3    6     -0.05      0.00
   12    3    6     -1.40      0.00
   13    3    6     -0.71      0.00
   14    3    6     -0.96      0.00
   15    3    6      0.31      0.00
   16    3    6     -1.05      0.00
   17    3    6     -0.35      0.00
   18    3    6      0.40      0.00
   19    3    6      0.67      0.00
   20    3    6     -0.44      0.00
   21    3    6      1.40      0.00
   22    3    6      0.35      0.00
   23    3    6      0.20      0.00
   24    3    6      1.37      0.00
   25    3    6      0.48      0.00
   26    3    6      0.21      0.00
    0    4    6      5.01      0.00
    1    4    6      1.71      0.00
    2    4    6      2.99      0.00
    3    4    6      0.93      0.00
    4    4    6      0.53      0.00
    5    4    6      0.46      0.00
    6    4    6      0.76      0.00
    7    4    6     -1.81      0.00
    8    4    6     -0.31      0.00
    9    4    6     -0.69      0.00
   10    4    6     -1.27      0.00
   11    4    6      0.36      0.00
   12    4    6     -0.54      0.00
   13    4    6      0.01      0.00
   14    4    6     -0.20      0.00
   15    4    6      1.11      0.00
   16    4    6     -0.41      0.00
   17    4    6      1.51      0.00
   18    4    6      0.23      0.00
   19    4    6      1.55      0.00
   20    4    6      0.59      0.00
   21    4    6     -0.48      0.00
   22    4    6      1.11      0.00
   23    4    6     -1.83      0.00
   24    4    6      0.99      0.00
   25    4    6     -0.38      0.00
    0    5    6     -2.25      0.00
    1    5    6     -4.28      0.00
    2    5    6     -2.83      0.00
    3    5    6      0.63      0.00
    4    5    6     -0.37      0.00
    5    5    6      0.49      0.00
    6    5    6      3.34      0.00
    7    5    6      0.00      0.00
    8    5    6      1.09      0.00
    9    5    6      0.57      0.00
   10    5    6     -1.25      0.00
   11    5    6     -0.65      0.00
   12    5    6     -0.95      0.00
   13    5    6     -1.08      0.00
   14    5    6     -0.77      0.00
   15    5    6     -1.06      0.00
   16    5    6     -0.42      0.00
   17    5    6     -0.55      0.00
   18    5    6      0.59      0.00
   19    5    6     -0.78      0.00
   20    5    6     -0.68      0.00
   21    5    6     -1.43      0.00
   22    5    6     -2.35      0.00
   23    5    6      0.22      0.00
   24    5    6      0.03      0.00
   25    5    6      1.43      0.00
    0    6    6      6.47      0.00
    1    6    6     -0.65      0.00
    2    6    6      2.48      0.00
    3    6    6      2.06      0.00
    4    6    6     -1.58      0.00
    5    6    6     -0.62      0.00
    6    6    6     -1.38      0.00
    7    6    6     -0.09      0.00
    8    6    6     -0.30      0.00
    9    6    6      0.74      0.00
   10    6    6      0.33      0.00
   11    6    6      0.16      0.00
   12    6    6     -0.47      0.00
   13    6    6      1.55      0.00
   14    6    6      0.59      0.00
   15    6    6      1.17      0.00
   16    6    6      1.54      0.00
   17    6    6     -0.06      0.00
   18    6    6      0.79      0.00
   19    6    6     -0.65      0.00
   20    6    6     -0.62      0.00
   21    6    6     -0.31      0.00
   22    6    6     -1.31      0.00
   23    6    6      0.45      0.00
   24    6    6      1.19      0.00
    0    7    6     -1.20      0.00
    1    7    6      0.02      0.00
    2    7    6     -1.72      0.00
    3    7    6      0.83      0.00
    4    7    6     -0.68      0.00
    5    7    6     -0.52      0.00
    6    7    6      1.00      0.00
    7    7    6     -0.17      0.00
    8    7    6      1.32      0.00
    9    7    6      0.64      0.00
   10    7    6      0.52      0.00
   11    7    6      0.42      0.00
   12    7    6     -0.30      0.00
   13    7    6      0.29      0.00
   14    7    6      0.73      0.00
   15    7    6     -0.05      0.00
   16    7    6      0.76      0.00
   17    7    6      0.25      0.00
   18    7    6      0.13      0.00
   19    7    6     -1.15      0.00
   20    7    6     -0.47      0.00
   21    7    6     -1.53      0.00
   22    7    6     -0.91      0.00
   23    7    6     -0.91      0.00
    0    8    6      0.51      0.00
    1    8    6     -0.03      0.00
    2    8    6      0.58      0.00
    3    8    6      0.66      0.00
    4    8    6      1.12      0.00
    5    8    6      0.24      0.00
    6    8    6      1.04      0.00
    7    8    6     -0.02      0.00
    8    8    6      0.25      0.00
    9    8    6      0.40      0.00
   10    8    6     -0.82      0.00
   11    8    6      0.66      0.00
   12    8    6      0.05      0.00
   13    8    6      0.17      0.00
   14    8    6     -0.19      0.00
   15    8    6      0.31      0.00
   16    8    6     -1.08      0.00
   17    8    6      1.01      0.00
   18    8    6      0.34      0.00
   19    8    6     -0.75      0.00
   20    8    6     -0.92      0.00
   21    8    6      0.75      0.00
   22    8    6     -1.25      0.00
    0    9    6      2.92      0.00
    1    9    6      0.67      0.00
    2    9    6      1.20      0.00
    3    9    6     -0.10      0.00
    4    9    6      0.20      0.00
    5    9    6      0.27      0.00
    6    9    6      0.72      0.00
    7    9    6      0.17      0.00
    8    9    6      1.00      0.00
    9    9    6      0.33      0.00
   10    9    6     -0.15      0.00
   11    9    6      1.34      0.00
   12    9    6      0.33      0.00
   13    9    6      0.34      0.00
   14    9    6      0.42      0.00
   15    9    6     -0.31      0.00
   16    9    6     -0.30      0.00
   17    9    6     -0.28      0.00
   18    9    6      1.36      0.00
   19    9    6     -0.70      0.00
   20    9    6      1.21      0.00
   21    9    6      1.10      0.00
    0   10    6     -1.57      0.00
    1   10    6      0.20      0.00
    2   10    6     -2.04      0.00
    3   10    6     -0.77      0.00
    4   10    6     -0.36      0.00
    5   10    6      0.07      0.00
    6   10    6      0.93      0.00
    7   10    6     -0.15      0.00
    8   10    6     -0.01      0.00
    9   10    6     -0.60      0.00
   10   10    6     -1.25      0.00
   11   10    6     -0.15      0.00
   12   10    6     -0.57      0.00
   13   10    6      0.10      0.00
   14   10    6     -0.23      0.00
   15   10    6      0.29      0.00
   16   10    6     -0.55      0.00
   17   10    6      0.51      0.00
   18   10    6      0.31      0.00
   19   10    6     -0.03      0.00
   20   10    6      0.00      0.00
    0   11    6      0.83      0.00
    1   11    6      0.64      0.00
    2   11    6     -0.27      0.00
    3   11    6      0.26      0.00
    4   11    6     -0.79      0.00
    5   11    6      0.15      0.00
    6   11    6     -0.42      0.00
    7   11    6     -0.87      0.00
    8   11    6      0.62      0.00
    9   11    6     -2.16      0.00
   10   11    6      0.19      0.00
   11   11    6     -0.58      0.00
   12   11    6      0.61      0.00
   13   11    6      1.65      0.00
   14   11    6      0.45      0.00
   15   11    6      0.00      0.00
   16   11    6      0.07      0.00
   17   11    6     -0.90      0.00
   18   11    6      0.60      0.00
   19   11    6     -0.38      0.00
    0   12    6     -0.23      0.00
    1   12    6     -0.53      0.00
    2   12    6     -0.83      0.00
    3   12    6     -0.63      0.00
    4   12    6     -0.55      0.00
    5   12    6     -1.15      0.00
    6   12    6      0.13      0.00
    7   12    6     -0.91      0.00
    8   12    6      1.20      0.00
    9   12    6     -0.43      0.00
   10   12    6     -0.68      0.00
   11   12    6      1.13      0.00
   12   12    6     -1.20      0.00
   13   12    6      0.80      0.00
   14   12    6     -0.12      0.00
   15   12    6     -1.34      0.00
   16   12    6      0.51      0.00
   17   12    6     -0.16      0.00
    0   13    6      1.29      0.00
    1   13    6      0.57      0.00
    2   13    6      0.26      0.00
    3   13    6      0.98      0.00
    4   13    6     -0.33      0.00
    5   13    6     -0.10      0.00
    6   13    6     -0.56      0.00
    7   13    6     -0.50      0.00
    8   13    6      0.62      0.00
    9   13    6     -0.18      0.00
   10   13    6      0.60      0.00
   11   13    6      0.22      0.00
   12   13    6     -1.31      0.00
   13   13    6     -0.45      0.00
   14   13    6     -1.93      0.00
   15   13    6     -1.17      0.00
    0   14    6      2.24      0.00
    1   14    6     -0.76      0.00
    2   14    6     -0.14      0.00
    3   14    6      0.34      0.00
    4   14    6     -0.36      0.00
    5   14    6     -0.84      0.00
    6   14    6      0.63      0.00
    7   14    6     -1.52      0.00
    8   14    6     -0.97      0.00
    9   14    6     -0.66      0.00
   10   14    6     -0.79      0.00
   11   14    6      0.73      0.00
   12   14    6      0.29      0.00
    0   15    6     -0.85      0.00
    1   15    6      0.67      0.00
    2   15    6     -0.90      0.00
    3   15    6      1.10      0.00
    4   15    6      1.53      0.00
    5   15    6      0.28      0.00
    6   15    6      2.64      0.00
    7   15    6      0.22      0.00
    8   15    6     -0.15      0.00
    9   15    6      0.38      0.00
    0   16    6     -1.25      0.00
    1   16    6     -0.75      0.00
    2   16    6      0.28      0.00
    1    0    7     11.40      0.00
    3    0    7     -6.31      0.00
    5    0    7     -5.87      0.00
    7    0    7      3.20      0.00
    9    0    7      4.08      0.00
   11    0    7      1.82      0.00
   13    0    7     -0.37      0.00
   15    0    7     -1.41      0.00
   17    0    7      0.46      0.00
   19    0    7      1.52      0.00
   21    0    7      1.11      0.00
   23    0    7     -0.87      0.00
   25    0    7     -0.55      0.00
    0    1    7      4.62      0.00
    1    1    7      8.37      0.00
    2    1    7      0.71      0.00
    3    1    7      0.31      0.00
    4    1    7     -2.90      0.00
    5    1    7     -2.62      0.00
    6    1    7      1.57      0.00
    7    1    7     -2.54      0.00
    8    1    7      5.17      0.00
    9    1    7     -0.89      0.00
   10    1    7     -0.33      0.00
   11    1    7      0.19      0.00
   12    1    7     -1.79      0.00
   13    1    7     -0.99      0.00
   14    1    7      1.44      0.00
   15    1    7     -0.94      0.00
   16    1    7      0.25      0.00
   17    1    7      0.68      0.00
   18    1    7     -0.37      0.00
   19    1    7      0.73      0.00
   20    1    7      0.38      0.00
   21    1    7      0.21      0.00
   22    1    7      0.67      0.00
   23    1    7     -1.84      0.00
   24    1    7      0.05      0.00
   25    1    7     -2.08      0.00
    0    2    7     -5.14      0.00
    1    2    7     -3.28      0.00
    2    2    7     -2.41      0.00
    3    2    7     -0.25      0.00
    4    2    7      0.81      0.00
    5    2    7      1.69      0.00
    6    2    7      3.73      0.00
    7    2    7     -0.89      0.00
    8    2    7      4.73      0.00
    9    2    7     -0.67      0.00
   10    2    7     -1.72      0.00
   11    2    7      0.86      0.00
   12    2    7     -1.97      0.00
   13    2    7     -0.42      0.00
   14    2    7      0.82      0.00
   15    2    7     -0.16      0.00
   16    2    7     -1.51      0.00
   17    2    7      1.16      0.00
   18    2    7     -1.15      0.00
   19    2    7      0.60      0.00
   20    2    7      0.95      0.00
   21    2    7     -0.46      0.00
   22    2    7      1.46      0.00
   23    2    7     -0.98      0.00
   24    2    7      1.68      0.00
   25    2    7     -1.22      0.00
    0    3    7      3.50      0.00
    1    3    7      3.15      0.00
    2    3    7      2.20      0.00
    3    3    7     -1.61      0.00
    4    3    7      0.57      0.00
    5    3    7      0.24      0.00
    6    3    7      0.18      0.00
    7    3    7      1.45      0.00
    8    3    7      0.68      0.00
    9    3    7     -0.58      0.00
   10    3    7     -0.64      0.00
   11    3    7     -0.41      0.00
   12    3    7     -1.22      0.00
   13    3    7     -0.19      0.00
   14    3    7     -0.66      0.00
   15    3    7     -0.14      0.00
   16    3    7     -0.89      0.00
   17    3    7      1.27      0.00
   18    3    7     -1.01      0.00
   19    3    7      1.01      0.00
   20    3    7      1.17      0.00
   21    3    7     -1.31      0.00
   22    3    7      1.32      0.00
   23    3    7     -0.48      0.00
   24    3    7      1.94      0.00
   25    3    7      0.11      0.00
    0    4    7     -0.99      0.00
    1    4    7      3.53      0.00
    2    4    7     -1.47      0.00
    3    4    7     -0.48      0.00
    4    4    7      0.52      0.00
    5    4    7      0.41      0.00
    6    4    7      0.62      0.00
    7    4    7      1.92      0.00
    8    4    7     -0.98      0.00
    9    4    7     -0.18      0.00
   10    4    7      0.71      0.00
   11    4    7     -1.76      0.00
   12    4    7      1.60      0.00
   13    4    7     -0.66      0.00
   14    4    7      0.20      0.00
   15    4    7     -0.78      0.00
   16    4    7      0.75      0.00
   17    4    7     -0.19      0.00
   18    4    7      1.71      0.00
   19    4    7      0.56      0.00
   20    4    7      1.26      0.00
   21    4    7     -0.67      0.00
   22    4    7     -2.32      0.00
   23    4    7     -0.07      0.00
   24    4    7     -0.69      0.00
   25    4    7      1.18      0.00
    0    5    7     -2.06      0.00
    1    5    7     -1.52      0.00
    2    5    7      0.12      0.00
    3    5    7     -1.63      0.00
    4    5    7      0.89      0.00
    5    5    7      1.38      0.00
    6    5    7     -1.43      0.00
    7    5    7      2.41      0.00
    8    5    7     -0.34      0.00
    9    5    7      0.92      0.00
   10    5    7     -0.23      0.00
   11    5    7     -1.27      0.00
   12    5    7     -1.28      0.00
   13    5    7     -0.27      0.00
   14    5    7     -0.92      0.00
   15    5    7      0.09      0.00
   16    5    7      0.10      0.00
   17    5    7     -0.74      0.00
   18    5    7     -0.33      0.00
   19    5    7     -0.62      0.00
   20    5    7     -0.87      0.00
   21    5    7     -1.62      0.00
   22    5    7     -1.38      0.00
   23    5    7     -1.45      0.00
   24    5    7      0.85      0.00
    0    6    7      0.20      0.00
    1    6    7      4.94      0.00
    2    6    7      1.12      0.00
    3    6    7     -1.26      0.00
    4    6    7     -0.44      0.00
    5    6    7     -1.22      0.00
    6    6    7     -2.25      0.00
    7    6    7     -0.67      0.00
    8    6    7      0.50      0.00
    9    6    7     -0.30      0.00
   10    6    7      0.97      0.00
   11    6    7     -0.96      0.00
   12    6    7      1.07      0.00
   13    6    7     -0.06      0.00
   14    6    7      2.06      0.00
   15    6    7      1.69      0.00
   16    6    7      0.80      0.00
   17    6    7      1.54      0.00
   18    6    7     -1.05      0.00
   19    6    7      0.41      0.00
   20    6    7     -0.10      0.00
   21    6    7     -0.94      0.00
   22    6    7      0.58      0.00
   23    6    7     -0.73      0.00
   24    6    7      0.98      0.00
    0    7    7     -1.36      0.00
    1    7    7     -0.49      0.00
    2    7    7     -0.86      0.00
    3    7    7     -1.75      0.00
    4    7    7      0.59      0.00
    5    7    7      0.01      0.00
    6    7    7      0.82      0.00
    7    7    7      1.57      0.00
    8    7    7      0.26      0.00
    9    7    7      1.41      0.00
   10    7    7     -0.27      0.00
   11    7    7     -0.66      0.00
   12    7    7      1.06      0.00
   13    7    7     -0.53      0.00
   14    7    7      0.06      0.00
   15    7    7      0.69      0.00
   16    7    7     -1.56      0.00
   17    7    7      1.03      0.00
   18    7    7     -1.06      0.00
   19    7    7     -0.39      0.00
   20    7    7     -1.03      0.00
   21    7    7     -0.59      0.00
   22    7    7     -1.20      0.00
   23    7    7      0.03      0.00
    0    8    7      3.22      0.00
    1    8    7      0.40      0.00
    2    8    7      1.10      0.00
    3    8    7      0.93      0.00
    4    8    7     -0.64      0.00
    5    8    7      0.52      0.00
    6    8    7     -0.77      0.00
    7    8    7      1.11      0.00
    8    8    7      0.36      0.00
    9    8    7      0.27      0.00
   10    8    7      0.35      0.00
   11    8    7     -0.52      0.00
   12    8    7      0.63      0.00
   13    8    7      0.22      0.00
   14    8    7      0.17      0.00
   15    8    7     -0.29      0.00
   16    8    7      0.88      0.00
   17    8    7      0.75      0.00
   18    8    7      1.00      0.00
   19    8    7      0.35      0.00
   20    8    7      0.31      0.00
   21    8    7     -0.59      0.00
   22    8    7      1.17      0.00
    0    9    7      0.03      0.00
    1    9    7      2.07      0.00
    2    9    7     -1.11      0.00
    3    9    7      0.16      0.00
    4    9    7      0.00      0.00
    5    9    7      0.21      0.00
    6    9    7      0.84      0.00
    7    9    7      1.55      0.00
    8    9    7     -0.11      0.00
    9    9    7     -0.01      0.00
   10    9    7     -0.28      0.00
   11    9    7     -0.90      0.00
   12    9    7      0.89      0.00
   13    9    7      0.28      0.00
   14    9    7     -0.05      0.00
   15    9    7     -0.42      0.00
   16    9    7     -0.49      0.00
   17    9    7      0.36      0.00
   18    9    7     -0.54      0.00
   19    9    7      0.98      0.00
   20    9    7      0.24      0.00
   21    9    7     -0.75      0.00
    0   10    7      1.00      0.00
    1   10    7     -1.04      0.00
    2   10    7      0.08      0.00
    3   10    7     -0.61      0.00
    4   10    7      0.12      0.00
    5   10    7     -0.10      0.00
    6   10    7      0.20      0.00
    7   10    7      0.25      0.00
    8   10    7      0.06      0.00
    9   10    7     -0.57      0.00
   10   10    7     -0.55      0.00
   11   10    7     -1.27      0.00
   12   10    7      0.78      0.00
   13   10    7      0.07      0.00
   14   10    7      0.70      0.00
   15   10    7     -0.01      0.00
   16   10    7      0.32      0.00
   17   10    7     -0.01      0.00
   18   10    7      0.42      0.00
   19   10    7      0.80      0.00
   20   10    7     -0.18      0.00
    0   11    7      0.85      0.00
    1   11    7     -0.71      0.00
    2   11    7      1.03      0.00
    3   11    7     -0.68      0.00
    4   11    7     -0.13      0.00
    5   11    7     -0.84      0.00
    6   11    7     -1.31      0.00
    7   11    7     -0.17      0.00
    8   11    7      0.01      0.00
    9   11    7      0.73      0.00
   10   11    7     -1.27      0.00
   11   11    7      0.50      0.00
   12   11    7      0.16      0.00
   13   11    7      0.39      0.00
   14   11    7      0.62      0.00
   15   11    7     -0.26      0.00
   16   11    7     -0.58      0.00
   17   11    7      0.15      0.00
   18   11    7     -0.18      0.00
    0   12    7     -1.47      0.00
    1   12    7     -0.49      0.00
    2   12    7     -0.14      0.00
    3   12    7     -0.87      0.00
    4   12    7     -0.20      0.00
    5   12    7     -0.28      0.00
    6   12    7     -0.72      0.00
    7   12    7      0.13      0.00
    8   12    7      0.29      0.00
    9   12    7      0.64      0.00
   10   12    7     -0.79      0.00
   11   12    7     -1.06      0.00
   12   12    7      0.40      0.00
   13   12    7     -1.49      0.00
   14   12    7     -0.35      0.00
   15   12    7     -0.26      0.00
   16   12    7     -1.00      0.00
    0   13    7     -0.27      0.00
    1   13    7      1.18      0.00
    2   13    7      0.81      0.00
    3   13    7      0.74      0.00
    4   13    7      0.21      0.00
    5   13    7      0.29      0.00
    6   13    7     -0.73      0.00
    7   13    7     -0.81      0.00
    8   13    7     -0.50      0.00
    9   13    7      0.65      0.00
   10   13    7     -0.74      0.00
   11   13    7     -0.51      0.00
   12   13    7      0.70      0.00
   13   13    7     -1.40      0.00
   14   13    7     -0.48      0.00
    0   14    7     -2.19      0.00
    1   14    7      0.36      0.00
    2   14    7      0.03      0.00
    3   14    7     -0.58      0.00
    4   14    7      0.96      0.00
    5   14    7      1.16      0.00
    6   14    7      0.02      0.00
    7   14    7     -0.08      0.00
    8   14    7     -0.76      0.00
    9   14    7     -0.78      0.00
   10   14    7     -1.17      0.00
   11   14    7     -0.71      0.00
    0   15    7     -1.44      0.00
    1   15    7     -0.39      0.00
    2   15    7      0.53      0.00
    3   15    7      0.03      0.00
    4   15    7      0.59      0.00
    5   15    7      2.92      0.00
    6   15    7      0.13      0.00
    7   15    7      1.41      0.00
    8   15    7      0.90      0.00
    0    0    8     10.65      0.00
    2    0    8     -0.37      0.00
    4    0    8     -6.65      0.00
    6    0    8      3.35      0.00
    8    0    8      5.72      0.00
   10    0    8     -0.09      0.00
   12    0    8     -2.10      0.00
   14    0    8     -0.35      0.00
   16    0    8     -0.31      0.00
   18    0    8      0.74      0.00
   20    0    8      1.19      0.00
   22    0    8      0.92      0.00
   24    0    8     -1.13      0.00
    0    1    8      5.35      0.00
    1    1    8     -2.18      0.00
    2    1    8      0.89      0.00
    3    1    8      2.62      0.00
    4    1    8     -1.88      0.00
    5    1    8      2.93      0.00
    6    1    8      0.75      0.00
    7    1    8      2.13      0.00
    8    1    8      0.06      0.00
    9    1    8     -0.58      0.00
   10    1    8     -1.22      0.00
   11    1    8     -2.41      0.00
   12    1    8     -0.88      0.00
   13    1    8      0.68      0.00
   14    1    8     -0.82      0.00
   15    1    8      1.68      0.00
   16    1    8     -0.98      0.00
   17    1    8     -0.04      0.00
   18    1    8      0.25      0.00
   19    1    8     -0.97      0.00
   20    1    8      0.34      0.00
   21    1    8     -0.41      0.00
   22    1    8      0.49      0.00
   23    1    8      0.38      0.00
   24    1    8     -1.57      0.00
   25    1    8     -0.83      0.00
    0    2    8     -1.19      0.00
    1    2    8     -2.86      0.00
    2    2    8     -0.53      0.00
    3    2    8     -2.43      0.00
    4    2    8      0.91      0.00
    5    2    8      0.43      0.00
    6    2    8      0.45      0.00
    7    2    8      5.20      0.00
    8    2    8     -1.38      0.00
    9    2    8      1.09      0.00
   10    2    8      0.57      0.00
   11    2    8     -1.51      0.00
   12    2    8      0.34      0.00
   13    2    8      1.26      0.00
   14    2    8     -1.63      0.00
   15    2    8      0.11      0.00
   16    2    8     -0.88      0.00
   17    2    8     -0.72      0.00
   18    2    8      0.03      0.00
   19    2    8      0.11      0.00
   20    2    8     -0.74      0.00
   21    2    8     -0.86      0.00
   22    2    8     -0.18      0.00
   23    2    8      1.02      0.00
   24    2    8     -0.48      0.00
   25    2    8      2.26      0.00
    0    3    8      2.99      0.00
    1    3    8      4.53      0.00
    2    3    8      0.62      0.00
    3    3    8      0.02      0.00
    4    3    8     -0.53      0.00
    5    3    8      0.29      0.00
    6    3    8      0.40      0.00
    7    3    8      2.30      0.00
    8    3    8     -1.03      0.00
    9    3    8     -0.68      0.00
   10    3    8      0.23      0.00
   11    3    8     -1.34      0.00
   12    3    8      0.86      0.00
   13    3    8     -0.27      0.00
   14    3    8      0.32      0.00
   15    3    8     -1.25      0.00
   16    3    8      1.21      0.00
   17    3    8     -1.29      0.00
   18    3    8      2.26      0.00
   19    3    8      1.02      0.00
   20    3    8      0.57      0.00
   21    3    8      1.08      0.00
   22    3    8     -1.41      0.00
   23    3    8      0.81      0.00
   24    3    8     -1.27      0.00
    0    4    8      1.78      0.00
    1    4    8     -3.76      0.00
    2    4    8      1.35      0.00
    3    4    8     -1.68      0.00
    4    4    8      1.09      0.00
    5    4    8      1.25      0.00
    6    4    8      0.91      0.00
    7    4    8      0.89      0.00
    8    4    8      0.37      0.00
    9    4    8      0.51      0.00
   10    4    8     -0.52      0.00
   11    4    8      1.09      0.00
   12    4    8     -0.92      0.00
   13    4    8      0.50      0.00
   14    4    8     -0.35      0.00
   15    4    8      0.17      0.00
   16    4    8     -0.16      0.00
   17    4    8     -0.20      0.00
   18    4    8      0.05      0.00
   19    4    8      0.61      0.00
   20    4    8     -1.07      0.00
   21    4    8     -0.63      0.00
   22    4    8     -1.24      0.00
   23    4    8     -2.03      0.00
   24    4    8     -0.26      0.00
    0    5    8      0.91      0.00
    1    5    8      1.50      0.00
    2    5    8     -0.53      0.00
    3    5    8      1.07      0.00
    4    5    8     -0.71      0.00
    5    5    8     -0.97      0.00
    6    5    8      0.48      0.00
    7    5    8     -2.33      0.00
    8    5    8      1.52      0.00
    9    5    8     -0.32      0.00
   10    5    8     -0.10      0.00
   11    5    8      0.10      0.00
   12    5    8     -1.07      0.00
   13    5    8     -1.17      0.00
   14    5    8      1.37      0.00
   15    5    8     -0.35      0.00
   16    5    8      0.25      0.00
   17    5    8      0.62      0.00
   18    5    8     -2.01      0.00
   19    5    8      1.24      0.00
   20    5    8     -1.11      0.00
   21    5    8      0.05      0.00
   22    5    8     -0.35      0.00
   23    5    8     -0.59      0.00
   24    5    8      0.17      0.00
    0    6    8      3.32      0.00
    1    6    8      0.49      0.00
    2    6    8     -0.35      0.00
    3    6    8     -0.13      0.00
    4    6    8     -1.01      0.00
    5    6    8     -1.11      0.00
    6    6    8      0.65      0.00
    7    6    8     -1.17      0.00
    8    6    8      0.13      0.00
    9    6    8      0.47      0.00
   10    6    8     -0.79      0.00
   11    6    8      0.35      0.00
   12    6    8     -0.58      0.00
   13    6    8      0.72      0.00
   14    6    8      1.49      0.00
   15    6    8      1.10      0.00
   16    6    8      0.62      0.00
   17    6    8     -0.32      0.00
   18    6    8     -0.77      0.00
   19    6    8     -0.19      0.00
   20    6    8      0.37      0.00
   21    6    8      1.13      0.00
   22    6    8     -0.37      0.00
   23    6    8      0.62      0.00
    0    7    8      0.56      0.00
    1    7    8     -1.90      0.00
    2    7    8     -0.53      0.00
    3    7    8     -0.74      0.00
    4    7    8     -0.40      0.00
    5    7    8      1.28      0.00
    6    7    8      0.57      0.00
    7    7    8      1.19      0.00
    8    7    8      1.16      0.00
    9    7    8      0.83      0.00
   10    7    8     -0.03      0.00
   11    7    8      0.33      0.00
   12    7    8     -0.92      0.00
   13    7    8      0.45      0.00
   14    7    8     -0.08      0.00
   15    7    8     -1.00      0.00
   16    7    8      2.03      0.00
   17    7    8     -0.86      0.00
   18    7    8      1.20      0.00
   19    7    8     -0.31      0.00
   20    7    8     -1.10      0.00
   21    7    8     -0.58      0.00
   22    7    8     -0.17      0.00
    0    8    8      1.08      0.00
    1    8    8      2.65      0.00
    2    8    8      0.92      0.00
    3    8    8     -0.55      0.00
    4    8    8     -0.40      0.00
    5    8    8     -0.05      0.00
    6    8    8     -0.08      0.00
    7    8    8     -0.39      0.00
    8    8    8      0.88      0.00
    9    8    8     -0.59      0.00
   10    8    8     -0.38      0.00
   11    8    8      0.05      0.00
   12    8    8     -0.02      0.00
   13    8    8      0.64      0.00
   14    8    8      0.26      0.00
   15    8    8     -0.84      0.00
   16    8    8      0.79      0.00
   17    8    8      0.66      0.00
   18    8    8      0.83      0.00
   19    8    8      1.34      0.00
   20    8    8     -0.24      0.00
   21    8    8      0.33      0.00
    0    9    8      0.38      0.00
    1    9    8     -1.42      0.00
    2    9    8      1.20      0.00
    3    9    8     -0.80      0.00
    4    9    8      0.82      0.00
    5    9    8      1.30      0.00
    6    9    8      0.45      0.00
    7    9    8      0.36      0.00
    8    9    8      0.89      0.00
    9    9    8     -0.21      0.00
   10    9    8     -0.36      0.00
   11    9    8     -0.29      0.00
   12    9    8     -1.05      0.00
   13    9    8      0.41      0.00
   14    9    8     -0.16      0.00
   15    9    8     -0.67      0.00
   16    9    8     -0.13      0.00
   17    9    8     -0.35      0.00
   18    9    8      0.26      0.00
   19    9    8     -0.05      0.00
   20    9    8     -0.34      0.00
    0   10    8     -0.09      0.00
    1   10    8     -0.10      0.00
    2   10    8      0.58      0.00
    3   10    8      1.14      0.00
    4   10    8      0.05      0.00
    5   10    8      0.31      0.00
    6   10    8     -1.06      0.00
    7   10    8      0.09      0.00
    8   10    8      0.13      0.00
    9   10    8      0.92      0.00
   10   10    8     -0.25      0.00
   11   10    8      0.59      0.00
   12   10    8     -0.88      0.00
   13   10    8      1.03      0.00
   14   10    8      1.06      0.00
   15   10    8     -0.29      0.00
   16   10    8      0.75      0.00
   17   10    8      0.88      0.00
   18   10    8      0.56      0.00
   19   10    8      0.43      0.00
    1   11    8      0.15      0.00
    2   11    8     -1.19      0.00
    3   11    8      0.68      0.00
    4   11    8     -0.93      0.00
    5   11    8     -1.29      0.00
    6   11    8     -1.43      0.00
    7   11    8      0.28      0.00
    8   11    8     -0.30      0.00
    9   11    8     -0.01      0.00
   10   11    8      0.36      0.00
   11   11    8     -1.59      0.00
   12   11    8     -0.22      0.00
   13   11    8      0.50      0.00
   14   11    8     -0.01      0.00
   15   11    8     -0.54      0.00
   16   11    8     -0.65      0.00
   17   11    8     -0.04      0.00
    0   12    8     -1.20      0.00
    1   12    8     -0.64      0.00
    2   12    8     -0.85      0.00
    3   12    8      1.76      0.00
    4   12    8      0.57      0.00
    5   12    8     -1.05      0.00
    6   12    8     -0.55      0.00
    7   12    8      0.18      0.00
    8   12    8     -0.18      0.00
    9   12    8      0.62      0.00
   10   12    8      0.76      0.00
   11   12    8     -0.89      0.00
   12   12    8     -1.25      0.00
   13   12    8     -0.25      0.00
   14   12    8     -1.03      0.00
   15   12    8     -0.93      0.00
    0   13    8      1.55      0.00
    1   13    8     -0.75      0.00
    2   13    8      0.76      0.00
    3   13    8      0.96      0.00
    4   13    8      1.80      0.00
    5   13    8     -0.72      0.00
    6   13    8     -0.10      0.00
    7   13    8     -0.01      0.00
    8   13    8     -1.53      0.00
    9   13    8     -0.88      0.00
   10   13    8     -0.39      0.00
   11   13    8     -0.31      0.00
   12   13    8     -0.44      0.00
   13   13    8      0.65      0.00
    0   14    8      0.66      0.00
    1   14    8     -1.62      0.00
    2   14    8     -0.64      0.00
    3   14    8      0.72      0.00
    4   14    8      0.72      0.00
    5   14    8      1.17      0.00
    6   14    8      0.69      0.00
    7   14    8      0.96      0.00
    8   14    8     -0.59      0.00
    9   14    8     -2.08      0.00
   10   14    8     -0.51      0.00
    0   15    8      0.95      0.00
    1   15    8     -0.64      0.00
    2   15    8     -0.16      0.00
    3   15    8      0.51      0.00
    4   15    8      0.71      0.00
    5   15    8     -0.92      0.00
    1    0    9      2.14      0.00
    3    0    9     -2.24      0.00
    5    0    9      3.82      0.00
    7    0    9      4.13      0.00
    9    0    9     -0.47      0.00
   11    0    9     -2.94      0.00
   13    0    9      0.51      0.00
   15    0    9      1.44      0.00
   17    0    9      0.01      0.00
   19    0    9     -1.65      0.00
   21    0    9     -0.14      0.00
   23    0    9      1.17      0.00
    0    1    9     -4.07      0.00
    1    1    9     -0.23      0.00
    2    1    9      1.49      0.00
    3    1    9     -2.35      0.00
    4    1    9      3.88      0.00
    5    1    9      1.74      0.00
    6    1    9      0.15      0.00
    7    1    9      1.09      0.00
    8    1    9     -1.23      0.00
    9    1    9     -2.15      0.00
   10    1    9     -1.10      0.00
   11    1    9     -1.80      0.00
   12    1    9      0.38      0.00
   13    1    9      0.85      0.00
   14    1    9      0.87      0.00
   15    1    9     -0.32      0.00
   16    1    9     -0.09      0.00
   17    1    9     -0.91      0.00
   18    1    9     -0.43      0.00
   19    1    9     -0.52      0.00
   20    1    9     -1.63      0.00
   21    1    9     -0.27      0.00
   22    1    9     -0.65      0.00
   23    1    9      0.02      0.00
   24    1    9      0.22      0.00
    0    2    9     -4.07      0.00
    1    2    9      0.75      0.00
    2    2    9     -2.27      0.00
    3    2    9      0.05      0.00
    4    2    9     -1.17      0.00
    5    2    9      1.75      0.00
    6    2    9      1.23      0.00
    7    2    9      0.71      0.00
    8    2    9      1.85      0.00
    9    2    9     -0.08      0.00
   10    2    9     -0.47      0.00
   11    2    9      0.93      0.00
   12    2    9      0.61      0.00
   13    2    9     -0.31      0.00
   14    2    9      1.71      0.00
   15    2    9     -1.75      0.00
   16    2    9      0.55      0.00
   17    2    9     -1.14      0.00
   18    2    9      0.85      0.00
   19    2    9     -0.53      0.00
   20    2    9     -0.30      0.00
   21    2    9     -0.20      0.00
   22    2    9     -1.03      0.00
   23    2    9      0.23      0.00
   24    2    9      0.66      0.00
    0    3    9      5.63      0.00
    1    3    9     -0.96      0.00
    2    3    9      1.58      0.00
    3    3    9      0.66      0.00
    4    3    9     -1.56      0.00
    5    3    9      0.57      0.00
    6    3    9      1.43      0.00
    7    3    9     -1.95      0.00
    8    3    9      1.36      0.00
    9    3    9     -0.56      0.00
   10    3    9     -1.87      0.00
   11    3    9      1.79      0.00
   12    3    9     -0.80      0.00
   13    3    9     -0.08      0.00
   14    3    9      0.46      0.00
   15    3    9     -0.20      0.00
   16    3    9     -0.38      0.00
   17    3    9      1.22      0.00
   18    3    9      0.79      0.00
   19    3    9      0.59      0.00
   20    3    9      1.30      0.00
   21    3    9     -0.52      0.00
   22    3    9     -0.11      0.00
   23    3    9     -0.79      0.00
   24    3    9      1.03      0.00
    0    4    9     -4.04      0.00
    1    4    9     -0.01      0.00
    2    4    9     -3.15      0.00
    3    4    9      3.24      0.00
    4    4    9      0.37      0.00
    5    4    9      1.36      0.00
    6    4    9      1.18      0.00
    7    4    9     -0.46      0.00
    8    4    9      1.13      0.00
    9    4    9      0.53      0.00
   10    4    9      1.00      0.00
   11    4    9      0.72      0.00
   12    4    9      0.40      0.00
   13    4    9     -0.50      0.00
   14    4    9     -0.25      0.00
   15    4    9     -0.13      0.00
   16    4    9     -1.40      0.00
   17    4    9      0.19      0.00
   18    4    9     -1.09      0.00
   19    4    9     -0.11      0.00
   20    4    9      0.11      0.00
   21    4    9     -0.58      0.00
   22    4    9     -1.51      0.00
   23    4    9     -0.79      0.00
    0    5    9      1.19      0.00
    1    5    9      0.91      0.00
    2    5    9      0.59      0.00
    3    5    9      0.18      0.00
    4    5    9      0.93      0.00
    5    5    9     -0.56      0.00
    6    5    9     -0.92      0.00
    7    5    9      0.18      0.00
    8    5    9     -0.94      0.00
    9    5    9      0.26      0.00
   10    5    9     -0.36      0.00
   11    5    9     -1.47      0.00
   12    5    9     -1.01      0.00
   13    5    9     -0.51      0.00
   14    5    9     -0.29      0.00
   15    5    9      2.29      0.00
   16    5    9      0.37      0.00
   17    5    9     -0.57      0.00
   18    5    9      0.95      0.00
   19    5    9     -2.01      0.00
   20    5    9      2.49      0.00
   21    5    9      0.55      0.00
   22    5    9      0.71      0.00
   23    5    9      0.99      0.00
    0    6    9      0.84      0.00
    1    6    9     -0.70      0.00
    2    6    9     -0.23      0.00
    3    6    9     -1.61      0.00
    4    6    9     -0.46      0.00
    5    6    9      1.07      0.00
    6    6    9     -0.99      0.00
    7    6    9      1.33      0.00
    8    6    9      0.04      0.00
    9    6    9      0.17      0.00
   10    6    9      0.32      0.00
   11    6    9      0.18      0.00
   12    6    9     -0.35      0.00
   13    6    9      0.76      0.00
   14    6    9     -0.74      0.00
   15    6    9      0.90      0.00
   16    6    9      0.34      0.00
   17    6    9     -1.21      0.00
   18    6    9      0.74      0.00
   19    6    9     -1.28      0.00
   20    6    9      0.13      0.00
   21    6    9     -0.39      0.00
   22    6    9      0.43      0.00
    0    7    9     -2.05      0.00
    1    7    9      0.65      0.00
    2    7    9     -1.32      0.00
    3    7    9     -0.02      0.00
    4    7    9      0.83      0.00
    5    7    9      0.02      0.00
    6    7    9      0.97      0.00
    7    7    9      0.48      0.00
    8    7    9      1.34      0.00
    9    7    9      0.11      0.00
   10    7    9      1.06      0.00
   11    7    9     -0.44      0.00
   12    7    9      0.65      0.00
   13    7    9     -0.46      0.00
   14    7    9     -0.86      0.00
   15    7    9      0.66      0.00
   16    7    9     -0.23      0.00
   17    7    9      1.86      0.00
   18    7    9      1.57      0.00
   19    7    9      0.82      0.00
   20    7    9      0.10      0.00
   21    7    9     -0.10      0.00
    0    8    9      1.36      0.00
    1    8    9     -0.09      0.00
    2    8    9     -0.12      0.00
    3    8    9      1.06      0.00
    4    8    9      0.14      0.00
    5    8    9     -0.42      0.00
    6    8    9     -0.19      0.00
    7    8    9     -0.64      0.00
    8    8    9     -0.69      0.00
    9    8    9     -0.01      0.00
   10    8    9     -0.91      0.00
   11    8    9     -0.66      0.00
   12    8    9     -0.80      0.00
   13    8    9     -0.27      0.00
   14    8    9     -1.14      0.00
   15    8    9      1.11      0.00
   16    8    9     -1.04      0.00
   17    8    9      0.98      0.00
   18    8    9      0.56      0.00
   19    8    9     -0.65      0.00
   20    8    9      0.19      0.00
    0    9    9     -1.48      0.00
    1    9    9      0.78      0.00
    2    9    9     -0.76      0.00
    3    9    9      1.42      0.00
    4    9    9      1.81      0.00
    5    9    9      0.38      0.00
    6    9    9      0.69      0.00
    7    9    9      0.11      0.00
    8    9    9      0.52      0.00
    9    9    9      1.31      0.00
   10    9    9      0.98      0.00
   11    9    9     -0.04      0.00
   12    9    9      0.69      0.00
   13    9    9     -0.36      0.00
   14    9    9      0.05      0.00
   15    9    9      0.16      0.00
   16    9    9     -0.28      0.00
   17    9    9     -0.34      0.00
   18    9    9      0.17      0.00
   19    9    9     -0.11      0.00
    0   10    9     -1.41      0.00
    1   10    9      1.20      0.00
    2   10    9     -0.09      0.00
    3   10    9      0.54      0.00
    4   10    9      0.76      0.00
    5   10    9     -1.58      0.00
    6   10    9     -0.70      0.00
    7   10    9     -1.23      0.00
    8   10    9      0.47      0.00
    9   10    9      1.28      0.00
   10   10    9      0.06      0.00
   11   10    9     -1.06      0.00
   12   10    9      0.81      0.00
   13   10    9     -0.32      0.00
   14   10    9      0.03      0.00
   15   10    9      1.82      0.00
   16   10    9     -0.27      0.00
   17   10    9      0.35      0.00
   18   10    9      0.59      0.00
    0   11    9     -1.28      0.00
    1   11    9     -1.44      0.00
    2   11    9      0.53      0.00
    3   11    9     -0.49      0.00
    4   11    9      0.57      0.00
    5   11    9     -1.23      0.00
    6   11    9     -0.34      0.00
    7   11    9     -1.84      0.00
    8   11    9      1.54      0.00
    9   11    9      0.26      0.00
   10   11    9     -0.22      0.00
   11   11    9     -1.16      0.00
   12   11    9     -0.05      0.00
   13   11    9     -0.79      0.00
   14   11    9     -0.80      0.00
   15   11    9      0.56      0.00
   16   11    9     -0.26      0.00
    0   12    9     -0.70      0.00
    1   12    9     -0.91      0.00
    2   12    9      1.39      0.00
    3   12    9     -0.47      0.00
    4   12    9      0.78      0.00
    5   12    9      0.67      0.00
    6   12    9     -0.82      0.00
    7   12    9     -0.96      0.00
    8   12    9      0.54      0.00
    9   12    9      0.19      0.00
   10   12    9     -0.71      0.00
   11   12    9      0.76      0.00
   12   12    9     -0.02      0.00
   13   12    9     -0.25      0.00
   14   12    9     -0.55      0.00
    0   13    9     -0.70      0.00
    1   13    9      0.75      0.00
    2   13    9      0.39      0.00
    3   13    9      1.02      0.00
    4   13    9     -0.21      0.00
    5   13    9      2.21      0.00
    6   13    9      0.26      0.00
    7   13    9     -1.57      0.00
    8   13    9      0.23      0.00
    9   13    9     -2.28      0.00
   10   13    9     -1.37      0.00
   11   13    9     -0.42      0.00
   12   13    9      0.29      0.00
    0   14    9     -1.71      0.00
    1   14    9      0.46      0.00
    2   14    9     -0.56      0.00
    3   14    9     -0.54      0.00
    4   14    9     -0.47      0.00
    5   14    9      0.70      0.00
    6   14    9      0.68      0.00
    7   14    9     -0.31      0.00
    8   14    9      0.02      0.00
    9   14    9     -0.46      0.00
    0   15    9      0.24      0.00
    1   15    9      1.17      0.00
    0    0   10     -1.58      0.00
    2    0   10     -0.21      0.00
    4    0   10      5.51      0.00
    6    0   10      3.61      0.00
    8    0   10     -2.12      0.00
   10    0   10     -2.99      0.00
   12    0   10     -0.12      0.00
   14    0   10      3.61      0.00
   16    0   10      0.72      0.00
   18    0   10     -2.28      0.00
   20    0   10     -2.64      0.00
   22    0   10      1.27      0.00
   24    0   10      0.31      0.00
    0    1   10     -1.82      0.00
    1    1   10     -1.92      0.00
    2    1   10     -2.64      0.00
    3    1   10      3.83      0.00
    4    1   10      0.46      0.00
    5    1   10      0.34      0.00
    6    1   10      1.48      0.00
    7    1   10     -1.74      0.00
    8    1   10     -1.73      0.00
    9    1   10     -0.01      0.00
   10    1   10     -2.34      0.00
   11    1   10      0.50      0.00
   12    1   10     -0.09      0.00
   13    1   10      0.27      0.00
   14    1   10      1.94      0.00
   15    1   10     -0.61      0.00
   16    1   10     -0.13      0.00
   17    1   10     -0.51      0.00
   18    1   10     -1.39      0.00
   19    1   10      0.06      0.00
   20    1   10     -2.02      0.00
   21    1   10     -0.67      0.00
   22    1   10     -0.34      0.00
   23    1   10     -0.09      0.00
    0    2   10      2.95      0.00
    1    2   10     -2.85      0.00
    2    2   10      0.08      0.00
    3    2   10     -2.24      0.00
    4    2   10     -0.26      0.00
    5    2   10     -2.61      0.00
    6    2   10      1.95      0.00
    7    2   10      0.82      0.00
    8    2   10      0.61      0.00
    9    2   10      2.47      0.00
   10    2   10      0.35      0.00
   11    2   10     -0.26      0.00
   12    2   10      0.95      0.00
   13    2   10      0.35      0.00
   14    2   10     -0.05      0.00
   15    2   10      0.98      0.00
   16    2   10     -1.34      0.00
   17    2   10      0.93      0.00
   18    2   10     -0.48      0.00
   19    2   10      0.63      0.00
   20    2   10      0.37      0.00
   21    2   10     -1.28      0.00
   22    2   10      0.44      0.00
   23    2   10     -0.02      0.00
    0    3   10     -4.00      0.00
    1    3   10      1.66      0.00
    2    3   10     -0.85      0.00
    3    3   10      0.40      0.00
    4    3   10      2.07      0.00
    5    3   10     -0.28      0.00
    6    3   10     -0.10      0.00
    7    3   10     -0.09      0.00
    8    3   10     -1.21      0.00
    9    3   10     -0.24      0.00
   10    3   10      0.83      0.00
   11    3   10     -1.82      0.00
   12    3   10      0.40      0.00
   13    3   10      0.46      0.00
   14    3   10     -1.00      0.00
   15    3   10      0.67      0.00
   16    3   10     -1.04      0.00
   17    3   10      0.68      0.00
   18    3   10     -1.17      0.00
   19    3   10      2.05      0.00
   20    3   10     -0.73      0.00
   21    3   10      0.90      0.00
   22    3   10      0.12      0.00
   23    3   10     -0.10      0.00
    0    4   10     -2.76      0.00
    1    4   10     -2.51      0.00
    2    4   10      1.59      0.00
    3    4   10     -1.00      0.00
    4    4   10      3.06      0.00
    5    4   10      1.43      0.00
    6    4   10      0.17      0.00
    7    4   10      2.09      0.00
    8    4   10      0.35      0.00
    9    4   10      1.63      0.00
   10    4   10      2.04      0.00
   11    4   10     -1.80      0.00
   12    4   10      0.13      0.00
   13    4   10     -0.20      0.00
   14    4   10     -0.97      0.00
   15    4   10      0.59      0.00
   16    4   10      0.68      0.00
   17    4   10     -1.23      0.00
   18    4   10      0.65      0.00
   19    4   10     -1.47      0.00
   20    4   10     -0.11      0.00
   21    4   10     -0.47      0.00
   22    4   10      0.04      0.00
   23    4   10     -0.02      0.00
    0    5   10      2.66      0.00
    1    5   10      0.32      0.00
    2    5   10      1.33      0.00
    3    5   10     -0.26      0.00
    4    5   10     -1.40      0.00
    5    5   10      0.14      0.00
    6    5   10     -0.48      0.00
    7    5   10      0.05      0.00
    8    5   10     -0.44      0.00
    9    5   10     -0.03      0.00
   10    5   10     -0.31      0.00
   11    5   10     -1.78      0.00
   12    5   10     -0.66      0.00
   13    5   10      0.25      0.00
   14    5   10      0.07      0.00
   15    5   10      0.07      0.00
   16    5   10      0.56      0.00
   17    5   10     -0.28      0.00
   18    5   10     -0.60      0.00
   19    5   10      1.28      0.00
   20    5   10      0.12      0.00
   21    5   10      1.36      0.00
   22    5   10      0.99      0.00
    0    6   10     -3.04      0.00
    1    6   10     -0.81      0.00
    2    6   10     -1.91      0.00
    3    6   10      1.44      0.00
    4    6   10      0.23      0.00
    5    6   10     -0.04      0.00
    6    6   10      2.20      0.00
    7    6   10     -0.25      0.00
    8    6   10      1.21      0.00
    9    6   10      0.52      0.00
   10    6   10      1.02      0.00
   11    6   10     -0.33      0.00
   12    6   10      0.04      0.00
   13    6   10     -0.59      0.00
   14    6   10      0.46      0.00
   15    6   10     -1.72      0.00
   16    6   10      0.63      0.00
   17    6   10      1.12      0.00
   18    6   10     -0.86      0.00
   19    6   10      1.13      0.00
   20    6   10     -1.38      0.00
   21    6   10     -0.24      0.00
    0    7   10     -0.25      0.00
    1    7   10     -1.47      0.00
    2    7   10      0.52      0.00
    3    7   10      0.83      0.00
    4    7   10      0.47      0.00
    5    7   10     -0.36      0.00
    6    7   10      0.19      0.00
    7    7   10      0.83      0.00
    8    7   10     -0.78      0.00
    9    7   10      1.48      0.00
   10    7   10     -0.55      0.00
   11    7   10      0.18      0.00
   12    7   10     -0.64      0.00
   13    7   10     -0.12      0.00
   14    7   10     -0.41      0.00
   15    7   10     -0.05      0.00
   16    7   10      0.81      0.00
   17    7   10      2.69      0.00
   18    7   10      1.88      0.00
   19    7   10      0.64      0.00
   20    7   10      0.61      0.00
   21    7   10     -1.01      0.00
    0    8   10     -0.59      0.00
    1    8   10      0.44      0.00
    2    8   10      0.57      0.00
    3    8   10      0.15      0.00
    4    8   10      0.51      0.00
    5    8   10     -0.58      0.00
    6    8   10     -0.97      0.00
    7    8   10     -0.96      0.00
    8    8   10     -1.08      0.00
    9    8   10     -0.29      0.00
   10    8   10      0.02      0.00
   11    8   10     -0.48      0.00
   12    8   10      0.59      0.00
   13    8   10     -0.96      0.00
   14    8   10      0.80      0.00
   15    8   10     -2.16      0.00
   16    8   10     -0.35      0.00
   17    8   10     -1.47      0.00
   18    8   10     -0.99      0.00
   19    8   10     -0.05      0.00
   20    8   10     -0.40      0.00
    0    9   10     -1.04      0.00
    1    9   10     -0.33      0.00
    2    9   10      1.06      0.00
    3    9   10      0.95      0.00
    4    9   10      2.13      0.00
    5    9   10      0.95      0.00
    6    9   10     -0.32      0.00
    7    9   10      0.56      0.00
    8    9   10      0.77      0.00
    9    9   10      2.29      0.00
   10    9   10      1.44      0.00
   11    9   10      1.40      0.00
   12    9   10     -0.50      0.00
   13    9   10      0.48      0.00
   14    9   10      0.30      0.00
   15    9   10      0.71      0.00
   16    9   10      0.57      0.00
   17    9   10      0.41      0.00
   18    9   10      0.11      0.00
    0   10   10      1.95      0.00
    1   10   10     -0.82      0.00
    2   10   10      0.34      0.00
    3   10   10      0.32      0.00
    4   10   10     -1.13      0.00
    5   10   10     -0.99      0.00
    6   10   10     -1.38      0.00
    7   10   10     -1.57      0.00
    8   10   10      0.33      0.00
    9   10   10     -0.89      0.00
   10   10   10     -0.32      0.00
   11   10   10     -0.48      0.00
   12   10   10     -1.54      0.00
   13   10   10      0.48      0.00
   14   10   10      0.79      0.00
   15   10   10     -0.32      0.00
   16   10   10      0.52      0.00
   17   10   10     -0.27      0.00
    0   11   10      0.33      0.00
    1   11   10     -0.44      0.00
    2   11   10     -0.52      0.00
    3   11   10      0.75      0.00
    4   11   10     -0.46      0.00
    5   11   10      1.08      0.00
    6   11   10     -1.36      0.00
    7   11   10      1.46      0.00
    8   11   10     -0.66      0.00
    9   11   10      1.05      0.00
   10   11   10     -0.05      0.00
   11   11   10      1.60      0.00
   12   11   10     -0.97      0.00
   13   11   10      1.37      0.00
   14   11   10      0.65      0.00
   15   11   10     -0.96      0.00
    0   12   10     -0.82      0.00
    1   12   10      0.54      0.00
    2   12   10     -1.29      0.00
    3   12   10      0.70      0.00
    4   12   10      0.30      0.00
    5   12   10      0.34      0.00
    6   12   10     -0.21      0.00
    7   12   10     -0.32      0.00
    8   12   10     -1.14      0.00
    9   12   10     -1.21      0.00
   10   12   10      0.55      0.00
   11   12   10     -0.21      0.00
   12   12   10     -0.09      0.00
   13   12   10     -0.17      0.00
    0   13   10      1.49      0.00
    1   13   10      0.79      0.00
    2   13   10     -0.44      0.00
    3   13   10     -0.30      0.00
    4   13   10      0.85      0.00
    5   13   10     -0.24      0.00
    6   13   10      1.64      0.00
    7   13   10      0.58      0.00
    8   13   10     -2.13      0.00
    9   13   10     -0.87      0.00
   10   13   10     -1.53      0.00
    0   14   10      1.25      0.00
    1   14   10     -0.73      0.00
    2   14   10     -0.22      0.00
    3   14   10     -1.52      0.00
    4   14   10     -0.23      0.00
    5   14   10     -1.01      0.00
    6   14   10      0.11      0.00
    1    0   11     -0.16      0.00
    3    0   11      4.06      0.00
    5    0   11      2.26      0.00
    7    0   11     -2.25      0.00
    9    0   11     -2.03      0.00
   11    0   11     -0.58      0.00
   13    0   11      2.17      0.00
   15    0   11      2.33      0.00
   17    0   11     -1.37      0.00
   19    0   11     -2.33      0.00
   21    0   11     -0.15      0.00
   23    0   11      1.16      0.00
    0    1   11     -0.11      0.00
    1    1   11     -2.61      0.00
    2    1   11      0.84      0.00
    3    1   11     -1.22      0.00
    4    1   11     -1.58      0.00
    5    1   11     -0.16      0.00
    6    1   11     -1.63      0.00
    7    1   11     -0.17      0.00
    8    1   11      1.94      0.00
    9    1   11     -0.01      0.00
   10    1   11      1.03      0.00
   11    1   11     -0.76      0.00
   12    1   11     -0.26      0.00
   13    1   11      0.77      0.00
   14    1   11     -0.82      0.00
   15    1   11      1.36      0.00
   16    1   11     -1.10      0.00
   17    1   11     -1.54      0.00
   18    1   11      0.98      0.00
   19    1   11     -2.28      0.00
   20    1   11      1.20      0.00
   21    1   11     -0.94      0.00
   22    1   11     -0.53      0.00
   23    1   11     -0.24      0.00
    0    2   11     -4.27      0.00
    1    2   11      2.41      0.00
    2    2   11     -2.41      0.00
    3    2   11     -1.67      0.00
    4    2   11     -2.15      0.00
    5    2   11     -0.34      0.00
    6    2   11     -1.96      0.00
    7    2   11      1.18      0.00
    8    2   11      2.64      0.00
    9    2   11     -0.24      0.00
   10    2   11      1.74      0.00
   11    2   11     -0.75      0.00
   12    2   11     -0.63      0.00
   13    2   11      0.77      0.00
   14    2   11     -0.17      0.00
   15    2   11      1.00      0.00
   16    2   11     -0.34      0.00
   17    2   11     -0.77      0.00
   18    2   11      0.20      0.00
   19    2   11     -0.50      0.00
   20    2   11     -0.53      0.00
   21    2   11      1.20      0.00
   22    2   11      0.40      0.00
    0    3   11     -0.08      0.00
    1    3   11     -1.30      0.00
    2    3   11      0.11      0.00
    3    3   11      0.41      0.00
    4    3   11     -0.13      0.00
    5    3   11      1.51      0.00
    6    3   11     -1.33      0.00
    7    3   11      0.19      0.00
    8    3   11      0.69      0.00
    9    3   11     -0.39      0.00
   10    3   11     -0.94      0.00
   11    3   11      0.76      0.00
   12    3   11     -1.66      0.00
   13    3   11      0.22      0.00
   14    3   11      0.80      0.00
   15    3   11     -1.16      0.00
   16    3   11      1.12      0.00
   17    3   11     -1.85      0.00
   18    3   11      1.79      0.00
   19    3   11     -2.01      0.00
   20    3   11      0.66      0.00
   21    3   11     -0.44      0.00
   22    3   11      0.67      0.00
    0    4   11      0.75      0.00
    1    4   11     -1.61      0.00
    2    4   11     -0.77      0.00
    3    4   11      1.27      0.00
    4    4   11     -0.21      0.00
    5    4   11      1.38      0.00
    6    4   11      1.68      0.00
    7    4   11      1.20      0.00
    8    4   11      2.82      0.00
    9    4   11      1.46      0.00
   10    4   11     -1.21      0.00
   11    4   11      0.99      0.00
   12    4   11     -1.72      0.00
   13    4   11     -0.37      0.00
   14    4   11      1.47      0.00
   15    4   11     -0.45      0.00
   16    4   11     -0.14      0.00
   17    4   11     -0.03      0.00
   18    4   11     -0.93      0.00
   19    4   11      0.35      0.00
   20    4   11     -0.40      0.00
   21    4   11      0.42      0.00
   22    4   11      0.10      0.00
    0    5   11     -1.23      0.00
    1    5   11      2.76      0.00
    2    5   11     -0.54      0.00
    3    5   11     -0.08      0.00
    4    5   11      0.68      0.00
    5    5   11     -1.39      0.00
    6    5   11      0.08      0.00
    7    5   11     -0.42      0.00
    8    5   11      0.96      0.00
    9    5   11     -0.44      0.00
   10    5   11     -1.95      0.00
   11    5   11      0.15      0.00
   12    5   11     -1.60      0.00
   13    5   11     -0.76      0.00
   14    5   11      1.52      0.00
   15    5   11      0.11      0.00
   16    5   11      0.09      0.00
   17    5   11      0.68      0.00
   18    5   11     -0.31      0.00
   19    5   11      0.10      0.00
   20    5   11     -0.50      0.00
   21    5   11     -0.19      0.00
    0    6   11     -2.18      0.00
    1    6   11     -2.22      0.00
    2    6   11      1.77      0.00
    3    6   11     -1.18      0.00
    4    6   11      2.09      0.00
    5    6   11      0.98      0.00
    6    6   11     -0.66      0.00
    7    6   11      1.61      0.00
    8    6   11      1.16      0.00
    9    6   11      0.67      0.00
   10    6   11     -0.72      0.00
   11    6   11      1.58      0.00
   12    6   11     -0.27      0.00
   13    6   11     -0.38      0.00
   14    6   11     -0.72      0.00
   15    6   11     -0.18      0.00
   16    6   11     -1.09      0.00
   17    6   11      1.38      0.00
   18    6   11      1.83      0.00
   19    6   11      0.25      0.00
   20    6   11     -0.05      0.00
    0    7   11     -2.26      0.00
    1    7   11      0.02      0.00
    2    7   11      1.02      0.00
    3    7   11      0.27      0.00
    4    7   11      0.05      0.00
    5    7   11      0.34      0.00
    6    7   11     -1.57      0.00
    7    7   11     -0.33      0.00
    8    7   11      0.98      0.00
    9    7   11     -1.83      0.00
   10    7   11      0.11      0.00
   11    7   11     -0.80      0.00
   12    7   11      1.08      0.00
   13    7   11     -0.09      0.00
   14    7   11      0.79      0.00
   15    7   11     -0.03      0.00
   16    7   11      0.21      0.00
   17    7   11      0.13      0.00
   18    7   11      1.30      0.00
   19    7   11      1.41      0.00
   20    7   11     -0.52      0.00
    0    8   11      0.58      0.00
    1    8   11     -1.09      0.00
    2    8   11      1.17      0.00
    3    8   11      1.40      0.00
    4    8   11      0.14      0.00
    5    8   11      0.38      0.00
    6    8   11     -1.07      0.00
    7    8   11     -1.23      0.00
    8    8   11      0.39      0.00
    9    8   11     -0.49      0.00
   10    8   11      0.88      0.00
   11    8   11      1.13      0.00
   12    8   11     -0.75      0.00
   13    8   11      0.78      0.00
   14    8   11     -1.25      0.00
   15    8   11      0.02      0.00
   16    8   11     -1.47      0.00
   17    8   11     -0.94      0.00
   18    8   11     -0.89      0.00
   19    8   11     -0.68      0.00
    0    9   11      1.32      0.00
    1    9   11     -1.05      0.00
    2    9   11      0.26      0.00
    3    9   11      1.41      0.00
    4    9   11     -0.55      0.00
    5    9   11      1.18      0.00
    6    9   11     -0.10      0.00
    7    9   11      0.05      0.00
    8    9   11      0.97      0.00
    9    9   11     -0.58      0.00
   10    9   11      2.06      0.00
   11    9   11      0.12      0.00
   12    9   11      0.85      0.00
   13    9   11      0.89      0.00
   14    9   11      0.99      0.00
   15    9   11      0.17      0.00
   16    9   11      0.37      0.00
   17    9   11      0.31      0.00
    0   10   11      1.20      0.00
    1   10   11      0.36      0.00
    2   10   11      0.71      0.00
    3   10   11     -0.15      0.00
    4   10   11     -0.53      0.00
    5   10   11      0.25      0.00
    6   10   11     -1.60      0.00
    7   10   11      0.14      0.00
    8   10   11     -1.97      0.00
    9   10   11     -0.79      0.00
   10   10   11     -1.05      0.00
   11   10   11     -0.96      0.00
   12   10   11      0.00      0.00
   13   10   11      0.36      0.00
   14   10   11      0.53      0.00
   15   10   11     -0.15      0.00
   16   10   11     -0.56      0.00
    0   11   11     -0.04      0.00
    1   11   11     -0.05      0.00
    2   11   11     -0.09      0.00
    3   11   11     -0.45      0.00
    4   11   11      0.79      0.00
    5   11   11      0.77      0.00
    6   11   11      1.07      0.00
    7   11   11     -0.54      0.00
    8   11   11      0.41      0.00
    9   11   11      0.10      0.00
   10   11   11      2.31      0.00
   11   11   11      0.43      0.00
   12   11   11      3.36      0.00
   13   11   11     -0.38      0.00
   14   11   11      0.65      0.00
    0   12   11      1.29      0.00
    1   12   11     -0.17      0.00
    2   12   11     -0.02      0.00
    3   12   11     -1.99      0.00
    4   12   11      0.45      0.00
    5   12   11      0.25      0.00
    6   12   11      0.97      0.00
    7   12   11     -1.02      0.00
    8   12   11     -1.89      0.00
    9   12   11     -1.74      0.00
   10   12   11     -1.18      0.00
   11   12   11     -0.53      0.00
   12   12   11      0.62      0.00
    0   13   11      1.52      0.00
    1   13   11      0.08      0.00
    2   13   11      0.06      0.00
    3   13   11     -1.10      0.00
    4   13   11     -0.86      0.00
    5   13   11      1.43      0.00
    6   13   11      0.33      0.00
    7   13   11      0.52      0.00
    8   13   11     -0.16      0.00
    0   14   11     -0.29      0.00
    1   14   11      0.77      0.00
    0    0   12      0.41      0.00
    2    0   12      3.04      0.00
    4    0   12      0.09      0.00
    6    0   12     -2.70      0.00
    8    0   12      0.04      0.00
   10    0   12      0.73      0.00
   12    0   12     -0.35      0.00
   14    0   12      0.75      0.00
   16    0   12     -0.47      0.00
   18    0   12     -0.96      0.00
   20    0   12      1.68      0.00
   22    0   12      0.60      0.00
    0    1   12     -0.70      0.00
    1    1   12     -0.19      0.00
    2    1   12     -1.31      0.00
    3    1   12     -2.06      0.00
    4    1   12     -3.52      0.00
    5    1   12     -2.32      0.00
    6    1   12     -1.19      0.00
    7    1   12      1.92      0.00
    8    1   12      2.87      0.00
    9    1   12      1.22      0.00
   10    1   12      1.71      0.00
   11    1   12     -0.51      0.00
   12    1   12     -0.43      0.00
   13    1   12     -0.52      0.00
   14    1   12      0.79      0.00
   15    1   12     -1.01      0.00
   16    1   12     -0.54      0.00
   17    1   12      0.26      0.00
   18    1   12     -2.76      0.00
   19    1   12      1.38      0.00
   20    1   12     -1.52      0.00
   21    1   12      0.64      0.00
   22    1   12     -0.14      0.00
    0    2   12      3.66      0.00
    1    2   12     -1.18      0.00
    2    2   12      0.39      0.00
    3    2   12     -2.32      0.00
    4    2   12     -2.23      0.00
    5    2   12     -2.90      0.00
    6    2   12     -0.76      0.00
    7    2   12      0.79      0.00
    8    2   12     -0.51      0.00
    9    2   12      1.54      0.00
   10    2   12     -1.27      0.00
   11    2   12      0.64      0.00
   12    2   12     -0.44      0.00
   13    2   12      0.59      0.00
   14    2   12      0.71      0.00
   15    2   12     -1.28      0.00
   16    2   12      0.09      0.00
   17    2   12     -0.94      0.00
   18    2   12     -0.97      0.00
   19    2   12     -0.70      0.00
   20    2   12      0.27      0.00
   21    2   12      0.00      0.00
    0    3   12     -0.06      0.00
    1    3   12     -2.61      0.00
    2    3   12     -0.22      0.00
    3    3   12      0.09      0.00
    4    3   12      1.01      0.00
    5    3   12      0.18      0.00
    6    3   12      1.90      0.00
    7    3   12      0.43      0.00
    8    3   12      0.19      0.00
    9    3   12      0.54      0.00
   10    3   12     -1.05      0.00
   11    3   12     -1.30      0.00
   12    3   12      0.31      0.00
   13    3   12     -0.61      0.00
   14    3   12      1.02      0.00
   15    3   12      0.28      0.00
   16    3   12     -0.02      0.00
   17    3   12      1.75      0.00
   18    3   12     -1.84      0.00
   19    3   12      1.25      0.00
   20    3   12     -0.75      0.00
   21    3   12     -0.01      0.00
    0    4   12     -0.60      0.00
    1    4   12      2.40      0.00
    2    4   12     -0.58      0.00
    3    4   12     -0.59      0.00
    4    4   12      0.00      0.00
    5    4   12     -0.23      0.00
    6    4   12      1.36      0.00
    7    4   12      1.67      0.00
    8    4   12      1.90      0.00
    9    4   12      0.82      0.00
   10    4   12      0.09      0.00
   11    4   12     -1.87      0.00
   12    4   12     -0.23      0.00
   13    4   12      0.04      0.00
   14    4   12      0.62      0.00
   15    4   12      0.72      0.00
   16    4   12      0.32      0.00
   17    4   12     -0.66      0.00
   18    4   12     -0.84      0.00
   19    4   12     -0.26      0.00
   20    4   12     -1.31      0.00
   21    4   12     -0.18      0.00
    0    5   12      2.21      0.00
    1    5   12     -0.62      0.00
    2    5   12      1.83      0.00
    3    5   12      0.74      0.00
    4    5   12     -0.21      0.00
    5    5   12      0.02      0.00
    6    5   12     -1.27      0.00
    7    5   12     -0.31      0.00
    8    5   12     -1.18      0.00
    9    5   12     -0.09      0.00
   10    5   12      0.24      0.00
   11    5   12     -1.89      0.00
   12    5   12      1.05      0.00
   13    5   12      0.61      0.00
   14    5   12     -1.08      0.00
   15    5   12      1.10      0.00
   16    5   12     -0.58      0.00
   17    5   12     -0.55      0.00
   18    5   12      1.57      0.00
   19    5   12     -0.56      0.00
   20    5   12      0.66      0.00
    0    6   12     -2.28      0.00
    1    6   12     -1.57      0.00
    2    6   12     -1.19      0.00
    3    6   12      4.17      0.00
    4    6   12     -0.29      0.00
    5    6   12      1.51      0.00
    6    6   12      1.32      0.00
    7    6   12      0.74      0.00
    8    6   12      0.27      0.00
    9    6   12      0.55      0.00
   10    6   12      0.32      0.00
   11    6   12     -2.38      0.00
   12    6   12      0.79      0.00
   13    6   12     -0.23      0.00
   14    6   12     -0.37      0.00
   15    6   12     -0.64      0.00
   16    6   12      1.20      0.00
   17    6   12      0.30      0.00
   18    6   12      1.12      0.00
   19    6   12      1.46      0.00
    0    7   12      0.89      0.00
    1    7   12      0.24      0.00
    2    7   12     -0.03      0.00
    3    7   12      1.32      0.00
    4    7   12     -0.80      0.00
    5    7   12     -2.21      0.00
    6    7   12      0.38      0.00
    7    7   12     -1.00      0.00
    8    7   12     -1.33      0.00
    9    7   12      1.00      0.00
   10    7   12     -1.07      0.00
   11    7   12      1.06      0.00
   12    7   12      0.06      0.00
   13    7   12      2.64      0.00
   14    7   12     -0.15      0.00
   15    7   12      0.09      0.00
   16    7   12      0.20      0.00
   17    7   12     -1.11      0.00
   18    7   12      0.87      0.00
    0    8   12     -0.94      0.00
    1    8   12     -0.17      0.00
    2    8   12     -0.29      0.00
    3    8   12      1.91      0.00
    4    8   12      0.21      0.00
    5    8   12      0.95      0.00
    6    8   12      0.65      0.00
    7    8   12     -0.51      0.00
    8    8   12     -1.16      0.00
    9    8   12      1.12      0.00
   10    8   12      0.08      0.00
   11    8   12      0.59      0.00
   12    8   12      1.59      0.00
   13    8   12     -0.85      0.00
   14    8   12      0.03      0.00
   15    8   12     -0.90      0.00
   16    8   12     -1.15      0.00
   17    8   12     -1.04      0.00
    0    9   12     -3.17      0.00
    1    9   12      0.86      0.00
    2    9   12     -0.01      0.00
    3    9   12     -1.17      0.00
    4    9   12      1.81      0.00
    5    9   12     -0.25      0.00
    6    9   12      0.87      0.00
    7    9   12      0.34      0.00
    8    9   12     -1.88      0.00
    9    9   12      1.12      0.00
   10    9   12     -2.15      0.00
   11    9   12      0.45      0.00
   12    9   12      0.55      0.00
   13    9   12     -0.14      0.00
   14    9   12      0.77      0.00
   15    9   12      0.85      0.00
   16    9   12      0.77      0.00
    0   10   12      0.02      0.00
    1   10   12      3.44      0.00
    2   10   12      0.20      0.00
    3   10   12      0.32      0.00
    4   10   12      1.12      0.00
    5   10   12     -0.79      0.00
    6   10   12      1.65      0.00
    7   10   12     -2.02      0.00
    8   10   12     -0.69      0.00
    9   10   12     -0.93      0.00
   10   10   12     -0.62      0.00
   11   10   12      1.19      0.00
   12   10   12      1.59      0.00
   13   10   12      0.39      0.00
   14   10   12     -0.06      0.00
    0   11   12     -0.42      0.00
    1   11   12     -0.75      0.00
    2   11   12     -1.65      0.00
    3   11   12      0.17      0.00
    4   11   12      0.64      0.00
    5   11   12      0.64      0.00
    6   11   12      1.97      0.00
    7   11   12     -1.12      0.00
    8   11   12     -1.00      0.00
    9   11   12      0.18      0.00
   10   11   12      0.38      0.00
   11   11   12      3.32      0.00
   12   11   12      0.74      0.00
    0   12   12      0.21      0.00
    1   12   12      0.88      0.00
    2   12   12     -1.36      0.00
    3   12   12     -0.30      0.00
    4   12   12     -0.37      0.00
    5   12   12      0.78      0.00
    6   12   12      0.05      0.00
    7   12   12      0.14      0.00
    8   12   12     -2.37      0.00
    9   12   12     -1.23      0.00
   10   12   12     -0.99      0.00
    0   13   12      0.78      0.00
    1   13   12      0.81      0.00
    2   13   12     -1.26      0.00
    3   13   12     -0.57      0.00
    4   13   12     -0.86      0.00
    5   13   12     -0.51      0.00
    1    0   13      1.98      0.00
    3    0   13     -1.21      0.00
    5    0   13     -3.68      0.00
    7    0   13      1.62      0.00
    9    0   13      1.79      0.00
   11    0   13     -0.68      0.00
   13    0   13     -0.62      0.00
   15    0   13     -0.62      0.00
   17    0   13     -0.79      0.00
   19    0   13      1.59      0.00
   21    0   13      0.86      0.00
    0    1   13     -0.15      0.00
    1    1   13      0.06      0.00
    2    1   13     -1.21      0.00
    3    1   13     -2.38      0.00
    4    1   13     -2.44      0.00
    5    1   13     -3.33      0.00
    6    1   13      0.32      0.00
    7    1   13      1.40      0.00
    8    1   13      0.77      0.00
    9    1   13      3.26      0.00
   10    1   13     -1.08      0.00
   11    1   13      1.64      0.00
   12    1   13     -0.08      0.00
   13    1   13      0.26      0.00
   14    1   13     -0.48      0.00
   15    1   13     -1.43      0.00
   16    1   13     -0.23      0.00
   17    1   13     -2.41      0.00
   18    1   13      0.14      0.00
   19    1   13     -1.05      0.00
   20    1   13     -0.20      0.00
    0    2   13     -1.00      0.00
    1    2   13      1.09      0.00
    2    2   13     -0.93      0.00
    3    2   13     -0.32      0.00
    4    2   13     -0.88      0.00
    5    2   13     -0.95      0.00
    6    2   13      0.95      0.00
    7    2   13     -0.73      0.00
    8    2   13     -0.83      0.00
    9    2   13     -0.98      0.00
   10    2   13     -1.61      0.00
   11    2   13     -1.55      0.00
   12    2   13      1.61      0.00
   13    2   13     -0.66      0.00
   14    2   13      0.34      0.00
   15    2   13      0.28      0.00
   16    2   13     -0.67      0.00
   17    2   13      0.26      0.00
   18    2   13     -0.16      0.00
   19    2   13     -0.85      0.00
   20    2   13     -0.03      0.00
    0    3   13     -3.09      0.00
    1    3   13      0.41      0.00
    2    3   13     -1.65      0.00
    3    3   13     -0.24      0.00
    4    3   13     -0.03      0.00
    5    3   13      0.64      0.00
    6    3   13      0.91      0.00
    7    3   13      1.32      0.00
    8    3   13      1.00      0.00
    9    3   13     -0.74      0.00
   10    3   13      0.58      0.00
   11    3   13     -1.51      0.00
   12    3   13      0.43      0.00
   13    3   13      0.76      0.00
   14    3   13      0.20      0.00
   15    3   13      1.51      0.00
   16    3   13      0.15      0.00
   17    3   13      0.50      0.00
   18    3   13      0.93      0.00
   19    3   13     -0.35      0.00
   20    3   13      0.34      0.00
    0    4   13      3.12      0.00
    1    4   13     -0.14      0.00
    2    4   13      1.83      0.00
    3    4   13      1.10      0.00
    4    4   13      0.18      0.00
    5    4   13     -0.09      0.00
    6    4   13     -0.77      0.00
    7    4   13      0.41      0.00
    8    4   13     -0.17      0.00
    9    4   13      0.82      0.00
   10    4   13      0.42      0.00
   11    4   13     -0.24      0.00
   12    4   13     -1.19      0.00
   13    4   13      0.75      0.00
   14    4   13     -0.58      0.00
   15    4   13      0.70      0.00
   16    4   13     -1.03      0.00
   17    4   13     -0.68      0.00
   18    4   13     -0.49      0.00
   19    4   13     -1.78      0.00
    0    5   13     -0.24      0.00
    1    5   13     -0.60      0.00
    2    5   13      0.53      0.00
    3    5   13      2.60      0.00
    4    5   13      1.07      0.00
    5    5   13      0.09      0.00
    6    5   13     -0.51      0.00
    7    5   13     -1.00      0.00
    8    5   13     -0.71      0.00
    9    5   13     -0.70      0.00
   10    5   13      0.09      0.00
   11    5   13     -0.78      0.00
   12    5   13     -0.54      0.00
   13    5   13     -0.53      0.00
   14    5   13      0.69      0.00
   15    5   13      0.04      0.00
   16    5   13     -0.10      0.00
   17    5   13      2.50      0.00
   18    5   13     -0.16      0.00
   19    5   13      0.63      0.00
    0    6   13     -1.16      0.00
    1    6   13     -0.07      0.00
    2    6   13      1.51      0.00
    3    6   13     -0.81      0.00
    4    6   13      2.48      0.00
    5    6   13     -0.63      0.00
    6    6   13      0.46      0.00
    7    6   13      0.56      0.00
    8    6   13      1.30      0.00
    9    6   13     -0.33      0.00
   10    6   13     -0.91      0.00
   11    6   13      1.72      0.00
   12    6   13     -1.61      0.00
   13    6   13      1.17      0.00
   14    6   13      0.89      0.00
   15    6   13     -1.22      0.00
   16    6   13     -1.17      0.00
   17    6   13      0.43      0.00
   18    6   13      0.16      0.00
    0    7   13     -0.66      0.00
    1    7   13     -0.07      0.00
    2    7   13      1.12      0.00
    3    7   13     -1.36      0.00
    4    7   13      0.91      0.00
    5    7   13      0.09      0.00
    6    7   13     -1.40      0.00
    7    7   13     -0.55      0.00
    8    7   13      1.19      0.00
    9    7   13     -1.08      0.00
   10    7   13      1.94      0.00
   11    7   13      0.69      0.00
   12    7   13      1.09      0.00
   13    7   13     -0.43      0.00
   14    7   13      1.49      0.00
   15    7   13      0.32      0.00
   16    7   13     -1.12      0.00
   17    7   13      1.10      0.00
    0    8   13     -1.36      0.00
    1    8   13     -1.15      0.00
    2    8   13      0.29      0.00
    3    8   13     -1.28      0.00
    4    8   13      2.27      0.00
    5    8   13      1.25      0.00
    6    8   13      0.64      0.00
    7    8   13      0.46      0.00
    8    8   13      0.07      0.00
    9    8   13     -0.82      0.00
   10    8   13      0.67      0.00
   11    8   13      0.31      0.00
   12    8   13     -1.05      0.00
   13    8   13     -0.94      0.00
   14    8   13     -0.89      0.00
   15    8   13     -0.26      0.00
   16    8   13     -0.45      0.00
    0    9   13      0.71      0.00
    1    9   13      0.82      0.00
    2    9   13     -0.18      0.00
    3    9   13     -0.55      0.00
    4    9   13      0.52      0.00
    5    9   13     -0.14      0.00
    6    9   13      0.80      0.00
    7    9   13     -0.71      0.00
    8    9   13      0.25      0.00
    9    9   13     -2.62      0.00
   10    9   13      0.83      0.00
   11    9   13      0.07      0.00
   12    9   13     -0.12      0.00
   13    9   13      1.18      0.00
   14    9   13      0.49      0.00
    0   10   13      2.93      0.00
    1   10   13     -0.26      0.00
    2   10   13      1.73      0.00
    3   10   13      1.39      0.00
    4   10   13      0.81      0.00
    5   10   13      2.25      0.00
    6   10   13     -0.71      0.00
    7   10   13     -0.33      0.00
    8   10   13     -1.25      0.00
    9   10   13     -0.67      0.00
   10   10   13      2.02      0.00
   11   10   13      1.71      0.00
   12   10   13      0.25      0.00
   13   10   13      0.64      0.00
    0   11   13     -0.58      0.00
    1   11   13     -2.06      0.00
    2   11   13     -0.28      0.00
    3   11   13     -1.33      0.00
    4   11   13     -0.36      0.00
    5   11   13      2.19      0.00
    6   11   13     -0.87      0.00
    7   11   13     -0.07      0.00
    8   11   13     -1.62      0.00
    9   11   13     -0.50      0.00
   10   11   13      1.45      0.00
    0   12   13      0.29      0.00
    1   12   13      0.51      0.00
    2   12   13      0.58      0.00
    3   12   13     -1.62      0.00
    4   12   13     -0.21      0.00
    5   12   13      0.68      0.00
    6   12   13      0.32      0.00
    7   12   13     -0.45      0.00
    0    0   14     -2.31      0.00
    2    0   14     -1.04      0.00
    4    0   14     -0.82      0.00
    6    0   14      0.87      0.00
    8    0   14      1.35      0.00
   10    0   14     -0.42      0.00
   12    0   14      0.14      0.00
   14    0   14     -0.96      0.00
   16    0   14     -1.60      0.00
   18    0   14      0.81      0.00
    0    1   14      0.53      0.00
    1    1   14     -0.14      0.00
    2    1   14     -0.73      0.00
    3    1   14     -0.61      0.00
    4    1   14     -1.92      0.00
    5    1   14      0.21      0.00
    6    1   14      0.86      0.00
    7    1   14     -0.04      0.00
    8    1   14      1.78      0.00
    9    1   14     -1.96      0.00
   10    1   14      0.41      0.00
   11    1   14     -1.10      0.00
   12    1   14      1.21      0.00
   13    1   14      0.29      0.00
   14    1   14     -0.27      0.00
   15    1   14     -0.14      0.00
   16    1   14     -2.12      0.00
   17    1   14     -0.15      0.00
   18    1   14     -0.84      0.00
   19    1   14     -0.75      0.00
    0    2   14     -0.68      0.00
    1    2   14     -0.94      0.00
    2    2   14     -0.12      0.00
    3    2   14      0.42      0.00
    4    2   14      0.16      0.00
    5    2   14      1.13      0.00
    6    2   14     -0.20      0.00
    7    2   14     -0.31      0.00
    8    2   14     -0.14      0.00
    9    2   14     -2.58      0.00
   10    2   14     -0.46      0.00
   11    2   14     -0.98      0.00
   12    2   14     -0.37      0.00
   13    2   14      0.71      0.00
   14    2   14     -0.46      0.00
   15    2   14      1.00      0.00
   16    2   14     -0.26      0.00
   17    2   14      0.77      0.00
   18    2   14      0.76      0.00
   19    2   14      0.65      0.00
    0    3   14     -1.83      0.00
    1    3   14     -1.82      0.00
    2    3   14      0.31      0.00
    3    3   14     -0.27      0.00
    4    3   14      0.72      0.00
    5    3   14      0.69      0.00
    6    3   14     -0.87      0.00
    7    3   14      0.84      0.00
    8    3   14      0.02      0.00
    9    3   14      1.46      0.00
   10    3   14     -0.74      0.00
   11    3   14      1.07      0.00
   12    3   14     -1.57      0.00
   13    3   14      0.98      0.00
   14    3   14      0.26      0.00
   15    3   14      1.14      0.00
   16    3   14      1.25      0.00
   17    3   14     -0.55      0.00
   18    3   14      0.72      0.00
   19    3   14      0.36      0.00
    0    4   14     -0.01      0.00
    1    4   14      2.50      0.00
    2    4   14      2.07      0.00
    3    4   14      1.80      0.00
    4    4   14      0.79      0.00
    5    4   14     -0.16      0.00
    6    4   14     -1.24      0.00
    7    4   14     -2.40      0.00
    8    4   14      0.55      0.00
    9    4   14      0.14      0.00
   10    4   14      0.19      0.00
   11    4   14      0.37      0.00
   12    4   14      0.03      0.00
   13    4   14     -1.57      0.00
   14    4   14      0.99      0.00
   15    4   14     -1.71      0.00
   16    4   14      0.65      0.00
   17    4   14     -1.73      0.00
   18    4   14     -1.50      0.00
    0    5   14     -3.65      0.00
    1    5   14      0.74      0.00
    2    5   14      0.85      0.00
    3    5   14      1.42      0.00
    4    5   14      1.62      0.00
    5    5   14      0.35      0.00
    6    5   14     -1.01      0.00
    7    5   14     -1.33      0.00
    8    5   14      0.07      0.00
    9    5   14      0.15      0.00
   10    5   14     -1.10      0.00
   11    5   14      0.94      0.00
   12    5   14     -0.62      0.00
   13    5   14      0.45      0.00
   14    5   14     -0.18      0.00
   15    5   14     -0.38      0.00
   16    5   14      1.18      0.00
   17    5   14     -1.43      0.00
    0    6   14     -0.14      0.00
    1    6   14      0.50      0.00
    2    6   14      0.12      0.00
    3    6   14      1.09      0.00
    4    6   14     -0.48      0.00
    5    6   14      0.19      0.00
    6    6   14      0.06      0.00
    7    6   14      0.98      0.00
    8    6   14      1.25      0.00
    9    6   14      1.44      0.00
   10    6   14      1.05      0.00
   11    6   14     -1.39      0.00
   12    6   14      1.03      0.00
   13    6   14     -0.10      0.00
   14    6   14     -0.64      0.00
   15    6   14      0.42      0.00
   16    6   14     -0.53      0.00
   17    6   14     -1.08      0.00
    0    7   14     -0.21      0.00
    1    7   14      0.46      0.00
    2    7   14     -1.88      0.00
    3    7   14      0.53      0.00
    4    7   14     -0.64      0.00
    5    7   14      0.01      0.00
    6    7   14     -0.24      0.00
    7    7   14      1.54      0.00
    8    7   14     -1.92      0.00
    9    7   14      3.11      0.00
   10    7   14      1.27      0.00
   11    7   14      0.75      0.00
   12    7   14      0.45      0.00
   13    7   14      0.71      0.00
   14    7   14     -1.08      0.00
   15    7   14     -0.12      0.00
   16    7   14      1.29      0.00
    0    8   14      0.06      0.00
    1    8   14     -0.31      0.00
    2    8   14     -2.62      0.00
    3    8   14      1.62      0.00
    4    8   14     -0.75      0.00
    5    8   14      1.09      0.00
    6    8   14      1.68      0.00
    7    8   14      0.14      0.00
    8    8   14     -0.03      0.00
    9    8   14      0.01      0.00
   10    8   14      0.53      0.00
   11    8   14     -1.16      0.00
   12    8   14     -1.40      0.00
   13    8   14     -0.75      0.00
   14    8   14     -1.36      0.00
    0    9   14      4.00      0.00
    1    9   14      0.53      0.00
    2    9   14      0.23      0.00
    3    9   14      1.38      0.00
    4    9   14     -1.69      0.00
    5    9   14      1.33      0.00
    6    9   14     -1.41      0.00
    7    9   14      0.60      0.00
    8    9   14     -1.28      0.00
    9    9   14      1.60      0.00
   10    9   14      0.92      0.00
   11    9   14      0.27      0.00
   12    9   14      0.35      0.00
   13    9   14     -0.64      0.00
    0   10   14      1.27      0.00
    1   10   14      1.00      0.00
    2   10   14      0.48      0.00
    3   10   14      0.37      0.00
    4   10   14      1.44      0.00
    5   10   14      0.76      0.00
    6   10   14     -0.42      0.00
    7   10   14     -0.77      0.00
    8   10   14     -1.59      0.00
    9   10   14      0.63      0.00
   10   10   14      1.81      0.00
    0   11   14     -1.50      0.00
    1   11   14     -0.70      0.00
    2   11   14     -2.48      0.00
    3   11   14      0.27      0.00
    4   11   14     -0.15      0.00
    5   11   14      0.04      0.00
    6   11   14      0.64      0.00
    7   11   14     -0.93      0.00
    1    0   15     -2.70      0.00
    3    0   15      0.43      0.00
    5    0   15      1.06      0.00
    7    0   15      0.86      0.00
    9    0   15     -0.75      0.00
   11    0   15     -0.17      0.00
   13    0   15      0.77      0.00
   15    0   15     -0.84      0.00
   17    0   15      0.01      0.00
    0    1   15      1.79      0.00
    1    1   15     -1.37      0.00
    2    1   15      1.19      0.00
    3    1   15      0.89      0.00
    4    1   15      0.27      0.00
    5    1   15      2.42      0.00
    6    1   15     -0.86      0.00
    7    1   15      1.76      0.00
    8    1   15     -0.47      0.00
    9    1   15     -1.04      0.00
   10    1   15     -0.68      0.00
   11    1   15     -0.51      0.00
   12    1   15     -1.55      0.00
   13    1   15      0.21      0.00
   14    1   15     -0.32      0.00
   15    1   15     -1.30      0.00
   16    1   15      0.33      0.00
   17    1   15     -0.29      0.00
   18    1   15      0.12      0.00
    0    2   15     -0.61      0.00
    1    2   15     -1.92      0.00
    2    2   15      0.04      0.00
    3    2   15     -0.05      0.00
    4    2   15      0.84      0.00
    5    2   15      0.30      0.00
    6    2   15     -0.24      0.00
    7    2   15      0.42      0.00
    8    2   15     -1.00      0.00
    9    2   15      0.80      0.00
   10    2   15     -2.01      0.00
   11    2   15      0.72      0.00
   12    2   15     -2.15      0.00
   13    2   15      0.60      0.00
   14    2   15      1.58      0.00
   15    2   15      0.32      0.00
   16    2   15      2.15      0.00
   17    2   15      0.25      0.00
    0    3   15      0.45      0.00
    1    3   15     -0.51      0.00
    2    3   15      0.60      0.00
    3    3   15      1.09      0.00
    4    3   15      0.50      0.00
    5    3   15     -1.95      0.00
    6    3   15     -0.61      0.00
    7    3   15     -2.53      0.00
    8    3   15      1.10      0.00
    9    3   15      0.38      0.00
   10    3   15      2.56      0.00
   11    3   15     -0.24      0.00
   12    3   15      0.56      0.00
   13    3   15     -1.18      0.00
   14    3   15      1.36      0.00
   15    3   15      0.00      0.00
   16    3   15     -0.18      0.00
   17    3   15     -0.04      0.00
    0    4   15      0.65      0.00
    1    4   15      0.17      0.00
    2    4   15      1.94      0.00
    3    4   15      2.51      0.00
    4    4   15      1.81      0.00
    5    4   15     -0.21      0.00
    6    4   15     -1.77      0.00
    7    4   15     -0.49      0.00
    8    4   15     -1.29      0.00
    9    4   15      0.36      0.00
   10    4   15      0.67      0.00
   11    4   15      0.27      0.00
   12    4   15     -1.35      0.00
   13    4   15      0.27      0.00
   14    4   15     -1.11      0.00
   15    4   15      0.17      0.00
   16    4   15     -1.14      0.00
   17    4   15     -0.62      0.00
    0    5   15      1.47      0.00
    1    5   15     -1.74      0.00
    2    5   15      1.47      0.00
    3    5   15      0.71      0.00
    4    5   15      0.20      0.00
    5    5   15     -1.44      0.00
    6    5   15     -0.08      0.00
    7    5   15      0.30      0.00
    8    5   15      0.25      0.00
    9    5   15      0.26      0.00
   10    5   15      0.46      0.00
   11    5   15     -1.34      0.00
   12    5   15      0.82      0.00
   13    5   15      1.12      0.00
   14    5   15     -0.09      0.00
   15    5   15      1.36      0.00
   16    5   15     -2.05      0.00
    0    6   15      1.06      0.00
    1    6   15     -0.43      0.00
    2    6   15      1.19      0.00
    3    6   15     -0.51      0.00
    4    6   15     -0.77      0.00
    5    6   15     -0.16      0.00
    6    6   15     -0.42      0.00
    7    6   15      1.61      0.00
    8    6   15      0.87      0.00
    9    6   15      2.72      0.00
   10    6   15      0.77      0.00
   11    6   15      0.63      0.00
   12    6   15      0.78      0.00
   13    6   15     -0.51      0.00
   14    6   15      0.55      0.00
   15    6   15     -1.36      0.00
    0    7   15     -0.97      0.00
    1    7   15     -1.10      0.00
    2    7   15      0.38      0.00
    3    7   15     -2.02      0.00
    4    7   15      0.10      0.00
    5    7   15      0.53      0.00
    6    7   15      1.56      0.00
    7    7   15     -1.38      0.00
    8    7   15      3.36      0.00
    9    7   15      0.08      0.00
   10    7   15      1.22      0.00
   11    7   15      0.91      0.00
   12    7   15     -0.42      0.00
   13    7   15     -1.38      0.00
   14    7   15      0.44      0.00
    0    8   15      3.75      0.00
    1    8   15     -0.69      0.00
    2    8   15      1.95      0.00
    3    8   15     -2.19      0.00
    4    8   15     -1.88      0.00
    5    8   15      1.03      0.00
    6    8   15     -0.07      0.00
    7    8   15     -0.54      0.00
    8    8   15      1.82      0.00
    9    8   15      0.92      0.00
   10    8   15     -0.85      0.00
   11    8   15      0.04      0.00
   12    8   15     -0.73      0.00
    0    9   15      1.75      0.00
    1    9   15      1.95      0.00
    2    9   15      2.23      0.00
    3    9   15     -2.09      0.00
    4    9   15      1.61      0.00
    5    9   15     -1.12      0.00
    6    9   15      0.13      0.00
    7    9   15     -1.88      0.00
    8    9   15      0.41      0.00
    9    9   15      1.70      0.00
   10    9   15      0.82      0.00
    0   10   15     -1.68      0.00
    1   10   15      1.63      0.00
    2   10   15     -0.75      0.00
    3   10   15      0.31      0.00
    4   10   15      1.34      0.00
    5   10   15      0.30      0.00
    6   10   15      0.41      0.00
    7   10   15     -1.96      0.00
    0   11   15      1.16      0.00
    1   11   15     -1.32      0.00
    2   11   15     -0.16      0.00
    0    0   16     -3.08      0.00
    2    0   16      0.76      0.00
    4    0   16      1.89      0.00
    6    0   16      0.60      0.00
    8    0   16      0.78      0.00
   10    0   16     -0.19      0.00
   12    0   16     -0.17      0.00
   14    0   16     -0.32      0.00
   16    0   16      0.34      0.00
    0    1   16     -1.46      0.00
    1    1   16      3.53      0.00
    2    1   16      1.36      0.00
    3    1   16     -0.26      0.00
    4    1   16      2.21      0.00
    5    1   16     -0.66      0.00
    6    1   16      0.95      0.00
    7    1   16      0.76      0.00
    8    1   16      0.30      0.00
    9    1   16      0.54      0.00
   10    1   16     -0.69      0.00
   11    1   16     -2.05      0.00
   12    1   16     -1.41      0.00
   13    1   16     -1.23      0.00
   14    1   16     -0.85      0.00
   15    1   16      0.56      0.00
   16    1   16      0.78      0.00
    0    2   16     -2.54      0.00
    1    2   16      0.86      0.00
    2    2   16     -0.96      0.00
    3    2   16      0.86      0.00
    4    2   16      0.02      0.00
    5    2   16     -2.45      0.00
    6    2   16     -0.21      0.00
    7    2   16     -3.24      0.00
    8    2   16      0.84      0.00
    9    2   16      1.21      0.00
   10    2   16      2.63      0.00
   11    2   16     -0.73      0.00
   12    2   16      1.57      0.00
   13    2   16     -1.48      0.00
   14    2   16      1.00      0.00
   15    2   16      1.69      0.00
   16    2   16      0.75      0.00
    0    3   16     -1.51      0.00
    1    3   16      1.71      0.00
    2    3   16     -0.12      0.00
    3    3   16      1.63      0.00
    4    3   16     -0.15      0.00
    5    3   16      0.83      0.00
    6    3   16     -2.64      0.00
    7    3   16      0.49      0.00
    8    3   16     -2.03      0.00
    9    3   16      1.89      0.00
   10    3   16      0.66      0.00
   11    3   16     -0.19      0.00
   12    3   16     -0.11      0.00
   13    3   16     -0.59      0.00
   14    3   16     -0.51      0.00
   15    3   16      1.34      0.00
    0    4   16     -0.43      0.00
    1    4   16      0.96      0.00
    2    4   16      1.29      0.00
    3    4   16      0.81      0.00
    4    4   16      0.87      0.00
    5    4   16     -0.66      0.00
    6    4   16     -0.71      0.00
    7    4   16     -0.67      0.00
    8    4   16     -0.30      0.00
    9    4   16      0.02      0.00
   10    4   16      0.17      0.00
   11    4   16     -0.23      0.00
   12    4   16      0.86      0.00
   13    4   16     -0.01      0.00
   14    4   16      0.98      0.00
   15    4   16     -0.81      0.00
    0    5   16     -1.59      0.00
    1    5   16      0.84      0.00
    2    5   16     -0.62      0.00
    3    5   16      1.62      0.00
    4    5   16     -1.53      0.00
    5    5   16     -0.28      0.00
    6    5   16     -0.82      0.00
    7    5   16      0.42      0.00
    8    5   16      1.35      0.00
    9    5   16      0.71      0.00
   10    5   16     -0.59      0.00
   11    5   16      0.32      0.00
   12    5   16      0.55      0.00
   13    5   16     -0.15      0.00
   14    5   16      2.25      0.00
    0    6   16     -1.07      0.00
    1    6   16      0.40      0.00
    2    6   16     -1.59      0.00
    3    6   16      0.40      0.00
    4    6   16     -0.73      0.00
    5    6   16     -0.34      0.00
    6    6   16      1.30      0.00
    7    6   16      0.67      0.00
    8    6   16      3.34      0.00
    9    6   16     -0.26      0.00
   10    6   16      1.21      0.00
   11    6   16      0.93      0.00
   12    6   16     -0.92      0.00
   13    6   16      0.19      0.00
    0    7   16      0.75      0.00
    1    7   16      1.16      0.00
    2    7   16     -1.60      0.00
    3    7   16     -0.18      0.00
    4    7   16     -0.89      0.00
    5    7   16     -0.77      0.00
    6    7   16     -0.19      0.00
    7    7   16      2.36      0.00
    8    7   16     -0.27      0.00
    9    7   16      0.94      0.00
   10    7   16      0.43      0.00
   11    7   16      1.04      0.00
    0    8   16      0.22      0.00
    1    8   16      3.32      0.00
    2    8   16     -1.20      0.00
    3    8   16     -0.37      0.00
    4    8   16      0.40      0.00
    5    8   16     -2.09      0.00
    6    8   16     -0.33      0.00
    7    8   16      1.71      0.00
    8    8   16     -0.41      0.00
    9    8   16      0.70      0.00
   10    8   16      0.92      0.00
    0    9   16     -0.62      0.00
    1    9   16      3.51      0.00
    2    9   16     -1.94      0.00
    3    9   16      1.92      0.00
    4    9   16     -0.14      0.00
    5    9   16      0.14      0.00
    6    9   16     -0.91      0.00
    7    9   16     -0.36      0.00
    0   10   16      1.66      0.00
    1   10   16     -0.81      0.00
    3    0   17      2.71      0.00
    5    0   17     -1.48      0.00
    7    0   17      1.62      0.00
    9    0   17      3.43      0.00
   11    0   17     -0.42      0.00
   13    0   17     -2.36      0.00
    0    1   17      4.14      0.00
    1    1   17      0.53      0.00
    2    1   17      1.54      0.00
    3    1   17      2.26      0.00
    4    1   17     -0.54      0.00
    5    1   17     -1.23      0.00
    6    1   17      0.15      0.00
    7    1   17     -0.97      0.00
    8    1   17      0.53      0.00
    9    1   17      1.14      0.00
   10    1   17      0.26      0.00
   11    1   17     -0.30      0.00
   12    1   17     -1.34      0.00
   13    1   17     -2.04      0.00
   14    1   17     -0.76      0.00
    0    2   17      1.75      0.00
    1    2   17     -1.33      0.00
    2    2   17      0.44      0.00
    3    2   17      0.56      0.00
    4    2   17     -1.92      0.00
    5    2   17      0.46      0.00
    6    2   17     -3.30      0.00
    7    2   17     -0.14      0.00
    8    2   17     -1.22      0.00
    9    2   17      2.12      0.00
   10    2   17      0.95      0.00
   11    2   17      2.98      0.00
   12    2   17     -0.27      0.00
   13    2   17      0.91      0.00
   14    2   17      0.58      0.00
    0    3   17      2.28      0.00
    1    3   17     -2.08      0.00
    2    3   17      2.45      0.00
    3    3   17     -0.94      0.00
    4    3   17      2.02      0.00
    5    3   17     -1.09      0.00
    6    3   17      0.89      0.00
    7    3   17     -2.35      0.00
    8    3   17      0.51      0.00
    9    3   17     -0.66      0.00
   10    3   17      0.45      0.00
   11    3   17      0.72      0.00
   12    3   17     -0.88      0.00
   13    3   17     -0.09      0.00
    0    4   17     -0.15      0.00
    1    4   17     -0.35      0.00
    2    4   17      0.30      0.00
    3    4   17      0.91      0.00
    4    4   17     -0.32      0.00
    5    4   17      0.05      0.00
    6    4   17      0.12      0.00
    7    4   17     -0.26      0.00
    8    4   17      0.53      0.00
    9    4   17     -0.13      0.00
   10    4   17     -0.55      0.00
   11    4   17      0.16      0.00
   12    4   17      0.17      0.00
    0    5   17      0.45      0.00
    1    5   17     -1.59      0.00
    2    5   17      0.93      0.00
    3    5   17     -0.96      0.00
    4    5   17      0.10      0.00
    5    5   17     -1.04      0.00
    6    5   17      0.54      0.00
    7    5   17      0.57      0.00
    8    5   17      0.91      0.00
    9    5   17      0.05      0.00
   10    5   17     -0.13      0.00
   11    5   17     -0.66      0.00
    0    6   17     -0.12      0.00
    1    6   17     -1.47      0.00
    2    6   17      0.30      0.00
    3    6   17     -1.00      0.00
    4    6   17     -0.05      0.00
    5    6   17      0.10      0.00
    6    6   17      0.72      0.00
    7    6   17      1.84      0.00
    8    6   17     -0.62      0.00
    9    6   17      1.82      0.00
   10    6   17      0.38      0.00
    0    7   17      1.19      0.00
    1    7   17      0.51      0.00
    2    7   17      1.62      0.00
    3    7   17     -2.20      0.00
    4    7   17      0.02      0.00
    5    7   17     -1.03      0.00
    6    7   17      0.60      0.00
    7    7   17      1.16      0.00
    8    7   17     -0.27      0.00
    0    8   17      2.05      0.00
    1    8   17      0.06      0.00
    2    8   17      0.62      0.00
    3    8   17      0.61      0.00
    4    8   17     -1.74      0.00
    5    8   17      0.48      0.00
    6    8   17      0.26      0.00
    4    0   18     -0.09      0.00
    6    0   18      1.13      0.00
    8    0   18      3.65      0.00
   10    0   18      1.01      0.00
    1    1   18      2.42      0.00
    2    1   18      1.72      0.00
    3    1   18     -0.12      0.00
    4    1   18     -1.64      0.00
    5    1   18      0.64      0.00
    6    1   18     -4.12      0.00
    7    1   18     -0.28      0.00
    8    1   18      0.16      0.00
    9    1   18     -0.93      0.00
   10    1   18      2.75      0.00
   11    1   18      0.67      0.00
    0    2   18     -0.61      0.00
    1    2   18     -0.43      0.00
    2    2   18      0.61      0.00
    3    2   18     -1.17      0.00
    4    2   18      1.63      0.00
    5    2   18     -0.73      0.00
    6    2   18      0.45      0.00
    7    2   18     -1.37      0.00
    8    2   18      0.92      0.00
    9    2   18     -1.03      0.00
   10    2   18      2.83      0.00
   11    2   18      1.39      0.00
    0    3   18     -2.87      0.00
    1    3   18      2.04      0.00
    2    3   18     -3.28      0.00
    3    3   18      2.06      0.00
    4    3   18     -1.50      0.00
    5    3   18      1.47      0.00
    6    3   18      0.32      0.00
    7    3   18      0.66      0.00
    8    3   18     -0.81      0.00
    9    3   18     -0.94      0.00
   10    3   18     -1.18      0.00
    0    4   18     -0.87      0.00
    1    4   18      0.46      0.00
    2    4   18      0.59      0.00
    3    4   18     -0.19      0.00
    4    4   18      0.43      0.00
    5    4   18     -0.08      0.00
    6    4   18     -1.18      0.00
    7    4   18      1.11      0.00
    8    4   18      0.07      0.00
    9    4   18     -0.14      0.00
    0    5   18     -3.42      0.00
    1    5   18      0.03      0.00
    2    5   18     -1.48      0.00
    3    5   18     -0.05      0.00
    4    5   18     -0.20      0.00
    5    5   18      0.60      0.00
    6    5   18      0.18      0.00
    7    5   18      0.63      0.00
    8    5   18      0.25      0.00
    0    6   18     -0.35      0.00
    1    6   18      0.63      0.00
    2    6   18     -0.30      0.00
    3    6   18     -0.77      0.00
    4    6   18     -0.69      0.00
    5    6   18      0.42      0.00
    6    6   18      0.75      0.00
    0    7   18     -0.15      0.00
    1    7   18      1.82      0.00
    2    7   18     -0.67      0.00
    3    7   18      0.70      0.00
    7    0   19      1.03      0.00
    4    1   19      1.08      0.00
    5    1   19     -2.21      0.00
    6    1   19      0.62      0.00
    7    1   19     -0.98      0.00
    8    1   19     -1.99      0.00
    1    2   19      0.58      0.00
    2    2   19     -1.73      0.00
    3    2   19      0.73      0.00
    4    2   19     -0.77      0.00
    5    2   19      1.20      0.00
    6    2   19      1.72      0.00
    7    2   19      1.01      0.00
    0    3   19      1.12      0.00
    1    3   19     -2.26      0.00
    2    3   19      1.53      0.00
    3    3   19     -2.38      0.00
    4    3   19      0.71      0.00
    5    3   19     -0.70      0.00
    6    3   19      0.29      0.00
    0    4   19      0.13      0.00
    1    4   19     -0.48      0.00
    2    4   19      0.70      0.00
    3    4   19     -0.14      0.00
    4    4   19      0.75      0.00
    5    4   19     -0.22      0.00
    0    5   19      0.79      0.00
    1    5   19     -2.00      0.00
    2    0    0     78.15      0.00
    4    0    0    -71.93      0.00
   28    0    0      0.00      0.00
    0    1    0     63.16      0.00
    2    1    0    -28.46      0.00
    4    1    0    -62.44      0.00
    0    4    0    -20.89      0.00
   26    6    0     -1.68      0.00
    2    9    0     -0.10      0.00
    0   13    0     -2.61      0.00
   18   13    0      1.09      0.00
    0   14    0     -4.01      0.00
    2   14    0     -3.65      0.00
    0   15    0      1.81      0.00
    2   15    0     -2.44      0.00
    4   15    0     -0.79      0.00
    6   15    0      4.69      0.00
    0   16    0      1.71      0.00
    2   16    0     -0.39      0.00
    4   16    0      0.89      0.00
    6   16    0      2.02      0.00
    8   16    0     -1.27      0.00
    0   17    0      1.08      0.00
    1    0    1    156.11      0.00
    0    1    1    -83.28      0.00
    3    1    1    -52.52      0.00
    4    1    1     29.57      0.00
    5    1    1    -17.50      0.00
    0    2    1      5.49      0.00
    2    3    1    -17.46      0.00
   27    4    1     -0.07      0.00
    3    5    1      0.41      0.00
    6    5    1     -2.17      0.00
   26    6    1      1.48      0.00
   18   13    1      0.25      0.00
    0   14    1      1.26      0.00
    1   14    1     -3.46      0.00
    0   15    1      0.68      0.00
    1   15    1      0.60      0.00
    2   15    1      1.35      0.00
    3   15    1     -1.55      0.00
    4   15    1      1.28      0.00
   13   15    1      0.87      0.00
    0   16    1     -0.12      0.00
    1   16    1      0.80      0.00
    2   16    1      0.88      0.00
    3   16    1     -1.15      0.00
    4   16    1     -0.35      0.00
    5   16    1      1.80      0.00
    6   16    1     -2.35      0.00
    7   16    1      0.53      0.00
    9   16    1     -1.09      0.00
    0    0    2     57.48      0.00
    2    0    2     15.11      0.00
    0    1    2     30.94      0.00
    3    1    2     18.71      0.00
    5    1    2     30.04      0.00
    0    3    2     -0.34      0.00
   27    4    2     -2.17      0.00
   26    6    2     -0.60      0.00
   21   11    2      1.31      0.00
    0   14    2     -3.85      0.00
    0   15    2      1.32      0.00
    1   15    2      1.39      0.00
    2   15    2      1.05      0.00
    0   16    2      2.56      0.00
    1   16    2      0.57      0.00
    2   16    2     -0.43      0.00
    3   16    2      0.78      0.00
    4   16    2     -1.25      0.00
    5   16    2     -1.90      0.00
    9   16    2     -0.38      0.00
    5    0    3     42.36      0.00
    0    1    3    -57.91      0.00
    5    1    3     20.33      0.00
    3    2    3     -8.31      0.00
    0    3    3    -18.46      0.00
   27    3    3      0.86      0.00
   25    7    3     -0.45      0.00
   22   10    3      1.17      0.00
   15   14    3     -0.39      0.00
    0   15    3      2.59      0.00
   12   15    3      0.35      0.00
    0   16    3      1.52      0.00
    1   16    3      2.43      0.00
    2   16    3      0.03      0.00
    3   16    3     -0.20      0.00
    8   16    3     -0.54      0.00
    0    0    4    -56.62      0.00
    4    1    4     19.19      0.00
   27    2    4      0.73      0.00
    1    3    4     -7.98      0.00
   27    3    4     -0.39      0.00
    0    4    4      8.10      0.00
   26    5    4      0.27      0.00
   24    8    4     -0.61      0.00
   23    9    4      0.98      0.00
   19   12    4      0.46      0.00
   17   13    4     -0.03      0.00
    0   16    4      2.36      0.00
    1   16    4      0.42      0.00
    2   16    4      2.71      0.00
    7   16    4      0.79      0.00
   27    0    5      1.12      0.00
    3    1    5      6.98      0.00
   27    1    5      0.82      0.00
   20   11    5     -0.14      0.00
   14   14    5     -0.49      0.00
   11   15    5      0.92      0.00
    0   16    5      0.29      0.00
    6   16    5      1.71      0.00
    3    1    6     -4.93      0.00
   24    7    6      0.72      0.00
   23    8    6      1.12      0.00
   22    9    6      0.83      0.00
   21   10    6     -0.47      0.00
   18   12    6      0.51      0.00
   16   13    6     -0.04      0.00
   13   14    6      1.18      0.00
   10   15    6     -0.84      0.00
    3   16    6     -0.42      0.00
    4   16    6      1.38      0.00
   26    1    7     -0.34      0.00
   26    2    7      0.81      0.00
   19   11    7      0.55      0.00
   17   12    7      0.87      0.00
   15   13    7     -0.28      0.00
   12   14    7      1.29      0.00
   25    3    8      1.99      0.00
   22    8    8      0.32      0.00
    0   11    8     -1.47      0.00
   18   11    8     -0.29      0.00
   16   12    8      0.82      0.00
   14   13    8     -0.24      0.00
   11   14    8     -0.78      0.00
    6   15    8      1.03      0.00
    7   15    8      0.35      0.00
   25    0    9     -0.92      0.00
   24    4    9     -0.66      0.00
   23    6    9     -0.74      0.00
   22    7    9     -0.16      0.00
   21    8    9     -0.45      0.00
   20    9    9      0.26      0.00
   17   11    9     -0.69      0.00
   15   12    9      0.22      0.00
   13   13    9     -0.32      0.00
    2   15    9      0.68      0.00
    3   15    9     -0.15      0.00
    4   15    9     -0.73      0.00
   24    1   10      0.18      0.00
   24    2   10      0.33      0.00
   22    6   10     -0.99      0.00
   19    9   10      0.21      0.00
   16   11   10      0.04      0.00
   14   12   10      0.05      0.00
   11   13   10     -0.26      0.00
    7   14   10      1.01      0.00
   23    2   11      0.51      0.00
   21    6   11     -1.92      0.00
   18    9   11      0.03      0.00
    9   13   11     -0.64      0.00
    2   14   11     -0.58      0.00
    3   14   11     -0.58      0.00
    4   14   11     -1.34      0.00
   22    2   12      0.99      0.00
   20    6   12     -1.38      0.00
   19    7   12     -0.12      0.00
   18    8   12     -0.61      0.00
   15   10   12      0.05      0.00
   13   11   12      1.50      0.00
    6   13   12      1.35      0.00
   21    1   13      0.01      0.00
   21    2   13     -0.19      0.00
   20    4   13      0.46      0.00
   15    9   13      0.24      0.00
   11   11   13      1.26      0.00
    8   12   13     -0.05      0.00
   20    0   14      0.45      0.00
   20    1   14     -0.70      0.00
   18    5   14      2.33      0.00
   15    8   14     -0.25      0.00
   11   10   14      1.15      0.00
    8   11   14     -0.08      0.00
    0   12   14      1.33      0.00
    1   12   14      0.41      0.00
    2   12   14     -0.31      0.00
    3   12   14     -0.01      0.00
   18    2   15      0.98      0.00
   13    8   15     -1.60      0.00
   11    9   15      1.37      0.00
    8   10   15     -0.21      0.00
    3   11   15     -1.49      0.00
    4   11   15     -0.70      0.00
   16    3   16     -1.04      0.00
   12    7   16     -0.58      0.00
    8    9   16     -0.25      0.00
    2   10   16      0.31      0.00
    3   10   16     -0.67      0.00
    1    0   17      2.58      0.00
   14    3   17     -0.98      0.00
   13    4   17      1.70      0.00
   12    5   17     -0.46      0.00
   11    6   17     -0.08      0.00
    9    7   17      0.92      0.00
    0    9   17      3.91      0.00
    1    9   17     -3.30      0.00
    0    0   18      5.84      0.00
    2    0   18      4.35      0.00
   12    0   18     -2.16      0.00
    0    1   18      0.89      0.00
   12    1   18     -0.68      0.00
   11    3   18     -0.56      0.00
   10    4   18      0.46      0.00
    9    5   18     -0.13      0.00
    7    6   18      0.11      0.00
    4    7   18     -1.40      0.00
    1    0   19      6.27      0.00
    3    0   19      1.91      0.00
    5    0   19      0.14      0.00
    9    0   19      1.87      0.00
    0    1   19      0.40      0.00
    1    1   19      0.67      0.00
    2    1   19      0.07      0.00
    3    1   19     -1.27      0.00
    0    2   19     -0.56      0.00
    8    2   19     -1.10      0.00
    7    3   19     -0.02      0.00
    6    4   19      0.78      0.00
    2    5   19     -0.55      0.00
    3    5   19     -0.63      0.00
    0    0   20      4.65      0.00
    2    0   20      1.96      0.00
    0    1   20      0.90      0.00
    1    1   20     -0.34      0.00
    0    0    0      0.00      0.00
# SQUEEZE RESULTS (Version = 270519)
# Note: Data are Listed for all Voids in the P1 Unit Cell
# i.e. Centre of Gravity, Solvent Accessible Volume,
# Recovered number of Electrons in the Void and
# Details about the Squeezed Material
loop_
  _platon_squeeze_void_nr
  _platon_squeeze_void_average_x
  _platon_squeeze_void_average_y
  _platon_squeeze_void_average_z
  _platon_squeeze_void_volume
  _platon_squeeze_void_count_electrons
  _platon_squeeze_void_content
   1  0.000 -0.001  0.000       621       132 ' '
   2  0.500  0.004  0.500       621       132 ' '
   3  0.127  0.357  0.563         9         0 ' '
   4  0.873  0.357  0.563         9         0 ' '
   5  0.373  0.357  0.937         9         0 ' '
   6  0.627  0.357  0.937         9         0 ' '
   7  0.373  0.643  0.063         9         0 ' '
   8  0.627  0.643  0.063         9         0 ' '
   9  0.127  0.642  0.437         9         0 ' '
  10  0.873  0.643  0.437         9         0 ' '
# Missing Reflections Below sin(th)/lambda = 0.25
loop_
  _platon_missing_refln_index_h
  _platon_missing_refln_index_k
  _platon_missing_refln_index_l
  _platon_missing_refln_theta
    2    0    0     1.836
    4    0    0     3.673
    0    1    0     1.511
    2    1    0     2.378
    4    1    0     3.973
    0    4    0     6.054
    1    0    1     1.575
    0    1    1     1.981
    3    1    1     3.393
    4    1    1     4.174
    5    1    1     5.004
    0    2    1     3.283
    2    3    1     5.061
    3    5    1     8.169
    6    5    1     9.478
    0    0    2     2.561
    2    0    2     3.152
    0    1    2     2.974
    3    1    2     4.055
    5    1    2     5.476
    0    3    2     5.213
    5    0    3     5.995
    0    1    3     4.131
    5    1    3     6.183
    3    2    3     5.618
    0    3    3     5.951
    0    0    4     5.128
    4    1    4     6.493
    1    3    4     6.916
    0    4    4     7.946
    3    1    5     7.148
    3    1    6     8.328
_platon_squeeze_void_probe_radius                  1.20
_platon_squeeze_details
)
TITL mo_210320_29_0ma P m n a      R = 0.08
CELL   22.1875   13.4774   15.9045     90.00     90.00     90.00
SPGR Pmna
# Solvent Accessible Volume =      1307
# Electrons Found in S.A.V. =       263
# Note: Atoms in Void are Labelled as Cxxx and Qxxx for all Others
Q101 0.554 0.398 0.425 !       1.26 eA-3
C102 1.000 0.599 0.893 !       1.26 eA-3
Q103 0.398 0.158 0.342 !       1.20 eA-3
C104 0.366 0.179 0.396 !       1.11 eA-3
Q105 0.101 0.115 0.139 !       1.07 eA-3
C106 0.134 0.125 0.106 !       1.05 eA-3
Q107 0.578 0.380 0.395 !       1.01 eA-3
C108 0.110 0.327 0.125 !       0.93 eA-3
Q109 0.944 0.111 0.184 !       0.91 eA-3
C110 0.864 1.000 0.117 !       0.87 eA-3
C111 0.823 0.040 0.032 !       0.85 eA-3
C112 0.170 1.000 0.000 !       0.82 eA-3
C113 1.000 0.547 0.833 !       0.81 eA-3
C114 0.891 0.956 0.844 !       0.81 eA-3
C115 0.064 0.352 0.146 !       0.76 eA-3
Q116 0.942 0.150 0.188 !       0.72 eA-3
C117 1.000 0.124-0.003 !       0.69 eA-3
Q118 0.500 0.524 0.567 !       0.67 eA-3
Q119 0.500 0.522 0.498 !       0.64 eA-3
C120 0.484 0.975 0.482 !       0.59 eA-3
Q121 0.571 0.048 0.339 !       0.57 eA-3
Q122 1.000 0.534 0.111 !       0.57 eA-3
Q123 0.333 0.640 0.352 !       0.55 eA-3
Q124 1.000 0.146 0.215 !       0.53 eA-3
C125 0.338 0.170 0.419 !       0.52 eA-3
Q126 0.172 0.391 0.791 !       0.51 eA-3
Q127 0.500 0.731 0.326 !       0.51 eA-3
Q128 0.874 0.409 0.108 !       0.50 eA-3
Q129 0.549 0.111 0.389 !       0.50 eA-3
)
;
_shelx_fab_checksum              26166
_platon_squeeze_void_probe_radius 1.20
_olex2_submission_special_instructions 'No special instructions were received'
loop_
_space_group_symop_operation_xyz
'x, y, z'
'-x+1/2, -y, z+1/2'
'-x+1/2, y, -z+1/2'
'x, -y, -z'
'-x, -y, -z'
'x-1/2, y, -z-1/2'
'x-1/2, -y, z-1/2'
'-x, y, z'
loop_
_atom_site_label
_atom_site_type_symbol
_atom_site_fract_x
_atom_site_fract_y
_atom_site_fract_z
_atom_site_U_iso_or_equiv
_atom_site_adp_type
_atom_site_occupancy
_atom_site_site_symmetry_order
_atom_site_calc_flag
_atom_site_refinement_flags_posn
_atom_site_refinement_flags_adp
_atom_site_refinement_flags_occupancy
_atom_site_disorder_assembly
_atom_site_disorder_group
Co1 Co 0.250000 0.64250(5) 0.250000 0.0487(3) Uani 1 2 d S T P . .
S1 S 0.35855(6) 0.64483(12) 0.39489(13) 0.0848(5) Uani 1 1 d . U . . .
N7 N 0.500000 -0.0062(3) 0.1069(3) 0.0339(10) Uani 1 2 d S T P . .
N5 N 0.500000 0.2842(3) 0.1218(3) 0.0366(10) Uani 1 2 d S T P . .
N6 N 0.41137(13) 0.13812(19) 0.1254(2) 0.0365(7) Uani 1 1 d . . . . .
N3 N 0.28909(14) -0.2446(2) 0.1710(3) 0.0498(9) Uani 1 1 d . . . . .
O1 O 0.33089(15) 0.6405(3) 0.3219(3) 0.0806(11) Uani 1 1 d . . . . .
N1 N 0.28913(16) 0.5264(2) 0.1737(3) 0.0585(11) Uani 1 1 d . . . . .
C12 C 0.45076(16) -0.0674(2) 0.0960(2) 0.0354(8) Uani 1 1 d . . . . .
C5 C 0.45059(18) 0.3460(2) 0.1158(3) 0.0402(9) Uani 1 1 d . . . . .
C11 C 0.39173(16) -0.0403(3) 0.1149(2) 0.0378(9) Uani 1 1 d . . . . .
C6 C 0.39080(17) 0.3176(3) 0.1274(3) 0.0427(9) Uani 1 1 d . . . . .
C10 C 0.37480(16) 0.0566(3) 0.1329(3) 0.0406(9) Uani 1 1 d . . . . .
C13 C 0.46965(17) -0.1641(3) 0.0710(3) 0.0435(9) Uani 1 1 d . . . . .
H13 H 0.444748 -0.217159 0.057241 0.052 Uiso 1 1 calc R U . . .
C15 C 0.34525(17) -0.1196(3) 0.1201(3) 0.0433(9) Uani 1 1 d . . . . .
C7 C 0.37434(16) 0.2192(3) 0.1377(3) 0.0427(9) Uani 1 1 d . . . . .
N2 N 0.2614(2) 0.4801(3) 0.1102(3) 0.0809(14) Uani 1 1 d . . . . .
H2 H 0.227542 0.498755 0.089072 0.097 Uiso 1 1 calc R U . . .
C4 C 0.46954(18) 0.4467(3) 0.1018(3) 0.0484(10) Uani 1 1 d . . . . .
H4 H 0.444601 0.501479 0.094221 0.058 Uiso 1 1 calc R U . . .
C2 C 0.34368(18) 0.3954(3) 0.1317(3) 0.0503(11) Uani 1 1 d . . . . .
N4 N 0.2677(2) -0.2145(4) 0.0980(3) 0.0931(17) Uani 1 1 d . . . . .
H4A H 0.237067 -0.240292 0.073094 0.112 Uiso 1 1 calc R U . . .
C1 C 0.33862(18) 0.4750(3) 0.1863(3) 0.0590(13) Uani 1 1 d . . . . .
H1 H 0.367049 0.490319 0.227295 0.071 Uiso 1 1 calc R U . . .
C14 C 0.33623(19) -0.1875(3) 0.1842(3) 0.0620(13) Uani 1 1 d . . . . .
H14 H 0.360793 -0.192134 0.231384 0.074 Uiso 1 1 calc R U . . .
C8 C 0.31538(18) 0.1861(3) 0.1593(3) 0.0585(12) Uani 1 1 d . . . . .
H8 H 0.282710 0.226385 0.172633 0.070 Uiso 1 1 calc R U . . .
C9 C 0.31535(18) 0.0871(3) 0.1568(3) 0.0560(12) Uani 1 1 d . . . . .
H9 H 0.282871 0.045716 0.168493 0.067 Uiso 1 1 calc R U . . .
C3 C 0.2925(3) 0.4016(4) 0.0837(4) 0.0873(19) Uani 1 1 d . . . . .
H3 H 0.281485 0.358811 0.040416 0.105 Uiso 1 1 calc R U . . .
C16 C 0.2999(3) -0.1382(5) 0.0677(4) 0.110(3) Uani 1 1 d . . . . .
H16 H 0.291895 -0.103937 0.018211 0.132 Uiso 1 1 calc R U . . .
O2A O 0.3224(5) 0.6088(10) 0.4594(8) 0.141(4) Uani 0.620(7) 1 d . U P A 1
O5 O 0.500000 0.1282(6) 0.2764(6) 0.165(4) Uani 1 2 d S T P . .
H5A H 0.500000 0.175334 0.311877 0.248 Uiso 1 2 d R U P . .
H5B H 0.500000 0.075804 0.306147 0.248 Uiso 1 2 d R U P . .
C18 C 0.500000 0.6621(13) 0.2456(11) 0.208(9) Uani 1 2 d S T P . .
H18A H 0.462930 0.625518 0.247859 0.312 Uiso 0.5 1 d R U P B -1
H18B H 0.533280 0.617788 0.254279 0.312 Uiso 0.5 1 d R U P B -1
H18C H 0.503800 0.693288 0.191579 0.312 Uiso 0.5 1 d R U P B -1
C17 C 0.500000 0.8459(11) 0.2974(10) 0.164(6) Uani 1 2 d S T P . .
H17A H 0.468880 0.859763 0.257178 0.246 Uiso 0.5 1 d R U P C -1
H17B H 0.538400 0.864223 0.274348 0.246 Uiso 0.5 1 d R U P C -1
H17C H 0.492720 0.883283 0.347798 0.246 Uiso 0.5 1 d R U P C -1
O3A O 0.3709(4) 0.7540(7) 0.3998(6) 0.129(3) Uani 0.620(7) 1 d . U P A 1
O4A O 0.4163(4) 0.6007(7) 0.3964(7) 0.127(3) Uani 0.620(7) 1 d . U P A 1
N8 N 0.500000 0.7415(12) 0.3197(8) 0.165(5) Uani 1 2 d S T P . .
H8A H 0.467726 0.730178 0.351559 0.198 Uiso 0.5 1 calc R U P . .
H8B H 0.532274 0.730179 0.351560 0.198 Uiso 0.5 1 calc R U P . .
O4B O 0.3681(7) 0.5314(9) 0.4034(10) 0.120(4) Uani 0.380(7) 1 d . U P A 2
O3B O 0.4127(6) 0.6820(14) 0.4227(11) 0.133(4) Uani 0.380(7) 1 d . U P A 2
O2B O 0.3174(6) 0.6691(11) 0.4688(11) 0.097(4) Uani 0.380(7) 1 d . U P A 2
Co2 Co 0.500000 0.13887(4) 0.12114(5) 0.0337(2) Uani 1 2 d S T P . .
loop_
_atom_site_aniso_label
_atom_site_aniso_U_11
_atom_site_aniso_U_22
_atom_site_aniso_U_33
_atom_site_aniso_U_23
_atom_site_aniso_U_13
_atom_site_aniso_U_12
Co1 0.0335(4) 0.0219(4) 0.0907(7) 0.000 0.0234(4) 0.000
S1 0.0423(7) 0.0874(11) 0.1246(14) 0.0060(10) 0.0055(8) 0.0039(7)
N7 0.034(2) 0.0189(19) 0.049(3) -0.0002(18) 0.000 0.000
N5 0.034(2) 0.021(2) 0.055(3) -0.0040(19) 0.000 0.000
N6 0.0344(16) 0.0225(14) 0.0526(19) 0.0003(13) 0.0073(13) 0.0019(11)
N3 0.0366(17) 0.0294(16) 0.083(3) 0.0033(17) 0.0092(18) -0.0074(13)
O1 0.0369(17) 0.091(3) 0.114(3) -0.003(2) 0.013(2) 0.0060(17)
N1 0.045(2) 0.0288(17) 0.102(3) -0.0011(19) 0.022(2) 0.0057(15)
C12 0.0347(18) 0.0232(16) 0.048(2) 0.0012(15) -0.0006(16) -0.0010(13)
C5 0.043(2) 0.0201(17) 0.058(2) -0.0044(15) 0.0057(18) 0.0033(14)
C11 0.0344(19) 0.0254(17) 0.054(2) 0.0044(16) 0.0040(17) -0.0065(14)
C6 0.040(2) 0.0269(18) 0.061(3) -0.0062(17) 0.0079(18) 0.0050(16)
C10 0.0327(19) 0.0292(18) 0.060(3) 0.0048(17) 0.0081(17) -0.0024(14)
C13 0.047(2) 0.0237(17) 0.060(3) -0.0037(17) 0.0027(18) -0.0047(15)
C15 0.0355(19) 0.0277(18) 0.067(3) 0.0015(17) 0.0053(19) -0.0050(15)
C7 0.0353(19) 0.0279(18) 0.065(3) -0.0037(18) 0.0115(18) 0.0048(15)
N2 0.076(3) 0.064(3) 0.103(4) -0.014(3) -0.006(3) 0.040(2)
C4 0.047(2) 0.0210(18) 0.077(3) 0.0025(18) 0.001(2) 0.0040(15)
C2 0.041(2) 0.0306(19) 0.079(3) -0.004(2) 0.012(2) 0.0087(17)
N4 0.093(3) 0.092(3) 0.095(4) 0.022(3) -0.029(3) -0.068(3)
C1 0.038(2) 0.036(2) 0.103(4) -0.016(2) 0.012(2) 0.0034(17)
C14 0.041(2) 0.055(3) 0.090(4) 0.025(3) -0.009(2) -0.017(2)
C8 0.035(2) 0.040(2) 0.101(4) 0.000(2) 0.021(2) 0.0060(17)
C9 0.036(2) 0.039(2) 0.093(4) 0.004(2) 0.019(2) -0.0007(17)
C3 0.081(4) 0.079(4) 0.102(4) -0.031(3) -0.013(3) 0.043(3)
C16 0.131(6) 0.108(5) 0.092(5) 0.048(4) -0.044(4) -0.086(4)
O2A 0.101(6) 0.205(9) 0.115(6) 0.019(8) 0.009(5) -0.063(7)
O5 0.256(12) 0.125(7) 0.116(6) -0.006(5) 0.000 0.000
C18 0.28(3) 0.22(2) 0.120(12) -0.031(13) 0.000 0.000
C17 0.193(16) 0.162(14) 0.137(12) 0.051(10) 0.000 0.000
O3A 0.103(5) 0.114(6) 0.171(7) -0.046(5) -0.056(5) 0.017(5)
O4A 0.068(4) 0.119(6) 0.192(8) 0.016(6) -0.010(5) 0.034(5)
N8 0.071(5) 0.260(16) 0.164(11) 0.081(12) 0.000 0.000
O4B 0.120(8) 0.077(7) 0.162(9) 0.019(7) -0.039(7) 0.005(6)
O3B 0.056(6) 0.159(10) 0.185(9) -0.016(9) -0.019(7) -0.030(7)
O2B 0.063(6) 0.122(8) 0.105(7) 0.027(7) 0.002(5) 0.061(6)
Co2 0.0294(4) 0.0178(3) 0.0540(5) 0.0001(3) 0.000 0.000
loop_
_atom_type_symbol
_atom_type_description
_atom_type_scat_dispersion_real
_atom_type_scat_dispersion_imag
_atom_type_scat_source
C C 0.0033 0.0016 'International Tables Vol C Tables 4.2.6.8 and 6.1.1.4'
H H 0.0000 0.0000 'International Tables Vol C Tables 4.2.6.8 and 6.1.1.4'
Co Co 0.3494 0.9721 'International Tables Vol C Tables 4.2.6.8 and 6.1.1.4'
N N 0.0061 0.0033 'International Tables Vol C Tables 4.2.6.8 and 6.1.1.4'
O O 0.0106 0.0060 'International Tables Vol C Tables 4.2.6.8 and 6.1.1.4'
S S 0.1246 0.1234 'International Tables Vol C Tables 4.2.6.8 and 6.1.1.4'
loop_
_geom_angle_atom_site_label_1
_geom_angle_atom_site_label_2
_geom_angle_atom_site_label_3
_geom_angle
_geom_angle_site_symmetry_1
_geom_angle_site_symmetry_3
_geom_angle_publ_flag
N3 Co1 N3 90.20(18) 3_565 1_565 ?
N3 Co1 N1 178.39(15) 1_565 3 ?
N3 Co1 N1 91.27(13) 1_565 . ?
N3 Co1 N1 91.26(13) 3_565 3 ?
N3 Co1 N1 178.39(15) 3_565 . ?
O1 Co1 N3 89.01(14) 3 3_565 ?
O1 Co1 N3 92.01(14) . 3_565 ?
O1 Co1 N3 92.01(14) 3 1_565 ?
O1 Co1 N3 89.01(15) . 1_565 ?
O1 Co1 O1 178.6(2) 3 . ?
O1 Co1 N1 91.61(16) 3 . ?
O1 Co1 N1 87.35(15) 3 3 ?
O1 Co1 N1 87.35(15) . . ?
O1 Co1 N1 91.61(16) . 3 ?
N1 Co1 N1 87.28(19) 3 . ?
O1 S1 O2A 111.5(5) . . ?
O1 S1 O3A 100.0(4) . . ?
O1 S1 O4A 114.8(5) . . ?
O1 S1 O4B 95.6(6) . . ?
O1 S1 O3B 135.1(8) . . ?
O1 S1 O2B 114.2(6) . . ?
O2A S1 O3A 114.2(7) . . ?
O2A S1 O4A 111.3(7) . . ?
O4A S1 O3A 104.3(5) . . ?
O3B S1 O4B 102.2(10) . . ?
O3B S1 O2B 101.4(10) . . ?
O2B S1 O4B 103.1(8) . . ?
C12 N7 C12 104.7(4) 8_655 . ?
C12 N7 Co2 127.47(19) 8_655 . ?
C12 N7 Co2 127.47(19) . . ?
C5 N5 C5 105.2(4) 8_655 . ?
C5 N5 Co2 127.1(2) . . ?
C5 N5 Co2 127.1(2) 8_655 . ?
C10 N6 C7 105.6(3) . . ?
C10 N6 Co2 126.8(2) . . ?
C7 N6 Co2 126.6(2) . . ?
N4 N3 Co1 125.9(3) . 1_545 ?
C14 N3 Co1 129.8(3) . 1_545 ?
C14 N3 N4 104.3(4) . . ?
S1 O1 Co1 150.2(2) . . ?
N2 N1 Co1 125.2(3) . . ?
C1 N1 Co1 129.2(4) . . ?
C1 N1 N2 104.7(4) . . ?
N7 C12 C11 124.1(3) . . ?
N7 C12 C13 110.4(3) . . ?
C11 C12 C13 125.2(3) . . ?
N5 C5 C6 125.6(3) . . ?
N5 C5 C4 110.4(3) . . ?
C6 C5 C4 123.9(3) . . ?
C12 C11 C15 118.4(3) . . ?
C10 C11 C12 123.0(3) . . ?
C10 C11 C15 118.5(3) . . ?
C5 C6 C2 118.9(3) . . ?
C7 C6 C5 122.0(3) . . ?
C7 C6 C2 119.0(3) . . ?
N6 C10 C11 125.2(3) . . ?
N6 C10 C9 109.8(3) . . ?
C11 C10 C9 125.0(3) . . ?
C12 C13 H13 126.5 . . ?
C13 C13 C12 107.1(2) 8_655 . ?
C13 C13 H13 126.5 8_655 . ?
C14 C15 C11 128.0(4) . . ?
C16 C15 C11 128.7(4) . . ?
C16 C15 C14 103.2(4) . . ?
N6 C7 C6 125.7(3) . . ?
N6 C7 C8 109.5(3) . . ?
C6 C7 C8 124.7(3) . . ?
N1 N2 H2 124.1 . . ?
C3 N2 N1 111.8(4) . . ?
C3 N2 H2 124.1 . . ?
C5 C4 H4 126.5 . . ?
C4 C4 C5 107.0(2) 8_655 . ?
C4 C4 H4 126.5 8_655 . ?
C1 C2 C6 129.4(4) . . ?
C3 C2 C6 127.0(4) . . ?
C3 C2 C1 103.6(4) . . ?
N3 N4 H4A 124.5 . . ?
N3 N4 C16 111.1(4) . . ?
C16 N4 H4A 124.5 . . ?
N1 C1 C2 112.4(5) . . ?
N1 C1 H1 123.8 . . ?
C2 C1 H1 123.8 . . ?
N3 C14 C15 112.6(4) . . ?
N3 C14 H14 123.7 . . ?
C15 C14 H14 123.7 . . ?
C7 C8 H8 126.1 . . ?
C9 C8 C7 107.8(3) . . ?
C9 C8 H8 126.1 . . ?
C10 C9 H9 126.5 . . ?
C8 C9 C10 107.1(4) . . ?
C8 C9 H9 126.5 . . ?
N2 C3 C2 107.5(5) . . ?
N2 C3 H3 126.2 . . ?
C2 C3 H3 126.2 . . ?
C15 C16 N4 108.8(5) . . ?
C15 C16 H16 125.6 . . ?
N4 C16 H16 125.6 . . ?
H5A O5 H5B 104.5 . . ?
Co2 O5 H5A 128.3 . . ?
Co2 O5 H5B 127.2 . . ?
H18A C18 H18B 109.5 . . ?
H18A C18 H18C 109.5 . . ?
H18B C18 H18C 109.5 . . ?
N8 C18 H18A 108.5 . . ?
N8 C18 H18B 108.2 . . ?
N8 C18 H18C 111.7 . . ?
H17A C17 H17B 109.5 . . ?
H17A C17 H17C 109.5 . . ?
H17B C17 H17C 109.5 . . ?
N8 C17 H17A 110.6 . . ?
N8 C17 H17B 110.1 . . ?
N8 C17 H17C 107.7 . . ?
C18 N8 H8A 107.8 . . ?
C18 N8 H8B 107.8 . . ?
C17 N8 C18 118.1(12) . . ?
C17 N8 H8A 107.8 . . ?
C17 N8 H8B 107.8 . . ?
H8A N8 H8B 107.1 . . ?
N7 Co2 N6 89.93(8) . 8_655 ?
N7 Co2 N6 89.93(8) . . ?
N7 Co2 O5 93.2(2) . . ?
N5 Co2 N7 173.73(19) . . ?
N5 Co2 N6 90.29(8) . . ?
N5 Co2 N6 90.28(8) . 8_655 ?
N5 Co2 O5 93.0(2) . . ?
N6 Co2 N6 175.99(19) . 8_655 ?
N6 Co2 O5 88.00(10) 8_655 . ?
N6 Co2 O5 88.00(10) . . ?
loop_
_geom_bond_atom_site_label_1
_geom_bond_atom_site_label_2
_geom_bond_distance
_geom_bond_site_symmetry_2
_geom_bond_publ_flag
Co1 N3 2.156(3) 3_565 ?
Co1 N3 2.156(3) 1_565 ?
Co1 O1 2.128(4) 3 ?
Co1 O1 2.128(4) . ?
Co1 N1 2.162(4) . ?
Co1 N1 2.162(4) 3 ?
S1 O1 1.314(5) . ?
S1 O2A 1.389(11) . ?
S1 O3A 1.499(9) . ?
S1 O4A 1.413(7) . ?
S1 O4B 1.550(12) . ?
S1 O3B 1.376(12) . ?
S1 O2B 1.524(15) . ?
N7 C12 1.380(4) . ?
N7 C12 1.380(4) 8_655 ?
N7 Co2 1.968(4) . ?
N5 C5 1.380(4) 8_655 ?
N5 C5 1.380(4) . ?
N5 Co2 1.959(4) . ?
N6 C10 1.371(4) . ?
N6 C7 1.381(4) . ?
N6 Co2 1.968(3) . ?
N3 N4 1.318(6) . ?
N3 C14 1.316(5) . ?
N1 N2 1.338(6) . ?
N1 C1 1.314(5) . ?
C12 C11 1.392(5) . ?
C12 C13 1.426(5) . ?
C5 C6 1.393(5) . ?
C5 C4 1.438(5) . ?
C11 C10 1.390(5) . ?
C11 C15 1.487(5) . ?
C6 C7 1.386(5) . ?
C6 C2 1.482(5) . ?
C10 C9 1.433(5) . ?
C13 C13 1.347(8) 8_655 ?
C13 H13 0.9300 . ?
C15 C14 1.384(6) . ?
C15 C16 1.329(7) . ?
C7 C8 1.423(5) . ?
N2 H2 0.8600 . ?
N2 C3 1.332(6) . ?
C4 C4 1.352(8) 8_655 ?
C4 H4 0.9300 . ?
C2 C1 1.385(6) . ?
C2 C3 1.372(7) . ?
N4 H4A 0.8600 . ?
N4 C16 1.342(6) . ?
C1 H1 0.9300 . ?
C14 H14 0.9300 . ?
C8 H8 0.9300 . ?
C8 C9 1.335(6) . ?
C9 H9 0.9300 . ?
C3 H3 0.9300 . ?
C16 H16 0.9300 . ?
O5 H5A 0.8501 . ?
O5 H5B 0.8500 . ?
O5 Co2 2.473(9) . ?
C18 H18A 0.9599 . ?
C18 H18B 0.9600 . ?
C18 H18C 0.9600 . ?
C18 N8 1.592(18) . ?
C17 H17A 0.9599 . ?
C17 H17B 0.9600 . ?
C17 H17C 0.9600 . ?
C17 N8 1.451(15) . ?
N8 H8A 0.8900 . ?
N8 H8B 0.8900 . ?
loop_
_geom_torsion_atom_site_label_1
_geom_torsion_atom_site_label_2
_geom_torsion_atom_site_label_3
_geom_torsion_atom_site_label_4
_geom_torsion
_geom_torsion_site_symmetry_1
_geom_torsion_site_symmetry_2
_geom_torsion_site_symmetry_3
_geom_torsion_site_symmetry_4
_geom_torsion_publ_flag
Co1 N3 N4 C16 175.4(5) 1_545 . . . ?
Co1 N3 C14 C15 -176.5(3) 1_545 . . . ?
Co1 N1 N2 C3 -169.8(4) . . . . ?
Co1 N1 C1 C2 169.4(3) . . . . ?
N7 C12 C11 C10 11.6(6) . . . . ?
N7 C12 C11 C15 -165.4(4) . . . . ?
N7 C12 C13 C13 3.3(4) . . . 8_655 ?
N5 C5 C6 C7 -7.0(7) . . . . ?
N5 C5 C6 C2 170.7(4) . . . . ?
N5 C5 C4 C4 -1.8(4) . . . 8_655 ?
N6 C10 C9 C8 3.3(6) . . . . ?
N6 C7 C8 C9 -2.5(6) . . . . ?
N3 N4 C16 C15 2.5(8) . . . . ?
N1 N2 C3 C2 -0.2(7) . . . . ?
C12 N7 C12 C11 169.1(2) 8_655 . . . ?
C12 N7 C12 C13 -5.2(6) 8_655 . . . ?
C12 C11 C10 N6 7.6(7) . . . . ?
C12 C11 C10 C9 -176.6(4) . . . . ?
C12 C11 C15 C14 75.7(6) . . . . ?
C12 C11 C15 C16 -109.6(7) . . . . ?
C5 N5 C5 C6 -173.0(3) 8_655 . . . ?
C5 N5 C5 C4 2.9(6) 8_655 . . . ?
C5 C6 C7 N6 -10.5(7) . . . . ?
C5 C6 C7 C8 172.5(5) . . . . ?
C5 C6 C2 C1 -57.8(7) . . . . ?
C5 C6 C2 C3 125.6(6) . . . . ?
C11 C12 C13 C13 -170.9(3) . . . 8_655 ?
C11 C10 C9 C8 -173.1(4) . . . . ?
C11 C15 C14 N3 176.8(4) . . . . ?
C11 C15 C16 N4 -177.7(5) . . . . ?
C6 C5 C4 C4 174.1(3) . . . 8_655 ?
C6 C7 C8 C9 174.9(5) . . . . ?
C6 C2 C1 N1 -177.3(4) . . . . ?
C6 C2 C3 N2 177.4(5) . . . . ?
C10 N6 C7 C6 -173.0(4) . . . . ?
C10 N6 C7 C8 4.4(5) . . . . ?
C10 C11 C15 C14 -101.4(5) . . . . ?
C10 C11 C15 C16 73.3(7) . . . . ?
C13 C12 C11 C10 -175.0(4) . . . . ?
C13 C12 C11 C15 8.1(6) . . . . ?
C15 C11 C10 N6 -175.5(4) . . . . ?
C15 C11 C10 C9 0.4(6) . . . . ?
C7 N6 C10 C11 171.6(4) . . . . ?
C7 N6 C10 C9 -4.7(5) . . . . ?
C7 C6 C2 C1 120.0(5) . . . . ?
C7 C6 C2 C3 -56.5(7) . . . . ?
C7 C8 C9 C10 -0.5(6) . . . . ?
N2 N1 C1 C2 0.0(5) . . . . ?
C4 C5 C6 C7 177.7(4) . . . . ?
C4 C5 C6 C2 -4.6(7) . . . . ?
C2 C6 C7 N6 171.7(4) . . . . ?
C2 C6 C7 C8 -5.3(7) . . . . ?
N4 N3 C14 C15 0.4(6) . . . . ?
C1 N1 N2 C3 0.1(6) . . . . ?
C1 C2 C3 N2 0.2(6) . . . . ?
C14 N3 N4 C16 -1.7(7) . . . . ?
C14 C15 C16 N4 -2.0(7) . . . . ?
C3 C2 C1 N1 -0.1(6) . . . . ?
C16 C15 C14 N3 1.0(6) . . . . ?
O2A S1 O1 Co1 29.0(9) . . . . ?
O3A S1 O1 Co1 -92.1(6) . . . . ?
O4A S1 O1 Co1 156.9(6) . . . . ?
O4B S1 O1 Co1 100.5(8) . . . . ?
O3B S1 O1 Co1 -146.0(12) . . . . ?
O2B S1 O1 Co1 -6.6(9) . . . . ?
Co2 N7 C12 C11 -17.6(6) . . . . ?
Co2 N7 C12 C13 168.1(3) . . . . ?
Co2 N5 C5 C6 15.6(7) . . . . ?
Co2 N5 C5 C4 -168.6(3) . . . . ?
Co2 N6 C10 C11 -19.5(6) . . . . ?
Co2 N6 C10 C9 164.1(3) . . . . ?
Co2 N6 C7 C6 18.1(6) . . . . ?
Co2 N6 C7 C8 -164.5(3) . . . . ?
loop_
_platon_squeeze_void_nr
_platon_squeeze_void_average_x
_platon_squeeze_void_average_y
_platon_squeeze_void_average_z
_platon_squeeze_void_volume
_platon_squeeze_void_count_electrons
_platon_squeeze_void_content
1 0.000 -0.001 0.000 621 132 ' '
2 0.500 0.004 0.500 621 132 ' '
3 0.127 0.357 0.563 9 0 ' '
4 0.873 0.357 0.563 9 0 ' '
5 0.373 0.357 0.937 9 0 ' '
6 0.627 0.357 0.937 9 0 ' '
7 0.373 0.643 0.063 9 0 ' '
8 0.627 0.643 0.063 9 0 ' '
9 0.127 0.642 0.437 9 0 ' '
10 0.873 0.643 0.437 9 0 ' '
