#------------------------------------------------------------------------------
#$Date: 2021-11-06 21:00:23 +0200 (Sat, 06 Nov 2021) $
#$Revision: 270401 $
#$URL: file:///home/coder/svn-repositories/cod/cif/7/12/89/7128977.cif $
#------------------------------------------------------------------------------
#
# This file is available in the Crystallography Open Database (COD),
# http://www.crystallography.net/
#
# All data on this site have been placed in the public domain by the
# contributors.
#
data_7128977
loop_
_publ_author_name
'Li, Yang'
'Tian, Xueqin'
'Jiang, Weiwei'
'Wu, Pengyan'
'Li, Han-Shu'
'Wang, Man'
'Lin, Chen'
'Wang, Jian'
_publ_section_title
;
 Amino and triazole-containing metal-organic frameworks for highly
 efficient CO<sub>2</sub> fixation.
;
_journal_issue                   82
_journal_name_full
'Chemical communications (Cambridge, England)'
_journal_page_first              10803
_journal_page_last               10806
_journal_paper_doi               10.1039/d1cc04371d
_journal_volume                  57
_journal_year                    2021
_chemical_formula_sum            'C62 H52 N10 O15 Zn3'
_chemical_formula_weight         1373.24
_chemical_name_systematic        Zn-TDA
_space_group_crystal_system      triclinic
_space_group_IT_number           2
_space_group_name_Hall           '-P 1'
_space_group_name_H-M_alt        'P -1'
_atom_sites_solution_hydrogens   geom
_audit_creation_method           SHELXL-2018/3
_audit_update_record
;
2021-07-07 deposited with the CCDC.	2021-09-16 downloaded from the CCDC.
;
_cell_angle_alpha                74.258(5)
_cell_angle_beta                 79.162(5)
_cell_angle_gamma                63.495(4)
_cell_formula_units_Z            2
_cell_length_a                   13.7019(13)
_cell_length_b                   13.9995(12)
_cell_length_c                   21.143(2)
_cell_measurement_reflns_used    9923
_cell_measurement_temperature    296(2)
_cell_measurement_theta_max      25.001
_cell_measurement_theta_min      2.507
_cell_volume                     3482.7(6)
_computing_cell_refinement       'Bruker SMART'
_computing_data_collection       'Bruker SMART'
_computing_data_reduction        'Bruker SAINT'
_computing_molecular_graphics    'Bruker SHELXTL'
_computing_publication_material  'Bruker SHELXTL'
_computing_structure_refinement  'SHELXL-2018/3 (Sheldrick, 2018)'
_computing_structure_solution    'Bruker SHELXTL'
_diffrn_ambient_temperature      296(2)
_diffrn_measured_fraction_theta_full 0.996
_diffrn_measured_fraction_theta_max 0.996
_diffrn_measurement_device_type  'CCD area detector'
_diffrn_measurement_method       'phi and omega scans'
_diffrn_radiation_type           MoK\a
_diffrn_radiation_wavelength     0.71073
_diffrn_reflns_av_R_equivalents  0.0511
_diffrn_reflns_av_unetI/netI     0.0528
_diffrn_reflns_Laue_measured_fraction_full 0.996
_diffrn_reflns_Laue_measured_fraction_max 0.996
_diffrn_reflns_limit_h_max       16
_diffrn_reflns_limit_h_min       -16
_diffrn_reflns_limit_k_max       16
_diffrn_reflns_limit_k_min       -16
_diffrn_reflns_limit_l_max       25
_diffrn_reflns_limit_l_min       -25
_diffrn_reflns_number            46123
_diffrn_reflns_point_group_measured_fraction_full 0.996
_diffrn_reflns_point_group_measured_fraction_max 0.996
_diffrn_reflns_theta_full        24.999
_diffrn_reflns_theta_max         24.999
_diffrn_reflns_theta_min         3.012
_exptl_absorpt_coefficient_mu    1.092
_exptl_crystal_colour            COLORLESS
_exptl_crystal_density_diffrn    1.310
_exptl_crystal_description       BLOCK
_exptl_crystal_F_000             1408
_exptl_crystal_size_max          0.240
_exptl_crystal_size_mid          0.230
_exptl_crystal_size_min          0.200
_refine_diff_density_max         0.711
_refine_diff_density_min         -0.418
_refine_diff_density_rms         0.060
_refine_ls_extinction_method     none
_refine_ls_goodness_of_fit_ref   1.026
_refine_ls_hydrogen_treatment    constr
_refine_ls_matrix_type           full
_refine_ls_number_parameters     811
_refine_ls_number_reflns         12223
_refine_ls_number_restraints     13
_refine_ls_restrained_S_all      1.068
_refine_ls_R_factor_all          0.0674
_refine_ls_R_factor_gt           0.0443
_refine_ls_shift/su_max          0.001
_refine_ls_shift/su_mean         0.000
_refine_ls_structure_factor_coef Fsqd
_refine_ls_weighting_details
'w=1/[\s^2^(Fo^2^)+(0.0743P)^2^] where P=(Fo^2^+2Fc^2^)/3'
_refine_ls_weighting_scheme      calc
_refine_ls_wR_factor_gt          0.1201
_refine_ls_wR_factor_ref         0.1276
_reflns_Friedel_coverage         0.000
_reflns_number_gt                8884
_reflns_number_total             12223
_reflns_threshold_expression     'I > 2\s(I)'
_cod_data_source_file            d1cc04371d2.cif
_cod_data_source_block           1_sq
_cod_depositor_comments          'Adding full bibliography for 7128977.cif.'
_cod_original_cell_volume        3482.6(6)
_cod_database_code               7128977
_shelx_shelxl_version_number     2018/3
_shelx_space_group_comment
;
The symmetry employed for this shelxl refinement is uniquely defined
by the following loop, which should always be used as a source of
symmetry information in preference to the above space-group names.
They are only intended as comments.
;
_shelx_estimated_absorpt_t_min   0.780
_shelx_estimated_absorpt_t_max   0.811
_shelx_res_file
;
TITL 1 in P-1
    1_sq.res
    created by SHELXL-2018/3 at 09:25:21 on 20-Dec-2020
CELL 0.71073  13.7019  13.9995  21.1426  74.258  79.162  63.495
ZERR   2.00   0.0013   0.0012   0.0020   0.005   0.005   0.004
LATT  1
SFAC C H N O ZN
UNIT 124 104 20 30 6
TEMP 23.000
SIZE 0.20 0.23 0.24
L.S. 10 0   59
BOND
FMAP 2
PLAN 20
ISOR 0.01 0.02 C200 n6
ACTA
OMIT 0 50
OMIT 1  -3   1
OMIT      1   0   0
OMIT     1   0   1
OMIT    -1  -1   1
OMIT     0  -1   1
OMIT     1   0   2
OMIT    -1   1   2
OMIT     2   2   2
OMIT    -2   3   0
OMIT     2  -2   2
OMIT    -3  -2   2
OMIT     1  -1   1
OMIT    -1   2   1
OMIT     0   2   1
OMIT     1   2   2
OMIT     0   3   1
OMIT     0  -1   2
OMIT     1   3   2
OMIT     2   4   3
DFIX 2.1 0.01 H5B H81A
ABIN
WGHT    0.074300
FVAR       0.08558
ZN1   5    0.860129    0.230131   -0.594586    11.00000    0.04515    0.04180 =
         0.05638   -0.01686   -0.01136   -0.01634
ZN2   5    0.890351    0.176306   -0.754983    11.00000    0.04561    0.03645 =
         0.05185   -0.00870   -0.02003   -0.01349
ZN3   5    0.971269    0.208242    0.076515    11.00000    0.04298    0.04295 =
         0.05196   -0.01582   -0.00504   -0.01811
O2    4    0.800782    0.118212   -0.578342    11.00000    0.06636    0.05915 =
         0.08626   -0.01896   -0.02281   -0.03025
O4    4    0.037490    0.098890   -0.727542    11.00000    0.04137    0.06187 =
         0.06125   -0.01854   -0.01950   -0.01189
O7    4    0.874575    1.072142    0.206629    11.00000    0.07480    0.04793 =
         0.06114   -0.01181   -0.02754   -0.02641
O8    4    0.854756    1.155026    0.100987    11.00000    0.05659    0.06059 =
         0.05511   -0.00839   -0.00921   -0.03414
O9    4    0.893010    0.357267    0.092062    11.00000    0.06315    0.04571 =
         0.08079   -0.02697    0.00043   -0.01522
N10   3    0.953142    0.210944   -0.262944    11.00000    0.05399    0.04764 =
         0.04716   -0.00871   -0.00888   -0.02638
C11   1    0.843313    1.087438    0.151337    11.00000    0.03485    0.03764 =
         0.05484   -0.01543   -0.01019   -0.00991
C12   1    0.069586    0.112734   -0.679901    11.00000    0.03892    0.03592 =
         0.05775   -0.00980   -0.01295   -0.01420
O6    4    0.775421    0.197727   -0.682762    11.00000    0.04978    0.04801 =
         0.08672   -0.01617    0.00217   -0.02446
O12   4    0.846417    0.325933    0.199380    11.00000    0.10289    0.03889 =
         0.06780   -0.00858   -0.02741   -0.01656
N4    3    0.972720    0.229732   -0.022464    11.00000    0.05178    0.04842 =
         0.05330   -0.01602   -0.00378   -0.02430
C16   1    0.679345    0.901991    0.131984    11.00000    0.03829    0.02920 =
         0.07406   -0.01444   -0.01716   -0.00818
C17   1    0.787584    1.020894    0.143990    11.00000    0.03865    0.03340 =
         0.05213   -0.01448   -0.00780   -0.01170
N3    3    0.912561    0.206601   -0.504224    11.00000    0.05817    0.05784 =
         0.05550   -0.01795   -0.00870   -0.02774
C19   1    0.787893    0.507363    0.140443    11.00000    0.04288    0.03579 =
         0.05418   -0.01365   -0.01287   -0.01030
C20   1    0.505380    0.900307    0.120638    11.00000    0.04876    0.03609 =
         0.06173   -0.00876   -0.01656   -0.01668
O1    4    0.009201    0.170433   -0.640713    11.00000    0.03610    0.07322 =
         0.09459   -0.04875   -0.00551   -0.01000
O5    4    0.825757   -0.613877   -0.629453    11.00000    0.08700    0.04177 =
         0.08250   -0.02006   -0.01510   -0.00446
N2    3    0.617663    0.845252    0.126575    11.00000    0.04683    0.03088 =
         0.10934   -0.01601   -0.02865   -0.01128
C24   1    0.574852   -0.224261   -0.626478    11.00000    0.04212    0.03663 =
         0.09364   -0.01302   -0.01629   -0.01514
C25   1    0.279778    1.015620    0.107765    11.00000    0.04732    0.04440 =
         0.06045   -0.01081   -0.01125   -0.01344
C27   1    0.189362    0.056277   -0.670939    11.00000    0.03596    0.03736 =
         0.05183   -0.01175   -0.00771   -0.01263
C28   1    0.762644    0.131199   -0.630734    11.00000    0.03937    0.04554 =
         0.08182   -0.02769   -0.00525   -0.01450
C29   1    0.410296   -0.052396   -0.649070    11.00000    0.03574    0.03677 =
         0.08156   -0.01443   -0.01555   -0.01125
C30   1    0.580745   -0.047625   -0.633500    11.00000    0.03632    0.04011 =
         0.08502   -0.02036   -0.01054   -0.01319
N1    3    0.523041   -0.109165   -0.636184    11.00000    0.03595    0.03740 =
         0.11902   -0.02214   -0.02248   -0.01271
C32   1    0.847266    0.387195    0.144498    11.00000    0.04213    0.03855 =
         0.06482   -0.01186   -0.01892   -0.01493
C33   1    0.261059   -0.018270   -0.708546    11.00000    0.04540    0.05764 =
         0.05680   -0.02374   -0.00974   -0.02093
AFIX  43
H33A  2    0.235410   -0.032001   -0.741324    11.00000   -1.20000
AFIX   0
C34   1    0.339915    0.021940   -0.612395    11.00000    0.04454    0.07387 =
         0.08330   -0.03851   -0.02215   -0.01065
AFIX  43
H34A  2    0.365807    0.036148   -0.579939    11.00000   -1.20000
AFIX   0
C35   1    0.674339    0.730041    0.131763    11.00000    0.04444    0.03018 =
         0.07563   -0.01332   -0.01952   -0.01313
C36   1    0.982027    0.243907   -0.157356    11.00000    0.05152    0.04859 =
         0.05240   -0.00978   -0.01072   -0.02339
C37   1    0.697569    0.070731   -0.631875    11.00000    0.04076    0.04414 =
         0.06772   -0.02023   -0.00673   -0.01729
C38   1    0.765877    0.950389    0.198276    11.00000    0.07057    0.05457 =
         0.05483   -0.00808   -0.01666   -0.03398
AFIX  43
H38A  2    0.787819    0.942160    0.239194    11.00000   -1.20000
AFIX   0
N8    3    1.044464    0.296259   -0.331529    11.00000    0.09137    0.09430 =
         0.05061   -0.01214   -0.00914   -0.06496
C40   1    0.686324   -0.276877   -0.642797    11.00000    0.04218    0.04487 =
         0.07497   -0.01120   -0.01168   -0.01588
AFIX  43
H40A  2    0.727829   -0.236576   -0.658227    11.00000   -1.20000
AFIX   0
C41   1    0.993091    0.252839   -0.228168    11.00000    0.06122    0.05222 =
         0.04740   -0.00702   -0.01138   -0.03077
C42   1    1.019456    0.242883   -0.445056    11.00000    0.05330    0.08656 =
         0.05609   -0.02489   -0.00264   -0.03821
AFIX  43
H42A  2    1.076016    0.262951   -0.446059    11.00000   -1.20000
AFIX   0
C43   1    0.707173   -0.022515   -0.582597    11.00000    0.05214    0.05733 =
         0.07084   -0.01284   -0.02148   -0.02245
AFIX  43
H43A  2    0.751998   -0.044558   -0.548622    11.00000   -1.20000
AFIX   0
C44   1    0.962584    0.220348   -0.385753    11.00000    0.05488    0.05635 =
         0.05026   -0.01379   -0.01222   -0.02513
C45   1    0.628672    0.103364   -0.680287    11.00000    0.05204    0.04334 =
         0.06989   -0.00853   -0.01093   -0.02092
AFIX  43
H45A  2    0.622195    0.165012   -0.713149    11.00000   -1.20000
AFIX   0
C46   1    0.341118    1.066207    0.116501    11.00000    0.05884    0.04114 =
         0.09499   -0.02267   -0.02664   -0.00756
AFIX  43
H46A  2    0.306770    1.139838    0.118079    11.00000   -1.20000
AFIX   0
C47   1    0.992795    0.235732   -0.501734    11.00000    0.05738    0.08740 =
         0.05390   -0.02339   -0.00103   -0.03679
AFIX  43
H47A  2    1.032025    0.251803   -0.540906    11.00000   -1.20000
AFIX   0
N7    3    1.048125    0.304430   -0.268810    11.00000    0.08575    0.08131 =
         0.05213   -0.00986   -0.01053   -0.05550
O3    4    0.683343   -0.629709   -0.569179    11.00000    0.08728    0.04937 =
         0.16175   -0.00882   -0.03373   -0.02783
C50   1    0.443860    0.848325    0.112543    11.00000    0.05112    0.03297 =
         0.08619   -0.01295   -0.01696   -0.01332
AFIX  43
H50A  2    0.477995    0.774641    0.111095    11.00000   -1.20000
AFIX   0
N5    3    0.887091    0.153387   -0.239255    11.00000    0.10623    0.09556 =
         0.04607   -0.00969   -0.00867   -0.07764
AFIX  93
H5A   2    0.867139    0.140935   -0.197899    11.00000   -1.20000
H5B   2    0.866681    0.130668   -0.266136    11.00000   -1.20000
AFIX   0
C52   1    0.735666   -0.389096   -0.636132    11.00000    0.04626    0.04960 =
         0.06587   -0.01257   -0.00837   -0.00918
AFIX  43
H52A  2    0.809883   -0.423691   -0.648348    11.00000   -1.20000
AFIX   0
C53   1    0.230385    0.075718   -0.623771    11.00000    0.04174    0.07269 =
         0.08251   -0.04762   -0.00994   -0.00985
AFIX  43
H53A  2    0.183258    0.126397   -0.598812    11.00000   -1.20000
AFIX   0
C54   1    0.333523    0.904722    0.106693    11.00000    0.05291    0.04622 =
         0.07631   -0.00824   -0.01796   -0.02422
AFIX  43
H54A  2    0.293654    0.868350    0.101912    11.00000   -1.20000
AFIX   0
C55   1    0.985830    0.241029   -0.327842    11.00000    0.05828    0.05534 =
         0.05012   -0.00938   -0.01202   -0.02846
C56   1    0.675691   -0.449953   -0.611540    11.00000    0.06333    0.04094 =
         0.08408   -0.01428   -0.02196   -0.01851
C57   1    0.650496   -0.081091   -0.584540    11.00000    0.05872    0.04660 =
         0.08290    0.00057   -0.02380   -0.02673
AFIX  43
H57A  2    0.659013   -0.144174   -0.552534    11.00000   -1.20000
AFIX   0
C58   1    0.160862    1.076815    0.100647    11.00000    0.05442    0.06034 =
         0.05195   -0.00920   -0.01105   -0.01338
C59   1    0.703763    0.969824    0.077306    11.00000    0.08116    0.07230 =
         0.05665   -0.01710   -0.01728   -0.04429
AFIX  43
H59A  2    0.684803    0.975087    0.036106    11.00000   -1.20000
AFIX   0
C60   1    0.730976   -0.572840   -0.602726    11.00000    0.08032    0.04503 =
         0.08797   -0.01651   -0.04009   -0.01523
C61   1    0.949003    0.171484   -0.111842    11.00000    0.08609    0.06242 =
         0.05167   -0.01724   -0.00734   -0.04363
AFIX  43
H61A  2    0.928945    0.125505   -0.125640    11.00000   -1.20000
AFIX   0
C62   1    0.756494    1.029840    0.084091    11.00000    0.08192    0.07255 =
         0.05188   -0.00554   -0.01452   -0.05112
AFIX  43
H62A  2    0.771212    1.077226    0.047356    11.00000   -1.20000
AFIX   0
C64   1    0.568325    0.046582   -0.681436    11.00000    0.04646    0.04543 =
         0.07911   -0.01260   -0.02421   -0.01694
AFIX  43
H64A  2    0.520094    0.071179   -0.713876    11.00000   -1.20000
AFIX   0
C65   1    0.711149    0.892140    0.191140    11.00000    0.07801    0.05886 =
         0.06493    0.00180   -0.01895   -0.04377
AFIX  43
H65A  2    0.695790    0.845066    0.227811    11.00000   -1.20000
AFIX   0
C66   1    0.369662   -0.071492   -0.697196    11.00000    0.04190    0.05778 =
         0.08485   -0.03654   -0.00471   -0.01408
AFIX  43
H66A  2    0.417132   -0.121594   -0.722426    11.00000   -1.20000
AFIX   0
C68   1    0.783423    0.579557    0.081198    11.00000    0.09224    0.04404 =
         0.05920   -0.01746    0.00477   -0.02348
AFIX  43
H68A  2    0.818626    0.553339    0.043321    11.00000   -1.20000
AFIX   0
C69   1    0.945590    0.166913   -0.046411    11.00000    0.08235    0.07153 =
         0.05333   -0.01588    0.00102   -0.04652
AFIX  43
H69A  2    0.922936    0.116885   -0.016609    11.00000   -1.20000
AFIX   0
C70   1    0.451390    1.010673    0.122913    11.00000    0.05177    0.04053 =
         0.10963   -0.02528   -0.02517   -0.01416
AFIX  43
H70A  2    0.490585    1.046933    0.128837    11.00000   -1.20000
AFIX   0
C71   1    0.727836    0.689522    0.077234    11.00000    0.10258    0.04546 =
         0.06071   -0.00294   -0.01129   -0.02791
AFIX  43
H71A  2    0.726496    0.737363    0.036767    11.00000   -1.20000
AFIX   0
C72   1    0.515508   -0.286371   -0.600618    11.00000    0.03751    0.04879 =
         0.14704   -0.02067   -0.01045   -0.01841
AFIX  43
H72A  2    0.441324   -0.252396   -0.588122    11.00000   -1.20000
AFIX   0
C74   1    0.565572   -0.397146   -0.593442    11.00000    0.05371    0.04621 =
         0.14752   -0.00888   -0.01944   -0.02535
AFIX  43
H74A  2    0.524858   -0.437894   -0.576051    11.00000   -1.20000
AFIX   0
C76   1    1.008718    0.296376   -0.066368    11.00000    0.11762    0.08530 =
         0.05957   -0.01659   -0.00676   -0.07363
AFIX  43
H76A  2    1.030665    0.339637   -0.051173    11.00000   -1.20000
AFIX   0
C80   1    0.860154    0.181668   -0.447624    11.00000    0.11573    0.11178 =
         0.05367   -0.01002   -0.01737   -0.08571
AFIX  43
H80A  2    0.805874    0.159114   -0.447879    11.00000   -1.20000
AFIX   0
C81   1    0.881424    0.187333   -0.390430    11.00000    0.11635    0.13258 =
         0.05753   -0.00592   -0.00545   -0.09730
AFIX  43
H81A  2    0.841517    0.168937   -0.352210    11.00000   -1.20000
AFIX   0
C83   1    1.015480    0.305266   -0.132479    11.00000    0.12516    0.09538 =
         0.05196   -0.01266   -0.00368   -0.08171
AFIX  43
H83A  2    1.042683    0.352751   -0.161088    11.00000   -1.20000
AFIX   0
C84   1    0.679776    0.658742    0.190904    11.00000    0.10576    0.03805 =
         0.06661   -0.01979    0.00485   -0.01148
AFIX  43
H84A  2    0.645024    0.685066    0.228808    11.00000   -1.20000
AFIX   0
C85   1    0.736669    0.547509    0.194848    11.00000    0.12579    0.03867 =
         0.05540   -0.00869   -0.00689   -0.02060
AFIX  43
H85A  2    0.739746    0.499642    0.235481    11.00000   -1.20000
AFIX   0
O10   4    0.119555    1.177503    0.095080    11.00000    0.05752    0.06808 =
         0.13283   -0.04803   -0.04190    0.00299
O11   4    0.104186    1.032549    0.097386    11.00000    0.05157    0.07174 =
         0.16387    0.01564   -0.03247   -0.02741
O21   4    0.760313   -0.274048   -0.457721    11.00000    0.14338    0.10877 =
         0.14446    0.00697   -0.01816   -0.05739
O20   4    0.400678   -0.331499    0.052097    11.00000    0.28239    0.23044 =
         0.32515   -0.10302   -0.03044   -0.14362
N9    3    0.669385   -0.375721   -0.439865    11.00000    0.27946    0.31314 =
         0.10317   -0.01119   -0.01171   -0.21930
N6    3    0.447345   -0.329072   -0.053986    11.00000    0.18549    0.16085 =
         0.22217   -0.02778    0.00438   -0.02456
C207  1    0.746828   -0.358742   -0.452361    11.00000    0.18809    0.23074 =
         0.09584    0.02714   -0.02238   -0.13207
C206  1    0.850437   -0.463477   -0.468806    11.00000    0.15653    0.15834 =
         0.18296   -0.04083    0.00150    0.03817
AFIX  33
H20B  2    0.913785   -0.447828   -0.479032    11.00000   -1.50000
H20C  2    0.861974   -0.523273   -0.431372    11.00000   -1.50000
H20D  2    0.838216   -0.482676   -0.505962    11.00000   -1.50000
AFIX   0
C205  1    0.389924   -0.356500   -0.003019    11.00000    0.14379    0.08669 =
         0.31919   -0.03805   -0.07746   -0.00621
C204  1    0.562379   -0.270298   -0.424850    11.00000    0.11256    0.26941 =
         0.25690   -0.12614    0.06529   -0.00667
AFIX  33
H20E  2    0.500044   -0.287590   -0.414728    11.00000   -1.50000
H20F  2    0.572496   -0.248834   -0.387993    11.00000   -1.50000
H20G  2    0.550599   -0.211419   -0.462848    11.00000   -1.50000
AFIX   0
C203  1    0.320484   -0.416152    0.002006    11.00000    0.12620    0.15139 =
         0.44746   -0.05604   -0.10921   -0.04721
AFIX  33
H20H  2    0.287031   -0.425411    0.046066    11.00000   -1.50000
H20I  2    0.264651   -0.374859   -0.028412    11.00000   -1.50000
H20J  2    0.365200   -0.486473   -0.008410    11.00000   -1.50000
AFIX   0
C202  1    0.516680   -0.279758   -0.053238    11.00000    0.22617    0.16529 =
         0.56238   -0.08151    0.07043   -0.13277
AFIX  33
H20K  2    0.551112   -0.266651   -0.096646    11.00000   -1.50000
H20L  2    0.474600   -0.211662   -0.039537    11.00000   -1.50000
H20M  2    0.571676   -0.327287   -0.023020    11.00000   -1.50000
AFIX   0
C201  1    0.659696   -0.481803   -0.428733    11.00000    0.38579    0.27188 =
         0.19845   -0.03019   -0.00815   -0.26924
AFIX  33
H20N  2    0.584162   -0.469332   -0.419217    11.00000   -1.50000
H20O  2    0.688252   -0.511523   -0.467622    11.00000   -1.50000
H20Q  2    0.700479   -0.532399   -0.392239    11.00000   -1.50000
AFIX   0
C200  1    0.423607   -0.359500   -0.115654    11.00000    0.26416    0.27135 =
         0.21353   -0.08281   -0.05151    0.01638
AFIX  33
H20P  2    0.465782   -0.339635   -0.154305    11.00000   -1.50000
H20T  2    0.443644   -0.436637   -0.106812    11.00000   -1.50000
H20R  2    0.347184   -0.320444   -0.122762    11.00000   -1.50000
AFIX   0
O1W   4    0.300196   -0.341219    0.189606    11.00000    0.17289    0.18715 =
         0.30827   -0.05480    0.04708   -0.10594

HKLF 4




REM  1 in P-1
REM wR2 = 0.1276, GooF = S = 1.026, Restrained GooF = 1.068 for all data
REM R1 = 0.0443 for 8884 Fo > 4sig(Fo) and 0.0674 for all 12223 data
REM 811 parameters refined using 13 restraints

END

WGHT      0.0702      0.0000

REM Highest difference peak  0.711,  deepest hole -0.418,  1-sigma level  0.060
Q1    1   0.3784 -0.3845  0.2199  11.00000  0.05    0.71
Q2    1   0.2836 -0.3223  0.1792  11.00000  0.05    0.60
Q3    1   0.3000 -0.3523  0.2580  11.00000  0.05    0.42
Q4    1   0.8910  0.1491 -0.2615  11.00000  0.05    0.39
Q5    1   0.8680  0.1850 -0.3711  11.00000  0.05    0.39
Q6    1   0.3528 -0.3932  0.1481  11.00000  0.05    0.31
Q7    1   0.8108  0.2237 -0.2204  11.00000  0.05    0.29
Q8    1   0.6743 -0.3118 -0.4411  11.00000  0.05    0.29
Q9    1   0.6106 -0.4706 -0.3677  11.00000  0.05    0.28
Q10   1   0.1199  1.0416  0.0527  11.00000  0.05    0.28
Q11   1   0.5258 -0.2558 -0.0463  11.00000  0.05    0.28
Q12   1   0.6761  0.6962  0.1072  11.00000  0.05    0.28
Q13   1   0.2781 -0.3960  0.1776  11.00000  0.05    0.27
Q14   1   0.4846 -0.2268 -0.1482  11.00000  0.05    0.27
Q15   1   0.9215  0.1967  0.1191  11.00000  0.05    0.27
Q16   1   0.6552 -0.3829 -0.4103  11.00000  0.05    0.27
Q17   1   0.8443  0.1726 -0.7161  11.00000  0.05    0.27
Q18   1   0.9984  0.1549 -0.0821  11.00000  0.05    0.27
Q19   1  -0.0188  0.1133 -0.7466  11.00000  0.05    0.26
Q20   1   0.6933 -0.6195 -0.5917  11.00000  0.05    0.26
;
_shelx_res_checksum              24498
_shelx_fab_file
;
    2    0    0     -2.99      0.00
    3    0    0    -16.45      0.00
    4    0    0      1.09      0.00
    5    0    0     -1.96      0.00
    6    0    0     -0.24      0.00
    7    0    0      1.72      0.00
    8    0    0     -0.61      0.00
    9    0    0      0.64      0.00
   10    0    0      0.88      0.00
   11    0    0     -0.03      0.00
   12    0    0      0.10      0.00
   13    0    0     -0.78      0.00
   14    0    0     -0.35      0.00
  -14    1    0     -0.24      0.00
  -13    1    0      1.05      0.00
  -12    1    0      0.52      0.00
  -11    1    0      0.54      0.00
  -10    1    0     -0.20      0.00
   -9    1    0     -0.72      0.00
   -8    1    0      0.12      0.00
   -7    1    0     -0.23      0.00
   -6    1    0     -1.31      0.00
   -5    1    0     -0.46      0.00
   -4    1    0      0.88      0.00
   -3    1    0     10.80      0.00
   -2    1    0     23.65      0.00
    3    1    0     19.83      0.00
    4    1    0     -6.89      0.00
    5    1    0      1.00      0.00
    6    1    0      2.67      0.00
    7    1    0     -1.98      0.00
    8    1    0     -0.24      0.00
    9    1    0     -0.69      0.00
   10    1    0     -0.58      0.00
   11    1    0     -0.42      0.00
   12    1    0     -0.10      0.00
   13    1    0     -0.29      0.00
   14    1    0      0.32      0.00
  -13    2    0     -0.38      0.00
  -12    2    0     -0.37      0.00
  -11    2    0     -1.29      0.00
  -10    2    0     -0.43      0.00
   -9    2    0      0.14      0.00
   -8    2    0      0.11      0.00
   -7    2    0     -0.54      0.00
   -6    2    0      0.78      0.00
   -5    2    0      3.37      0.00
   -4    2    0      0.81      0.00
   -3    2    0     -5.14      0.00
   -2    2    0    -25.03      0.00
   -1    2    0    -30.19      0.00
    0    2    0     22.68      0.00
    2    2    0     48.22      0.00
    3    2    0    -15.24      0.00
    4    2    0     11.70      0.00
    5    2    0      0.81      0.00
    6    2    0     -2.41      0.00
    7    2    0      0.17      0.00
    8    2    0      2.18      0.00
    9    2    0      1.06      0.00
   10    2    0     -0.15      0.00
   11    2    0      1.36      0.00
   12    2    0     -0.33      0.00
   13    2    0      0.28      0.00
   14    2    0      0.48      0.00
   15    2    0     -0.54      0.00
  -13    3    0      0.06      0.00
  -12    3    0     -0.35      0.00
  -11    3    0      1.36      0.00
  -10    3    0      0.27      0.00
   -9    3    0      0.60      0.00
   -8    3    0      0.50      0.00
   -7    3    0      0.66      0.00
   -6    3    0      0.07      0.00
   -5    3    0     -3.24      0.00
   -4    3    0     -4.15      0.00
   -3    3    0      1.19      0.00
   -1    3    0     26.92      0.00
    0    3    0     15.00      0.00
    1    3    0    -13.56      0.00
    2    3    0    -38.57      0.00
    3    3    0      2.80      0.00
    4    3    0    -11.70      0.00
    5    3    0      0.63      0.00
    6    3    0     -1.42      0.00
    7    3    0      2.85      0.00
    8    3    0     -3.51      0.00
    9    3    0     -1.29      0.00
   10    3    0      0.35      0.00
   11    3    0     -1.89      0.00
   12    3    0     -0.06      0.00
   13    3    0      0.40      0.00
   14    3    0     -0.74      0.00
   15    3    0     -0.21      0.00
  -12    4    0      0.47      0.00
  -11    4    0     -0.85      0.00
  -10    4    0      0.23      0.00
   -9    4    0     -0.55      0.00
   -8    4    0     -0.93      0.00
   -7    4    0     -0.87      0.00
   -6    4    0     -0.71      0.00
   -5    4    0      1.67      0.00
   -4    4    0      5.29      0.00
   -3    4    0      2.34      0.00
   -2    4    0     -5.31      0.00
   -1    4    0    -15.66      0.00
    0    4    0    -20.84      0.00
    1    4    0     -8.55      0.00
    2    4    0     13.92      0.00
    3    4    0      6.27      0.00
    4    4    0      8.76      0.00
    5    4    0     -3.30      0.00
    6    4    0      4.16      0.00
    7    4    0     -4.84      0.00
    8    4    0      2.76      0.00
    9    4    0      1.20      0.00
   10    4    0      0.13      0.00
   11    4    0      0.87      0.00
   12    4    0      0.98      0.00
   13    4    0     -0.26      0.00
   14    4    0      0.48      0.00
   15    4    0      0.53      0.00
  -11    5    0      0.35      0.00
  -10    5    0     -0.11      0.00
   -9    5    0     -0.11      0.00
   -8    5    0      0.93      0.00
   -7    5    0      0.64      0.00
   -6    5    0      1.31      0.00
   -5    5    0     -0.69      0.00
   -4    5    0     -3.21      0.00
   -3    5    0     -5.07      0.00
   -2    5    0      0.58      0.00
   -1    5    0      6.03      0.00
    0    5    0     11.47      0.00
    1    5    0     14.79      0.00
    2    5    0      5.03      0.00
    3    5    0     -5.29      0.00
    4    5    0     -5.71      0.00
    5    5    0      2.56      0.00
    6    5    0     -2.29      0.00
    7    5    0      4.50      0.00
    8    5    0     -0.86      0.00
    9    5    0     -0.47      0.00
   10    5    0     -0.49      0.00
   11    5    0      0.40      0.00
   12    5    0     -0.93      0.00
   13    5    0     -0.38      0.00
   14    5    0     -0.39      0.00
   15    5    0     -0.65      0.00
  -10    6    0     -0.09      0.00
   -9    6    0     -0.11      0.00
   -8    6    0     -0.47      0.00
   -7    6    0     -0.26      0.00
   -6    6    0     -1.03      0.00
   -5    6    0     -0.26      0.00
   -4    6    0      1.06      0.00
   -3    6    0      4.61      0.00
   -2    6    0      1.96      0.00
   -1    6    0     -0.97      0.00
    0    6    0     -3.14      0.00
    1    6    0     -9.30      0.00
    2    6    0    -10.41      0.00
    3    6    0     -1.73      0.00
    4    6    0      2.37      0.00
    5    6    0      0.96      0.00
    6    6    0     -0.83      0.00
    7    6    0     -3.51      0.00
    8    6    0     -0.30      0.00
    9    6    0     -0.48      0.00
   10    6    0      0.27      0.00
   11    6    0     -0.93      0.00
   12    6    0      0.47      0.00
   13    6    0      0.38      0.00
   14    6    0      0.54      0.00
   15    6    0      0.38      0.00
  -10    7    0     -0.19      0.00
   -9    7    0      0.52      0.00
   -8    7    0      0.57      0.00
   -7    7    0     -0.23      0.00
   -6    7    0      0.61      0.00
   -5    7    0      0.48      0.00
   -4    7    0      0.06      0.00
   -3    7    0     -2.41      0.00
   -2    7    0     -2.27      0.00
   -1    7    0     -1.38      0.00
    0    7    0     -0.28      0.00
    1    7    0      3.15      0.00
    2    7    0      6.12      0.00
    3    7    0      5.90      0.00
    4    7    0      1.84      0.00
    5    7    0     -2.51      0.00
    6    7    0      0.88      0.00
    7    7    0      3.10      0.00
    8    7    0      0.69      0.00
    9    7    0      1.05      0.00
   10    7    0     -0.12      0.00
   11    7    0      1.10      0.00
   12    7    0     -0.33      0.00
   13    7    0     -0.48      0.00
   14    7    0     -0.35      0.00
   15    7    0     -0.05      0.00
   16    7    0     -0.61      0.00
   -9    8    0      0.12      0.00
   -8    8    0     -1.03      0.00
   -7    8    0      0.56      0.00
   -6    8    0     -0.47      0.00
   -5    8    0     -0.14      0.00
   -4    8    0     -0.49      0.00
   -3    8    0      0.73      0.00
   -2    8    0      1.53      0.00
   -1    8    0      1.72      0.00
    0    8    0      1.01      0.00
    1    8    0     -0.17      0.00
    2    8    0     -1.31      0.00
    3    8    0     -4.39      0.00
    4    8    0     -3.80      0.00
    5    8    0      0.87      0.00
    6    8    0      0.37      0.00
    7    8    0     -1.81      0.00
    8    8    0     -1.01      0.00
    9    8    0     -1.10      0.00
   10    8    0     -0.25      0.00
   11    8    0     -0.93      0.00
   12    8    0      0.37      0.00
   13    8    0      0.66      0.00
   14    8    0      0.41      0.00
   15    8    0      0.00      0.00
   -8    9    0      0.67      0.00
   -7    9    0     -0.76      0.00
   -6    9    0      0.48      0.00
   -5    9    0     -0.07      0.00
   -4    9    0      0.72      0.00
   -3    9    0     -0.11      0.00
   -2    9    0     -0.65      0.00
   -1    9    0     -1.52      0.00
    0    9    0     -0.54      0.00
    1    9    0     -0.81      0.00
    2    9    0     -0.54      0.00
    3    9    0      1.49      0.00
    4    9    0      2.68      0.00
    5    9    0      0.68      0.00
    6    9    0     -0.41      0.00
    7    9    0      0.08      0.00
    8    9    0      0.48      0.00
    9    9    0      0.86      0.00
   10    9    0      0.82      0.00
   11    9    0      1.06      0.00
   12    9    0     -0.59      0.00
   13    9    0     -0.16      0.00
   14    9    0     -0.88      0.00
   15    9    0     -0.14      0.00
   -7   10    0      1.21      0.00
   -6   10    0     -0.59      0.00
   -5   10    0      0.48      0.00
   -4   10    0     -1.09      0.00
   -3   10    0      0.00      0.00
   -2   10    0     -0.05      0.00
   -1   10    0      1.29      0.00
    0   10    0      0.32      0.00
    1   10    0      0.60      0.00
    2   10    0      0.87      0.00
    3   10    0     -0.19      0.00
    4   10    0     -0.59      0.00
    5   10    0     -1.21      0.00
    6   10    0      0.04      0.00
    7   10    0      0.67      0.00
    8   10    0      0.75      0.00
    9   10    0     -0.33      0.00
   10   10    0     -0.92      0.00
   11   10    0     -0.96      0.00
   12   10    0     -0.02      0.00
   13   10    0     -0.25      0.00
   14   10    0      0.91      0.00
   15   10    0      0.00      0.00
   -5   11    0     -1.08      0.00
   -4   11    0      1.30      0.00
   -3   11    0      0.12      0.00
   -2   11    0     -0.09      0.00
   -1   11    0     -0.44      0.00
    0   11    0     -0.59      0.00
    1   11    0     -0.23      0.00
    2   11    0     -0.75      0.00
    3   11    0      0.07      0.00
    4   11    0     -0.61      0.00
    5   11    0      0.79      0.00
    6   11    0      0.87      0.00
    7   11    0     -0.85      0.00
    8   11    0     -1.48      0.00
    9   11    0     -0.15      0.00
   10   11    0      0.43      0.00
   11   11    0      0.21      0.00
   12   11    0      0.62      0.00
   13   11    0      0.49      0.00
   14   11    0     -0.54      0.00
   15   11    0      0.33      0.00
   -4   12    0     -0.76      0.00
   -3   12    0     -0.43      0.00
   -2   12    0      0.78      0.00
   -1   12    0     -0.19      0.00
    0   12    0      0.65      0.00
    1   12    0      0.43      0.00
    2   12    0      0.15      0.00
    3   12    0      0.24      0.00
    4   12    0      0.51      0.00
    5   12    0      0.04      0.00
    6   12    0     -1.35      0.00
    7   12    0      0.28      0.00
    8   12    0      1.47      0.00
    9   12    0      0.35      0.00
   10   12    0      0.17      0.00
   11   12    0      0.20      0.00
   12   12    0     -0.28      0.00
   13   12    0     -0.05      0.00
   14   12    0     -0.09      0.00
   -3   13    0      0.52      0.00
   -2   13    0     -0.81      0.00
   -1   13    0     -0.17      0.00
    0   13    0     -0.51      0.00
    1   13    0     -0.70      0.00
    2   13    0     -0.09      0.00
    3   13    0     -0.06      0.00
    4   13    0     -0.53      0.00
    5   13    0     -0.17      0.00
    6   13    0      0.90      0.00
    7   13    0      0.01      0.00
    8   13    0     -0.53      0.00
    9   13    0     -0.68      0.00
   10   13    0     -0.19      0.00
   11   13    0     -0.13      0.00
   12   13    0     -0.01      0.00
   13   13    0     -0.78      0.00
   -1   14    0      0.39      0.00
    0   14    0      0.60      0.00
    1   14    0      0.49      0.00
    2   14    0      0.75      0.00
    3   14    0     -0.28      0.00
    4   14    0      0.37      0.00
    5   14    0      0.19      0.00
    6   14    0     -0.65      0.00
    7   14    0      0.40      0.00
    8   14    0     -0.05      0.00
    9   14    0      0.64      0.00
   10   14    0      0.07      0.00
   11   14    0     -0.24      0.00
   12   14    0      0.04      0.00
    2   15    0     -0.74      0.00
    3   15    0     -0.18      0.00
    4   15    0     -0.04      0.00
    5   15    0      0.26      0.00
    6   15    0      0.19      0.00
    7   15    0     -0.23      0.00
    8   15    0     -0.31      0.00
    9   15    0     -0.42      0.00
   10   15    0     -0.07      0.00
   11   15    0      0.36      0.00
    6   16    0      0.00      0.00
    7   16    0     -0.05      0.00
  -10  -15    1      0.14      0.00
   -9  -15    1      0.00      0.00
   -8  -15    1      0.37      0.00
   -7  -15    1      0.87      0.00
   -6  -15    1      0.49      0.00
   -5  -15    1      0.20      0.00
   -4  -15    1     -0.37      0.00
   -3  -15    1     -0.46      0.00
   -2  -15    1      0.14      0.00
  -12  -14    1     -0.81      0.00
  -11  -14    1      0.21      0.00
  -10  -14    1     -0.30      0.00
   -9  -14    1     -0.06      0.00
   -8  -14    1     -0.75      0.00
   -7  -14    1     -0.85      0.00
   -6  -14    1     -0.89      0.00
   -5  -14    1      0.28      0.00
   -4  -14    1     -0.03      0.00
   -3  -14    1      0.37      0.00
   -2  -14    1      0.80      0.00
   -1  -14    1     -0.44      0.00
    0  -14    1     -0.37      0.00
  -13  -13    1     -0.51      0.00
  -12  -13    1      0.49      0.00
  -11  -13    1     -0.64      0.00
  -10  -13    1      0.31      0.00
   -9  -13    1     -0.39      0.00
   -8  -13    1      0.97      0.00
   -7  -13    1      1.24      0.00
   -6  -13    1      0.93      0.00
   -5  -13    1     -0.31      0.00
   -4  -13    1     -0.16      0.00
   -3  -13    1     -0.05      0.00
   -2  -13    1     -0.68      0.00
   -1  -13    1     -0.61      0.00
    0  -13    1      0.30      0.00
    1  -13    1      0.15      0.00
    2  -13    1      0.18      0.00
  -14  -12    1     -0.47      0.00
  -13  -12    1      0.41      0.00
  -12  -12    1     -0.13      0.00
  -11  -12    1      0.78      0.00
  -10  -12    1      0.11      0.00
   -9  -12    1      1.08      0.00
   -8  -12    1     -0.07      0.00
   -7  -12    1     -1.72      0.00
   -6  -12    1     -1.03      0.00
   -5  -12    1      0.56      0.00
   -4  -12    1      0.04      0.00
   -3  -12    1      0.27      0.00
   -2  -12    1      0.08      0.00
   -1  -12    1      1.10      0.00
    0  -12    1     -0.14      0.00
    1  -12    1     -0.01      0.00
    2  -12    1      0.31      0.00
    3  -12    1     -1.70      0.00
    4  -12    1      1.20      0.00
  -14  -11    1      0.70      0.00
  -13  -11    1      0.46      0.00
  -12  -11    1      0.18      0.00
  -11  -11    1     -0.31      0.00
  -10  -11    1     -0.49      0.00
   -9  -11    1     -1.68      0.00
   -8  -11    1     -0.95      0.00
   -7  -11    1      0.65      0.00
   -6  -11    1      1.21      0.00
   -5  -11    1     -0.61      0.00
   -4  -11    1     -0.56      0.00
   -3  -11    1     -0.06      0.00
   -2  -11    1     -0.40      0.00
   -1  -11    1     -0.41      0.00
    0  -11    1     -0.49      0.00
    1  -11    1      0.02      0.00
    2  -11    1      0.08      0.00
    3  -11    1      1.26      0.00
    4  -11    1     -0.68      0.00
    5  -11    1      0.19      0.00
  -15  -10    1      0.32      0.00
  -14  -10    1     -0.86      0.00
  -13  -10    1     -0.75      0.00
  -12  -10    1     -0.94      0.00
  -11  -10    1     -0.56      0.00
  -10  -10    1      0.40      0.00
   -9  -10    1      1.41      0.00
   -8  -10    1      1.52      0.00
   -7  -10    1      0.85      0.00
   -6  -10    1     -0.21      0.00
   -5  -10    1      0.06      0.00
   -4  -10    1      1.40      0.00
   -3  -10    1      0.29      0.00
   -2  -10    1      1.02      0.00
   -1  -10    1     -0.24      0.00
    0  -10    1      0.85      0.00
    1  -10    1      0.36      0.00
    2  -10    1     -0.74      0.00
    3  -10    1     -0.48      0.00
    4  -10    1     -0.21      0.00
    5  -10    1     -0.18      0.00
    6  -10    1      0.89      0.00
    7  -10    1      0.16      0.00
  -15   -9    1     -0.71      0.00
  -14   -9    1      0.79      0.00
  -13   -9    1      0.40      0.00
  -12   -9    1      1.37      0.00
  -11   -9    1      1.22      0.00
  -10   -9    1      0.09      0.00
   -9   -9    1     -0.34      0.00
   -8   -9    1     -1.08      0.00
   -7   -9    1     -1.60      0.00
   -6   -9    1     -0.97      0.00
   -5   -9    1     -0.06      0.00
   -4   -9    1     -0.81      0.00
   -3   -9    1     -1.52      0.00
   -2   -9    1     -1.70      0.00
   -1   -9    1      0.08      0.00
    0   -9    1     -1.10      0.00
    1   -9    1     -0.63      0.00
    2   -9    1      0.45      0.00
    3   -9    1      0.44      0.00
    4   -9    1      0.46      0.00
    5   -9    1      0.24      0.00
    6   -9    1     -0.59      0.00
    7   -9    1     -0.04      0.00
    8   -9    1     -0.43      0.00
  -15   -8    1      0.63      0.00
  -14   -8    1     -0.46      0.00
  -13   -8    1      0.04      0.00
  -12   -8    1     -1.39      0.00
  -11   -8    1     -1.07      0.00
  -10   -8    1     -0.54      0.00
   -9   -8    1     -0.59      0.00
   -8   -8    1     -0.20      0.00
   -7   -8    1      0.53      0.00
   -6   -8    1      2.23      0.00
   -5   -8    1      0.13      0.00
   -4   -8    1     -1.09      0.00
   -3   -8    1      1.57      0.00
   -2   -8    1      2.28      0.00
   -1   -8    1      1.02      0.00
    0   -8    1      2.11      0.00
    1   -8    1      0.90      0.00
    2   -8    1      0.52      0.00
    3   -8    1     -0.75      0.00
    4   -8    1     -0.41      0.00
    5   -8    1     -0.55      0.00
    6   -8    1      0.46      0.00
    7   -8    1     -0.08      0.00
    8   -8    1      0.05      0.00
    9   -8    1      0.77      0.00
  -15   -7    1     -0.41      0.00
  -14   -7    1      0.39      0.00
  -13   -7    1     -0.11      0.00
  -12   -7    1      1.02      0.00
  -11   -7    1      0.94      0.00
  -10   -7    1      0.42      0.00
   -9   -7    1      1.28      0.00
   -8   -7    1      0.87      0.00
   -7   -7    1      2.35      0.00
   -6   -7    1     -2.59      0.00
   -5   -7    1     -0.67      0.00
   -4   -7    1      2.30      0.00
   -3   -7    1      1.94      0.00
   -2   -7    1     -0.86      0.00
   -1   -7    1     -2.44      0.00
    0   -7    1     -3.42      0.00
    1   -7    1     -2.32      0.00
    2   -7    1     -2.25      0.00
    3   -7    1      0.51      0.00
    4   -7    1      0.78      0.00
    5   -7    1      1.20      0.00
    6   -7    1     -0.57      0.00
    7   -7    1      0.18      0.00
    8   -7    1      0.12      0.00
    9   -7    1     -0.64      0.00
   10   -7    1     -0.36      0.00
  -15   -6    1      0.24      0.00
  -14   -6    1     -0.37      0.00
  -13   -6    1     -0.04      0.00
  -12   -6    1     -0.85      0.00
  -11   -6    1     -0.68      0.00
  -10   -6    1     -0.42      0.00
   -9   -6    1     -1.20      0.00
   -8   -6    1     -1.65      0.00
   -7   -6    1     -3.83      0.00
   -6   -6    1      0.43      0.00
   -5   -6    1      0.25      0.00
   -4   -6    1      0.18      0.00
   -3   -6    1     -6.81      0.00
   -2   -6    1     -5.22      0.00
   -1   -6    1      1.00      0.00
    0   -6    1      4.02      0.00
    1   -6    1      4.09      0.00
    2   -6    1      5.22      0.00
    3   -6    1      1.27      0.00
    4   -6    1     -1.10      0.00
    5   -6    1     -2.04      0.00
    6   -6    1      0.37      0.00
    7   -6    1     -0.66      0.00
    8   -6    1      0.66      0.00
    9   -6    1      0.31      0.00
   10   -6    1      0.18      0.00
  -15   -5    1     -0.24      0.00
  -14   -5    1      0.41      0.00
  -13   -5    1     -0.23      0.00
  -12   -5    1      0.76      0.00
  -11   -5    1      0.48      0.00
  -10   -5    1      0.56      0.00
   -9   -5    1      0.00      0.00
   -8   -5    1      2.94      0.00
   -7   -5    1      3.14      0.00
   -6   -5    1      2.00      0.00
   -5   -5    1      2.53      0.00
   -4   -5    1     -3.43      0.00
   -3   -5    1      7.35      0.00
   -2   -5    1     12.18      0.00
   -1   -5    1      8.88      0.00
    0   -5    1     -1.16      0.00
    1   -5    1     -4.62      0.00
    2   -5    1     -7.62      0.00
    3   -5    1     -5.21      0.00
    4   -5    1      0.37      0.00
    5   -5    1      2.34      0.00
    6   -5    1      0.55      0.00
    7   -5    1      1.03      0.00
    8   -5    1     -0.93      0.00
    9   -5    1     -0.64      0.00
   10   -5    1      0.00      0.00
   11   -5    1     -0.02      0.00
  -15   -4    1      0.25      0.00
  -14   -4    1     -0.27      0.00
  -13   -4    1     -0.14      0.00
  -12   -4    1      0.55      0.00
  -11   -4    1     -0.79      0.00
  -10   -4    1     -0.60      0.00
   -9   -4    1      1.56      0.00
   -8   -4    1     -2.85      0.00
   -7   -4    1     -2.40      0.00
   -6   -4    1     -2.60      0.00
   -5   -4    1     -3.36      0.00
   -4   -4    1      1.28      0.00
   -3   -4    1     -2.66      0.00
   -2   -4    1    -10.21      0.00
   -1   -4    1    -25.58      0.00
    0   -4    1    -10.80      0.00
    1   -4    1      0.74      0.00
    2   -4    1      8.08      0.00
    3   -4    1      8.63      0.00
    4   -4    1      2.43      0.00
    5   -4    1     -1.92      0.00
    6   -4    1     -1.07      0.00
    7   -4    1     -1.46      0.00
    8   -4    1      0.72      0.00
    9   -4    1      0.31      0.00
   10   -4    1      0.48      0.00
   11   -4    1     -0.12      0.00
   12   -4    1      0.43      0.00
  -15   -3    1     -0.39      0.00
  -14   -3    1     -0.25      0.00
  -13   -3    1      0.93      0.00
  -12   -3    1     -1.50      0.00
  -11   -3    1      0.52      0.00
  -10   -3    1      0.55      0.00
   -9   -3    1     -2.09      0.00
   -8   -3    1      0.84      0.00
   -7   -3    1      2.10      0.00
   -6   -3    1      2.13      0.00
   -5   -3    1     -0.72      0.00
   -4   -3    1      5.80      0.00
   -3   -3    1     -4.63      0.00
   -2   -3    1     -3.46      0.00
   -1   -3    1     34.35      0.00
    0   -3    1     29.36      0.00
    2   -3    1     -5.46      0.00
    3   -3    1     -9.44      0.00
    4   -3    1     -5.29      0.00
    5   -3    1      0.09      0.00
    6   -3    1      1.41      0.00
    7   -3    1      1.15      0.00
    8   -3    1     -0.50      0.00
    9   -3    1      0.75      0.00
   10   -3    1     -0.66      0.00
   11   -3    1      0.54      0.00
   12   -3    1     -0.85      0.00
   13   -3    1      0.09      0.00
  -15   -2    1      0.33      0.00
  -14   -2    1      0.79      0.00
  -13   -2    1     -0.68      0.00
  -12   -2    1      0.83      0.00
  -11   -2    1      0.23      0.00
  -10   -2    1     -0.07      0.00
   -9   -2    1      1.23      0.00
   -8   -2    1      1.07      0.00
   -7   -2    1     -0.86      0.00
   -6   -2    1     -2.35      0.00
   -5   -2    1      5.49      0.00
   -4   -2    1    -10.38      0.00
   -3   -2    1      9.61      0.00
   -2   -2    1     18.73      0.00
   -1   -2    1    -14.75      0.00
    0   -2    1    -40.81      0.00
    1   -2    1    -42.56      0.00
    2   -2    1     -3.61      0.00
    3   -2    1      7.38      0.00
    4   -2    1      4.99      0.00
    5   -2    1      2.46      0.00
    6   -2    1     -1.56      0.00
    7   -2    1     -0.07      0.00
    8   -2    1      0.43      0.00
    9   -2    1     -1.25      0.00
   10   -2    1      0.26      0.00
   11   -2    1     -1.17      0.00
   12   -2    1      0.50      0.00
   13   -2    1      0.08      0.00
  -14   -1    1     -0.47      0.00
  -13   -1    1     -0.30      0.00
  -12   -1    1     -0.07      0.00
  -11   -1    1     -0.71      0.00
  -10   -1    1     -0.44      0.00
   -9   -1    1     -0.18      0.00
   -8   -1    1     -1.62      0.00
   -7   -1    1     -1.14      0.00
   -6   -1    1      2.86      0.00
   -5   -1    1     -5.35      0.00
   -4   -1    1      8.08      0.00
   -3   -1    1     -8.05      0.00
   -2   -1    1    -20.05      0.00
    2   -1    1     16.57      0.00
    3   -1    1      1.12      0.00
    4   -1    1     -3.17      0.00
    5   -1    1     -1.89      0.00
    6   -1    1     -0.02      0.00
    7   -1    1     -0.14      0.00
    8   -1    1     -0.28      0.00
    9   -1    1      0.43      0.00
   10   -1    1      0.15      0.00
   11   -1    1      1.41      0.00
   12   -1    1      0.41      0.00
   13   -1    1      0.21      0.00
   14   -1    1     -0.55      0.00
  -14    0    1     -0.49      0.00
  -13    0    1      0.46      0.00
  -12    0    1     -0.03      0.00
  -11    0    1      0.87      0.00
  -10    0    1      0.69      0.00
   -9    0    1      0.07      0.00
   -8    0    1      1.13      0.00
   -7    0    1      2.21      0.00
   -6    0    1     -1.55      0.00
   -5    0    1      1.56      0.00
   -4    0    1     -3.69      0.00
   -3    0    1      1.16      0.00
   -2    0    1      8.17      0.00
    3    0    1    -13.06      0.00
    4    0    1      2.81      0.00
    5    0    1     -3.00      0.00
    6    0    1      1.48      0.00
    7    0    1      0.16      0.00
    8    0    1     -0.17      0.00
    9    0    1      0.51      0.00
   10    0    1     -0.30      0.00
   11    0    1     -1.15      0.00
   12    0    1     -0.34      0.00
   13    0    1     -1.04      0.00
   14    0    1      0.03      0.00
  -14    1    1      0.60      0.00
  -13    1    1      0.05      0.00
  -12    1    1      0.55      0.00
  -11    1    1     -0.76      0.00
  -10    1    1     -0.49      0.00
   -9    1    1     -1.00      0.00
   -8    1    1     -0.31      0.00
   -7    1    1     -1.80      0.00
   -6    1    1     -1.38      0.00
   -5    1    1      0.76      0.00
   -4    1    1      1.90      0.00
   -3    1    1      6.25      0.00
   -2    1    1      3.36      0.00
    3    1    1     18.67      0.00
    4    1    1     -5.03      0.00
    5    1    1      8.82      0.00
    6    1    1     -0.43      0.00
    7    1    1     -0.97      0.00
    8    1    1     -0.06      0.00
    9    1    1     -0.10      0.00
   10    1    1      0.41      0.00
   11    1    1      0.55      0.00
   12    1    1      0.10      0.00
   13    1    1      0.79      0.00
   14    1    1      0.88      0.00
  -13    2    1      0.09      0.00
  -12    2    1     -1.26      0.00
  -11    2    1      0.21      0.00
  -10    2    1     -0.19      0.00
   -9    2    1      1.57      0.00
   -8    2    1     -0.22      0.00
   -7    2    1      1.27      0.00
   -6    2    1      2.68      0.00
   -5    2    1      0.62      0.00
   -4    2    1     -2.17      0.00
   -3    2    1     -8.50      0.00
   -2    2    1     -9.99      0.00
    2    2    1    -17.20      0.00
    3    2    1    -13.56      0.00
    4    2    1      6.48      0.00
    5    2    1     -9.60      0.00
    6    2    1     -1.78      0.00
    7    2    1      1.46      0.00
    8    2    1      1.30      0.00
    9    2    1     -0.68      0.00
   10    2    1     -0.33      0.00
   11    2    1      0.17      0.00
   12    2    1     -1.10      0.00
   13    2    1      0.42      0.00
   14    2    1     -0.81      0.00
   15    2    1      0.00      0.00
  -12    3    1      0.95      0.00
  -11    3    1      0.37      0.00
  -10    3    1      0.77      0.00
   -9    3    1     -1.00      0.00
   -8    3    1      0.62      0.00
   -7    3    1     -1.27      0.00
   -6    3    1     -1.72      0.00
   -5    3    1     -2.86      0.00
   -4    3    1      1.48      0.00
   -3    3    1      6.80      0.00
   -2    3    1     11.13      0.00
   -1    3    1     -0.02      0.00
    2    3    1     -6.09      0.00
    3    3    1      0.83      0.00
    4    3    1     -3.76      0.00
    5    3    1      3.94      0.00
    6    3    1      2.38      0.00
    7    3    1     -0.19      0.00
    8    3    1     -3.33      0.00
    9    3    1      0.76      0.00
   10    3    1     -0.24      0.00
   11    3    1     -0.81      0.00
   12    3    1      1.97      0.00
   13    3    1     -0.92      0.00
   14    3    1      0.46      0.00
   15    3    1     -0.07      0.00
  -12    4    1     -0.36      0.00
  -11    4    1     -0.32      0.00
  -10    4    1     -0.50      0.00
   -9    4    1     -0.03      0.00
   -8    4    1     -0.91      0.00
   -7    4    1      0.86      0.00
   -6    4    1      0.88      0.00
   -5    4    1      2.93      0.00
   -4    4    1      0.81      0.00
   -3    4    1     -4.62      0.00
   -2    4    1     -8.62      0.00
   -1    4    1     -8.62      0.00
    0    4    1      5.09      0.00
    1    4    1     22.77      0.00
    2    4    1     17.98      0.00
    3    4    1      9.89      0.00
    4    4    1      1.17      0.00
    5    4    1      1.83      0.00
    6    4    1     -1.30      0.00
    7    4    1     -1.62      0.00
    8    4    1      4.67      0.00
    9    4    1      0.19      0.00
   10    4    1      0.58      0.00
   11    4    1      1.13      0.00
   12    4    1     -0.87      0.00
   13    4    1      0.42      0.00
   14    4    1     -0.42      0.00
   15    4    1      0.21      0.00
  -11    5    1     -0.01      0.00
  -10    5    1     -0.03      0.00
   -9    5    1      0.25      0.00
   -8    5    1      1.09      0.00
   -7    5    1     -0.51      0.00
   -6    5    1      0.00      0.00
   -5    5    1     -2.19      0.00
   -4    5    1     -1.98      0.00
   -3    5    1      1.65      0.00
   -2    5    1      6.35      0.00
   -1    5    1      6.37      0.00
    0    5    1      5.33      0.00
    1    5    1     -2.45      0.00
    2    5    1    -14.06      0.00
    3    5    1    -12.68      0.00
    4    5    1     -2.67      0.00
    5    5    1     -3.33      0.00
    6    5    1      0.95      0.00
    7    5    1      1.41      0.00
    8    5    1     -3.42      0.00
    9    5    1     -1.46      0.00
   10    5    1     -0.42      0.00
   11    5    1     -1.01      0.00
   12    5    1     -0.78      0.00
   13    5    1     -0.23      0.00
   14    5    1      0.33      0.00
   15    5    1     -0.25      0.00
  -10    6    1     -0.16      0.00
   -9    6    1      0.07      0.00
   -8    6    1     -0.67      0.00
   -7    6    1      0.33      0.00
   -6    6    1     -0.76      0.00
   -5    6    1      1.46      0.00
   -4    6    1      1.67      0.00
   -3    6    1      0.73      0.00
   -2    6    1     -3.77      0.00
   -1    6    1     -3.21      0.00
    0    6    1     -5.86      0.00
    1    6    1     -5.96      0.00
    2    6    1      3.29      0.00
    3    6    1      8.43      0.00
    4    6    1      6.04      0.00
    5    6    1      2.81      0.00
    6    6    1     -1.89      0.00
    7    6    1     -0.01      0.00
    8    6    1      1.08      0.00
    9    6    1      1.74      0.00
   10    6    1     -0.08      0.00
   11    6    1      0.77      0.00
   12    6    1      1.25      0.00
   13    6    1      0.36      0.00
   14    6    1      0.01      0.00
   15    6    1      0.38      0.00
   16    6    1     -0.73      0.00
  -10    7    1      0.22      0.00
   -9    7    1      0.49      0.00
   -8    7    1     -0.14      0.00
   -7    7    1      0.05      0.00
   -6    7    1      0.54      0.00
   -5    7    1     -0.61      0.00
   -4    7    1     -0.74      0.00
   -3    7    1     -1.54      0.00
   -2    7    1      1.10      0.00
   -1    7    1      1.39      0.00
    0    7    1      3.76      0.00
    1    7    1      5.21      0.00
    2    7    1      3.44      0.00
    3    7    1     -1.03      0.00
    4    7    1     -6.40      0.00
    5    7    1     -3.07      0.00
    6    7    1      1.84      0.00
    7    7    1      0.19      0.00
    8    7    1     -0.17      0.00
    9    7    1     -0.99      0.00
   10    7    1      0.28      0.00
   11    7    1     -0.13      0.00
   12    7    1     -1.38      0.00
   13    7    1      0.05      0.00
   14    7    1     -0.17      0.00
   15    7    1     -0.38      0.00
   16    7    1      0.35      0.00
   -9    8    1     -0.78      0.00
   -8    8    1     -0.06      0.00
   -7    8    1     -0.11      0.00
   -6    8    1     -0.13      0.00
   -5    8    1      0.06      0.00
   -4    8    1      0.01      0.00
   -3    8    1      1.42      0.00
   -2    8    1      0.39      0.00
   -1    8    1     -0.41      0.00
    0    8    1     -1.87      0.00
    1    8    1     -2.60      0.00
    2    8    1     -4.30      0.00
    3    8    1     -3.31      0.00
    4    8    1      2.83      0.00
    5    8    1      2.73      0.00
    6    8    1      0.05      0.00
    7    8    1     -1.11      0.00
    8    8    1      0.14      0.00
    9    8    1      0.08      0.00
   10    8    1     -0.09      0.00
   11    8    1      0.00      0.00
   12    8    1      1.15      0.00
   13    8    1     -0.15      0.00
   14    8    1      0.05      0.00
   15    8    1     -0.12      0.00
   16    8    1      0.05      0.00
   -8    9    1      0.23      0.00
   -7    9    1      0.30      0.00
   -6    9    1     -0.01      0.00
   -5    9    1      0.22      0.00
   -4    9    1      0.04      0.00
   -3    9    1     -0.89      0.00
   -2    9    1     -1.00      0.00
   -1    9    1     -0.12      0.00
    0    9    1      0.84      0.00
    1    9    1      0.75      0.00
    2    9    1      3.23      0.00
    3    9    1      3.16      0.00
    4    9    1      0.86      0.00
    5    9    1     -1.36      0.00
    6    9    1     -1.08      0.00
    7    9    1      0.45      0.00
    8    9    1     -0.11      0.00
    9    9    1      0.54      0.00
   10    9    1      0.21      0.00
   11    9    1     -0.63      0.00
   12    9    1     -0.79      0.00
   13    9    1     -0.12      0.00
   14    9    1     -0.26      0.00
   15    9    1      0.71      0.00
   -7   10    1     -0.24      0.00
   -6   10    1      0.00      0.00
   -5   10    1     -0.22      0.00
   -4   10    1     -0.16      0.00
   -3   10    1      0.58      0.00
   -2   10    1      0.97      0.00
   -1   10    1      0.69      0.00
    0   10    1     -0.50      0.00
    1   10    1      0.11      0.00
    2   10    1     -1.99      0.00
    3   10    1     -1.64      0.00
    4   10    1     -2.22      0.00
    5   10    1      0.06      0.00
    6   10    1      0.85      0.00
    7   10    1      0.75      0.00
    8   10    1      0.53      0.00
    9   10    1     -0.82      0.00
   10   10    1     -0.11      0.00
   11   10    1      0.28      0.00
   12   10    1      0.66      0.00
   13   10    1      0.62      0.00
   14   10    1      0.15      0.00
   15   10    1     -0.38      0.00
   -6   11    1     -0.29      0.00
   -5   11    1      0.08      0.00
   -4   11    1      0.51      0.00
   -3   11    1     -0.81      0.00
   -2   11    1     -0.28      0.00
   -1   11    1     -0.84      0.00
    0   11    1     -0.08      0.00
    1   11    1     -0.06      0.00
    2   11    1      0.79      0.00
    3   11    1      0.86      0.00
    4   11    1      1.47      0.00
    5   11    1      1.04      0.00
    6   11    1     -0.30      0.00
    7   11    1     -1.53      0.00
    8   11    1     -0.84      0.00
    9   11    1      0.51      0.00
   10   11    1     -0.41      0.00
   11   11    1      0.52      0.00
   12   11    1     -0.28      0.00
   13   11    1     -0.53      0.00
   14   11    1      0.05      0.00
   15   11    1      0.07      0.00
   -4   12    1     -0.62      0.00
   -3   12    1      0.94      0.00
   -2   12    1     -0.11      0.00
   -1   12    1      0.37      0.00
    0   12    1      0.49      0.00
    1   12    1     -0.13      0.00
    2   12    1     -0.06      0.00
    3   12    1     -0.38      0.00
    4   12    1     -0.63      0.00
    5   12    1     -1.06      0.00
    6   12    1     -0.51      0.00
    7   12    1      1.40      0.00
    8   12    1      1.13      0.00
    9   12    1     -0.16      0.00
   10   12    1      0.65      0.00
   11   12    1     -0.68      0.00
   12   12    1      0.55      0.00
   13   12    1     -0.57      0.00
   14   12    1      0.01      0.00
   -3   13    1     -0.34      0.00
   -2   13    1     -0.20      0.00
   -1   13    1     -0.21      0.00
    0   13    1     -0.02      0.00
    1   13    1     -0.24      0.00
    2   13    1      0.21      0.00
    3   13    1     -0.20      0.00
    4   13    1      0.09      0.00
    5   13    1      0.71      0.00
    6   13    1      0.43      0.00
    7   13    1     -0.24      0.00
    8   13    1     -1.27      0.00
    9   13    1      0.03      0.00
   10   13    1     -0.37      0.00
   11   13    1      0.49      0.00
   12   13    1     -1.05      0.00
   13   13    1      0.77      0.00
   14   13    1      0.18      0.00
   -1   14    1      0.46      0.00
    0   14    1     -0.32      0.00
    1   14    1      0.42      0.00
    2   14    1     -0.28      0.00
    3   14    1      0.18      0.00
    4   14    1      0.39      0.00
    5   14    1     -0.24      0.00
    6   14    1     -0.02      0.00
    7   14    1      0.03      0.00
    8   14    1      0.57      0.00
    9   14    1     -0.12      0.00
   10   14    1      0.13      0.00
   11   14    1     -0.58      0.00
   12   14    1      0.95      0.00
   13   14    1     -0.18      0.00
    1   15    1     -0.14      0.00
    2   15    1      0.08      0.00
    3   15    1     -0.12      0.00
    4   15    1      0.00      0.00
    5   15    1     -0.50      0.00
    6   15    1     -0.12      0.00
    7   15    1     -0.64      0.00
    8   15    1     -0.22      0.00
    9   15    1      0.44      0.00
   10   15    1     -0.15      0.00
   11   15    1      0.86      0.00
    5   16    1      0.31      0.00
    6   16    1      0.29      0.00
    7   16    1      0.91      0.00
    8   16    1      0.33      0.00
  -10  -15    2     -0.22      0.00
   -9  -15    2      0.11      0.00
   -8  -15    2     -0.08      0.00
   -7  -15    2      0.30      0.00
   -6  -15    2     -0.17      0.00
   -5  -15    2     -0.61      0.00
   -4  -15    2     -0.06      0.00
   -3  -15    2     -0.04      0.00
  -12  -14    2     -0.04      0.00
  -11  -14    2      0.01      0.00
  -10  -14    2      0.18      0.00
   -9  -14    2     -0.53      0.00
   -8  -14    2      0.20      0.00
   -7  -14    2     -0.67      0.00
   -6  -14    2      0.46      0.00
   -5  -14    2      0.63      0.00
   -4  -14    2     -0.22      0.00
   -3  -14    2      0.63      0.00
   -2  -14    2     -0.84      0.00
   -1  -14    2     -0.67      0.00
    0  -14    2     -0.83      0.00
  -13  -13    2      0.58      0.00
  -12  -13    2     -0.11      0.00
  -11  -13    2      0.23      0.00
  -10  -13    2     -0.05      0.00
   -9  -13    2      0.73      0.00
   -8  -13    2      0.75      0.00
   -7  -13    2      0.82      0.00
   -6  -13    2     -0.32      0.00
   -5  -13    2     -0.47      0.00
   -4  -13    2      0.15      0.00
   -3  -13    2     -0.07      0.00
   -2  -13    2     -0.40      0.00
   -1  -13    2      0.47      0.00
    0  -13    2      1.12      0.00
    1  -13    2     -0.44      0.00
    2  -13    2      1.35      0.00
  -14  -12    2      0.10      0.00
  -13  -12    2     -0.02      0.00
  -12  -12    2      0.09      0.00
  -11  -12    2      0.06      0.00
  -10  -12    2      0.36      0.00
   -9  -12    2     -0.43      0.00
   -8  -12    2     -1.62      0.00
   -7  -12    2     -1.73      0.00
   -6  -12    2      0.26      0.00
   -5  -12    2     -0.05      0.00
   -4  -12    2     -0.43      0.00
   -3  -12    2     -0.13      0.00
   -2  -12    2      0.53      0.00
   -1  -12    2      0.30      0.00
    0  -12    2     -0.66      0.00
    1  -12    2      0.50      0.00
    2  -12    2     -1.44      0.00
    3  -12    2      0.44      0.00
    4  -12    2      0.60      0.00
  -14  -11    2      0.39      0.00
  -13  -11    2     -0.40      0.00
  -12  -11    2     -0.31      0.00
  -11  -11    2     -0.50      0.00
  -10  -11    2     -1.11      0.00
   -9  -11    2     -0.30      0.00
   -8  -11    2      1.13      0.00
   -7  -11    2      2.25      0.00
   -6  -11    2      0.76      0.00
   -5  -11    2     -0.15      0.00
   -4  -11    2      1.48      0.00
   -3  -11    2      0.02      0.00
   -2  -11    2      0.02      0.00
   -1  -11    2     -0.62      0.00
    0  -11    2     -0.57      0.00
    1  -11    2      0.37      0.00
    2  -11    2      0.38      0.00
    3  -11    2      0.11      0.00
    4  -11    2     -0.48      0.00
    5  -11    2      0.08      0.00
  -15  -10    2     -0.29      0.00
  -14  -10    2     -0.91      0.00
  -13  -10    2      0.19      0.00
  -12  -10    2      0.00      0.00
  -11  -10    2      1.13      0.00
  -10  -10    2      1.37      0.00
   -9  -10    2      1.42      0.00
   -8  -10    2      0.27      0.00
   -7  -10    2     -1.19      0.00
   -6  -10    2     -1.34      0.00
   -5  -10    2     -0.07      0.00
   -4  -10    2     -1.44      0.00
   -3  -10    2     -0.60      0.00
   -2  -10    2     -0.62      0.00
   -1  -10    2      0.42      0.00
    0  -10    2      1.49      0.00
    1  -10    2     -0.78      0.00
    2  -10    2      0.16      0.00
    3  -10    2     -0.39      0.00
    4  -10    2      0.01      0.00
    5  -10    2     -0.02      0.00
    6  -10    2      1.10      0.00
  -15   -9    2      0.57      0.00
  -14   -9    2      1.13      0.00
  -13   -9    2      0.28      0.00
  -12   -9    2      0.73      0.00
  -11   -9    2     -1.01      0.00
  -10   -9    2     -1.27      0.00
   -9   -9    2     -1.89      0.00
   -8   -9    2     -1.63      0.00
   -7   -9    2     -0.78      0.00
   -6   -9    2      0.05      0.00
   -5   -9    2      0.35      0.00
   -4   -9    2      0.45      0.00
   -3   -9    2      0.47      0.00
   -2   -9    2      1.44      0.00
   -1   -9    2     -0.24      0.00
    0   -9    2     -1.28      0.00
    1   -9    2      0.13      0.00
    2   -9    2      0.02      0.00
    3   -9    2      0.55      0.00
    4   -9    2      0.21      0.00
    5   -9    2      0.26      0.00
    6   -9    2     -0.74      0.00
    7   -9    2      0.53      0.00
    8   -9    2     -0.66      0.00
  -15   -8    2     -0.36      0.00
  -14   -8    2     -1.08      0.00
  -13   -8    2     -0.65      0.00
  -12   -8    2     -1.02      0.00
  -11   -8    2      0.18      0.00
  -10   -8    2      0.85      0.00
   -9   -8    2      1.64      0.00
   -8   -8    2      1.43      0.00
   -7   -8    2      2.75      0.00
   -6   -8    2      2.23      0.00
   -5   -8    2     -0.03      0.00
   -4   -8    2      0.83      0.00
   -3   -8    2      0.67      0.00
   -2   -8    2     -0.96      0.00
   -1   -8    2      0.31      0.00
    0   -8    2      0.78      0.00
    1   -8    2      0.21      0.00
    2   -8    2     -0.07      0.00
    3   -8    2     -0.80      0.00
    4   -8    2     -0.46      0.00
    5   -8    2     -0.30      0.00
    6   -8    2      0.47      0.00
    7   -8    2     -0.72      0.00
    8   -8    2      1.12      0.00
    9   -8    2     -0.50      0.00
  -15   -7    2     -0.10      0.00
  -14   -7    2      1.17      0.00
  -13   -7    2      0.43      0.00
  -12   -7    2      1.01      0.00
  -11   -7    2      0.39      0.00
  -10   -7    2     -0.17      0.00
   -9   -7    2     -1.14      0.00
   -8   -7    2     -0.03      0.00
   -7   -7    2     -2.85      0.00
   -6   -7    2     -4.61      0.00
   -5   -7    2     -1.18      0.00
   -4   -7    2     -1.16      0.00
   -3   -7    2     -1.23      0.00
   -2   -7    2     -1.93      0.00
   -1   -7    2     -1.22      0.00
    0   -7    2     -1.41      0.00
    1   -7    2     -0.58      0.00
    2   -7    2      0.20      0.00
    3   -7    2      1.38      0.00
    4   -7    2      1.00      0.00
    5   -7    2      0.06      0.00
    6   -7    2     -0.27      0.00
    7   -7    2      0.50      0.00
    8   -7    2     -0.87      0.00
    9   -7    2      0.20      0.00
   10   -7    2      0.11      0.00
  -15   -6    2     -0.01      0.00
  -14   -6    2     -1.01      0.00
  -13   -6    2     -0.30      0.00
  -12   -6    2     -0.84      0.00
  -11   -6    2     -0.45      0.00
  -10   -6    2     -0.54      0.00
   -9   -6    2      0.56      0.00
   -8   -6    2     -1.64      0.00
   -7   -6    2      1.71      0.00
   -6   -6    2      3.79      0.00
   -5   -6    2      4.71      0.00
   -4   -6    2      0.85      0.00
   -3   -6    2     -0.81      0.00
   -2   -6    2      4.27      0.00
   -1   -6    2      4.25      0.00
    0   -6    2      3.72      0.00
    1   -6    2      2.40      0.00
    2   -6    2      0.63      0.00
    3   -6    2     -2.36      0.00
    4   -6    2     -1.80      0.00
    5   -6    2     -0.41      0.00
    6   -6    2      0.28      0.00
    7   -6    2      0.01      0.00
    8   -6    2      0.77      0.00
    9   -6    2     -0.41      0.00
   10   -6    2     -0.05      0.00
  -15   -5    2      0.52      0.00
  -14   -5    2      0.61      0.00
  -13   -5    2      0.20      0.00
  -12   -5    2      1.07      0.00
  -11   -5    2      0.18      0.00
  -10   -5    2      0.93      0.00
   -9   -5    2     -0.14      0.00
   -8   -5    2      3.52      0.00
   -7   -5    2     -1.09      0.00
   -6   -5    2      0.65      0.00
   -5   -5    2     -7.60      0.00
   -4   -5    2     -1.29      0.00
   -3   -5    2      2.31      0.00
   -2   -5    2     -0.30      0.00
   -1   -5    2     -6.63      0.00
    0   -5    2     -8.51      0.00
    1   -5    2     -5.64      0.00
    2   -5    2     -3.82      0.00
    3   -5    2      1.89      0.00
    4   -5    2      3.12      0.00
    5   -5    2      1.20      0.00
    6   -5    2     -0.08      0.00
    7   -5    2     -0.43      0.00
    8   -5    2     -0.75      0.00
    9   -5    2     -0.01      0.00
   10   -5    2      0.61      0.00
   11   -5    2      0.30      0.00
  -15   -4    2     -0.61      0.00
  -14   -4    2     -0.71      0.00
  -13   -4    2      0.16      0.00
  -12   -4    2     -0.97      0.00
  -11   -4    2     -0.81      0.00
  -10   -4    2     -0.37      0.00
   -9   -4    2     -0.05      0.00
   -8   -4    2     -4.59      0.00
   -7   -4    2      0.00      0.00
   -6   -4    2     -3.93      0.00
   -5   -4    2      6.00      0.00
   -4   -4    2     -0.22      0.00
   -3   -4    2      2.19      0.00
   -2   -4    2    -10.19      0.00
   -1   -4    2      1.53      0.00
    0   -4    2     12.18      0.00
    1   -4    2     10.56      0.00
    2   -4    2      8.81      0.00
    3   -4    2      1.32      0.00
    4   -4    2     -3.47      0.00
    5   -4    2     -1.91      0.00
    6   -4    2     -0.54      0.00
    7   -4    2      0.55      0.00
    8   -4    2      0.43      0.00
    9   -4    2      0.85      0.00
   10   -4    2     -0.96      0.00
   11   -4    2      0.11      0.00
   12   -4    2     -0.03      0.00
  -15   -3    2      0.10      0.00
  -14   -3    2      1.02      0.00
  -13   -3    2     -0.01      0.00
  -12   -3    2      0.01      0.00
  -11   -3    2      1.66      0.00
  -10   -3    2     -0.08      0.00
   -9   -3    2     -0.13      0.00
   -8   -3    2      3.69      0.00
   -7   -3    2      1.91      0.00
   -6   -3    2      3.57      0.00
   -5   -3    2     -1.43      0.00
   -4   -3    2      4.73      0.00
   -3   -3    2    -10.69      0.00
   -2   -3    2     20.80      0.00
   -1   -3    2     10.16      0.00
    0   -3    2     -3.27      0.00
    1   -3    2    -13.71      0.00
    2   -3    2    -16.28      0.00
    3   -3    2     -4.67      0.00
    4   -3    2      0.44      0.00
    5   -3    2      2.76      0.00
    6   -3    2      0.41      0.00
    7   -3    2     -0.30      0.00
    8   -3    2      0.13      0.00
    9   -3    2     -0.86      0.00
   10   -3    2      0.56      0.00
   11   -3    2     -0.55      0.00
   12   -3    2     -0.01      0.00
   13   -3    2     -0.11      0.00
  -15   -2    2      0.69      0.00
  -14   -2    2     -0.84      0.00
  -13   -2    2     -0.36      0.00
  -12   -2    2      0.38      0.00
  -11   -2    2     -1.20      0.00
  -10   -2    2     -0.26      0.00
   -9   -2    2      0.12      0.00
   -8   -2    2     -1.32      0.00
   -7   -2    2     -3.03      0.00
   -6   -2    2     -2.13      0.00
   -5   -2    2     -1.14      0.00
   -4   -2    2     -8.55      0.00
   -2   -2    2    -21.21      0.00
   -1   -2    2    -17.22      0.00
    0   -2    2    -26.93      0.00
    1   -2    2      9.94      0.00
    3   -2    2      7.76      0.00
    4   -2    2      3.50      0.00
    5   -2    2     -2.06      0.00
    6   -2    2      0.31      0.00
    7   -2    2      0.46      0.00
    8   -2    2     -0.73      0.00
    9   -2    2      0.27      0.00
   10   -2    2     -0.34      0.00
   11   -2    2      0.58      0.00
   12   -2    2      0.44      0.00
   13   -2    2      0.54      0.00
  -14   -1    2      0.22      0.00
  -13   -1    2      0.11      0.00
  -12   -1    2     -0.04      0.00
  -11   -1    2      0.24      0.00
  -10   -1    2      0.47      0.00
   -9   -1    2      0.14      0.00
   -8   -1    2     -0.56      0.00
   -7   -1    2      2.45      0.00
   -6   -1    2      2.17      0.00
   -5   -1    2      0.24      0.00
   -4   -1    2      8.43      0.00
   -3   -1    2    -10.68      0.00
   -2   -1    2      8.22      0.00
    1   -1    2      1.84      0.00
    2   -1    2    -11.42      0.00
    3   -1    2    -11.05      0.00
    4   -1    2     -4.94      0.00
    5   -1    2      0.13      0.00
    6   -1    2     -1.57      0.00
    7   -1    2     -0.35      0.00
    8   -1    2      0.11      0.00
    9   -1    2      0.32      0.00
   10   -1    2      0.82      0.00
   11   -1    2     -0.44      0.00
   12   -1    2     -0.32      0.00
   13   -1    2     -1.15      0.00
   14   -1    2     -0.04      0.00
  -14    0    2     -0.27      0.00
  -13    0    2      0.40      0.00
  -12    0    2     -0.08      0.00
  -11    0    2      0.33      0.00
  -10    0    2     -0.01      0.00
   -9    0    2     -0.29      0.00
   -8    0    2      1.04      0.00
   -7    0    2     -0.81      0.00
   -6    0    2     -2.57      0.00
   -5    0    2      0.36      0.00
   -4    0    2     -5.73      0.00
   -3    0    2      2.96      0.00
   -2    0    2      5.82      0.00
    2    0    2    -12.87      0.00
    3    0    2     13.67      0.00
    4    0    2      1.59      0.00
    5    0    2      0.03      0.00
    6    0    2      3.44      0.00
    7    0    2     -0.01      0.00
    8    0    2      0.89      0.00
    9    0    2     -0.61      0.00
   10    0    2     -1.25      0.00
   11    0    2      0.61      0.00
   12    0    2     -0.26      0.00
   13    0    2      0.83      0.00
   14    0    2      0.55      0.00
  -13    1    2     -0.14      0.00
  -12    1    2      0.09      0.00
  -11    1    2     -0.58      0.00
  -10    1    2     -0.83      0.00
   -9    1    2      0.14      0.00
   -8    1    2     -0.78      0.00
   -7    1    2     -0.71      0.00
   -6    1    2      1.47      0.00
   -5    1    2      1.09      0.00
   -4    1    2      3.46      0.00
   -3    1    2      2.07      0.00
   -2    1    2    -10.63      0.00
    2    1    2     38.93      0.00
    3    1    2    -15.60      0.00
    4    1    2      7.06      0.00
    5    1    2      2.02      0.00
    6    1    2     -4.12      0.00
    7    1    2     -0.52      0.00
    8    1    2     -0.68      0.00
    9    1    2      1.21      0.00
   10    1    2      0.67      0.00
   11    1    2     -0.32      0.00
   12    1    2      0.27      0.00
   13    1    2     -0.23      0.00
   14    1    2     -0.52      0.00
  -13    2    2     -0.07      0.00
  -12    2    2     -0.75      0.00
  -11    2    2      0.51      0.00
  -10    2    2      1.14      0.00
   -9    2    2      0.27      0.00
   -8    2    2      0.72      0.00
   -7    2    2      1.19      0.00
   -6    2    2      0.49      0.00
   -5    2    2     -1.76      0.00
   -4    2    2     -2.82      0.00
   -3    2    2     -3.64      0.00
   -2    2    2      6.37      0.00
   -1    2    2     26.93      0.00
    0    2    2      2.02      0.00
    3    2    2     12.12      0.00
    4    2    2    -14.13      0.00
    5    2    2     -3.22      0.00
    6    2    2      1.23      0.00
    7    2    2      1.92      0.00
    8    2    2     -0.28      0.00
    9    2    2     -1.74      0.00
   10    2    2     -0.09      0.00
   11    2    2     -0.81      0.00
   12    2    2      0.13      0.00
   13    2    2      0.49      0.00
   14    2    2     -0.02      0.00
   15    2    2      0.42      0.00
  -12    3    2      1.17      0.00
  -11    3    2     -0.12      0.00
  -10    3    2     -0.51      0.00
   -9    3    2     -0.40      0.00
   -8    3    2     -0.78      0.00
   -7    3    2     -1.07      0.00
   -6    3    2     -1.35      0.00
   -5    3    2      0.21      0.00
   -4    3    2      3.07      0.00
   -3    3    2      2.85      0.00
   -2    3    2      0.25      0.00
   -1    3    2    -17.09      0.00
    0    3    2    -18.63      0.00
    2    3    2     26.81      0.00
    3    3    2     -3.77      0.00
    4    3    2     14.15      0.00
    5    3    2      0.97      0.00
    6    3    2      4.48      0.00
    7    3    2     -3.83      0.00
    8    3    2      0.78      0.00
    9    3    2      1.70      0.00
   10    3    2      0.18      0.00
   11    3    2      1.72      0.00
   12    3    2     -0.09      0.00
   13    3    2     -0.67      0.00
   14    3    2      0.20      0.00
   15    3    2     -0.24      0.00
  -12    4    2     -0.68      0.00
  -11    4    2      0.13      0.00
  -10    4    2     -0.41      0.00
   -9    4    2     -0.09      0.00
   -8    4    2      0.66      0.00
   -7    4    2      0.58      0.00
   -6    4    2      1.53      0.00
   -5    4    2      0.61      0.00
   -4    4    2     -1.77      0.00
   -3    4    2     -2.72      0.00
   -2    4    2     -2.25      0.00
   -1    4    2      6.78      0.00
    0    4    2     14.02      0.00
    1    4    2     12.21      0.00
    2    4    2     -3.52      0.00
    3    4    2     -0.67      0.00
    4    4    2     -9.06      0.00
    5    4    2      1.48      0.00
    6    4    2     -7.64      0.00
    7    4    2      4.88      0.00
    8    4    2      0.12      0.00
    9    4    2     -1.36      0.00
   10    4    2     -0.48      0.00
   11    4    2     -1.09      0.00
   12    4    2     -0.44      0.00
   13    4    2     -0.05      0.00
   14    4    2     -0.02      0.00
   15    4    2      0.26      0.00
  -11    5    2     -0.41      0.00
  -10    5    2      0.41      0.00
   -9    5    2      0.57      0.00
   -8    5    2     -0.33      0.00
   -7    5    2      0.08      0.00
   -6    5    2     -1.44      0.00
   -5    5    2     -0.27      0.00
   -4    5    2     -0.13      0.00
   -3    5    2      3.11      0.00
   -2    5    2      1.45      0.00
   -1    5    2     -1.36      0.00
    0    5    2     -3.76      0.00
    1    5    2    -11.30      0.00
    2    5    2     -8.35      0.00
    3    5    2     -1.29      0.00
    4    5    2      3.32      0.00
    5    5    2     -0.57      0.00
    6    5    2      5.68      0.00
    7    5    2     -4.19      0.00
    8    5    2     -1.34      0.00
    9    5    2      0.28      0.00
   10    5    2      0.52      0.00
   11    5    2     -0.26      0.00
   12    5    2      0.43      0.00
   13    5    2      0.78      0.00
   14    5    2     -0.12      0.00
   15    5    2      0.19      0.00
   16    5    2     -0.11      0.00
  -10    6    2      0.00      0.00
   -9    6    2      0.07      0.00
   -8    6    2     -0.35      0.00
   -7    6    2     -0.02      0.00
   -6    6    2      0.63      0.00
   -5    6    2      0.26      0.00
   -4    6    2      0.71      0.00
   -3    6    2     -2.36      0.00
   -2    6    2     -1.01      0.00
   -1    6    2     -0.16      0.00
    0    6    2     -1.49      0.00
    1    6    2      4.86      0.00
    2    6    2      8.32      0.00
    3    6    2      5.66      0.00
    4    6    2      0.88      0.00
    5    6    2     -1.83      0.00
    6    6    2     -2.65      0.00
    7    6    2      3.00      0.00
    8    6    2      1.38      0.00
    9    6    2      1.01      0.00
   10    6    2     -0.25      0.00
   11    6    2      1.22      0.00
   12    6    2     -0.05      0.00
   13    6    2     -0.59      0.00
   14    6    2      0.06      0.00
   15    6    2     -0.35      0.00
   16    6    2     -0.22      0.00
  -10    7    2     -0.04      0.00
   -9    7    2     -0.54      0.00
   -8    7    2      0.16      0.00
   -7    7    2     -0.22      0.00
   -6    7    2     -0.19      0.00
   -5    7    2      0.09      0.00
   -4    7    2     -0.70      0.00
   -3    7    2      1.12      0.00
   -2    7    2      0.80      0.00
   -1    7    2      0.83      0.00
    0    7    2      1.83      0.00
    1    7    2     -0.45      0.00
    2    7    2     -2.99      0.00
    3    7    2     -6.95      0.00
    4    7    2     -3.88      0.00
    5    7    2      2.03      0.00
    6    7    2      1.98      0.00
    7    7    2     -1.88      0.00
    8    7    2     -0.82      0.00
    9    7    2     -1.31      0.00
   10    7    2      0.24      0.00
   11    7    2     -1.53      0.00
   12    7    2     -0.31      0.00
   13    7    2      0.55      0.00
   14    7    2     -0.27      0.00
   15    7    2      0.02      0.00
   16    7    2      0.51      0.00
   -9    8    2     -0.04      0.00
   -8    8    2      0.36      0.00
   -7    8    2      0.37      0.00
   -6    8    2      0.29      0.00
   -5    8    2     -0.42      0.00
   -4    8    2      0.48      0.00
   -3    8    2     -0.26      0.00
   -2    8    2     -0.67      0.00
   -1    8    2     -1.00      0.00
    0    8    2     -1.00      0.00
    1    8    2     -1.03      0.00
    2    8    2     -0.46      0.00
    3    8    2      4.21      0.00
    4    8    2      4.59      0.00
    5    8    2      0.08      0.00
    6    8    2     -1.76      0.00
    7    8    2      0.25      0.00
    8    8    2      0.27      0.00
    9    8    2      0.64      0.00
   10    8    2     -0.09      0.00
   11    8    2      1.04      0.00
   12    8    2      0.34      0.00
   13    8    2     -0.60      0.00
   14    8    2      0.00      0.00
   15    8    2      0.36      0.00
   16    8    2     -0.23      0.00
   -8    9    2     -0.04      0.00
   -7    9    2     -0.15      0.00
   -6    9    2     -0.63      0.00
   -5    9    2      0.39      0.00
   -4    9    2     -0.28      0.00
   -3    9    2      0.05      0.00
   -2    9    2      0.29      0.00
   -1    9    2      1.10      0.00
    0    9    2      0.55      0.00
    1    9    2      1.14      0.00
    2    9    2      1.31      0.00
    3    9    2     -1.15      0.00
    4    9    2     -3.04      0.00
    5    9    2     -1.58      0.00
    6    9    2      0.54      0.00
    7    9    2      0.54      0.00
    8    9    2      0.70      0.00
    9    9    2      0.31      0.00
   10    9    2     -0.16      0.00
   11    9    2     -0.81      0.00
   12    9    2      0.14      0.00
   13    9    2      0.14      0.00
   14    9    2      0.59      0.00
   15    9    2     -0.13      0.00
   16    9    2     -0.35      0.00
   -7   10    2     -0.41      0.00
   -6   10    2      0.81      0.00
   -5   10    2     -0.34      0.00
   -4   10    2      0.34      0.00
   -3   10    2     -0.21      0.00
   -2   10    2      0.28      0.00
   -1   10    2     -1.04      0.00
    0   10    2     -0.70      0.00
    1   10    2     -0.56      0.00
    2   10    2     -1.58      0.00
    3   10    2     -0.12      0.00
    4   10    2      0.87      0.00
    5   10    2      1.66      0.00
    6   10    2      0.49      0.00
    7   10    2      0.02      0.00
    8   10    2     -1.24      0.00
    9   10    2     -0.88      0.00
   10   10    2     -0.18      0.00
   11   10    2      0.58      0.00
   12   10    2      0.34      0.00
   13   10    2     -0.01      0.00
   14   10    2     -0.58      0.00
   15   10    2      0.02      0.00
   -6   11    2     -0.57      0.00
   -5   11    2      0.28      0.00
   -4   11    2     -0.73      0.00
   -3   11    2      0.55      0.00
   -2   11    2     -0.45      0.00
   -1   11    2      0.46      0.00
    0   11    2      0.66      0.00
    1   11    2      0.32      0.00
    2   11    2      1.43      0.00
    3   11    2      0.36      0.00
    4   11    2      0.44      0.00
    5   11    2     -0.64      0.00
    6   11    2     -1.17      0.00
    7   11    2     -0.64      0.00
    8   11    2      0.84      0.00
    9   11    2      0.66      0.00
   10   11    2      0.69      0.00
   11   11    2      0.05      0.00
   12   11    2     -0.83      0.00
   13   11    2     -0.14      0.00
   14   11    2      0.32      0.00
   15   11    2     -0.44      0.00
   -4   12    2      0.78      0.00
   -3   12    2     -0.30      0.00
   -2   12    2      0.07      0.00
   -1   12    2     -0.08      0.00
    0   12    2     -0.03      0.00
    1   12    2     -0.54      0.00
    2   12    2     -0.62      0.00
    3   12    2     -0.72      0.00
    4   12    2     -0.63      0.00
    5   12    2     -0.44      0.00
    6   12    2      0.80      0.00
    7   12    2      1.15      0.00
    8   12    2     -0.08      0.00
    9   12    2     -0.26      0.00
   10   12    2     -0.60      0.00
   11   12    2     -0.05      0.00
   12   12    2      0.26      0.00
   13   12    2     -0.10      0.00
   14   12    2      0.17      0.00
   15   12    2      0.39      0.00
   -3   13    2     -0.31      0.00
   -2   13    2     -0.06      0.00
   -1   13    2      0.30      0.00
    0   13    2     -0.36      0.00
    1   13    2      0.34      0.00
    2   13    2      0.10      0.00
    3   13    2      0.50      0.00
    4   13    2      0.74      0.00
    5   13    2      0.80      0.00
    6   13    2      0.02      0.00
    7   13    2     -0.65      0.00
    8   13    2     -0.75      0.00
    9   13    2      0.21      0.00
   10   13    2      0.09      0.00
   11   13    2     -0.34      0.00
   12   13    2     -0.11      0.00
   13   13    2      0.62      0.00
   14   13    2     -0.05      0.00
   -1   14    2     -0.08      0.00
    0   14    2     -0.03      0.00
    1   14    2      0.21      0.00
    2   14    2     -0.04      0.00
    3   14    2      0.05      0.00
    4   14    2     -0.43      0.00
    5   14    2     -0.97      0.00
    6   14    2     -0.13      0.00
    7   14    2     -0.48      0.00
    8   14    2      0.50      0.00
    9   14    2      0.05      0.00
   10   14    2      0.13      0.00
   11   14    2      0.42      0.00
   12   14    2      0.49      0.00
   13   14    2     -0.28      0.00
    1   15    2     -0.27      0.00
    2   15    2     -0.08      0.00
    3   15    2     -0.26      0.00
    4   15    2     -0.07      0.00
    5   15    2      0.48      0.00
    6   15    2      0.11      0.00
    7   15    2      0.59      0.00
    8   15    2      0.46      0.00
    9   15    2      0.06      0.00
   10   15    2     -0.23      0.00
   11   15    2     -0.10      0.00
   12   15    2     -0.62      0.00
    4   16    2      0.13      0.00
    5   16    2      0.14      0.00
    6   16    2      0.13      0.00
    7   16    2     -0.09      0.00
    8   16    2     -0.55      0.00
    9   16    2     -0.64      0.00
   -9  -15    3     -0.08      0.00
   -8  -15    3      0.18      0.00
   -7  -15    3      0.01      0.00
   -6  -15    3     -0.11      0.00
   -5  -15    3     -0.04      0.00
   -4  -15    3      0.22      0.00
  -11  -14    3      0.28      0.00
  -10  -14    3      0.16      0.00
   -9  -14    3      0.12      0.00
   -8  -14    3      0.32      0.00
   -7  -14    3      0.13      0.00
   -6  -14    3      0.66      0.00
   -5  -14    3     -0.17      0.00
   -4  -14    3     -0.34      0.00
   -3  -14    3     -0.08      0.00
   -2  -14    3     -0.78      0.00
   -1  -14    3     -0.09      0.00
    0  -14    3      0.68      0.00
  -12  -13    3     -0.51      0.00
  -11  -13    3     -0.37      0.00
  -10  -13    3     -0.17      0.00
   -9  -13    3      0.31      0.00
   -8  -13    3     -0.34      0.00
   -7  -13    3     -0.67      0.00
   -6  -13    3     -0.82      0.00
   -5  -13    3     -0.25      0.00
   -4  -13    3      0.61      0.00
   -3  -13    3     -0.25      0.00
   -2  -13    3      0.16      0.00
   -1  -13    3      0.95      0.00
    0  -13    3     -0.50      0.00
    1  -13    3      0.01      0.00
    2  -13    3     -0.17      0.00
  -13  -12    3     -0.26      0.00
  -12  -12    3      0.25      0.00
  -11  -12    3      0.51      0.00
  -10  -12    3     -0.08      0.00
   -9  -12    3     -0.74      0.00
   -8  -12    3     -0.73      0.00
   -7  -12    3      0.85      0.00
   -6  -12    3      0.99      0.00
   -5  -12    3     -0.12      0.00
   -4  -12    3      0.07      0.00
   -3  -12    3     -0.01      0.00
   -2  -12    3      0.60      0.00
   -1  -12    3     -0.62      0.00
    0  -12    3      0.15      0.00
    1  -12    3     -0.35      0.00
    2  -12    3     -0.12      0.00
    3  -12    3      1.23      0.00
    4  -12    3     -0.29      0.00
  -14  -11    3     -0.50      0.00
  -13  -11    3     -0.22      0.00
  -12  -11    3     -0.10      0.00
  -11  -11    3     -0.53      0.00
  -10  -11    3      0.09      0.00
   -9  -11    3      0.91      0.00
   -8  -11    3      1.73      0.00
   -7  -11    3      0.53      0.00
   -6  -11    3     -0.91      0.00
   -5  -11    3      0.62      0.00
   -4  -11    3      0.22      0.00
   -3  -11    3     -0.46      0.00
   -2  -11    3     -0.42      0.00
   -1  -11    3     -0.71      0.00
    0  -11    3      0.22      0.00
    1  -11    3      0.52      0.00
    2  -11    3     -0.37      0.00
    3  -11    3     -0.35      0.00
    4  -11    3     -0.11      0.00
    5  -11    3     -1.33      0.00
  -14  -10    3      0.71      0.00
  -13  -10    3      0.66      0.00
  -12  -10    3      0.53      0.00
  -11  -10    3      0.74      0.00
  -10  -10    3      0.06      0.00
   -9  -10    3     -0.35      0.00
   -8  -10    3     -2.06      0.00
   -7  -10    3     -1.68      0.00
   -6  -10    3     -0.67      0.00
   -5  -10    3     -0.87      0.00
   -4  -10    3     -1.38      0.00
   -3  -10    3      0.28      0.00
   -2  -10    3      0.24      0.00
   -1  -10    3      1.62      0.00
    0  -10    3      0.03      0.00
    1  -10    3     -0.76      0.00
    2  -10    3      0.74      0.00
    3  -10    3     -0.39      0.00
    4  -10    3      0.46      0.00
    5  -10    3      1.21      0.00
    6  -10    3     -0.02      0.00
  -15   -9    3      0.28      0.00
  -14   -9    3     -0.90      0.00
  -13   -9    3     -0.63      0.00
  -12   -9    3     -0.65      0.00
  -11   -9    3     -1.38      0.00
  -10   -9    3     -0.40      0.00
   -9   -9    3     -0.38      0.00
   -8   -9    3      1.29      0.00
   -7   -9    3      1.37      0.00
   -6   -9    3      1.91      0.00
   -5   -9    3      1.90      0.00
   -4   -9    3      2.07      0.00
   -3   -9    3      1.21      0.00
   -2   -9    3      0.37      0.00
   -1   -9    3     -1.92      0.00
    0   -9    3     -0.29      0.00
    1   -9    3      0.26      0.00
    2   -9    3      0.06      0.00
    3   -9    3      0.35      0.00
    4   -9    3     -0.33      0.00
    5   -9    3     -0.75      0.00
    6   -9    3     -0.07      0.00
    7   -9    3     -0.71      0.00
  -15   -8    3     -0.66      0.00
  -14   -8    3      0.70      0.00
  -13   -8    3      0.48      0.00
  -12   -8    3      0.35      0.00
  -11   -8    3      1.46      0.00
  -10   -8    3      0.99      0.00
   -9   -8    3      0.73      0.00
   -8   -8    3     -0.20      0.00
   -7   -8    3      0.72      0.00
   -6   -8    3     -1.82      0.00
   -5   -8    3     -2.16      0.00
   -4   -8    3     -2.39      0.00
   -3   -8    3     -2.51      0.00
   -2   -8    3     -1.57      0.00
   -1   -8    3      1.25      0.00
    0   -8    3      0.00      0.00
    1   -8    3      0.41      0.00
    2   -8    3     -0.69      0.00
    3   -8    3     -0.53      0.00
    4   -8    3      0.07      0.00
    5   -8    3      0.60      0.00
    6   -8    3     -0.12      0.00
    7   -8    3      0.67      0.00
    8   -8    3     -0.06      0.00
  -15   -7    3      0.66      0.00
  -14   -7    3     -0.22      0.00
  -13   -7    3     -0.36      0.00
  -12   -7    3      0.01      0.00
  -11   -7    3     -0.97      0.00
  -10   -7    3     -1.17      0.00
   -9   -7    3     -1.05      0.00
   -8   -7    3      0.07      0.00
   -7   -7    3     -3.45      0.00
   -6   -7    3      0.07      0.00
   -5   -7    3      1.08      0.00
   -4   -7    3      2.35      0.00
   -3   -7    3      1.90      0.00
   -2   -7    3      2.12      0.00
   -1   -7    3      0.36      0.00
    0   -7    3      0.30      0.00
    1   -7    3      0.27      0.00
    2   -7    3      0.85      0.00
    3   -7    3      0.89      0.00
    4   -7    3      0.25      0.00
    5   -7    3     -0.95      0.00
    6   -7    3      0.29      0.00
    7   -7    3     -0.66      0.00
    8   -7    3      0.09      0.00
    9   -7    3      0.31      0.00
  -15   -6    3     -0.16      0.00
  -14   -6    3     -0.02      0.00
  -13   -6    3      0.00      0.00
  -12   -6    3      0.10      0.00
  -11   -6    3      0.09      0.00
  -10   -6    3      1.24      0.00
   -9   -6    3      0.74      0.00
   -8   -6    3      0.02      0.00
   -7   -6    3      4.19      0.00
   -6   -6    3      2.78      0.00
   -5   -6    3      2.07      0.00
   -4   -6    3     -3.16      0.00
   -3   -6    3      0.47      0.00
   -2   -6    3     -0.40      0.00
   -1   -6    3     -0.62      0.00
    0   -6    3     -0.77      0.00
    1   -6    3     -1.25      0.00
    2   -6    3     -1.73      0.00
    3   -6    3     -1.66      0.00
    4   -6    3     -0.42      0.00
    5   -6    3      1.22      0.00
    6   -6    3     -0.05      0.00
    7   -6    3      0.96      0.00
    8   -6    3     -0.29      0.00
    9   -6    3     -0.50      0.00
   10   -6    3     -0.13      0.00
  -15   -5    3     -0.19      0.00
  -14   -5    3     -0.23      0.00
  -13   -5    3      0.48      0.00
  -12   -5    3     -0.30      0.00
  -11   -5    3      0.44      0.00
  -10   -5    3     -1.14      0.00
   -9   -5    3      0.27      0.00
   -8   -5    3     -0.29      0.00
   -7   -5    3     -2.98      0.00
   -6   -5    3     -4.37      0.00
   -5   -5    3     -6.34      0.00
   -4   -5    3      2.69      0.00
   -3   -5    3     -1.99      0.00
   -2   -5    3     -1.72      0.00
   -1   -5    3     -4.27      0.00
    0   -5    3      0.71      0.00
    1   -5    3      1.03      0.00
    2   -5    3      2.46      0.00
    3   -5    3      3.71      0.00
    4   -5    3      0.60      0.00
    5   -5    3     -0.91      0.00
    6   -5    3     -0.55      0.00
    7   -5    3     -1.13      0.00
    8   -5    3      0.07      0.00
    9   -5    3      0.74      0.00
   10   -5    3      0.52      0.00
   11   -5    3     -0.16      0.00
  -15   -4    3      0.11      0.00
  -14   -4    3      0.21      0.00
  -13   -4    3     -0.03      0.00
  -12   -4    3     -0.39      0.00
  -11   -4    3     -0.23      0.00
  -10   -4    3      0.94      0.00
   -9   -4    3     -1.32      0.00
   -8   -4    3     -0.21      0.00
   -7   -4    3      1.12      0.00
   -6   -4    3      4.33      0.00
   -5   -4    3      6.93      0.00
   -4   -4    3      2.00      0.00
   -3   -4    3      2.48      0.00
   -2   -4    3      0.29      0.00
   -1   -4    3     12.86      0.00
    0   -4    3      3.02      0.00
    1   -4    3      2.01      0.00
    2   -4    3     -2.35      0.00
    3   -4    3     -4.90      0.00
    4   -4    3     -1.96      0.00
    5   -4    3      0.31      0.00
    6   -4    3      0.68      0.00
    7   -4    3      1.37      0.00
    8   -4    3     -0.18      0.00
    9   -4    3     -0.16      0.00
   10   -4    3     -1.12      0.00
   11   -4    3      0.04      0.00
   12   -4    3      0.02      0.00
  -15   -3    3      0.39      0.00
  -14   -3    3      0.26      0.00
  -13   -3    3     -0.67      0.00
  -12   -3    3      0.78      0.00
  -11   -3    3      0.35      0.00
  -10   -3    3     -0.88      0.00
   -9   -3    3      1.48      0.00
   -8   -3    3      1.37      0.00
   -7   -3    3      0.91      0.00
   -6   -3    3     -3.46      0.00
   -5   -3    3     -2.87      0.00
   -4   -3    3     -7.91      0.00
   -3   -3    3     -1.89      0.00
   -2   -3    3      2.66      0.00
   -1   -3    3    -16.33      0.00
    0   -3    3     -8.88      0.00
    1   -3    3    -11.49      0.00
    2   -3    3      0.67      0.00
    3   -3    3      4.14      0.00
    4   -3    3      3.15      0.00
    5   -3    3      0.75      0.00
    6   -3    3     -1.01      0.00
    7   -3    3     -0.63      0.00
    8   -3    3      0.31      0.00
    9   -3    3     -0.62      0.00
   10   -3    3      1.22      0.00
   11   -3    3     -0.10      0.00
   12   -3    3      0.43      0.00
  -14   -2    3     -0.54      0.00
  -13   -2    3      0.41      0.00
  -12   -2    3     -0.33      0.00
  -11   -2    3     -0.55      0.00
  -10   -2    3      0.28      0.00
   -9   -2    3     -0.65      0.00
   -8   -2    3     -1.89      0.00
   -7   -2    3     -2.89      0.00
   -6   -2    3      2.31      0.00
   -5   -2    3     -1.50      0.00
   -4   -2    3      9.43      0.00
   -3   -2    3      0.08      0.00
   -2   -2    3     -1.10      0.00
   -1   -2    3      4.95      0.00
    0   -2    3     11.23      0.00
    1   -2    3     24.65      0.00
    2   -2    3      4.30      0.00
    3   -2    3     -1.54      0.00
    4   -2    3     -2.65      0.00
    5   -2    3     -1.35      0.00
    6   -2    3      1.63      0.00
    7   -2    3     -0.73      0.00
    8   -2    3     -0.30      0.00
    9   -2    3      0.82      0.00
   10   -2    3     -0.91      0.00
   11   -2    3      0.49      0.00
   12   -2    3     -0.39      0.00
   13   -2    3     -0.33      0.00
  -14   -1    3      0.04      0.00
  -13   -1    3      0.26      0.00
  -12   -1    3     -0.12      0.00
  -11   -1    3      0.43      0.00
  -10   -1    3      0.36      0.00
   -9   -1    3      0.10      0.00
   -8   -1    3      1.49      0.00
   -7   -1    3      3.88      0.00
   -6   -1    3     -0.92      0.00
   -5   -1    3      2.70      0.00
   -4   -1    3     -5.40      0.00
   -3   -1    3      1.21      0.00
   -2   -1    3     -6.94      0.00
   -1   -1    3     17.15      0.00
    0   -1    3     -4.15      0.00
    1   -1    3    -30.46      0.00
    2   -1    3     -9.55      0.00
    3   -1    3     -5.18      0.00
    4   -1    3      2.61      0.00
    5   -1    3     -0.33      0.00
    6   -1    3     -1.59      0.00
    7   -1    3      0.68      0.00
    8   -1    3      0.32      0.00
    9   -1    3     -0.02      0.00
   10   -1    3      0.25      0.00
   11   -1    3     -0.85      0.00
   12   -1    3      0.10      0.00
   13   -1    3      0.40      0.00
   14   -1    3      0.38      0.00
  -14    0    3      0.54      0.00
  -13    0    3     -0.33      0.00
  -12    0    3      0.48      0.00
  -11    0    3     -0.28      0.00
  -10    0    3     -0.34      0.00
   -9    0    3     -0.21      0.00
   -8    0    3     -1.07      0.00
   -7    0    3     -3.27      0.00
   -6    0    3     -1.01      0.00
   -5    0    3     -1.79      0.00
   -4    0    3      0.45      0.00
   -3    0    3     -0.89      0.00
   -2    0    3     13.61      0.00
   -1    0    3    -27.09      0.00
    0    0    3    -10.76      0.00
    1    0    3     16.01      0.00
    2    0    3     14.14      0.00
    3    0    3     11.30      0.00
    4    0    3     -4.35      0.00
    5    0    3      3.48      0.00
    6    0    3      1.87      0.00
    7    0    3      0.28      0.00
    8    0    3     -0.31      0.00
    9    0    3     -0.66      0.00
   10    0    3      0.44      0.00
   11    0    3      1.01      0.00
   12    0    3     -0.26      0.00
   13    0    3      0.21      0.00
   14    0    3     -0.37      0.00
  -13    1    3      0.19      0.00
  -12    1    3     -0.86      0.00
  -11    1    3      0.02      0.00
  -10    1    3     -0.35      0.00
   -9    1    3      0.55      0.00
   -8    1    3      0.55      0.00
   -7    1    3      2.02      0.00
   -6    1    3      2.49      0.00
   -5    1    3      1.59      0.00
   -4    1    3      1.80      0.00
   -3    1    3      0.10      0.00
   -2    1    3    -12.77      0.00
   -1    1    3     16.52      0.00
    1    1    3     14.02      0.00
    2    1    3    -16.16      0.00
    3    1    3    -10.06      0.00
    4    1    3      7.58      0.00
    5    1    3     -5.90      0.00
    6    1    3     -2.49      0.00
    7    1    3     -1.00      0.00
    8    1    3      0.61      0.00
    9    1    3      0.30      0.00
   10    1    3     -0.85      0.00
   11    1    3     -0.72      0.00
   12    1    3     -0.07      0.00
   13    1    3     -0.41      0.00
   14    1    3      0.20      0.00
  -13    2    3     -0.51      0.00
  -12    2    3      0.62      0.00
  -11    2    3      0.32      0.00
  -10    2    3      1.16      0.00
   -9    2    3     -0.62      0.00
   -8    2    3      0.34      0.00
   -7    2    3     -1.22      0.00
   -6    2    3     -1.95      0.00
   -5    2    3     -2.62      0.00
   -4    2    3     -1.76      0.00
   -3    2    3     -0.84      0.00
   -2    2    3      8.52      0.00
   -1    2    3     -0.94      0.00
    1    2    3    -29.98      0.00
    2    2    3      9.04      0.00
    3    2    3      2.77      0.00
    4    2    3     -8.62      0.00
    5    2    3      4.19      0.00
    6    2    3      1.95      0.00
    7    2    3      1.56      0.00
    8    2    3     -1.04      0.00
    9    2    3      0.01      0.00
   10    2    3      0.66      0.00
   11    2    3      0.30      0.00
   12    2    3      1.27      0.00
   13    2    3     -0.11      0.00
   14    2    3     -0.05      0.00
   15    2    3     -0.39      0.00
  -12    3    3      0.11      0.00
  -11    3    3     -0.16      0.00
  -10    3    3     -1.13      0.00
   -9    3    3      0.19      0.00
   -8    3    3     -1.07      0.00
   -7    3    3      0.61      0.00
   -6    3    3      0.53      0.00
   -5    3    3      2.54      0.00
   -4    3    3      1.59      0.00
   -3    3    3      1.57      0.00
   -2    3    3     -4.10      0.00
   -1    3    3     -7.45      0.00
    0    3    3      4.79      0.00
    1    3    3     20.69      0.00
    2    3    3      1.33      0.00
    3    3    3      4.99      0.00
    4    3    3      5.21      0.00
    5    3    3      1.25      0.00
    6    3    3     -0.13      0.00
    7    3    3     -2.44      0.00
    8    3    3      2.30      0.00
    9    3    3      0.13      0.00
   10    3    3      0.17      0.00
   11    3    3      0.04      0.00
   12    3    3     -1.97      0.00
   13    3    3      0.71      0.00
   14    3    3     -0.67      0.00
   15    3    3      0.63      0.00
  -12    4    3     -0.11      0.00
  -11    4    3     -0.53      0.00
  -10    4    3      0.05      0.00
   -9    4    3      0.22      0.00
   -8    4    3      1.01      0.00
   -7    4    3      0.16      0.00
   -6    4    3      0.08      0.00
   -5    4    3     -1.04      0.00
   -4    4    3     -1.39      0.00
   -3    4    3     -1.34      0.00
   -2    4    3      1.63      0.00
   -1    4    3      6.43      0.00
    0    4    3      0.90      0.00
    1    4    3     -4.85      0.00
    3    4    3     -7.03      0.00
    4    4    3     -2.16      0.00
    5    4    3     -4.89      0.00
    6    4    3     -0.91      0.00
    7    4    3      2.98      0.00
    8    4    3     -3.77      0.00
    9    4    3     -0.91      0.00
   10    4    3     -0.60      0.00
   11    4    3     -0.50      0.00
   12    4    3      1.07      0.00
   13    4    3     -0.67      0.00
   14    4    3      1.24      0.00
   15    4    3     -0.76      0.00
  -11    5    3      0.72      0.00
  -10    5    3      0.73      0.00
   -9    5    3      0.45      0.00
   -8    5    3     -0.64      0.00
   -7    5    3     -0.15      0.00
   -6    5    3     -0.63      0.00
   -5    5    3      0.39      0.00
   -4    5    3      0.54      0.00
   -3    5    3      1.06      0.00
   -2    5    3     -1.70      0.00
   -1    5    3     -1.76      0.00
    0    5    3     -2.86      0.00
    1    5    3     -4.03      0.00
    2    5    3      3.15      0.00
    3    5    3      4.04      0.00
    4    5    3      2.33      0.00
    5    5    3      4.66      0.00
    6    5    3     -0.33      0.00
    7    5    3     -2.20      0.00
    8    5    3      3.14      0.00
    9    5    3      1.94      0.00
   10    5    3      0.62      0.00
   11    5    3      0.84      0.00
   12    5    3      0.31      0.00
   13    5    3      0.56      0.00
   14    5    3     -1.12      0.00
   15    5    3      0.88      0.00
   16    5    3     -0.53      0.00
  -10    6    3     -0.41      0.00
   -9    6    3     -1.28      0.00
   -8    6    3     -0.01      0.00
   -7    6    3     -0.06      0.00
   -6    6    3      0.55      0.00
   -5    6    3     -0.32      0.00
   -4    6    3     -0.10      0.00
   -3    6    3     -0.48      0.00
   -2    6    3      1.49      0.00
   -1    6    3     -0.27      0.00
    0    6    3      1.79      0.00
    1    6    3      4.75      0.00
    2    6    3      1.10      0.00
    3    6    3     -0.21      0.00
    4    6    3     -4.00      0.00
    5    6    3     -3.13      0.00
    6    6    3      1.98      0.00
    7    6    3      1.49      0.00
    8    6    3     -1.09      0.00
    9    6    3     -1.90      0.00
   10    6    3     -0.44      0.00
   11    6    3     -0.83      0.00
   12    6    3     -0.99      0.00
   13    6    3     -0.63      0.00
   14    6    3      0.59      0.00
   15    6    3     -0.89      0.00
   16    6    3      0.78      0.00
  -10    7    3      0.12      0.00
   -9    7    3      0.63      0.00
   -8    7    3      0.60      0.00
   -7    7    3     -0.12      0.00
   -6    7    3      0.23      0.00
   -5    7    3      0.36      0.00
   -4    7    3     -0.20      0.00
   -3    7    3      0.29      0.00
   -2    7    3     -0.67      0.00
   -1    7    3      0.09      0.00
    0    7    3     -0.80      0.00
    1    7    3     -2.03      0.00
    2    7    3     -3.00      0.00
    3    7    3     -2.89      0.00
    4    7    3      4.21      0.00
    5    7    3      2.41      0.00
    6    7    3     -1.30      0.00
    7    7    3     -2.12      0.00
    8    7    3     -0.26      0.00
    9    7    3      0.84      0.00
   10    7    3      0.05      0.00
   11    7    3      0.11      0.00
   12    7    3      1.46      0.00
   13    7    3      0.47      0.00
   14    7    3     -0.32      0.00
   15    7    3      0.66      0.00
   16    7    3     -0.40      0.00
   -9    8    3      0.08      0.00
   -8    8    3     -0.21      0.00
   -7    8    3      0.41      0.00
   -6    8    3     -0.58      0.00
   -5    8    3     -0.57      0.00
   -4    8    3      0.30      0.00
   -3    8    3     -0.54      0.00
   -2    8    3      0.22      0.00
   -1    8    3      0.23      0.00
    0    8    3      0.36      0.00
    1    8    3      0.34      0.00
    2    8    3      2.53      0.00
    3    8    3      3.48      0.00
    4    8    3     -1.87      0.00
    5    8    3     -1.79      0.00
    6    8    3     -1.00      0.00
    7    8    3      2.22      0.00
    8    8    3      0.65      0.00
    9    8    3      0.31      0.00
   10    8    3      0.41      0.00
   11    8    3      0.30      0.00
   12    8    3     -1.17      0.00
   13    8    3     -0.73      0.00
   14    8    3      0.21      0.00
   15    8    3      0.02      0.00
   16    8    3     -0.04      0.00
   -8    9    3      0.08      0.00
   -7    9    3     -1.09      0.00
   -6    9    3      0.46      0.00
   -5    9    3      0.56      0.00
   -4    9    3      0.09      0.00
   -3    9    3      0.56      0.00
   -2    9    3      0.00      0.00
   -1    9    3      0.10      0.00
    0    9    3     -0.51      0.00
    1    9    3      0.30      0.00
    2    9    3     -1.78      0.00
    3    9    3     -2.14      0.00
    4    9    3     -0.83      0.00
    5    9    3      0.98      0.00
    6    9    3      1.78      0.00
    7    9    3     -0.71      0.00
    8    9    3      0.00      0.00
    9    9    3     -0.91      0.00
   10    9    3     -0.97      0.00
   11    9    3     -0.13      0.00
   12    9    3      0.56      0.00
   13    9    3      1.08      0.00
   14    9    3      0.36      0.00
   15    9    3     -0.56      0.00
   16    9    3     -0.05      0.00
   -7   10    3      1.00      0.00
   -6   10    3     -0.08      0.00
   -5   10    3     -0.25      0.00
   -4   10    3     -0.74      0.00
   -3   10    3     -0.30      0.00
   -2   10    3     -0.23      0.00
   -1   10    3     -0.66      0.00
    0   10    3      0.66      0.00
    1   10    3     -0.51      0.00
    2   10    3      1.09      0.00
    3   10    3      0.92      0.00
    4   10    3      1.92      0.00
    5   10    3     -0.22      0.00
    6   10    3     -0.94      0.00
    7   10    3     -0.54      0.00
    8   10    3     -1.13      0.00
    9   10    3      0.47      0.00
   10   10    3      0.82      0.00
   11   10    3      0.83      0.00
   12   10    3     -0.25      0.00
   13   10    3     -1.41      0.00
   14   10    3     -0.27      0.00
   15   10    3     -0.22      0.00
   -6   11    3      0.06      0.00
   -5   11    3     -0.40      0.00
   -4   11    3      1.33      0.00
   -3   11    3      0.41      0.00
   -2   11    3      0.12      0.00
   -1   11    3      0.73      0.00
    0   11    3     -0.06      0.00
    1   11    3      0.33      0.00
    2   11    3     -0.38      0.00
    3   11    3     -0.44      0.00
    4   11    3     -1.51      0.00
    5   11    3     -0.30      0.00
    6   11    3     -0.29      0.00
    7   11    3      0.85      0.00
    8   11    3      1.32      0.00
    9   11    3      0.60      0.00
   10   11    3      0.06      0.00
   11   11    3     -1.44      0.00
   12   11    3     -0.10      0.00
   13   11    3      1.05      0.00
   14   11    3     -0.15      0.00
   15   11    3      0.82      0.00
   -4   12    3     -1.02      0.00
   -3   12    3     -0.81      0.00
   -2   12    3     -0.22      0.00
   -1   12    3     -0.34      0.00
    0   12    3     -0.53      0.00
    1   12    3     -0.22      0.00
    2   12    3     -0.15      0.00
    3   12    3      0.06      0.00
    4   12    3      1.02      0.00
    5   12    3      0.10      0.00
    6   12    3      1.13      0.00
    7   12    3     -0.14      0.00
    8   12    3     -0.98      0.00
    9   12    3     -1.00      0.00
   10   12    3     -0.52      0.00
   11   12    3      0.96      0.00
   12   12    3     -0.28      0.00
   13   12    3      0.25      0.00
   14   12    3      0.13      0.00
   15   12    3     -0.46      0.00
   -3   13    3      0.41      0.00
   -2   13    3      0.53      0.00
   -1   13    3      0.35      0.00
    0   13    3      0.23      0.00
    1   13    3      0.50      0.00
    2   13    3      0.32      0.00
    3   13    3      0.27      0.00
    4   13    3     -0.30      0.00
    5   13    3     -0.11      0.00
    6   13    3     -0.65      0.00
    7   13    3     -0.91      0.00
    8   13    3      0.38      0.00
    9   13    3      0.55      0.00
   10   13    3      0.39      0.00
   11   13    3     -0.35      0.00
   12   13    3      0.76      0.00
   13   13    3     -0.46      0.00
   14   13    3     -0.05      0.00
   -1   14    3     -0.59      0.00
    0   14    3      0.15      0.00
    1   14    3     -0.51      0.00
    2   14    3     -0.38      0.00
    3   14    3     -0.23      0.00
    4   14    3     -0.51      0.00
    5   14    3      0.06      0.00
    6   14    3      0.04      0.00
    7   14    3      0.59      0.00
    8   14    3      0.36      0.00
    9   14    3      0.38      0.00
   10   14    3     -0.32      0.00
   11   14    3      0.36      0.00
   12   14    3     -0.51      0.00
   13   14    3     -0.01      0.00
    1   15    3      0.28      0.00
    2   15    3      0.13      0.00
    3   15    3      0.21      0.00
    4   15    3      0.45      0.00
    5   15    3      0.48      0.00
    6   15    3     -0.04      0.00
    7   15    3      0.40      0.00
    8   15    3     -0.18      0.00
    9   15    3     -1.03      0.00
   10   15    3      0.09      0.00
   11   15    3     -0.48      0.00
   12   15    3      0.10      0.00
    4   16    3     -0.15      0.00
    5   16    3     -0.52      0.00
    6   16    3      0.27      0.00
    7   16    3     -0.87      0.00
    8   16    3     -0.29      0.00
    9   16    3      0.48      0.00
   10   16    3      0.54      0.00
   -7  -15    4      0.18      0.00
   -6  -15    4      0.12      0.00
   -5  -15    4      0.10      0.00
  -10  -14    4     -1.01      0.00
   -9  -14    4      0.12      0.00
   -8  -14    4     -0.86      0.00
   -7  -14    4     -0.10      0.00
   -6  -14    4     -0.52      0.00
   -5  -14    4     -0.92      0.00
   -4  -14    4      0.34      0.00
   -3  -14    4     -0.56      0.00
   -2  -14    4     -0.20      0.00
   -1  -14    4     -0.26      0.00
  -12  -13    4     -0.26      0.00
  -11  -13    4     -0.08      0.00
  -10  -13    4      1.06      0.00
   -9  -13    4      0.09      0.00
   -8  -13    4      0.22      0.00
   -7  -13    4     -0.20      0.00
   -6  -13    4      0.38      0.00
   -5  -13    4      1.03      0.00
   -4  -13    4      0.32      0.00
   -3  -13    4     -0.26      0.00
   -2  -13    4      0.88      0.00
   -1  -13    4      0.55      0.00
    0  -13    4     -0.28      0.00
    1  -13    4      0.97      0.00
  -13  -12    4      0.27      0.00
  -12  -12    4      0.51      0.00
  -11  -12    4      0.18      0.00
  -10  -12    4     -0.87      0.00
   -9  -12    4     -0.52      0.00
   -8  -12    4      0.05      0.00
   -7  -12    4      1.01      0.00
   -6  -12    4     -0.34      0.00
   -5  -12    4     -0.32      0.00
   -4  -12    4     -0.20      0.00
   -3  -12    4      0.09      0.00
   -2  -12    4     -0.41      0.00
   -1  -12    4     -0.73      0.00
    0  -12    4     -0.72      0.00
    1  -12    4     -0.88      0.00
    2  -12    4      0.53      0.00
    3  -12    4     -0.74      0.00
  -14  -11    4      0.14      0.00
  -13  -11    4      0.07      0.00
  -12  -11    4     -0.08      0.00
  -11  -11    4     -0.12      0.00
  -10  -11    4      0.65      0.00
   -9  -11    4      1.00      0.00
   -8  -11    4      0.39      0.00
   -7  -11    4     -1.14      0.00
   -6  -11    4     -0.55      0.00
   -5  -11    4      0.48      0.00
   -4  -11    4     -1.15      0.00
   -3  -11    4      0.08      0.00
   -2  -11    4     -0.23      0.00
   -1  -11    4      0.23      0.00
    0  -11    4      1.93      0.00
    1  -11    4     -0.10      0.00
    2  -11    4      0.49      0.00
    3  -11    4      0.43      0.00
    4  -11    4     -0.56      0.00
    5  -11    4      0.01      0.00
  -14  -10    4      0.14      0.00
  -13  -10    4     -0.25      0.00
  -12  -10    4     -0.04      0.00
  -11  -10    4     -0.37      0.00
  -10  -10    4     -0.39      0.00
   -9  -10    4     -1.55      0.00
   -8  -10    4     -0.95      0.00
   -7  -10    4      0.10      0.00
   -6  -10    4      0.84      0.00
   -5  -10    4     -0.41      0.00
   -4  -10    4      1.55      0.00
   -3  -10    4      0.65      0.00
   -2  -10    4      1.08      0.00
   -1  -10    4      0.24      0.00
    0  -10    4     -1.94      0.00
    1  -10    4      0.35      0.00
    2  -10    4     -0.74      0.00
    3  -10    4     -0.05      0.00
    4  -10    4      0.77      0.00
    5  -10    4      0.16      0.00
    6  -10    4     -0.15      0.00
  -14   -9    4     -0.43      0.00
  -13   -9    4      0.36      0.00
  -12   -9    4     -0.27      0.00
  -11   -9    4      0.24      0.00
  -10   -9    4      0.61      0.00
   -9   -9    4      1.64      0.00
   -8   -9    4      1.27      0.00
   -7   -9    4      1.08      0.00
   -6   -9    4      0.50      0.00
   -5   -9    4      0.62      0.00
   -4   -9    4     -1.02      0.00
   -3   -9    4     -0.70      0.00
   -2   -9    4     -2.36      0.00
   -1   -9    4     -0.47      0.00
    0   -9    4      0.70      0.00
    1   -9    4      0.23      0.00
    2   -9    4      0.58      0.00
    3   -9    4     -0.53      0.00
    4   -9    4     -0.52      0.00
    5   -9    4     -0.47      0.00
    6   -9    4     -0.25      0.00
    7   -9    4     -0.61      0.00
  -15   -8    4      0.40      0.00
  -14   -8    4      0.80      0.00
  -13   -8    4     -0.08      0.00
  -12   -8    4      0.19      0.00
  -11   -8    4      0.49      0.00
  -10   -8    4     -0.60      0.00
   -9   -8    4     -1.62      0.00
   -8   -8    4     -0.87      0.00
   -7   -8    4     -1.62      0.00
   -6   -8    4     -2.14      0.00
   -5   -8    4     -1.67      0.00
   -4   -8    4     -0.77      0.00
   -3   -8    4      0.09      0.00
   -2   -8    4      2.23      0.00
   -1   -8    4      0.98      0.00
    0   -8    4      0.32      0.00
    1   -8    4     -0.06      0.00
    2   -8    4     -0.77      0.00
    3   -8    4      0.49      0.00
    4   -8    4      0.74      0.00
    5   -8    4      0.43      0.00
    6   -8    4      0.16      0.00
    7   -8    4      0.89      0.00
    8   -8    4     -0.28      0.00
  -15   -7    4      0.23      0.00
  -14   -7    4     -0.90      0.00
  -13   -7    4     -0.29      0.00
  -12   -7    4     -0.14      0.00
  -11   -7    4     -0.78      0.00
  -10   -7    4      0.01      0.00
   -9   -7    4      1.53      0.00
   -8   -7    4      0.28      0.00
   -7   -7    4      0.84      0.00
   -6   -7    4      2.83      0.00
   -5   -7    4      2.91      0.00
   -4   -7    4      2.77      0.00
   -3   -7    4      1.06      0.00
   -2   -7    4      0.13      0.00
   -1   -7    4     -1.28      0.00
    0   -7    4     -0.15      0.00
    1   -7    4     -0.36      0.00
    2   -7    4      0.41      0.00
    3   -7    4      0.29      0.00
    4   -7    4     -1.14      0.00
    5   -7    4     -0.28      0.00
    6   -7    4     -0.07      0.00
    7   -7    4     -0.48      0.00
    8   -7    4      0.38      0.00
    9   -7    4     -1.24      0.00
  -15   -6    4     -0.35      0.00
  -14   -6    4      0.28      0.00
  -13   -6    4      0.36      0.00
  -12   -6    4      0.30      0.00
  -11   -6    4      0.65      0.00
  -10   -6    4      0.81      0.00
   -9   -6    4     -1.49      0.00
   -8   -6    4      0.56      0.00
   -7   -6    4     -0.14      0.00
   -6   -6    4     -0.71      0.00
   -5   -6    4     -4.65      0.00
   -4   -6    4     -3.42      0.00
   -3   -6    4     -1.82      0.00
   -2   -6    4     -2.94      0.00
   -1   -6    4     -0.27      0.00
    0   -6    4     -1.09      0.00
    1   -6    4      0.09      0.00
    2   -6    4     -0.31      0.00
    3   -6    4     -0.33      0.00
    4   -6    4      0.90      0.00
    5   -6    4      0.49      0.00
    6   -6    4      0.15      0.00
    7   -6    4      0.06      0.00
    8   -6    4     -0.68      0.00
    9   -6    4      0.89      0.00
   10   -6    4      0.21      0.00
  -15   -5    4     -0.18      0.00
  -14   -5    4      0.30      0.00
  -13   -5    4      0.10      0.00
  -12   -5    4     -0.45      0.00
  -11   -5    4     -0.36      0.00
  -10   -5    4     -1.49      0.00
   -9   -5    4      1.36      0.00
   -8   -5    4     -1.60      0.00
   -7   -5    4     -0.04      0.00
   -6   -5    4     -2.89      0.00
   -5   -5    4      5.09      0.00
   -4   -5    4      2.69      0.00
   -3   -5    4      2.70      0.00
   -2   -5    4      2.39      0.00
   -1   -5    4      2.96      0.00
    0   -5    4      4.02      0.00
    1   -5    4      0.64      0.00
    2   -5    4      1.65      0.00
    3   -5    4      0.12      0.00
    4   -5    4     -0.89      0.00
    5   -5    4     -0.48      0.00
    6   -5    4     -0.64      0.00
    7   -5    4      0.30      0.00
    8   -5    4      0.28      0.00
    9   -5    4      0.28      0.00
   10   -5    4     -0.55      0.00
   11   -5    4     -1.08      0.00
  -15   -4    4      0.40      0.00
  -14   -4    4     -0.04      0.00
  -13   -4    4     -0.45      0.00
  -12   -4    4     -0.11      0.00
  -11   -4    4      0.57      0.00
  -10   -4    4      1.20      0.00
   -9   -4    4     -0.78      0.00
   -8   -4    4      1.79      0.00
   -7   -4    4      0.95      0.00
   -6   -4    4      4.74      0.00
   -5   -4    4     -3.20      0.00
   -4   -4    4      0.47      0.00
   -3   -4    4     -5.17      0.00
   -2   -4    4      2.25      0.00
   -1   -4    4     -3.11      0.00
    0   -4    4     -6.93      0.00
    1   -4    4     -2.36      0.00
    2   -4    4     -3.86      0.00
    3   -4    4     -0.72      0.00
    4   -4    4      0.78      0.00
    5   -4    4      0.44      0.00
    6   -4    4      1.07      0.00
    7   -4    4     -0.52      0.00
    8   -4    4      0.31      0.00
    9   -4    4     -0.83      0.00
   10   -4    4      0.45      0.00
   11   -4    4      0.77      0.00
   12   -4    4      0.16      0.00
  -15   -3    4      0.10      0.00
  -14   -3    4     -0.46      0.00
  -13   -3    4      0.18      0.00
  -12   -3    4      0.80      0.00
  -11   -3    4     -0.71      0.00
  -10   -3    4     -0.72      0.00
   -9   -3    4      0.41      0.00
   -8   -3    4     -1.00      0.00
   -7   -3    4     -2.03      0.00
   -6   -3    4     -4.63      0.00
   -5   -3    4      0.58      0.00
   -4   -3    4     -4.37      0.00
   -3   -3    4      6.81      0.00
   -2   -3    4     -8.43      0.00
   -1   -3    4      1.43      0.00
    0   -3    4      3.82      0.00
    1   -3    4      3.24      0.00
    2   -3    4      7.71      0.00
    3   -3    4      0.86      0.00
    4   -3    4      0.68      0.00
    5   -3    4     -1.24      0.00
    6   -3    4     -0.26      0.00
    7   -3    4      0.37      0.00
    8   -3    4     -0.60      0.00
    9   -3    4      0.65      0.00
   10   -3    4     -0.27      0.00
   11   -3    4     -0.24      0.00
   12   -3    4     -0.17      0.00
  -14   -2    4      0.44      0.00
  -13   -2    4     -0.10      0.00
  -12   -2    4     -0.49      0.00
  -11   -2    4      0.18      0.00
  -10   -2    4      0.50      0.00
   -9   -2    4     -0.13      0.00
   -8   -2    4     -0.20      0.00
   -7   -2    4      1.83      0.00
   -6   -2    4      4.20      0.00
   -5   -2    4      0.83      0.00
   -4   -2    4      5.77      0.00
   -3   -2    4     -4.75      0.00
   -2   -2    4     12.05      0.00
   -1   -2    4     -2.22      0.00
    0   -2    4      9.11      0.00
    1   -2    4     -2.13      0.00
    2   -2    4     -9.31      0.00
    3   -2    4     -1.36      0.00
    4   -2    4     -2.14      0.00
    5   -2    4      2.19      0.00
    6   -2    4     -0.96      0.00
    7   -2    4     -0.58      0.00
    8   -2    4      0.77      0.00
    9   -2    4     -0.60      0.00
   10   -2    4      0.43      0.00
   11   -2    4     -0.09      0.00
   12   -2    4     -0.22      0.00
   13   -2    4      0.08      0.00
  -14   -1    4      0.01      0.00
  -13   -1    4      0.40      0.00
  -12   -1    4     -0.04      0.00
  -11   -1    4      0.23      0.00
  -10   -1    4     -0.15      0.00
   -9   -1    4     -0.04      0.00
   -8   -1    4      0.83      0.00
   -7   -1    4     -0.53      0.00
   -6   -1    4     -3.81      0.00
   -5   -1    4     -0.79      0.00
   -4   -1    4     -4.54      0.00
   -3   -1    4      0.02      0.00
   -2   -1    4    -10.76      0.00
   -1   -1    4      7.44      0.00
    0   -1    4    -24.88      0.00
    1   -1    4      0.98      0.00
    2   -1    4      2.04      0.00
    3   -1    4      3.06      0.00
    4   -1    4      3.02      0.00
    5   -1    4     -3.57      0.00
    6   -1    4      1.59      0.00
    7   -1    4      0.63      0.00
    8   -1    4      0.07      0.00
    9   -1    4      0.31      0.00
   10   -1    4     -0.84      0.00
   11   -1    4      0.62      0.00
   12   -1    4      0.31      0.00
   13   -1    4      0.62      0.00
   14   -1    4     -0.49      0.00
  -14    0    4      0.07      0.00
  -13    0    4     -0.49      0.00
  -12    0    4      0.07      0.00
  -11    0    4     -0.35      0.00
  -10    0    4     -0.15      0.00
   -9    0    4     -0.21      0.00
   -8    0    4     -0.97      0.00
   -7    0    4     -0.48      0.00
   -6    0    4      2.45      0.00
   -5    0    4      0.82      0.00
   -4    0    4      2.55      0.00
   -3    0    4      3.40      0.00
   -2    0    4      7.56      0.00
   -1    0    4    -11.32      0.00
    0    0    4     25.44      0.00
    1    0    4      1.46      0.00
    2    0    4     11.70      0.00
    3    0    4     -6.67      0.00
    4    0    4     -1.62      0.00
    5    0    4      5.28      0.00
    6    0    4     -1.29      0.00
    7    0    4     -0.33      0.00
    8    0    4     -1.06      0.00
    9    0    4      0.28      0.00
   10    0    4      1.12      0.00
   11    0    4     -1.29      0.00
   12    0    4      0.02      0.00
   13    0    4     -1.16      0.00
   14    0    4      0.05      0.00
  -13    1    4      0.22      0.00
  -12    1    4     -0.14      0.00
  -11    1    4      0.19      0.00
  -10    1    4      0.43      0.00
   -9    1    4      0.40      0.00
   -8    1    4      1.18      0.00
   -7    1    4      0.86      0.00
   -6    1    4     -0.35      0.00
   -5    1    4     -1.07      0.00
   -4    1    4     -0.91      0.00
   -3    1    4     -3.91      0.00
   -2    1    4     -5.25      0.00
   -1    1    4      8.08      0.00
    0    1    4     -9.32      0.00
    1    1    4     -2.04      0.00
    2    1    4    -22.79      0.00
    3    1    4     12.60      0.00
    4    1    4     -3.36      0.00
    5    1    4     -5.08      0.00
    6    1    4     -0.07      0.00
    7    1    4     -0.21      0.00
    8    1    4      1.20      0.00
    9    1    4     -1.11      0.00
   10    1    4     -0.81      0.00
   11    1    4      1.07      0.00
   12    1    4     -0.28      0.00
   13    1    4      1.63      0.00
   14    1    4      0.39      0.00
  -13    2    4     -0.39      0.00
  -12    2    4      0.55      0.00
  -11    2    4      0.22      0.00
  -10    2    4     -0.48      0.00
   -9    2    4     -0.20      0.00
   -8    2    4     -1.15      0.00
   -7    2    4     -1.05      0.00
   -6    2    4     -0.94      0.00
   -5    2    4      0.13      0.00
   -4    2    4      0.05      0.00
   -3    2    4      2.16      0.00
   -2    2    4      4.91      0.00
   -1    2    4     -3.58      0.00
    0    2    4     -3.22      0.00
    1    2    4     -1.46      0.00
    2    2    4     20.83      0.00
    3    2    4    -14.38      0.00
    4    2    4      6.74      0.00
    5    2    4      1.30      0.00
    6    2    4      2.50      0.00
    7    2    4      0.80      0.00
    8    2    4     -0.78      0.00
    9    2    4      1.45      0.00
   10    2    4      0.72      0.00
   11    2    4      0.09      0.00
   12    2    4      0.10      0.00
   13    2    4     -1.74      0.00
   14    2    4     -0.42      0.00
   15    2    4     -0.12      0.00
  -12    3    4     -0.51      0.00
  -11    3    4     -0.23      0.00
  -10    3    4     -0.10      0.00
   -9    3    4     -0.29      0.00
   -8    3    4      0.62      0.00
   -7    3    4      0.95      0.00
   -6    3    4      0.95      0.00
   -5    3    4      1.09      0.00
   -4    3    4      0.57      0.00
   -3    3    4      0.14      0.00
   -2    3    4     -4.63      0.00
   -1    3    4      1.63      0.00
    0    3    4      4.99      0.00
    1    3    4      2.95      0.00
    2    3    4     -8.37      0.00
    3    3    4     10.04      0.00
    4    3    4     -5.31      0.00
    5    3    4      4.37      0.00
    6    3    4     -5.00      0.00
    7    3    4      0.25      0.00
    8    3    4      0.20      0.00
    9    3    4     -1.45      0.00
   10    3    4     -0.88      0.00
   11    3    4     -1.30      0.00
   12    3    4      0.27      0.00
   13    3    4      1.05      0.00
   14    3    4      0.14      0.00
   15    3    4      0.89      0.00
  -12    4    4     -0.08      0.00
  -11    4    4     -0.51      0.00
  -10    4    4      0.58      0.00
   -9    4    4      0.82      0.00
   -8    4    4     -0.04      0.00
   -7    4    4      0.07      0.00
   -6    4    4     -0.98      0.00
   -5    4    4     -0.45      0.00
   -4    4    4     -1.62      0.00
   -3    4    4     -0.69      0.00
   -2    4    4      2.13      0.00
   -1    4    4     -0.55      0.00
    0    4    4     -2.04      0.00
    1    4    4     -2.27      0.00
    2    4    4     -0.23      0.00
    3    4    4     -5.31      0.00
    4    4    4      1.34      0.00
    5    4    4     -6.44      0.00
    6    4    4      5.05      0.00
    7    4    4     -2.82      0.00
    8    4    4     -0.55      0.00
    9    4    4      1.54      0.00
   10    4    4      0.90      0.00
   11    4    4      1.33      0.00
   12    4    4     -0.04      0.00
   13    4    4      0.00      0.00
   14    4    4     -0.17      0.00
   15    4    4     -1.01      0.00
  -11    5    4      1.00      0.00
  -10    5    4      0.13      0.00
   -9    5    4     -0.61      0.00
   -8    5    4     -0.65      0.00
   -7    5    4     -1.01      0.00
   -6    5    4      0.73      0.00
   -5    5    4     -0.47      0.00
   -4    5    4      1.44      0.00
   -3    5    4      0.20      0.00
   -2    5    4      0.22      0.00
   -1    5    4      0.73      0.00
    0    5    4     -1.08      0.00
    1    5    4      1.63      0.00
    2    5    4      1.50      0.00
    3    5    4      2.85      0.00
    4    5    4      1.74      0.00
    5    5    4      3.38      0.00
    6    5    4     -3.07      0.00
    7    5    4      4.64      0.00
    8    5    4      1.59      0.00
    9    5    4     -0.43      0.00
   10    5    4     -0.87      0.00
   11    5    4     -0.51      0.00
   12    5    4     -0.30      0.00
   13    5    4     -0.74      0.00
   14    5    4      0.38      0.00
   15    5    4      0.35      0.00
   16    5    4     -0.36      0.00
  -10    6    4     -1.07      0.00
   -9    6    4     -0.70      0.00
   -8    6    4      1.29      0.00
   -7    6    4      0.69      0.00
   -6    6    4      0.06      0.00
   -5    6    4      0.60      0.00
   -4    6    4     -0.32      0.00
   -3    6    4      0.26      0.00
   -2    6    4     -0.93      0.00
   -1    6    4     -0.84      0.00
    0    6    4      1.48      0.00
    1    6    4     -0.60      0.00
    2    6    4      0.26      0.00
    3    6    4     -2.82      0.00
    4    6    4     -2.46      0.00
    5    6    4      0.35      0.00
    6    6    4      2.13      0.00
    7    6    4     -4.25      0.00
    8    6    4     -2.19      0.00
    9    6    4     -1.34      0.00
   10    6    4      0.47      0.00
   11    6    4     -0.46      0.00
   12    6    4      0.33      0.00
   13    6    4      0.69      0.00
   14    6    4     -0.01      0.00
   15    6    4     -0.12      0.00
   16    6    4      0.26      0.00
  -10    7    4      1.05      0.00
   -9    7    4      1.38      0.00
   -8    7    4     -0.60      0.00
   -7    7    4     -0.18      0.00
   -6    7    4     -0.15      0.00
   -5    7    4     -0.84      0.00
   -4    7    4     -0.14      0.00
   -3    7    4     -0.58      0.00
   -2    7    4      0.66      0.00
   -1    7    4      0.32      0.00
    0    7    4     -0.34      0.00
    1    7    4     -0.06      0.00
    2    7    4     -1.81      0.00
    3    7    4      3.03      0.00
    4    7    4      2.28      0.00
    5    7    4     -1.14      0.00
    6    7    4     -2.65      0.00
    7    7    4      1.76      0.00
    8    7    4      2.11      0.00
    9    7    4      1.94      0.00
   10    7    4     -0.12      0.00
   11    7    4      1.32      0.00
   12    7    4      0.18      0.00
   13    7    4     -0.68      0.00
   14    7    4     -0.36      0.00
   15    7    4      0.20      0.00
   16    7    4     -0.16      0.00
   -9    8    4     -0.90      0.00
   -8    8    4     -0.07      0.00
   -7    8    4     -0.26      0.00
   -6    8    4     -0.11      0.00
   -5    8    4      0.61      0.00
   -4    8    4      0.21      0.00
   -3    8    4      0.80      0.00
   -2    8    4     -0.14      0.00
   -1    8    4     -0.10      0.00
    0    8    4     -0.28      0.00
    1    8    4      0.44      0.00
    2    8    4      1.48      0.00
    3    8    4     -1.87      0.00
    4    8    4     -1.83      0.00
    5    8    4     -0.40      0.00
    6    8    4      2.39      0.00
    7    8    4      0.93      0.00
    8    8    4     -1.03      0.00
    9    8    4     -1.20      0.00
   10    8    4      0.00      0.00
   11    8    4     -1.40      0.00
   12    8    4     -0.89      0.00
   13    8    4      0.36      0.00
   14    8    4      0.90      0.00
   15    8    4     -0.11      0.00
   16    8    4     -0.01      0.00
   -8    9    4     -0.45      0.00
   -7    9    4      0.24      0.00
   -6    9    4      0.32      0.00
   -5    9    4     -0.08      0.00
   -4    9    4     -0.27      0.00
   -3    9    4     -0.88      0.00
   -2    9    4     -0.12      0.00
   -1    9    4     -0.06      0.00
    0    9    4      0.14      0.00
    1    9    4     -0.18      0.00
    2    9    4     -0.89      0.00
    3    9    4      0.54      0.00
    4    9    4      1.17      0.00
    5    9    4      1.63      0.00
    6    9    4     -1.17      0.00
    7    9    4     -1.31      0.00
    8    9    4     -0.60      0.00
    9    9    4     -0.18      0.00
   10    9    4     -0.30      0.00
   11    9    4      1.13      0.00
   12    9    4      1.10      0.00
   13    9    4      0.53      0.00
   14    9    4     -1.05      0.00
   15    9    4     -0.63      0.00
   16    9    4      0.32      0.00
   -7   10    4      0.26      0.00
   -6   10    4      0.04      0.00
   -5   10    4     -0.55      0.00
   -4   10    4      0.37      0.00
   -3   10    4      0.93      0.00
   -2   10    4      0.02      0.00
   -1   10    4      0.46      0.00
    0   10    4      0.19      0.00
    1   10    4     -0.51      0.00
    2   10    4      0.96      0.00
    3   10    4     -0.02      0.00
    4   10    4     -0.42      0.00
    5   10    4     -1.66      0.00
    6   10    4      0.14      0.00
    7   10    4      0.23      0.00
    8   10    4      0.93      0.00
    9   10    4      1.12      0.00
   10   10    4      1.31      0.00
   11   10    4     -0.47      0.00
   12   10    4     -1.53      0.00
   13   10    4     -0.81      0.00
   14   10    4      0.25      0.00
   15   10    4      0.80      0.00
   -6   11    4     -0.80      0.00
   -5   11    4      0.96      0.00
   -4   11    4      0.16      0.00
   -3   11    4     -1.27      0.00
   -2   11    4      0.07      0.00
   -1   11    4     -0.68      0.00
    0   11    4     -0.21      0.00
    1   11    4      0.44      0.00
    2   11    4     -0.74      0.00
    3   11    4     -0.09      0.00
    4   11    4     -0.01      0.00
    5   11    4      0.85      0.00
    6   11    4      0.44      0.00
    7   11    4      0.42      0.00
    8   11    4     -0.06      0.00
    9   11    4     -0.86      0.00
   10   11    4     -2.08      0.00
   11   11    4     -0.45      0.00
   12   11    4      1.24      0.00
   13   11    4      0.74      0.00
   14   11    4      0.42      0.00
   15   11    4      0.08      0.00
   -4   12    4     -0.76      0.00
   -3   12    4      0.65      0.00
   -2   12    4      0.21      0.00
   -1   12    4      0.66      0.00
    0   12    4     -0.07      0.00
    1   12    4      0.23      0.00
    2   12    4      0.11      0.00
    3   12    4      0.41      0.00
    4   12    4      0.06      0.00
    5   12    4     -0.31      0.00
    6   12    4     -0.05      0.00
    7   12    4     -0.59      0.00
    8   12    4     -0.70      0.00
    9   12    4      0.25      0.00
   10   12    4      1.65      0.00
   11   12    4      0.65      0.00
   12   12    4      0.07      0.00
   13   12    4     -0.22      0.00
   14   12    4     -0.62      0.00
   15   12    4     -0.46      0.00
   -3   13    4      0.51      0.00
   -2   13    4     -0.02      0.00
   -1   13    4     -0.47      0.00
    0   13    4      0.17      0.00
    1   13    4     -0.27      0.00
    2   13    4     -0.08      0.00
    3   13    4     -0.34      0.00
    4   13    4     -0.26      0.00
    5   13    4      0.09      0.00
    6   13    4     -0.30      0.00
    7   13    4     -0.09      0.00
    8   13    4      0.83      0.00
    9   13    4      0.07      0.00
   10   13    4     -0.55      0.00
   11   13    4     -0.41      0.00
   12   13    4     -0.54      0.00
   13   13    4     -0.36      0.00
   14   13    4      0.06      0.00
   -1   14    4     -0.27      0.00
    0   14    4      0.04      0.00
    1   14    4     -0.34      0.00
    2   14    4      0.33      0.00
    3   14    4      0.08      0.00
    4   14    4      0.14      0.00
    5   14    4      0.43      0.00
    6   14    4     -0.03      0.00
    7   14    4      0.80      0.00
    8   14    4      0.01      0.00
    9   14    4     -0.17      0.00
   10   14    4     -0.15      0.00
   11   14    4      0.17      0.00
   12   14    4      0.29      0.00
   13   14    4      0.18      0.00
    1   15    4      0.68      0.00
    2   15    4     -0.17      0.00
    3   15    4      0.09      0.00
    4   15    4      0.13      0.00
    5   15    4     -0.54      0.00
    6   15    4      0.18      0.00
    7   15    4     -0.53      0.00
    8   15    4     -0.68      0.00
    9   15    4     -0.44      0.00
   10   15    4      0.35      0.00
   11   15    4      0.12      0.00
   12   15    4     -0.18      0.00
    4   16    4     -0.22      0.00
    5   16    4      0.33      0.00
    6   16    4     -0.24      0.00
    7   16    4      0.01      0.00
    8   16    4      0.30      0.00
    9   16    4      1.01      0.00
   10   16    4     -0.19      0.00
  -10  -14    5      0.06      0.00
   -9  -14    5      0.08      0.00
   -8  -14    5     -0.29      0.00
   -7  -14    5     -0.31      0.00
   -6  -14    5     -0.33      0.00
   -5  -14    5      0.60      0.00
   -4  -14    5      1.53      0.00
   -3  -14    5     -0.28      0.00
   -2  -14    5      0.58      0.00
  -11  -13    5      0.72      0.00
  -10  -13    5      0.10      0.00
   -9  -13    5      0.00      0.00
   -8  -13    5     -0.23      0.00
   -7  -13    5      0.70      0.00
   -6  -13    5      0.81      0.00
   -5  -13    5      0.45      0.00
   -4  -13    5     -1.66      0.00
   -3  -13    5     -0.17      0.00
   -2  -13    5     -0.28      0.00
   -1  -13    5     -0.53      0.00
    0  -13    5      0.06      0.00
    1  -13    5     -0.66      0.00
  -12  -12    5      0.31      0.00
  -11  -12    5     -0.44      0.00
  -10  -12    5     -0.05      0.00
   -9  -12    5     -0.23      0.00
   -8  -12    5      0.92      0.00
   -7  -12    5     -0.61      0.00
   -6  -12    5     -0.88      0.00
   -5  -12    5     -0.40      0.00
   -4  -12    5      0.12      0.00
   -3  -12    5      0.62      0.00
   -2  -12    5      0.29      0.00
   -1  -12    5     -0.32      0.00
    0  -12    5     -0.24      0.00
    1  -12    5      0.81      0.00
    2  -12    5     -0.48      0.00
    3  -12    5      0.19      0.00
  -13  -11    5     -0.15      0.00
  -12  -11    5     -0.37      0.00
  -11  -11    5     -0.03      0.00
  -10  -11    5      0.02      0.00
   -9  -11    5      0.22      0.00
   -8  -11    5     -1.08      0.00
   -7  -11    5     -0.18      0.00
   -6  -11    5      0.77      0.00
   -5  -11    5      0.03      0.00
   -4  -11    5      0.14      0.00
   -3  -11    5      0.13      0.00
   -2  -11    5     -0.39      0.00
   -1  -11    5      1.12      0.00
    0  -11    5      0.44      0.00
    1  -11    5     -0.47      0.00
    2  -11    5      1.20      0.00
    3  -11    5     -0.73      0.00
    4  -11    5      0.24      0.00
  -14  -10    5      0.08      0.00
  -13  -10    5     -0.24      0.00
  -12  -10    5      0.30      0.00
  -11  -10    5     -0.16      0.00
  -10  -10    5      0.14      0.00
   -9  -10    5     -0.35      0.00
   -8  -10    5      1.16      0.00
   -7  -10    5      0.45      0.00
   -6  -10    5      0.21      0.00
   -5  -10    5     -0.05      0.00
   -4  -10    5      0.57      0.00
   -3  -10    5     -0.14      0.00
   -2  -10    5     -0.07      0.00
   -1  -10    5     -1.18      0.00
    0  -10    5     -0.82      0.00
    1  -10    5      0.06      0.00
    2  -10    5     -1.32      0.00
    3  -10    5      0.66      0.00
    4  -10    5     -0.65      0.00
    5  -10    5     -0.53      0.00
    6  -10    5      0.00      0.00
  -14   -9    5      0.44      0.00
  -13   -9    5      0.55      0.00
  -12   -9    5     -0.59      0.00
  -11   -9    5      0.86      0.00
  -10   -9    5     -0.05      0.00
   -9   -9    5      0.48      0.00
   -8   -9    5     -1.00      0.00
   -7   -9    5     -0.16      0.00
   -6   -9    5     -0.83      0.00
   -5   -9    5     -0.45      0.00
   -4   -9    5     -1.03      0.00
   -3   -9    5     -0.66      0.00
   -2   -9    5     -0.26      0.00
   -1   -9    5      1.10      0.00
    0   -9    5      0.53      0.00
    1   -9    5      0.71      0.00
    2   -9    5      0.38      0.00
    3   -9    5     -0.13      0.00
    4   -9    5      0.53      0.00
    5   -9    5      0.35      0.00
    6   -9    5     -0.14      0.00
    7   -9    5      0.50      0.00
  -14   -8    5     -0.44      0.00
  -13   -8    5     -0.91      0.00
  -12   -8    5      0.56      0.00
  -11   -8    5     -0.80      0.00
  -10   -8    5     -0.34      0.00
   -9   -8    5     -0.77      0.00
   -8   -8    5      0.79      0.00
   -7   -8    5     -0.53      0.00
   -6   -8    5      0.71      0.00
   -5   -8    5      0.29      0.00
   -4   -8    5      1.54      0.00
   -3   -8    5      1.36      0.00
   -2   -8    5      1.19      0.00
   -1   -8    5     -0.37      0.00
    0   -8    5      0.23      0.00
    1   -8    5     -0.76      0.00
    2   -8    5     -0.17      0.00
    3   -8    5      0.43      0.00
    4   -8    5     -0.13      0.00
    5   -8    5     -0.37      0.00
    6   -8    5      0.26      0.00
    7   -8    5     -0.03      0.00
    8   -8    5      0.50      0.00
  -15   -7    5     -0.07      0.00
  -14   -7    5     -0.17      0.00
  -13   -7    5      0.74      0.00
  -12   -7    5     -0.07      0.00
  -11   -7    5      0.44      0.00
  -10   -7    5      0.39      0.00
   -9   -7    5      1.35      0.00
   -8   -7    5     -0.74      0.00
   -7   -7    5      1.22      0.00
   -6   -7    5      0.11      0.00
   -5   -7    5      0.73      0.00
   -4   -7    5     -1.32      0.00
   -3   -7    5     -1.14      0.00
   -2   -7    5     -1.84      0.00
   -1   -7    5     -1.05      0.00
    0   -7    5     -0.58      0.00
    1   -7    5     -0.75      0.00
    2   -7    5      0.58      0.00
    3   -7    5     -0.65      0.00
    4   -7    5     -0.66      0.00
    5   -7    5      0.58      0.00
    6   -7    5     -0.23      0.00
    7   -7    5      0.03      0.00
    8   -7    5     -1.11      0.00
    9   -7    5      0.01      0.00
  -15   -6    5     -0.52      0.00
  -14   -6    5      0.40      0.00
  -13   -6    5     -0.01      0.00
  -12   -6    5     -0.06      0.00
  -11   -6    5      0.03      0.00
  -10   -6    5     -0.79      0.00
   -9   -6    5     -1.41      0.00
   -8   -6    5      0.32      0.00
   -7   -6    5     -1.30      0.00
   -6   -6    5     -1.11      0.00
   -5   -6    5     -2.70      0.00
   -4   -6    5      1.22      0.00
   -3   -6    5     -1.02      0.00
   -2   -6    5      1.37      0.00
   -1   -6    5      1.46      0.00
    0   -6    5      1.08      0.00
    1   -6    5      2.20      0.00
    2   -6    5     -0.20      0.00
    3   -6    5      0.61      0.00
    4   -6    5      0.82      0.00
    5   -6    5     -0.29      0.00
    6   -6    5     -0.05      0.00
    7   -6    5     -0.37      0.00
    8   -6    5      0.70      0.00
    9   -6    5      0.84      0.00
   10   -6    5     -0.12      0.00
  -15   -5    5      0.77      0.00
  -14   -5    5      0.04      0.00
  -13   -5    5     -0.24      0.00
  -12   -5    5     -0.35      0.00
  -11   -5    5     -0.70      0.00
  -10   -5    5      1.06      0.00
   -9   -5    5      1.22      0.00
   -8   -5    5      0.19      0.00
   -7   -5    5      0.95      0.00
   -6   -5    5      1.72      0.00
   -5   -5    5      4.51      0.00
   -4   -5    5     -0.76      0.00
   -3   -5    5      3.37      0.00
   -2   -5    5      0.12      0.00
   -1   -5    5      1.78      0.00
    0   -5    5     -1.83      0.00
    1   -5    5     -2.46      0.00
    2   -5    5     -0.51      0.00
    3   -5    5     -1.43      0.00
    4   -5    5      0.04      0.00
    5   -5    5     -0.45      0.00
    6   -5    5      0.41      0.00
    7   -5    5      0.61      0.00
    8   -5    5      0.02      0.00
    9   -5    5     -0.71      0.00
   10   -5    5     -0.64      0.00
   11   -5    5      0.11      0.00
  -14   -4    5     -0.18      0.00
  -13   -4    5     -0.53      0.00
  -12   -4    5      0.67      0.00
  -11   -4    5      1.16      0.00
  -10   -4    5     -0.70      0.00
   -9   -4    5     -0.68      0.00
   -8   -4    5     -0.57      0.00
   -7   -4    5      0.12      0.00
   -6   -4    5     -2.62      0.00
   -5   -4    5     -3.78      0.00
   -4   -4    5     -1.13      0.00
   -3   -4    5     -4.19      0.00
   -2   -4    5     -0.79      0.00
   -1   -4    5     -7.96      0.00
    0   -4    5      0.82      0.00
    1   -4    5      0.68      0.00
    2   -4    5      1.44      0.00
    3   -4    5      1.97      0.00
    4   -4    5     -0.29      0.00
    5   -4    5      0.67      0.00
    6   -4    5     -0.35      0.00
    7   -4    5     -1.03      0.00
    8   -4    5      0.23      0.00
    9   -4    5     -0.22      0.00
   10   -4    5      0.85      0.00
   11   -4    5      0.30      0.00
   12   -4    5     -0.16      0.00
  -14   -3    5     -0.02      0.00
  -13   -3    5      0.95      0.00
  -12   -3    5     -0.12      0.00
  -11   -3    5     -1.19      0.00
  -10   -3    5      0.17      0.00
   -9   -3    5     -0.05      0.00
   -8   -3    5      0.53      0.00
   -7   -3    5     -1.60      0.00
   -6   -3    5      3.10      0.00
   -5   -3    5      1.74      0.00
   -4   -3    5      3.11      0.00
   -3   -3    5      2.09      0.00
   -2   -3    5      1.53      0.00
   -1   -3    5     11.93      0.00
    0   -3    5      1.10      0.00
    1   -3    5      4.89      0.00
    2   -3    5     -1.88      0.00
    3   -3    5     -1.85      0.00
    4   -3    5     -0.28      0.00
    5   -3    5     -0.46      0.00
    6   -3    5      0.77      0.00
    7   -3    5      0.52      0.00
    8   -3    5     -0.21      0.00
    9   -3    5      0.51      0.00
   10   -3    5     -0.72      0.00
   11   -3    5     -0.28      0.00
   12   -3    5     -0.11      0.00
  -14   -2    5     -0.01      0.00
  -13   -2    5     -0.40      0.00
  -12   -2    5     -0.45      0.00
  -11   -2    5      0.41      0.00
  -10   -2    5      0.43      0.00
   -9   -2    5      0.31      0.00
   -8   -2    5     -0.23      0.00
   -7   -2    5      2.80      0.00
   -6   -2    5     -2.11      0.00
   -5   -2    5     -0.77      0.00
   -4   -2    5     -3.78      0.00
   -3   -2    5      2.52      0.00
   -2   -2    5     -4.00      0.00
   -1   -2    5     -8.67      0.00
    0   -2    5     -2.26      0.00
    1   -2    5    -11.00      0.00
    2   -2    5      0.58      0.00
    3   -2    5      0.39      0.00
    4   -2    5      1.67      0.00
    5   -2    5      0.13      0.00
    6   -2    5     -1.80      0.00
    7   -2    5      0.37      0.00
    8   -2    5     -0.29      0.00
    9   -2    5     -0.38      0.00
   10   -2    5      0.86      0.00
   11   -2    5     -0.09      0.00
   12   -2    5      0.18      0.00
   13   -2    5      0.47      0.00
  -14   -1    5      0.44      0.00
  -13   -1    5     -0.21      0.00
  -12   -1    5      0.58      0.00
  -11   -1    5      0.15      0.00
  -10   -1    5     -0.41      0.00
   -9   -1    5     -0.29      0.00
   -8   -1    5     -0.11      0.00
   -7   -1    5     -2.92      0.00
   -6   -1    5      0.09      0.00
   -5   -1    5      0.65      0.00
   -4   -1    5      3.03      0.00
   -3   -1    5     -5.81      0.00
   -2   -1    5      6.57      0.00
   -1   -1    5     -0.10      0.00
    0   -1    5      2.77      0.00
    1   -1    5     10.87      0.00
    2   -1    5      0.34      0.00
    3   -1    5      4.39      0.00
    4   -1    5     -4.38      0.00
    5   -1    5     -0.15      0.00
    6   -1    5      2.27      0.00
    7   -1    5      0.11      0.00
    8   -1    5      0.51      0.00
    9   -1    5      0.04      0.00
   10   -1    5     -0.40      0.00
   11   -1    5      0.22      0.00
   12   -1    5     -0.25      0.00
   13   -1    5     -0.59      0.00
  -13    0    5      0.29      0.00
  -12    0    5     -0.77      0.00
  -11    0    5      0.15      0.00
  -10    0    5     -0.14      0.00
   -9    0    5     -0.08      0.00
   -8    0    5      0.64      0.00
   -7    0    5      1.99      0.00
   -6    0    5      1.63      0.00
   -5    0    5      0.02      0.00
   -4    0    5     -1.62      0.00
   -3    0    5      5.65      0.00
   -2    0    5     -5.58      0.00
   -1    0    5      5.27      0.00
    0    0    5     -3.64      0.00
    1    0    5     -0.37      0.00
    2    0    5     -2.22      0.00
    3    0    5     -7.67      0.00
    4    0    5      6.88      0.00
    5    0    5      0.85      0.00
    6    0    5     -1.75      0.00
    7    0    5     -1.19      0.00
    8    0    5     -0.31      0.00
    9    0    5      0.10      0.00
   10    0    5     -0.57      0.00
   11    0    5     -0.25      0.00
   12    0    5      0.37      0.00
   13    0    5      0.13      0.00
   14    0    5      1.01      0.00
  -13    1    5     -0.17      0.00
  -12    1    5      0.72      0.00
  -11    1    5     -0.37      0.00
  -10    1    5      0.67      0.00
   -9    1    5      0.29      0.00
   -8    1    5     -0.39      0.00
   -7    1    5     -1.19      0.00
   -6    1    5     -1.93      0.00
   -5    1    5     -1.33      0.00
   -4    1    5      0.37      0.00
   -3    1    5     -4.22      0.00
   -2    1    5      1.73      0.00
   -1    1    5     -4.40      0.00
    0    1    5      5.97      0.00
    1    1    5    -13.05      0.00
    2    1    5      5.59      0.00
    3    1    5      5.03      0.00
    4    1    5     -7.77      0.00
    5    1    5     -1.19      0.00
    6    1    5     -0.55      0.00
    7    1    5      1.69      0.00
    8    1    5     -0.14      0.00
    9    1    5      0.05      0.00
   10    1    5      1.12      0.00
   11    1    5      0.26      0.00
   12    1    5      0.10      0.00
   13    1    5      0.39      0.00
   14    1    5     -1.31      0.00
  -13    2    5      0.31      0.00
  -12    2    5     -0.18      0.00
  -11    2    5      0.18      0.00
  -10    2    5     -0.89      0.00
   -9    2    5     -0.08      0.00
   -8    2    5     -0.74      0.00
   -7    2    5      0.79      0.00
   -6    2    5      1.00      0.00
   -5    2    5      1.98      0.00
   -4    2    5      0.32      0.00
   -3    2    5      3.69      0.00
   -2    2    5      1.30      0.00
   -1    2    5      1.53      0.00
    0    2    5     -4.90      0.00
    1    2    5     14.27      0.00
    2    2    5     -5.75      0.00
    3    2    5      0.63      0.00
    4    2    5      4.96      0.00
    5    2    5      1.90      0.00
    6    2    5      3.93      0.00
    7    2    5     -1.36      0.00
    8    2    5      0.35      0.00
    9    2    5      0.31      0.00
   10    2    5     -0.72      0.00
   11    2    5     -0.54      0.00
   12    2    5     -0.90      0.00
   13    2    5     -0.30      0.00
   14    2    5      0.69      0.00
   15    2    5      0.55      0.00
  -12    3    5     -0.13      0.00
  -11    3    5     -0.25      0.00
  -10    3    5      0.38      0.00
   -9    3    5      0.18      0.00
   -8    3    5      1.27      0.00
   -7    3    5      0.00      0.00
   -6    3    5     -0.31      0.00
   -5    3    5     -0.98      0.00
   -4    3    5     -0.41      0.00
   -3    3    5     -3.17      0.00
   -2    3    5     -2.64      0.00
   -1    3    5      0.88      0.00
    0    3    5     -0.30      0.00
    1    3    5     -5.89      0.00
    2    3    5      3.79      0.00
    3    3    5     -4.16      0.00
    4    3    5      0.46      0.00
    5    3    5     -3.01      0.00
    6    3    5     -5.37      0.00
    7    3    5      0.71      0.00
    8    3    5     -1.48      0.00
    9    3    5     -0.72      0.00
   10    3    5     -0.32      0.00
   11    3    5      0.77      0.00
   12    3    5      1.36      0.00
   13    3    5     -0.31      0.00
   14    3    5      0.69      0.00
   15    3    5     -0.70      0.00
  -12    4    5     -0.20      0.00
  -11    4    5      0.53      0.00
  -10    4    5      0.41      0.00
   -9    4    5     -0.28      0.00
   -8    4    5     -0.68      0.00
   -7    4    5     -0.87      0.00
   -6    4    5     -0.10      0.00
   -5    4    5     -0.02      0.00
   -4    4    5     -0.48      0.00
   -3    4    5      2.31      0.00
   -2    4    5      1.63      0.00
   -1    4    5     -0.50      0.00
    0    4    5      2.52      0.00
    1    4    5      0.47      0.00
    2    4    5     -1.61      0.00
    3    4    5      2.13      0.00
    4    4    5     -2.88      0.00
    5    4    5      2.83      0.00
    6    4    5      2.76      0.00
    7    4    5     -0.46      0.00
    8    4    5      3.24      0.00
    9    4    5      1.34      0.00
   10    4    5      0.86      0.00
   11    4    5     -0.27      0.00
   12    4    5     -0.97      0.00
   13    4    5      0.22      0.00
   14    4    5     -1.35      0.00
   15    4    5      0.79      0.00
  -11    5    5     -0.30      0.00
  -10    5    5     -0.29      0.00
   -9    5    5     -0.65      0.00
   -8    5    5     -0.04      0.00
   -7    5    5      0.87      0.00
   -6    5    5      0.76      0.00
   -5    5    5     -0.09      0.00
   -4    5    5      1.17      0.00
   -3    5    5     -1.01      0.00
   -2    5    5      0.30      0.00
   -1    5    5     -1.05      0.00
    0    5    5     -1.32      0.00
    1    5    5      0.46      0.00
    2    5    5     -0.63      0.00
    3    5    5      1.86      0.00
    4    5    5      1.37      0.00
    5    5    5     -1.91      0.00
    6    5    5      1.80      0.00
    7    5    5      0.94      0.00
    8    5    5     -3.02      0.00
    9    5    5     -2.08      0.00
   10    5    5     -1.24      0.00
   11    5    5     -0.41      0.00
   12    5    5      0.07      0.00
   13    5    5      0.08      0.00
   14    5    5      1.38      0.00
   15    5    5     -0.91      0.00
   16    5    5      0.26      0.00
  -10    6    5     -0.51      0.00
   -9    6    5      1.20      0.00
   -8    6    5      0.78      0.00
   -7    6    5     -0.67      0.00
   -6    6    5     -0.53      0.00
   -5    6    5      0.01      0.00
   -4    6    5     -0.69      0.00
   -3    6    5     -0.43      0.00
   -2    6    5     -0.79      0.00
   -1    6    5      1.10      0.00
    0    6    5     -0.10      0.00
    1    6    5      0.38      0.00
    2    6    5      1.05      0.00
    3    6    5     -3.38      0.00
    4    6    5      1.23      0.00
    5    6    5      1.33      0.00
    6    6    5     -3.58      0.00
    7    6    5     -2.43      0.00
    8    6    5      0.86      0.00
    9    6    5      1.76      0.00
   10    6    5      1.37      0.00
   11    6    5      0.79      0.00
   12    6    5      0.65      0.00
   13    6    5      0.22      0.00
   14    6    5     -1.04      0.00
   15    6    5      0.40      0.00
   16    6    5     -0.26      0.00
   -9    7    5     -0.04      0.00
   -8    7    5     -1.11      0.00
   -7    7    5      0.39      0.00
   -6    7    5      0.07      0.00
   -5    7    5     -0.01      0.00
   -4    7    5      0.40      0.00
   -3    7    5      0.60      0.00
   -2    7    5      0.67      0.00
   -1    7    5     -0.41      0.00
    0    7    5      0.46      0.00
    1    7    5     -0.97      0.00
    2    7    5     -0.17      0.00
    3    7    5      2.74      0.00
    4    7    5     -2.32      0.00
    5    7    5     -1.04      0.00
    6    7    5      1.19      0.00
    7    7    5      3.73      0.00
    8    7    5      1.34      0.00
    9    7    5     -0.72      0.00
   10    7    5     -0.64      0.00
   11    7    5     -0.29      0.00
   12    7    5     -1.28      0.00
   13    7    5     -0.68      0.00
   14    7    5      0.47      0.00
   15    7    5      0.18      0.00
   16    7    5      0.26      0.00
   -9    8    5     -0.86      0.00
   -8    8    5      0.38      0.00
   -7    8    5     -0.31      0.00
   -6    8    5     -0.08      0.00
   -5    8    5      0.07      0.00
   -4    8    5     -0.35      0.00
   -3    8    5      0.02      0.00
   -2    8    5     -1.03      0.00
   -1    8    5      0.10      0.00
    0    8    5      0.02      0.00
    1    8    5      0.77      0.00
    2    8    5     -0.73      0.00
    3    8    5     -1.22      0.00
    4    8    5      1.17      0.00
    5    8    5      0.71      0.00
    6    8    5      1.88      0.00
    7    8    5     -2.92      0.00
    8    8    5     -2.24      0.00
    9    8    5     -0.27      0.00
   10    8    5     -0.30      0.00
   11    8    5     -0.60      0.00
   12    8    5      0.92      0.00
   13    8    5      1.34      0.00
   14    8    5      0.23      0.00
   15    8    5     -0.51      0.00
   16    8    5     -0.45      0.00
   -8    9    5      0.01      0.00
   -7    9    5      0.96      0.00
   -6    9    5      0.02      0.00
   -5    9    5      0.10      0.00
   -4    9    5      0.27      0.00
   -3    9    5     -0.37      0.00
   -2    9    5      1.22      0.00
   -1    9    5     -0.11      0.00
    0    9    5      0.12      0.00
    1    9    5     -0.82      0.00
    2    9    5      0.84      0.00
    3    9    5      0.23      0.00
    4    9    5      0.58      0.00
    5    9    5     -0.55      0.00
    6    9    5     -2.41      0.00
    7    9    5      0.91      0.00
    8    9    5      1.20      0.00
    9    9    5      0.84      0.00
   10    9    5      0.84      0.00
   11    9    5      1.20      0.00
   12    9    5      0.21      0.00
   13    9    5     -1.55      0.00
   14    9    5     -1.17      0.00
   15    9    5      0.42      0.00
   16    9    5      0.71      0.00
   -7   10    5     -0.75      0.00
   -6   10    5     -0.18      0.00
   -5   10    5     -0.34      0.00
   -4   10    5      0.33      0.00
   -3   10    5     -0.05      0.00
   -2   10    5     -0.63      0.00
   -1   10    5     -0.05      0.00
    0   10    5     -0.78      0.00
    1   10    5      0.86      0.00
    2   10    5     -0.34      0.00
    3   10    5      0.12      0.00
    4   10    5     -1.43      0.00
    5   10    5      0.36      0.00
    6   10    5      1.29      0.00
    7   10    5      0.18      0.00
    8   10    5      0.24      0.00
    9   10    5     -0.27      0.00
   10   10    5     -0.69      0.00
   11   10    5     -1.90      0.00
   12   10    5     -1.07      0.00
   13   10    5      1.21      0.00
   14   10    5      0.93      0.00
   15   10    5      0.76      0.00
   16   10    5     -0.76      0.00
   -6   11    5      0.07      0.00
   -5   11    5      0.89      0.00
   -4   11    5     -1.34      0.00
   -3   11    5      0.15      0.00
   -2   11    5      0.15      0.00
   -1   11    5      0.16      0.00
    0   11    5      0.77      0.00
    1   11    5     -0.18      0.00
    2   11    5      0.07      0.00
    3   11    5     -0.39      0.00
    4   11    5      1.46      0.00
    5   11    5     -0.20      0.00
    6   11    5      0.05      0.00
    7   11    5     -0.46      0.00
    8   11    5     -0.27      0.00
    9   11    5     -0.91      0.00
   10   11    5      0.12      0.00
   11   11    5      1.97      0.00
   12   11    5      1.37      0.00
   13   11    5     -0.28      0.00
   14   11    5      0.15      0.00
   15   11    5     -1.38      0.00
   -4   12    5      1.00      0.00
   -3   12    5      0.53      0.00
   -2   12    5      0.28      0.00
   -1   12    5     -0.06      0.00
    0   12    5     -0.13      0.00
    1   12    5     -0.56      0.00
    2   12    5     -0.06      0.00
    3   12    5      0.41      0.00
    4   12    5     -1.38      0.00
    5   12    5      0.30      0.00
    6   12    5     -0.76      0.00
    7   12    5      0.07      0.00
    8   12    5     -0.25      0.00
    9   12    5      1.23      0.00
   10   12    5      0.19      0.00
   11   12    5     -1.06      0.00
   12   12    5     -0.74      0.00
   13   12    5     -0.81      0.00
   14   12    5     -0.76      0.00
   15   12    5      0.79      0.00
   -3   13    5     -0.47      0.00
   -2   13    5     -0.56      0.00
   -1   13    5     -0.44      0.00
    0   13    5     -0.23      0.00
    1   13    5      0.37      0.00
    2   13    5     -0.07      0.00
    3   13    5      0.22      0.00
    4   13    5      0.72      0.00
    5   13    5      0.24      0.00
    6   13    5      0.39      0.00
    7   13    5      0.45      0.00
    8   13    5      0.64      0.00
    9   13    5     -0.50      0.00
   10   13    5     -0.20      0.00
   11   13    5      0.18      0.00
   12   13    5      0.03      0.00
   13   13    5      0.65      0.00
   14   13    5      0.72      0.00
   -1   14    5      0.76      0.00
    0   14    5      0.23      0.00
    1   14    5      0.28      0.00
    2   14    5      0.49      0.00
    3   14    5     -0.76      0.00
    4   14    5      0.06      0.00
    5   14    5     -0.73      0.00
    6   14    5     -0.10      0.00
    7   14    5     -0.27      0.00
    8   14    5     -0.54      0.00
    9   14    5     -0.55      0.00
   10   14    5      0.02      0.00
   11   14    5      0.11      0.00
   12   14    5      0.34      0.00
   13   14    5     -0.21      0.00
    1   15    5     -0.55      0.00
    2   15    5     -0.59      0.00
    3   15    5      0.30      0.00
    4   15    5     -0.10      0.00
    5   15    5      0.41      0.00
    6   15    5      0.30      0.00
    7   15    5     -0.06      0.00
    8   15    5     -0.13      0.00
    9   15    5      0.76      0.00
   10   15    5      0.56      0.00
   11   15    5     -0.04      0.00
   12   15    5     -0.65      0.00
    4   16    5      0.00      0.00
    5   16    5      0.11      0.00
    6   16    5     -0.69      0.00
    7   16    5      0.36      0.00
    8   16    5      0.23      0.00
    9   16    5      0.03      0.00
   10   16    5     -0.95      0.00
   -9  -14    6     -0.33      0.00
   -8  -14    6      0.01      0.00
   -7  -14    6     -0.45      0.00
   -6  -14    6      0.98      0.00
   -5  -14    6      1.66      0.00
   -4  -14    6     -0.08      0.00
   -3  -14    6     -0.43      0.00
  -11  -13    6      0.38      0.00
  -10  -13    6     -0.25      0.00
   -9  -13    6     -0.05      0.00
   -8  -13    6      0.19      0.00
   -7  -13    6      1.22      0.00
   -6  -13    6     -0.18      0.00
   -5  -13    6     -1.37      0.00
   -4  -13    6     -1.39      0.00
   -3  -13    6      0.30      0.00
   -2  -13    6     -0.12      0.00
   -1  -13    6     -0.12      0.00
    0  -13    6     -0.48      0.00
  -12  -12    6      0.06      0.00
  -11  -12    6     -0.20      0.00
  -10  -12    6      0.06      0.00
   -9  -12    6      0.29      0.00
   -8  -12    6     -0.02      0.00
   -7  -12    6     -1.40      0.00
   -6  -12    6     -0.28      0.00
   -5  -12    6      0.01      0.00
   -4  -12    6      1.39      0.00
   -3  -12    6      0.81      0.00
   -2  -12    6      0.24      0.00
   -1  -12    6     -0.24      0.00
    0  -12    6      1.33      0.00
    1  -12    6      0.37      0.00
    2  -12    6      0.31      0.00
  -13  -11    6      0.31      0.00
  -12  -11    6     -0.34      0.00
  -11  -11    6     -0.13      0.00
  -10  -11    6     -0.19      0.00
   -9  -11    6     -0.56      0.00
   -8  -11    6     -0.08      0.00
   -7  -11    6      0.76      0.00
   -6  -11    6      0.91      0.00
   -5  -11    6      0.04      0.00
   -4  -11    6     -0.05      0.00
   -3  -11    6     -0.81      0.00
   -2  -11    6     -0.80      0.00
   -1  -11    6      0.47      0.00
    0  -11    6     -1.84      0.00
    1  -11    6      0.32      0.00
    2  -11    6     -1.22      0.00
    3  -11    6     -0.70      0.00
    4  -11    6      0.12      0.00
  -13  -10    6      0.02      0.00
  -12  -10    6     -0.08      0.00
  -11  -10    6      0.50      0.00
  -10  -10    6      0.43      0.00
   -9  -10    6      1.07      0.00
   -8  -10    6      0.13      0.00
   -7  -10    6      0.03      0.00
   -6  -10    6     -1.18      0.00
   -5  -10    6      0.02      0.00
   -4  -10    6     -0.47      0.00
   -3  -10    6      0.02      0.00
   -2  -10    6      0.35      0.00
   -1  -10    6     -0.09      0.00
    0  -10    6      1.24      0.00
    1  -10    6     -0.38      0.00
    2  -10    6      1.12      0.00
    3  -10    6      0.24      0.00
    4  -10    6     -0.51      0.00
    5  -10    6      0.51      0.00
    6  -10    6     -0.06      0.00
  -14   -9    6      0.02      0.00
  -13   -9    6     -0.52      0.00
  -12   -9    6      0.41      0.00
  -11   -9    6     -0.10      0.00
  -10   -9    6     -0.68      0.00
   -9   -9    6     -1.34      0.00
   -8   -9    6     -0.42      0.00
   -7   -9    6     -0.59      0.00
   -6   -9    6      0.73      0.00
   -5   -9    6      0.04      0.00
   -4   -9    6      0.85      0.00
   -3   -9    6     -0.09      0.00
   -2   -9    6      0.89      0.00
   -1   -9    6     -0.34      0.00
    0   -9    6     -0.13      0.00
    1   -9    6      0.19      0.00
    2   -9    6     -0.58      0.00
    3   -9    6      0.47      0.00
    4   -9    6      0.40      0.00
    5   -9    6      0.18      0.00
    6   -9    6      0.24      0.00
    7   -9    6      0.23      0.00
  -14   -8    6     -0.09      0.00
  -13   -8    6      0.23      0.00
  -12   -8    6      0.05      0.00
  -11   -8    6     -0.20      0.00
  -10   -8    6      0.23      0.00
   -9   -8    6      1.31      0.00
   -8   -8    6      0.80      0.00
   -7   -8    6      1.04      0.00
   -6   -8    6     -0.05      0.00
   -5   -8    6      0.26      0.00
   -4   -8    6     -0.46      0.00
   -3   -8    6     -0.18      0.00
   -2   -8    6     -0.91      0.00
   -1   -8    6      0.23      0.00
    0   -8    6     -0.26      0.00
    1   -8    6     -0.56      0.00
    2   -8    6      0.10      0.00
    3   -8    6     -0.40      0.00
    4   -8    6     -0.70      0.00
    5   -8    6     -0.53      0.00
    6   -8    6     -0.22      0.00
    7   -8    6     -0.02      0.00
    8   -8    6     -0.51      0.00
  -14   -7    6      0.00      0.00
  -13   -7    6      0.44      0.00
  -12   -7    6     -0.07      0.00
  -11   -7    6     -0.18      0.00
  -10   -7    6      0.37      0.00
   -9   -7    6     -0.94      0.00
   -8   -7    6     -1.10      0.00
   -7   -7    6     -1.23      0.00
   -6   -7    6     -0.53      0.00
   -5   -7    6     -0.97      0.00
   -4   -7    6     -0.46      0.00
   -3   -7    6      0.26      0.00
   -2   -7    6     -0.29      0.00
   -1   -7    6      0.11      0.00
    0   -7    6     -0.45      0.00
    1   -7    6      0.55      0.00
    2   -7    6      0.84      0.00
    3   -7    6     -0.44      0.00
    4   -7    6      0.92      0.00
    5   -7    6      0.47      0.00
    6   -7    6      0.16      0.00
    7   -7    6     -0.29      0.00
    8   -7    6     -0.12      0.00
    9   -7    6      1.97      0.00
  -14   -6    6      0.36      0.00
  -13   -6    6     -0.36      0.00
  -12   -6    6     -0.34      0.00
  -11   -6    6      0.12      0.00
  -10   -6    6     -0.84      0.00
   -9   -6    6      1.03      0.00
   -8   -6    6      0.55      0.00
   -7   -6    6      1.56      0.00
   -6   -6    6      0.04      0.00
   -5   -6    6      2.51      0.00
   -4   -6    6      0.59      0.00
   -3   -6    6      0.19      0.00
   -2   -6    6      1.81      0.00
   -1   -6    6      0.22      0.00
    0   -6    6      1.93      0.00
    1   -6    6     -0.03      0.00
    2   -6    6     -0.97      0.00
    3   -6    6      0.32      0.00
    4   -6    6     -0.28      0.00
    5   -6    6     -0.33      0.00
    6   -6    6     -0.13      0.00
    7   -6    6      0.35      0.00
    8   -6    6      0.78      0.00
    9   -6    6     -1.17      0.00
   10   -6    6     -0.66      0.00
  -14   -5    6     -0.43      0.00
  -13   -5    6     -0.35      0.00
  -12   -5    6      0.07      0.00
  -11   -5    6      0.23      0.00
  -10   -5    6      1.60      0.00
   -9   -5    6     -0.99      0.00
   -8   -5    6      0.06      0.00
   -7   -5    6     -1.26      0.00
   -6   -5    6      0.99      0.00
   -5   -5    6     -3.72      0.00
   -4   -5    6     -0.01      0.00
   -3   -5    6     -0.84      0.00
   -2   -5    6     -1.37      0.00
   -1   -5    6     -1.51      0.00
    0   -5    6     -4.02      0.00
    1   -5    6     -0.59      0.00
    2   -5    6     -0.33      0.00
    3   -5    6      0.37      0.00
    4   -5    6     -0.17      0.00
    5   -5    6     -0.24      0.00
    6   -5    6      0.57      0.00
    7   -5    6     -0.71      0.00
    8   -5    6     -0.37      0.00
    9   -5    6     -0.10      0.00
   10   -5    6      0.54      0.00
   11   -5    6      1.21      0.00
  -14   -4    6      0.11      0.00
  -13   -4    6      0.43      0.00
  -12   -4    6      0.99      0.00
  -11   -4    6     -0.18      0.00
  -10   -4    6     -1.71      0.00
   -9   -4    6     -0.12      0.00
   -8   -4    6     -0.10      0.00
   -7   -4    6      0.06      0.00
   -6   -4    6     -1.84      0.00
   -5   -4    6      3.87      0.00
   -4   -4    6     -1.28      0.00
   -3   -4    6      2.16      0.00
   -2   -4    6     -2.18      0.00
   -1   -4    6      2.00      0.00
    0   -4    6      5.27      0.00
    1   -4    6      1.83      0.00
    2   -4    6      2.16      0.00
    3   -4    6     -0.60      0.00
    4   -4    6      0.15      0.00
    5   -4    6      0.71      0.00
    6   -4    6     -0.91      0.00
    7   -4    6      0.91      0.00
    8   -4    6      0.08      0.00
    9   -4    6      0.19      0.00
   10   -4    6      0.04      0.00
   11   -4    6     -1.00      0.00
  -14   -3    6      0.11      0.00
  -13   -3    6      0.05      0.00
  -12   -3    6     -1.32      0.00
  -11   -3    6     -0.60      0.00
  -10   -3    6      1.09      0.00
   -9   -3    6      0.90      0.00
   -8   -3    6      0.38      0.00
   -7   -3    6      0.78      0.00
   -6   -3    6      2.77      0.00
   -5   -3    6     -2.90      0.00
   -4   -3    6      1.58      0.00
   -3   -3    6     -3.12      0.00
   -2   -3    6      7.35      0.00
   -1   -3    6     -1.81      0.00
    0   -3    6     -2.84      0.00
    1   -3    6     -1.92      0.00
    2   -3    6     -4.75      0.00
    3   -3    6      0.59      0.00
    4   -3    6     -0.39      0.00
    5   -3    6      0.03      0.00
    6   -3    6      0.16      0.00
    7   -3    6     -0.45      0.00
    8   -3    6     -0.12      0.00
    9   -3    6     -0.22      0.00
   10   -3    6      0.04      0.00
   11   -3    6      0.63      0.00
   12   -3    6      0.08      0.00
  -14   -2    6     -0.13      0.00
  -13   -2    6     -0.10      0.00
  -12   -2    6      0.39      0.00
  -11   -2    6      1.17      0.00
  -10   -2    6     -0.04      0.00
   -9   -2    6     -0.83      0.00
   -8   -2    6     -0.60      0.00
   -7   -2    6     -0.58      0.00
   -6   -2    6     -3.74      0.00
   -5   -2    6      0.90      0.00
   -4   -2    6     -0.05      0.00
   -3   -2    6      3.21      0.00
   -2   -2    6    -11.08      0.00
   -1   -2    6      2.18      0.00
    0   -2    6     -3.45      0.00
    1   -2    6      0.45      0.00
    2   -2    6      4.79      0.00
    3   -2    6      0.05      0.00
    4   -2    6      1.42      0.00
    5   -2    6     -1.84      0.00
    6   -2    6      0.52      0.00
    7   -2    6      0.18      0.00
    8   -2    6     -0.17      0.00
    9   -2    6      0.82      0.00
   10   -2    6     -0.26      0.00
   11   -2    6     -0.52      0.00
   12   -2    6     -0.01      0.00
   13   -2    6     -0.34      0.00
  -14   -1    6      0.02      0.00
  -13   -1    6      0.00      0.00
  -12   -1    6      0.21      0.00
  -11   -1    6     -0.71      0.00
  -10   -1    6     -0.67      0.00
   -9   -1    6      0.18      0.00
   -8   -1    6      0.46      0.00
   -7   -1    6     -0.08      0.00
   -6   -1    6      3.66      0.00
   -5   -1    6      1.33      0.00
   -4   -1    6     -1.01      0.00
   -3   -1    6     -2.92      0.00
   -2   -1    6     10.42      0.00
   -1   -1    6     -1.95      0.00
    0   -1    6      9.08      0.00
    1   -1    6     -0.82      0.00
    2   -1    6      1.60      0.00
    3   -1    6     -0.44      0.00
    4   -1    6     -4.18      0.00
    5   -1    6      3.98      0.00
    6   -1    6     -0.01      0.00
    7   -1    6      0.22      0.00
    8   -1    6      0.07      0.00
    9   -1    6     -0.64      0.00
   10   -1    6      0.16      0.00
   11   -1    6     -0.05      0.00
   12   -1    6      0.20      0.00
   13   -1    6      0.10      0.00
  -13    0    6     -0.09      0.00
  -12    0    6     -0.17      0.00
  -11    0    6      0.24      0.00
  -10    0    6      0.35      0.00
   -9    0    6      0.56      0.00
   -8    0    6      0.20      0.00
   -7    0    6      0.13      0.00
   -6    0    6     -1.93      0.00
   -5    0    6     -2.73      0.00
   -4    0    6      0.35      0.00
   -3    0    6      2.20      0.00
   -2    0    6     -6.10      0.00
   -1    0    6     -1.20      0.00
    0    0    6     -7.78      0.00
    1    0    6      3.00      0.00
    2    0    6    -10.75      0.00
    3    0    6      1.06      0.00
    4    0    6      5.49      0.00
    5    0    6     -4.24      0.00
    6    0    6     -1.05      0.00
    7    0    6     -1.01      0.00
    8    0    6     -0.07      0.00
    9    0    6     -0.25      0.00
   10    0    6     -0.28      0.00
   11    0    6      1.01      0.00
   12    0    6     -0.54      0.00
   13    0    6      0.42      0.00
   14    0    6     -0.24      0.00
  -13    1    6      0.02      0.00
  -12    1    6      0.20      0.00
  -11    1    6     -0.09      0.00
  -10    1    6     -0.09      0.00
   -9    1    6     -0.50      0.00
   -8    1    6     -0.90      0.00
   -7    1    6     -0.07      0.00
   -6    1    6      0.12      0.00
   -5    1    6      2.39      0.00
   -4    1    6      0.59      0.00
   -3    1    6     -1.17      0.00
   -2    1    6      1.99      0.00
   -1    1    6      4.96      0.00
    0    1    6      2.52      0.00
    1    1    6     -5.23      0.00
    2    1    6     15.21      0.00
    3    1    6     -3.33      0.00
    4    1    6     -1.99      0.00
    5    1    6      0.91      0.00
    6    1    6      1.31      0.00
    7    1    6      2.18      0.00
    8    1    6      0.22      0.00
    9    1    6      1.21      0.00
   10    1    6      0.68      0.00
   11    1    6     -1.25      0.00
   12    1    6      0.80      0.00
   13    1    6     -1.18      0.00
   14    1    6      0.00      0.00
  -12    2    6     -0.39      0.00
  -11    2    6      0.12      0.00
  -10    2    6      0.25      0.00
   -9    2    6      0.00      0.00
   -8    2    6      0.82      0.00
   -7    2    6      0.61      0.00
   -6    2    6      0.34      0.00
   -5    2    6     -0.76      0.00
   -4    2    6     -0.61      0.00
   -3    2    6      1.04      0.00
   -2    2    6     -0.95      0.00
   -1    2    6     -4.29      0.00
    0    2    6     -0.49      0.00
    1    2    6      4.40      0.00
    2    2    6    -10.02      0.00
    3    2    6      3.66      0.00
    4    2    6     -2.65      0.00
    5    2    6      4.52      0.00
    6    2    6     -0.64      0.00
    7    2    6     -3.04      0.00
    8    2    6      0.07      0.00
    9    2    6     -1.42      0.00
   10    2    6     -1.41      0.00
   11    2    6      0.48      0.00
   12    2    6     -0.48      0.00
   13    2    6      1.30      0.00
   14    2    6      0.03      0.00
   15    2    6     -0.01      0.00
  -12    3    6      0.35      0.00
  -11    3    6     -0.55      0.00
  -10    3    6     -0.11      0.00
   -9    3    6      0.27      0.00
   -8    3    6     -0.41      0.00
   -7    3    6     -0.71      0.00
   -6    3    6     -0.40      0.00
   -5    3    6      0.04      0.00
   -4    3    6     -0.52      0.00
   -3    3    6     -1.47      0.00
   -2    3    6      1.02      0.00
   -1    3    6      1.13      0.00
    0    3    6     -0.01      0.00
    1    3    6     -0.03      0.00
    2    3    6      1.52      0.00
    3    3    6     -1.56      0.00
    4    3    6      4.45      0.00
    5    3    6     -8.07      0.00
    6    3    6      0.10      0.00
    7    3    6      1.36      0.00
    8    3    6     -0.40      0.00
    9    3    6      1.19      0.00
   10    3    6      1.56      0.00
   11    3    6      0.83      0.00
   12    3    6     -0.16      0.00
   13    3    6     -0.74      0.00
   14    3    6      0.29      0.00
   15    3    6     -1.03      0.00
  -11    4    6      0.82      0.00
  -10    4    6     -0.04      0.00
   -9    4    6     -0.10      0.00
   -8    4    6      0.20      0.00
   -7    4    6     -0.29      0.00
   -6    4    6      1.05      0.00
   -5    4    6     -0.68      0.00
   -4    4    6      1.44      0.00
   -3    4    6      1.35      0.00
   -2    4    6     -0.12      0.00
   -1    4    6      0.85      0.00
    0    4    6      0.61      0.00
    1    4    6     -1.48      0.00
    2    4    6      0.67      0.00
    3    4    6     -0.07      0.00
    4    4    6     -2.87      0.00
    5    4    6      6.10      0.00
    6    4    6     -0.04      0.00
    7    4    6      2.47      0.00
    8    4    6      0.99      0.00
    9    4    6     -0.88      0.00
   10    4    6     -0.98      0.00
   11    4    6     -1.35      0.00
   12    4    6     -0.07      0.00
   13    4    6      0.00      0.00
   14    4    6     -0.05      0.00
   15    4    6      1.14      0.00
  -11    5    6     -0.37      0.00
  -10    5    6     -0.42      0.00
   -9    5    6     -0.63      0.00
   -8    5    6      0.37      0.00
   -7    5    6      0.81      0.00
   -6    5    6     -0.94      0.00
   -5    5    6      0.51      0.00
   -4    5    6     -0.56      0.00
   -3    5    6     -0.95      0.00
   -2    5    6     -0.78      0.00
   -1    5    6     -1.32      0.00
    0    5    6     -0.46      0.00
    1    5    6     -0.89      0.00
    2    5    6      1.40      0.00
    3    5    6      0.79      0.00
    4    5    6      0.20      0.00
    5    5    6     -0.95      0.00
    6    5    6      1.00      0.00
    7    5    6     -4.89      0.00
    8    5    6     -1.66      0.00
    9    5    6     -0.59      0.00
   10    5    6      0.40      0.00
   11    5    6      0.89      0.00
   12    5    6      0.58      0.00
   13    5    6      0.72      0.00
   14    5    6     -0.25      0.00
   15    5    6     -0.77      0.00
   16    5    6      0.66      0.00
  -10    6    6      0.68      0.00
   -9    6    6      1.50      0.00
   -8    6    6     -0.62      0.00
   -7    6    6     -0.41      0.00
   -6    6    6      0.19      0.00
   -5    6    6     -0.12      0.00
   -4    6    6     -0.31      0.00
   -3    6    6      0.25      0.00
   -2    6    6      1.11      0.00
   -1    6    6      0.51      0.00
    0    6    6      0.43      0.00
    1    6    6      2.44      0.00
    2    6    6     -2.51      0.00
    3    6    6     -0.17      0.00
    4    6    6      0.77      0.00
    5    6    6     -1.97      0.00
    6    6    6     -2.73      0.00
    7    6    6      3.56      0.00
    8    6    6      1.92      0.00
    9    6    6      2.13      0.00
   10    6    6      0.34      0.00
   11    6    6      0.06      0.00
   12    6    6     -0.66      0.00
   13    6    6     -0.71      0.00
   14    6    6     -0.49      0.00
   15    6    6      0.67      0.00
   16    6    6     -0.13      0.00
   -9    7    6     -1.29      0.00
   -8    7    6     -0.49      0.00
   -7    7    6      0.26      0.00
   -6    7    6      0.03      0.00
   -5    7    6      0.35      0.00
   -4    7    6      0.17      0.00
   -3    7    6      0.49      0.00
   -2    7    6     -0.77      0.00
   -1    7    6     -0.01      0.00
    0    7    6     -0.43      0.00
    1    7    6     -1.40      0.00
    2    7    6      1.59      0.00
    3    7    6     -0.86      0.00
    4    7    6     -0.22      0.00
    5    7    6      1.10      0.00
    6    7    6      3.43      0.00
    7    7    6      0.30      0.00
    8    7    6     -1.62      0.00
    9    7    6     -2.20      0.00
   10    7    6     -0.50      0.00
   11    7    6     -1.15      0.00
   12    7    6      0.09      0.00
   13    7    6      0.28      0.00
   14    7    6      1.08      0.00
   15    7    6     -0.25      0.00
   16    7    6     -0.23      0.00
   -9    8    6      0.53      0.00
   -8    8    6      0.82      0.00
   -7    8    6      0.20      0.00
   -6    8    6     -0.27      0.00
   -5    8    6     -0.39      0.00
   -4    8    6      0.06      0.00
   -3    8    6     -1.01      0.00
   -2    8    6      0.16      0.00
   -1    8    6      0.41      0.00
    0    8    6      0.26      0.00
    1    8    6     -0.41      0.00
    2    8    6     -0.31      0.00
    3    8    6      0.99      0.00
    4    8    6     -0.38      0.00
    5    8    6      1.05      0.00
    6    8    6     -2.36      0.00
    7    8    6     -2.82      0.00
    8    8    6      0.28      0.00
    9    8    6      1.45      0.00
   10    8    6     -0.14      0.00
   11    8    6      1.25      0.00
   12    8    6      0.79      0.00
   13    8    6      0.55      0.00
   14    8    6     -1.28      0.00
   15    8    6     -0.19      0.00
   16    8    6      0.02      0.00
   -8    9    6      0.26      0.00
   -7    9    6     -0.57      0.00
   -6    9    6      0.45      0.00
   -5    9    6      0.51      0.00
   -4    9    6      0.24      0.00
   -3    9    6      0.96      0.00
   -2    9    6      0.38      0.00
   -1    9    6     -0.44      0.00
    0    9    6     -0.16      0.00
    1    9    6      0.44      0.00
    2    9    6      0.47      0.00
    3    9    6     -0.30      0.00
    4    9    6      0.25      0.00
    5    9    6     -1.96      0.00
    6    9    6      0.97      0.00
    7    9    6      2.03      0.00
    8    9    6      1.25      0.00
    9    9    6     -0.50      0.00
   10    9    6      0.76      0.00
   11    9    6     -0.45      0.00
   12    9    6     -1.08      0.00
   13    9    6     -1.60      0.00
   14    9    6      0.93      0.00
   15    9    6      0.74      0.00
   16    9    6      0.05      0.00
   -7   10    6      0.31      0.00
   -6   10    6     -0.87      0.00
   -5   10    6     -0.05      0.00
   -4   10    6     -1.20      0.00
   -3   10    6     -0.86      0.00
   -2   10    6     -0.47      0.00
   -1   10    6     -0.50      0.00
    0   10    6      0.12      0.00
    1   10    6      0.54      0.00
    2   10    6     -0.88      0.00
    3   10    6     -0.31      0.00
    4   10    6     -0.22      0.00
    5   10    6      1.58      0.00
    6   10    6      0.07      0.00
    7   10    6     -0.39      0.00
    8   10    6     -1.14      0.00
    9   10    6     -0.20      0.00
   10   10    6     -1.33      0.00
   11   10    6     -0.33      0.00
   12   10    6      0.95      0.00
   13   10    6      1.63      0.00
   14   10    6      0.19      0.00
   15   10    6     -0.65      0.00
   16   10    6     -0.42      0.00
   -6   11    6      1.33      0.00
   -5   11    6     -0.70      0.00
   -4   11    6      1.25      0.00
   -3   11    6      1.40      0.00
   -2   11    6      0.33      0.00
   -1   11    6      1.27      0.00
    0   11    6      0.26      0.00
    1   11    6     -0.55      0.00
    2   11    6      0.26      0.00
    3   11    6      0.38      0.00
    4   11    6      0.51      0.00
    5   11    6     -0.72      0.00
    6   11    6     -0.77      0.00
    7   11    6     -0.23      0.00
    8   11    6     -0.03      0.00
    9   11    6      0.09      0.00
   10   11    6      1.74      0.00
   11   11    6      0.57      0.00
   12   11    6     -0.18      0.00
   13   11    6     -0.86      0.00
   14   11    6     -0.82      0.00
   15   11    6     -0.26      0.00
   -4   12    6     -0.43      0.00
   -3   12    6     -0.92      0.00
   -2   12    6     -0.61      0.00
   -1   12    6     -1.17      0.00
    0   12    6     -0.84      0.00
    1   12    6     -0.31      0.00
    2   12    6      0.34      0.00
    3   12    6     -0.22      0.00
    4   12    6     -0.57      0.00
    5   12    6      0.29      0.00
    6   12    6      0.56      0.00
    7   12    6      0.33      0.00
    8   12    6      0.89      0.00
    9   12    6      0.32      0.00
   10   12    6     -1.41      0.00
   11   12    6     -0.38      0.00
   12   12    6     -0.74      0.00
   13   12    6     -0.10      0.00
   14   12    6      0.46      0.00
   15   12    6      0.55      0.00
   -3   13    6     -0.26      0.00
   -2   13    6      0.53      0.00
   -1   13    6      0.50      0.00
    0   13    6      1.05      0.00
    1   13    6      0.70      0.00
    2   13    6      0.36      0.00
    3   13    6     -0.06      0.00
    4   13    6      0.52      0.00
    5   13    6     -0.09      0.00
    6   13    6     -0.29      0.00
    7   13    6      0.00      0.00
    8   13    6     -0.92      0.00
    9   13    6     -0.54      0.00
   10   13    6      0.45      0.00
   11   13    6      0.33      0.00
   12   13    6      0.85      0.00
   13   13    6      0.59      0.00
   14   13    6      0.53      0.00
   -1   14    6      0.40      0.00
    0   14    6     -0.74      0.00
    1   14    6     -0.30      0.00
    2   14    6     -1.25      0.00
    3   14    6     -0.08      0.00
    4   14    6     -0.43      0.00
    5   14    6     -0.28      0.00
    6   14    6      0.24      0.00
    7   14    6     -0.13      0.00
    8   14    6      0.26      0.00
    9   14    6      0.25      0.00
   10   14    6      0.30      0.00
   11   14    6      0.02      0.00
   12   14    6     -0.66      0.00
   13   14    6     -0.52      0.00
    1   15    6     -0.17      0.00
    2   15    6      0.93      0.00
    3   15    6      0.48      0.00
    4   15    6      0.54      0.00
    5   15    6      0.52      0.00
    6   15    6     -0.08      0.00
    7   15    6     -0.02      0.00
    8   15    6     -0.09      0.00
    9   15    6      0.50      0.00
   10   15    6     -0.23      0.00
   11   15    6     -0.76      0.00
   12   15    6      0.49      0.00
    3   16    6     -0.35      0.00
    4   16    6     -0.48      0.00
    5   16    6     -0.75      0.00
    6   16    6      0.02      0.00
    7   16    6      0.02      0.00
    8   16    6      0.29      0.00
    9   16    6     -0.60      0.00
   10   16    6     -0.24      0.00
   -7  -14    7      0.98      0.00
   -6  -14    7      1.74      0.00
   -5  -14    7      0.62      0.00
   -4  -14    7     -1.70      0.00
  -10  -13    7      0.57      0.00
   -9  -13    7     -0.11      0.00
   -8  -13    7      1.12      0.00
   -7  -13    7     -0.50      0.00
   -6  -13    7     -1.60      0.00
   -5  -13    7     -1.84      0.00
   -4  -13    7      0.78      0.00
   -3  -13    7      0.76      0.00
   -2  -13    7      1.42      0.00
   -1  -13    7     -0.08      0.00
    0  -13    7      0.16      0.00
  -11  -12    7     -0.47      0.00
  -10  -12    7     -0.84      0.00
   -9  -12    7     -0.06      0.00
   -8  -12    7     -1.48      0.00
   -7  -12    7     -0.25      0.00
   -6  -12    7      0.54      0.00
   -5  -12    7      1.38      0.00
   -4  -12    7      0.95      0.00
   -3  -12    7     -0.50      0.00
   -2  -12    7     -1.86      0.00
   -1  -12    7     -0.04      0.00
    0  -12    7     -0.14      0.00
    1  -12    7     -0.92      0.00
    2  -12    7      0.66      0.00
  -12  -11    7     -0.26      0.00
  -11  -11    7      0.30      0.00
  -10  -11    7      0.76      0.00
   -9  -11    7      0.57      0.00
   -8  -11    7      1.26      0.00
   -7  -11    7      0.78      0.00
   -6  -11    7      0.24      0.00
   -5  -11    7     -0.61      0.00
   -4  -11    7     -0.70      0.00
   -3  -11    7     -0.46      0.00
   -2  -11    7      0.96      0.00
   -1  -11    7      0.34      0.00
    0  -11    7      0.25      0.00
    1  -11    7      0.44      0.00
    2  -11    7     -1.17      0.00
    3  -11    7      1.15      0.00
    4  -11    7     -0.83      0.00
  -13  -10    7      0.03      0.00
  -12  -10    7      0.05      0.00
  -11  -10    7      0.72      0.00
  -10  -10    7     -0.54      0.00
   -9  -10    7     -0.55      0.00
   -8  -10    7     -1.29      0.00
   -7  -10    7     -0.69      0.00
   -6  -10    7     -0.85      0.00
   -5  -10    7      0.53      0.00
   -4  -10    7      0.11      0.00
   -3  -10    7      0.19      0.00
   -2  -10    7      0.48      0.00
   -1  -10    7     -0.30      0.00
    0  -10    7     -0.04      0.00
    1  -10    7     -0.04      0.00
    2  -10    7      1.06      0.00
    3  -10    7     -0.84      0.00
    4  -10    7      0.95      0.00
    5  -10    7      0.44      0.00
  -13   -9    7      0.08      0.00
  -12   -9    7      0.85      0.00
  -11   -9    7     -1.41      0.00
  -10   -9    7      0.09      0.00
   -9   -9    7      0.05      0.00
   -8   -9    7      1.18      0.00
   -7   -9    7      0.51      0.00
   -6   -9    7      1.25      0.00
   -5   -9    7     -0.15      0.00
   -4   -9    7     -0.10      0.00
   -3   -9    7      0.03      0.00
   -2   -9    7     -0.55      0.00
   -1   -9    7     -0.34      0.00
    0   -9    7      0.08      0.00
    1   -9    7     -0.38      0.00
    2   -9    7     -0.31      0.00
    3   -9    7      0.00      0.00
    4   -9    7     -0.36      0.00
    5   -9    7     -0.35      0.00
    6   -9    7     -0.71      0.00
  -14   -8    7      0.01      0.00
  -13   -8    7      0.22      0.00
  -12   -8    7     -0.87      0.00
  -11   -8    7      0.75      0.00
  -10   -8    7     -0.11      0.00
   -9   -8    7      0.84      0.00
   -8   -8    7     -0.84      0.00
   -7   -8    7     -0.29      0.00
   -6   -8    7     -1.45      0.00
   -5   -8    7     -0.19      0.00
   -4   -8    7     -0.71      0.00
   -3   -8    7      0.08      0.00
   -2   -8    7      0.43      0.00
   -1   -8    7      0.38      0.00
    0   -8    7     -0.09      0.00
    1   -8    7     -0.05      0.00
    2   -8    7      0.28      0.00
    3   -8    7     -0.01      0.00
    4   -8    7     -0.24      0.00
    5   -8    7      0.11      0.00
    6   -8    7      0.68      0.00
    7   -8    7      0.20      0.00
    8   -8    7     -0.85      0.00
  -14   -7    7      0.21      0.00
  -13   -7    7     -0.25      0.00
  -12   -7    7      0.09      0.00
  -11   -7    7     -0.26      0.00
  -10   -7    7      0.79      0.00
   -9   -7    7     -1.45      0.00
   -8   -7    7      0.36      0.00
   -7   -7    7     -0.06      0.00
   -6   -7    7      1.04      0.00
   -5   -7    7      0.29      0.00
   -4   -7    7      1.67      0.00
   -3   -7    7      0.23      0.00
   -2   -7    7     -0.25      0.00
   -1   -7    7     -0.10      0.00
    0   -7    7     -0.36      0.00
    1   -7    7      1.32      0.00
    2   -7    7     -0.37      0.00
    3   -7    7      0.05      0.00
    4   -7    7      0.78      0.00
    5   -7    7     -0.16      0.00
    6   -7    7     -0.07      0.00
    7   -7    7     -0.25      0.00
    8   -7    7      1.04      0.00
    9   -7    7      0.50      0.00
  -14   -6    7     -0.25      0.00
  -13   -6    7      0.10      0.00
  -12   -6    7     -0.04      0.00
  -11   -6    7      0.21      0.00
  -10   -6    7     -0.52      0.00
   -9   -6    7      1.24      0.00
   -8   -6    7     -0.05      0.00
   -7   -6    7      0.75      0.00
   -6   -6    7     -0.15      0.00
   -5   -6    7      0.45      0.00
   -4   -6    7     -2.43      0.00
   -3   -6    7      0.22      0.00
   -2   -6    7     -0.55      0.00
   -1   -6    7      0.40      0.00
    0   -6    7      0.64      0.00
    1   -6    7     -2.02      0.00
    2   -6    7     -0.01      0.00
    3   -6    7     -0.20      0.00
    4   -6    7     -0.47      0.00
    5   -6    7     -0.04      0.00
    6   -6    7     -0.14      0.00
    7   -6    7      0.11      0.00
    8   -6    7     -0.45      0.00
    9   -6    7     -1.32      0.00
   10   -6    7     -0.10      0.00
  -14   -5    7      0.07      0.00
  -13   -5    7     -0.43      0.00
  -12   -5    7      0.61      0.00
  -11   -5    7      0.19      0.00
  -10   -5    7     -0.02      0.00
   -9   -5    7     -1.22      0.00
   -8   -5    7     -0.13      0.00
   -7   -5    7     -0.99      0.00
   -6   -5    7     -1.21      0.00
   -5   -5    7     -1.52      0.00
   -4   -5    7      2.22      0.00
   -3   -5    7     -0.97      0.00
   -2   -5    7      0.79      0.00
   -1   -5    7     -1.96      0.00
    0   -5    7     -0.49      0.00
    1   -5    7      1.60      0.00
    2   -5    7      0.21      0.00
    3   -5    7      1.06      0.00
    4   -5    7     -0.71      0.00
    5   -5    7      0.62      0.00
    6   -5    7     -0.23      0.00
    7   -5    7     -0.23      0.00
    8   -5    7      0.31      0.00
    9   -5    7      1.06      0.00
   10   -5    7      0.62      0.00
  -14   -4    7     -0.10      0.00
  -13   -4    7      1.04      0.00
  -12   -4    7     -0.56      0.00
  -11   -4    7     -0.72      0.00
  -10   -4    7     -0.22      0.00
   -9   -4    7      0.79      0.00
   -8   -4    7      1.06      0.00
   -7   -4    7     -0.12      0.00
   -6   -4    7      2.87      0.00
   -5   -4    7      1.75      0.00
   -4   -4    7     -0.56      0.00
   -3   -4    7      0.83      0.00
   -2   -4    7     -0.54      0.00
   -1   -4    7      4.68      0.00
    0   -4    7      0.67      0.00
    1   -4    7      0.34      0.00
    2   -4    7     -0.47      0.00
    3   -4    7     -1.56      0.00
    4   -4    7      1.42      0.00
    5   -4    7     -0.80      0.00
    6   -4    7      0.26      0.00
    7   -4    7      1.01      0.00
    8   -4    7     -0.70      0.00
    9   -4    7     -0.52      0.00
   10   -4    7     -0.51      0.00
   11   -4    7     -0.79      0.00
  -14   -3    7      0.02      0.00
  -13   -3    7     -0.99      0.00
  -12   -3    7     -0.37      0.00
  -11   -3    7      0.61      0.00
  -10   -3    7      0.78      0.00
   -9   -3    7      0.30      0.00
   -8   -3    7     -1.66      0.00
   -7   -3    7      1.29      0.00
   -6   -3    7     -3.20      0.00
   -5   -3    7     -1.92      0.00
   -4   -3    7     -1.52      0.00
   -3   -3    7      1.08      0.00
   -2   -3    7     -0.08      0.00
   -1   -3    7     -6.76      0.00
    0   -3    7     -0.33      0.00
    1   -3    7     -4.20      0.00
    2   -3    7      0.28      0.00
    3   -3    7      1.19      0.00
    4   -3    7     -1.07      0.00
    5   -3    7      0.45      0.00
    6   -3    7     -0.46      0.00
    7   -3    7     -0.91      0.00
    8   -3    7      0.03      0.00
    9   -3    7      0.49      0.00
   10   -3    7      0.59      0.00
   11   -3    7      0.73      0.00
   12   -3    7      0.00      0.00
  -14   -2    7      0.29      0.00
  -13   -2    7      0.47      0.00
  -12   -2    7      0.84      0.00
  -11   -2    7      0.51      0.00
  -10   -2    7     -1.11      0.00
   -9   -2    7     -1.03      0.00
   -8   -2    7      1.15      0.00
   -7   -2    7     -1.78      0.00
   -6   -2    7      1.71      0.00
   -5   -2    7      2.50      0.00
   -4   -2    7      3.47      0.00
   -3   -2    7     -3.85      0.00
   -2   -2    7      0.77      0.00
   -1   -2    7      6.18      0.00
    0   -2    7     -0.48      0.00
    1   -2    7      6.81      0.00
    2   -2    7      0.30      0.00
    3   -2    7      1.45      0.00
    4   -2    7     -0.49      0.00
    5   -2    7     -0.35      0.00
    6   -2    7      1.15      0.00
    7   -2    7      0.26      0.00
    8   -2    7      0.94      0.00
    9   -2    7      0.03      0.00
   10   -2    7     -1.12      0.00
   11   -2    7     -0.43      0.00
   12   -2    7     -0.27      0.00
   13   -2    7     -0.22      0.00
  -13   -1    7     -0.06      0.00
  -12   -1    7     -0.83      0.00
  -11   -1    7     -0.99      0.00
  -10   -1    7      0.43      0.00
   -9   -1    7      1.03      0.00
   -8   -1    7     -0.04      0.00
   -7   -1    7      1.56      0.00
   -6   -1    7      0.30      0.00
   -5   -1    7     -2.18      0.00
   -4   -1    7     -4.81      0.00
   -3   -1    7      4.19      0.00
   -2   -1    7     -0.33      0.00
   -1   -1    7     -2.66      0.00
    0   -1    7     -1.16      0.00
    1   -1    7     -4.05      0.00
    2   -1    7      1.20      0.00
    3   -1    7     -7.08      0.00
    4   -1    7      2.09      0.00
    5   -1    7      1.41      0.00
    6   -1    7     -1.23      0.00
    7   -1    7     -0.39      0.00
    8   -1    7     -1.20      0.00
    9   -1    7     -0.56      0.00
   10   -1    7      0.54      0.00
   11   -1    7      0.53      0.00
   12   -1    7      0.63      0.00
   13   -1    7      0.20      0.00
  -13    0    7     -0.31      0.00
  -12    0    7      0.93      0.00
  -11    0    7      0.23      0.00
  -10    0    7      0.49      0.00
   -9    0    7     -0.20      0.00
   -8    0    7     -1.05      0.00
   -7    0    7     -0.99      0.00
   -6    0    7     -1.21      0.00
   -5    0    7      0.29      0.00
   -4    0    7      4.64      0.00
   -3    0    7     -1.58      0.00
   -2    0    7     -1.08      0.00
   -1    0    7     -1.40      0.00
    0    0    7      6.15      0.00
    1    0    7     -3.86      0.00
    2    0    7     -3.22      0.00
    3    0    7      9.92      0.00
    4    0    7     -1.67      0.00
    5    0    7     -2.29      0.00
    6    0    7     -0.25      0.00
    7    0    7      0.47      0.00
    8    0    7      0.86      0.00
    9    0    7      0.65      0.00
   10    0    7      0.73      0.00
   11    0    7     -0.52      0.00
   12    0    7     -0.78      0.00
   13    0    7     -0.11      0.00
   14    0    7     -0.51      0.00
  -13    1    7      0.52      0.00
  -12    1    7     -0.59      0.00
  -11    1    7      0.31      0.00
  -10    1    7     -0.69      0.00
   -9    1    7     -0.26      0.00
   -8    1    7      0.83      0.00
   -7    1    7      0.84      0.00
   -6    1    7      0.89      0.00
   -5    1    7      1.48      0.00
   -4    1    7     -2.96      0.00
   -3    1    7     -0.55      0.00
   -2    1    7      1.77      0.00
   -1    1    7      3.67      0.00
    0    1    7     -9.90      0.00
    1    1    7      9.48      0.00
    2    1    7      3.33      0.00
    3    1    7     -5.65      0.00
    4    1    7     -0.41      0.00
    5    1    7      0.54      0.00
    6    1    7      3.47      0.00
    7    1    7     -0.05      0.00
    8    1    7     -0.04      0.00
    9    1    7     -0.26      0.00
   10    1    7     -1.31      0.00
   11    1    7      0.24      0.00
   12    1    7      0.37      0.00
   13    1    7     -0.11      0.00
   14    1    7      1.04      0.00
  -12    2    7      0.08      0.00
  -11    2    7     -0.23      0.00
  -10    2    7      0.31      0.00
   -9    2    7     -0.03      0.00
   -8    2    7      0.25      0.00
   -7    2    7     -0.74      0.00
   -6    2    7     -0.60      0.00
   -5    2    7     -1.46      0.00
   -4    2    7      1.03      0.00
   -3    2    7      0.46      0.00
   -2    2    7     -1.75      0.00
   -1    2    7     -2.73      0.00
    0    2    7      6.52      0.00
    1    2    7     -6.33      0.00
    2    2    7     -2.40      0.00
    3    2    7     -2.50      0.00
    4    2    7      3.48      0.00
    5    2    7      2.20      0.00
    6    2    7     -6.09      0.00
    7    2    7     -0.59      0.00
    8    2    7     -0.56      0.00
    9    2    7     -0.88      0.00
   10    2    7      0.61      0.00
   11    2    7      0.40      0.00
   12    2    7      0.09      0.00
   13    2    7      0.03      0.00
   14    2    7     -0.62      0.00
   15    2    7      0.49      0.00
  -12    3    7     -0.11      0.00
  -11    3    7      0.05      0.00
  -10    3    7      0.28      0.00
   -9    3    7     -0.07      0.00
   -8    3    7     -0.46      0.00
   -7    3    7      0.05      0.00
   -6    3    7      0.74      0.00
   -5    3    7      0.43      0.00
   -4    3    7     -0.32      0.00
   -3    3    7      0.67      0.00
   -2    3    7      1.44      0.00
   -1    3    7      0.31      0.00
    0    3    7     -0.01      0.00
    1    3    7      0.81      0.00
    2    3    7      0.82      0.00
    3    3    7      7.68      0.00
    4    3    7     -5.43      0.00
    5    3    7     -3.15      0.00
    6    3    7      4.89      0.00
    7    3    7      0.96      0.00
    8    3    7      1.42      0.00
    9    3    7      1.62      0.00
   10    3    7      0.84      0.00
   11    3    7     -0.68      0.00
   12    3    7     -0.44      0.00
   13    3    7      0.32      0.00
   14    3    7     -0.39      0.00
   15    3    7     -0.28      0.00
  -11    4    7     -0.07      0.00
  -10    4    7     -0.25      0.00
   -9    4    7      0.32      0.00
   -8    4    7     -0.13      0.00
   -7    4    7      0.63      0.00
   -6    4    7     -0.21      0.00
   -5    4    7     -0.50      0.00
   -4    4    7      1.01      0.00
   -3    4    7     -1.48      0.00
   -2    4    7     -0.21      0.00
   -1    4    7      0.20      0.00
    0    4    7     -1.82      0.00
    1    4    7      0.38      0.00
    2    4    7     -0.92      0.00
    3    4    7     -5.73      0.00
    4    4    7      3.63      0.00
    5    4    7      2.01      0.00
    6    4    7     -0.05      0.00
    7    4    7     -0.50      0.00
    8    4    7     -2.24      0.00
    9    4    7     -1.67      0.00
   10    4    7     -1.70      0.00
   11    4    7     -0.02      0.00
   12    4    7      0.16      0.00
   13    4    7      0.20      0.00
   14    4    7      0.76      0.00
   15    4    7      0.04      0.00
  -11    5    7      0.17      0.00
  -10    5    7     -0.48      0.00
   -9    5    7     -0.04      0.00
   -8    5    7      0.42      0.00
   -7    5    7     -0.81      0.00
   -6    5    7     -0.60      0.00
   -5    5    7      0.82      0.00
   -4    5    7     -0.94      0.00
   -3    5    7      0.71      0.00
   -2    5    7     -0.58      0.00
   -1    5    7      0.48      0.00
    0    5    7     -0.41      0.00
    1    5    7      0.51      0.00
    2    5    7      2.86      0.00
    3    5    7      0.92      0.00
    4    5    7      0.00      0.00
    5    5    7      0.16      0.00
    6    5    7     -4.07      0.00
    7    5    7     -0.81      0.00
    8    5    7      1.44      0.00
    9    5    7      1.13      0.00
   10    5    7      2.01      0.00
   11    5    7      0.82      0.00
   12    5    7      0.73      0.00
   13    5    7     -0.68      0.00
   14    5    7     -0.89      0.00
   15    5    7      0.02      0.00
  -10    6    7      0.64      0.00
   -9    6    7      0.38      0.00
   -8    6    7     -0.52      0.00
   -7    6    7      0.95      0.00
   -6    6    7      0.42      0.00
   -5    6    7     -0.08      0.00
   -4    6    7      0.06      0.00
   -3    6    7      0.37      0.00
   -2    6    7      0.43      0.00
   -1    6    7     -0.62      0.00
    0    6    7      2.35      0.00
    1    6    7     -0.82      0.00
    2    6    7     -3.12      0.00
    3    6    7      1.09      0.00
    4    6    7     -2.38      0.00
    5    6    7     -1.51      0.00
    6    6    7      3.51      0.00
    7    6    7      2.24      0.00
    8    6    7      0.49      0.00
    9    6    7      0.10      0.00
   10    6    7     -1.50      0.00
   11    6    7     -1.17      0.00
   12    6    7     -1.27      0.00
   13    6    7      0.21      0.00
   14    6    7      0.50      0.00
   15    6    7      0.80      0.00
   16    6    7     -0.34      0.00
   -9    7    7     -1.40      0.00
   -8    7    7      0.15      0.00
   -7    7    7     -0.71      0.00
   -6    7    7     -0.43      0.00
   -5    7    7     -0.38      0.00
   -4    7    7     -0.06      0.00
   -3    7    7     -0.19      0.00
   -2    7    7     -0.60      0.00
   -1    7    7      0.31      0.00
    0    7    7     -1.83      0.00
    1    7    7      0.18      0.00
    2    7    7      0.90      0.00
    3    7    7     -0.06      0.00
    4    7    7      2.39      0.00
    5    7    7      1.31      0.00
    6    7    7      0.43      0.00
    7    7    7     -2.32      0.00
    8    7    7     -2.12      0.00
    9    7    7     -0.77      0.00
   10    7    7      0.15      0.00
   11    7    7      0.52      0.00
   12    7    7      1.32      0.00
   13    7    7      0.37      0.00
   14    7    7      0.29      0.00
   15    7    7     -1.15      0.00
   16    7    7      0.03      0.00
   -8    8    7      0.69      0.00
   -7    8    7      0.68      0.00
   -6    8    7      0.55      0.00
   -5    8    7      0.54      0.00
   -4    8    7      0.47      0.00
   -3    8    7     -0.31      0.00
   -2    8    7      1.19      0.00
   -1    8    7     -0.07      0.00
    0    8    7      0.46      0.00
    1    8    7      0.11      0.00
    2    8    7      1.34      0.00
    3    8    7     -0.99      0.00
    4    8    7     -0.93      0.00
    5    8    7     -0.60      0.00
    6    8    7     -3.06      0.00
    7    8    7      0.57      0.00
    8    8    7      2.36      0.00
    9    8    7      0.74      0.00
   10    8    7      0.48      0.00
   11    8    7      0.69      0.00
   12    8    7     -0.50      0.00
   13    8    7     -0.81      0.00
   14    8    7     -0.80      0.00
   15    8    7      0.83      0.00
   16    8    7      0.35      0.00
   -7    9    7     -1.24      0.00
   -6    9    7     -0.17      0.00
   -5    9    7     -0.43      0.00
   -4    9    7     -0.93      0.00
   -3    9    7      0.22      0.00
   -2    9    7     -1.14      0.00
   -1    9    7     -0.14      0.00
    0    9    7     -0.46      0.00
    1    9    7      0.46      0.00
    2    9    7     -1.41      0.00
    3    9    7      0.40      0.00
    4    9    7     -0.46      0.00
    5    9    7      0.39      0.00
    6    9    7      2.55      0.00
    7    9    7      1.07      0.00
    8    9    7     -0.86      0.00
    9    9    7     -0.71      0.00
   10    9    7     -0.10      0.00
   11    9    7     -1.17      0.00
   12    9    7     -0.69      0.00
   13    9    7      0.65      0.00
   14    9    7      1.24      0.00
   15    9    7     -0.63      0.00
   16    9    7     -0.38      0.00
   -6   10    7      0.26      0.00
   -5   10    7     -0.13      0.00
   -4   10    7      0.36      0.00
   -3   10    7      0.68      0.00
   -2   10    7      0.39      0.00
   -1   10    7      0.30      0.00
    0   10    7      1.11      0.00
    1   10    7     -0.64      0.00
    2   10    7      0.55      0.00
    3   10    7     -0.12      0.00
    4   10    7      1.16      0.00
    5   10    7     -0.06      0.00
    6   10    7     -0.99      0.00
    7   10    7     -1.36      0.00
    8   10    7     -0.45      0.00
    9   10    7      0.06      0.00
   10   10    7     -0.21      0.00
   11   10    7      0.99      0.00
   12   10    7      1.10      0.00
   13   10    7     -0.01      0.00
   14   10    7     -0.79      0.00
   15   10    7     -0.06      0.00
   -5   11    7      0.19      0.00
   -4   11    7      1.05      0.00
   -3   11    7     -0.72      0.00
   -2   11    7     -0.24      0.00
   -1   11    7     -0.02      0.00
    0   11    7     -0.93      0.00
    1   11    7     -0.19      0.00
    2   11    7     -0.40      0.00
    3   11    7      0.92      0.00
    4   11    7     -1.21      0.00
    5   11    7     -0.26      0.00
    6   11    7     -0.39      0.00
    7   11    7      1.10      0.00
    8   11    7      0.15      0.00
    9   11    7      1.14      0.00
   10   11    7      0.12      0.00
   11   11    7     -0.65      0.00
   12   11    7     -0.66      0.00
   13   11    7     -0.51      0.00
   14   11    7     -0.32      0.00
   15   11    7      0.41      0.00
   -4   12    7     -1.02      0.00
   -3   12    7     -0.46      0.00
   -2   12    7      0.18      0.00
   -1   12    7     -0.32      0.00
    0   12    7     -0.02      0.00
    1   12    7      1.06      0.00
    2   12    7      0.49      0.00
    3   12    7     -1.04      0.00
    4   12    7      0.79      0.00
    5   12    7      0.05      0.00
    6   12    7      1.13      0.00
    7   12    7     -0.38      0.00
    8   12    7      0.66      0.00
    9   12    7     -1.60      0.00
   10   12    7     -0.12      0.00
   11   12    7      0.34      0.00
   12   12    7      0.05      0.00
   13   12    7      0.47      0.00
   14   12    7      0.86      0.00
   15   12    7     -0.04      0.00
   -3   13    7      0.90      0.00
   -2   13    7     -0.01      0.00
   -1   13    7      0.61      0.00
    0   13    7      0.65      0.00
    1   13    7     -0.76      0.00
    2   13    7     -0.29      0.00
    3   13    7     -0.19      0.00
    4   13    7      0.17      0.00
    5   13    7     -0.19      0.00
    6   13    7     -0.87      0.00
    7   13    7     -0.35      0.00
    8   13    7     -1.10      0.00
    9   13    7      0.74      0.00
   10   13    7      0.32      0.00
   11   13    7      0.01      0.00
   12   13    7      0.07      0.00
   13   13    7      0.14      0.00
   14   13    7     -0.56      0.00
   -1   14    7     -0.53      0.00
    0   14    7     -0.63      0.00
    1   14    7     -0.22      0.00
    2   14    7     -0.17      0.00
    3   14    7      1.08      0.00
    4   14    7     -0.66      0.00
    5   14    7      0.51      0.00
    6   14    7      0.35      0.00
    7   14    7      0.69      0.00
    8   14    7      0.65      0.00
    9   14    7      0.49      0.00
   10   14    7      0.03      0.00
   11   14    7     -0.24      0.00
   12   14    7     -0.36      0.00
   13   14    7     -0.23      0.00
   14   14    7     -0.14      0.00
    1   15    7      0.67      0.00
    2   15    7      0.41      0.00
    3   15    7     -0.42      0.00
    4   15    7      0.30      0.00
    5   15    7     -0.42      0.00
    6   15    7     -0.15      0.00
    7   15    7     -0.76      0.00
    8   15    7     -0.06      0.00
    9   15    7     -0.47      0.00
   10   15    7     -0.92      0.00
   11   15    7     -0.06      0.00
   12   15    7      0.90      0.00
    3   16    7     -0.54      0.00
    4   16    7     -0.08      0.00
    5   16    7     -0.19      0.00
    6   16    7      0.45      0.00
    7   16    7      0.19      0.00
    8   16    7      0.31      0.00
    9   16    7     -0.21      0.00
   10   16    7      1.00      0.00
   11   16    7      0.57      0.00
   -9  -13    8      0.17      0.00
   -8  -13    8     -0.18      0.00
   -7  -13    8     -1.90      0.00
   -6  -13    8     -1.36      0.00
   -5  -13    8     -0.74      0.00
   -4  -13    8      1.13      0.00
   -3  -13    8      0.26      0.00
   -2  -13    8     -0.54      0.00
   -1  -13    8     -1.05      0.00
  -11  -12    8     -0.22      0.00
  -10  -12    8      0.14      0.00
   -9  -12    8     -0.21      0.00
   -8  -12    8     -0.07      0.00
   -7  -12    8      1.08      0.00
   -6  -12    8      1.49      0.00
   -5  -12    8      2.12      0.00
   -4  -12    8     -0.27      0.00
   -3  -12    8     -0.49      0.00
   -2  -12    8     -0.41      0.00
   -1  -12    8      1.16      0.00
    0  -12    8     -0.43      0.00
    1  -12    8      0.52      0.00
  -12  -11    8      0.34      0.00
  -11  -11    8      0.49      0.00
  -10  -11    8      0.62      0.00
   -9  -11    8      0.34      0.00
   -8  -11    8      0.15      0.00
   -7  -11    8      0.12      0.00
   -6  -11    8     -1.26      0.00
   -5  -11    8     -1.48      0.00
   -4  -11    8     -0.48      0.00
   -3  -11    8     -0.76      0.00
   -2  -11    8      1.37      0.00
   -1  -11    8     -0.57      0.00
    0  -11    8      0.69      0.00
    1  -11    8     -1.01      0.00
    2  -11    8      1.18      0.00
    3  -11    8     -0.22      0.00
  -12  -10    8      0.85      0.00
  -11  -10    8     -0.47      0.00
  -10  -10    8     -1.20      0.00
   -9  -10    8     -0.76      0.00
   -8  -10    8     -0.31      0.00
   -7  -10    8     -0.69      0.00
   -6  -10    8      0.88      0.00
   -5  -10    8      0.68      0.00
   -4  -10    8      0.06      0.00
   -3  -10    8      1.21      0.00
   -2  -10    8     -0.65      0.00
   -1  -10    8     -0.20      0.00
    0  -10    8     -0.74      0.00
    1  -10    8      0.63      0.00
    2  -10    8     -0.85      0.00
    3  -10    8      0.08      0.00
    4  -10    8      0.43      0.00
    5  -10    8      0.10      0.00
  -13   -9    8      0.51      0.00
  -12   -9    8     -1.39      0.00
  -11   -9    8     -0.33      0.00
  -10   -9    8      1.01      0.00
   -9   -9    8      1.11      0.00
   -8   -9    8      0.50      0.00
   -7   -9    8      0.93      0.00
   -6   -9    8     -0.48      0.00
   -5   -9    8     -0.46      0.00
   -4   -9    8     -0.33      0.00
   -3   -9    8     -0.13      0.00
   -2   -9    8     -0.51      0.00
   -1   -9    8      0.40      0.00
    0   -9    8      0.56      0.00
    1   -9    8     -0.11      0.00
    2   -9    8      0.32      0.00
    3   -9    8     -0.21      0.00
    4   -9    8     -0.08      0.00
    5   -9    8     -0.92      0.00
    6   -9    8     -0.35      0.00
  -13   -8    8     -0.64      0.00
  -12   -8    8      0.61      0.00
  -11   -8    8      0.34      0.00
  -10   -8    8      0.26      0.00
   -9   -8    8     -0.97      0.00
   -8   -8    8     -0.77      0.00
   -7   -8    8     -1.08      0.00
   -6   -8    8      0.12      0.00
   -5   -8    8      0.09      0.00
   -4   -8    8      0.62      0.00
   -3   -8    8      0.34      0.00
   -2   -8    8      0.58      0.00
   -1   -8    8     -0.26      0.00
    0   -8    8     -0.34      0.00
    1   -8    8     -0.14      0.00
    2   -8    8      0.10      0.00
    3   -8    8     -0.12      0.00
    4   -8    8      0.17      0.00
    5   -8    8      0.99      0.00
    6   -8    8      0.75      0.00
    7   -8    8     -0.38      0.00
  -14   -7    8      0.34      0.00
  -13   -7    8      0.24      0.00
  -12   -7    8     -0.10      0.00
  -11   -7    8      0.73      0.00
  -10   -7    8     -0.95      0.00
   -9   -7    8      0.31      0.00
   -8   -7    8      0.89      0.00
   -7   -7    8      1.18      0.00
   -6   -7    8      0.16      0.00
   -5   -7    8      0.83      0.00
   -4   -7    8     -0.13      0.00
   -3   -7    8     -0.88      0.00
   -2   -7    8     -0.54      0.00
   -1   -7    8     -0.20      0.00
    0   -7    8      0.44      0.00
    1   -7    8      0.62      0.00
    2   -7    8     -0.62      0.00
    3   -7    8      0.68      0.00
    4   -7    8     -0.26      0.00
    5   -7    8     -0.38      0.00
    6   -7    8     -0.55      0.00
    7   -7    8     -0.12      0.00
    8   -7    8      0.45      0.00
  -14   -6    8     -0.23      0.00
  -13   -6    8     -0.29      0.00
  -12   -6    8      0.20      0.00
  -11   -6    8     -1.08      0.00
  -10   -6    8      0.68      0.00
   -9   -6    8     -0.49      0.00
   -8   -6    8     -0.16      0.00
   -7   -6    8     -1.29      0.00
   -6   -6    8     -0.13      0.00
   -5   -6    8     -2.06      0.00
   -4   -6    8     -0.48      0.00
   -3   -6    8      0.18      0.00
   -2   -6    8      0.08      0.00
   -1   -6    8      1.12      0.00
    0   -6    8     -1.13      0.00
    1   -6    8     -0.63      0.00
    2   -6    8      0.18      0.00
    3   -6    8     -0.42      0.00
    4   -6    8     -0.21      0.00
    5   -6    8     -0.15      0.00
    6   -6    8     -0.01      0.00
    7   -6    8      0.14      0.00
    8   -6    8     -0.53      0.00
    9   -6    8      0.25      0.00
  -14   -5    8      0.06      0.00
  -13   -5    8      0.64      0.00
  -12   -5    8     -0.13      0.00
  -11   -5    8      0.68      0.00
  -10   -5    8     -0.51      0.00
   -9   -5    8      0.65      0.00
   -8   -5    8      0.00      0.00
   -7   -5    8      0.66      0.00
   -6   -5    8     -0.17      0.00
   -5   -5    8      2.71      0.00
   -4   -5    8      0.69      0.00
   -3   -5    8      1.11      0.00
   -2   -5    8      0.37      0.00
   -1   -5    8     -1.10      0.00
    0   -5    8      1.83      0.00
    1   -5    8      0.14      0.00
    2   -5    8      0.99      0.00
    3   -5    8     -0.17      0.00
    4   -5    8      0.55      0.00
    5   -5    8      0.63      0.00
    6   -5    8     -0.12      0.00
    7   -5    8      0.78      0.00
    8   -5    8      0.47      0.00
    9   -5    8     -0.11      0.00
   10   -5    8      0.01      0.00
  -14   -4    8     -0.07      0.00
  -13   -4    8     -0.50      0.00
  -12   -4    8     -0.37      0.00
  -11   -4    8     -0.41      0.00
  -10   -4    8      0.32      0.00
   -9   -4    8      0.27      0.00
   -8   -4    8     -0.31      0.00
   -7   -4    8     -0.07      0.00
   -6   -4    8      1.05      0.00
   -5   -4    8     -2.58      0.00
   -4   -4    8     -0.11      0.00
   -3   -4    8     -2.50      0.00
   -2   -4    8      0.84      0.00
   -1   -4    8     -0.21      0.00
    0   -4    8     -1.66      0.00
    1   -4    8     -0.09      0.00
    2   -4    8     -1.92      0.00
    3   -4    8      0.53      0.00
    4   -4    8     -0.55      0.00
    5   -4    8     -1.08      0.00
    6   -4    8      0.57      0.00
    7   -4    8     -1.02      0.00
    8   -4    8     -1.13      0.00
    9   -4    8      0.21      0.00
   10   -4    8     -0.26      0.00
   11   -4    8      0.49      0.00
  -14   -3    8      0.09      0.00
  -13   -3    8      0.04      0.00
  -12   -3    8      0.50      0.00
  -11   -3    8      0.76      0.00
  -10   -3    8     -0.23      0.00
   -9   -3    8     -0.77      0.00
   -8   -3    8     -0.29      0.00
   -7   -3    8      0.21      0.00
   -6   -3    8     -2.01      0.00
   -5   -3    8      1.47      0.00
   -4   -3    8     -0.03      0.00
   -3   -3    8      3.35      0.00
   -2   -3    8     -3.89      0.00
   -1   -3    8      2.10      0.00
    0   -3    8      0.28      0.00
    1   -3    8     -0.40      0.00
    2   -3    8      2.55      0.00
    3   -3    8     -0.59      0.00
    4   -3    8      0.47      0.00
    5   -3    8      0.90      0.00
    6   -3    8     -0.23      0.00
    7   -3    8      0.19      0.00
    8   -3    8      1.33      0.00
    9   -3    8      0.68      0.00
   10   -3    8      0.13      0.00
   11   -3    8     -0.37      0.00
   12   -3    8      0.07      0.00
  -13   -2    8      0.24      0.00
  -12   -2    8     -0.07      0.00
  -11   -2    8     -0.82      0.00
  -10   -2    8     -0.29      0.00
   -9   -2    8      0.66      0.00
   -8   -2    8      0.95      0.00
   -7   -2    8     -0.47      0.00
   -6   -2    8      2.41      0.00
   -5   -2    8      0.41      0.00
   -4   -2    8     -0.78      0.00
   -3   -2    8     -3.91      0.00
   -2   -2    8      6.65      0.00
   -1   -2    8     -3.11      0.00
    0   -2    8      1.60      0.00
    1   -2    8      0.80      0.00
    2   -2    8     -1.07      0.00
    3   -2    8      0.68      0.00
    4   -2    8     -1.45      0.00
    5   -2    8      0.23      0.00
    6   -2    8     -0.15      0.00
    7   -2    8      0.31      0.00
    8   -2    8     -0.45      0.00
    9   -2    8     -1.53      0.00
   10   -2    8     -0.60      0.00
   11   -2    8      0.42      0.00
   12   -2    8     -0.29      0.00
  -13   -1    8     -0.72      0.00
  -12   -1    8     -0.08      0.00
  -11   -1    8     -0.01      0.00
  -10   -1    8      0.82      0.00
   -9   -1    8     -0.09      0.00
   -8   -1    8     -0.90      0.00
   -7   -1    8      0.33      0.00
   -6   -1    8     -1.83      0.00
   -5   -1    8     -2.10      0.00
   -4   -1    8      0.69      0.00
   -3   -1    8      4.41      0.00
   -2   -1    8     -5.71      0.00
   -1   -1    8      1.10      0.00
    0   -1    8     -2.69      0.00
    1   -1    8      1.68      0.00
    2   -1    8     -3.70      0.00
    3   -1    8     -2.37      0.00
    4   -1    8      4.32      0.00
    5   -1    8     -1.49      0.00
    6   -1    8     -0.17      0.00
    7   -1    8     -0.70      0.00
    8   -1    8     -0.15      0.00
    9   -1    8      0.90      0.00
   10   -1    8      1.25      0.00
   11   -1    8      0.02      0.00
   12   -1    8      0.42      0.00
   13   -1    8     -0.47      0.00
  -13    0    8      1.00      0.00
  -12    0    8      0.27      0.00
  -11    0    8      0.54      0.00
  -10    0    8     -0.40      0.00
   -9    0    8     -0.61      0.00
   -8    0    8      0.07      0.00
   -7    0    8      0.38      0.00
   -6    0    8      0.54      0.00
   -5    0    8      2.55      0.00
   -4    0    8      0.91      0.00
   -3    0    8     -3.73      0.00
   -2    0    8      1.23      0.00
   -1    0    8      3.14      0.00
    0    0    8      2.22      0.00
    1    0    8     -6.17      0.00
    2    0    8      8.39      0.00
    3    0    8      4.44      0.00
    4    0    8     -5.04      0.00
    5    0    8      0.72      0.00
    6    0    8      0.31      0.00
    7    0    8      1.30      0.00
    8    0    8      0.77      0.00
    9    0    8      0.12      0.00
   10    0    8     -0.89      0.00
   11    0    8     -0.74      0.00
   12    0    8     -0.40      0.00
   13    0    8      0.08      0.00
   14    0    8      0.17      0.00
  -12    1    8     -0.73      0.00
  -11    1    8     -0.50      0.00
  -10    1    8      0.02      0.00
   -9    1    8      0.48      0.00
   -8    1    8      0.71      0.00
   -7    1    8     -0.42      0.00
   -6    1    8     -0.07      0.00
   -5    1    8     -1.58      0.00
   -4    1    8     -2.26      0.00
   -3    1    8      1.94      0.00
   -2    1    8      2.04      0.00
   -1    1    8     -5.07      0.00
    0    1    8     -1.79      0.00
    1    1    8      8.42      0.00
    2    1    8     -7.98      0.00
    3    1    8     -4.56      0.00
    4    1    8      0.37      0.00
    5    1    8      2.37      0.00
    6    1    8      0.91      0.00
    7    1    8     -2.07      0.00
    8    1    8     -1.05      0.00
    9    1    8     -0.84      0.00
   10    1    8     -0.18      0.00
   11    1    8      0.96      0.00
   12    1    8      0.06      0.00
   13    1    8      0.61      0.00
   14    1    8     -0.07      0.00
  -12    2    8      0.96      0.00
  -11    2    8      0.04      0.00
  -10    2    8     -0.08      0.00
   -9    2    8      0.05      0.00
   -8    2    8     -0.71      0.00
   -7    2    8     -0.43      0.00
   -6    2    8      0.48      0.00
   -5    2    8      0.54      0.00
   -4    2    8      1.95      0.00
   -3    2    8     -0.61      0.00
   -2    2    8     -1.56      0.00
   -1    2    8      3.07      0.00
    0    2    8      1.76      0.00
    1    2    8     -5.13      0.00
    2    2    8      1.20      0.00
    3    2    8      4.12      0.00
    4    2    8      5.71      0.00
    5    2    8     -5.14      0.00
    6    2    8     -2.82      0.00
    7    2    8      2.50      0.00
    8    2    8      0.19      0.00
    9    2    8      0.83      0.00
   10    2    8      1.34      0.00
   11    2    8     -0.51      0.00
   12    2    8      0.06      0.00
   13    2    8     -0.76      0.00
   14    2    8      0.11      0.00
  -12    3    8     -0.87      0.00
  -11    3    8      0.60      0.00
  -10    3    8      0.06      0.00
   -9    3    8     -0.14      0.00
   -8    3    8      0.58      0.00
   -7    3    8      0.53      0.00
   -6    3    8     -0.07      0.00
   -5    3    8     -0.76      0.00
   -4    3    8     -0.35      0.00
   -3    3    8      0.01      0.00
   -2    3    8     -0.04      0.00
   -1    3    8     -0.54      0.00
    0    3    8     -0.64      0.00
    1    3    8     -0.17      0.00
    2    3    8      4.85      0.00
    3    3    8     -3.47      0.00
    4    3    8     -8.14      0.00
    5    3    8      4.75      0.00
    6    3    8      3.31      0.00
    7    3    8     -0.91      0.00
    8    3    8      0.79      0.00
    9    3    8     -0.32      0.00
   10    3    8     -1.39      0.00
   11    3    8     -0.50      0.00
   12    3    8      0.06      0.00
   13    3    8      0.45      0.00
   14    3    8     -0.46      0.00
   15    3    8      0.56      0.00
  -11    4    8     -0.47      0.00
  -10    4    8      0.02      0.00
   -9    4    8     -0.47      0.00
   -8    4    8     -0.45      0.00
   -7    4    8      0.23      0.00
   -6    4    8     -1.01      0.00
   -5    4    8      0.97      0.00
   -4    4    8     -0.30      0.00
   -3    4    8     -0.10      0.00
   -2    4    8      0.71      0.00
   -1    4    8     -0.45      0.00
    0    4    8     -0.12      0.00
    1    4    8      0.64      0.00
    2    4    8     -4.28      0.00
    3    4    8      2.29      0.00
    4    4    8      5.84      0.00
    5    4    8     -0.87      0.00
    6    4    8     -1.65      0.00
    7    4    8     -2.14      0.00
    8    4    8     -1.20      0.00
    9    4    8     -0.31      0.00
   10    4    8      0.31      0.00
   11    4    8      0.86      0.00
   12    4    8      0.46      0.00
   13    4    8      0.12      0.00
   14    4    8      0.23      0.00
   15    4    8     -0.62      0.00
  -10    5    8     -0.06      0.00
   -9    5    8      1.25      0.00
   -8    5    8     -0.04      0.00
   -7    5    8     -0.08      0.00
   -6    5    8      0.90      0.00
   -5    5    8      0.20      0.00
   -4    5    8     -0.45      0.00
   -3    5    8      0.36      0.00
   -2    5    8     -0.37      0.00
   -1    5    8     -0.15      0.00
    0    5    8     -0.23      0.00
    1    5    8      2.52      0.00
    2    5    8      0.93      0.00
    3    5    8     -1.18      0.00
    4    5    8     -2.01      0.00
    5    5    8     -3.04      0.00
    6    5    8     -1.06      0.00
    7    5    8      3.48      0.00
    8    5    8      0.86      0.00
    9    5    8      1.35      0.00
   10    5    8      0.89      0.00
   11    5    8     -0.25      0.00
   12    5    8     -0.88      0.00
   13    5    8     -0.89      0.00
   14    5    8     -0.08      0.00
   15    5    8      0.56      0.00
  -10    6    8      0.22      0.00
   -9    6    8     -1.09      0.00
   -8    6    8     -0.11      0.00
   -7    6    8     -0.56      0.00
   -6    6    8     -0.44      0.00
   -5    6    8     -0.78      0.00
   -4    6    8      0.22      0.00
   -3    6    8      0.00      0.00
   -2    6    8     -0.17      0.00
   -1    6    8      1.15      0.00
    0    6    8      0.62      0.00
    1    6    8     -3.68      0.00
    2    6    8      0.17      0.00
    3    6    8     -0.18      0.00
    4    6    8      0.21      0.00
    5    6    8      3.56      0.00
    6    6    8      2.78      0.00
    7    6    8     -1.52      0.00
    8    6    8     -0.06      0.00
    9    6    8     -1.68      0.00
   10    6    8     -1.79      0.00
   11    6    8     -0.67      0.00
   12    6    8      0.61      0.00
   13    6    8      0.81      0.00
   14    6    8      0.81      0.00
   15    6    8     -0.47      0.00
   16    6    8     -0.32      0.00
   -9    7    8     -0.03      0.00
   -8    7    8      0.94      0.00
   -7    7    8      0.51      0.00
   -6    7    8      0.59      0.00
   -5    7    8      0.54      0.00
   -4    7    8      0.56      0.00
   -3    7    8     -0.26      0.00
   -2    7    8     -0.01      0.00
   -1    7    8     -0.88      0.00
    0    7    8     -0.65      0.00
    1    7    8      1.31      0.00
    2    7    8      1.09      0.00
    3    7    8      1.52      0.00
    4    7    8     -0.49      0.00
    5    7    8     -1.07      0.00
    6    7    8     -2.34      0.00
    7    7    8     -1.70      0.00
    8    7    8     -0.70      0.00
    9    7    8      0.85      0.00
   10    7    8      1.27      0.00
   11    7    8      1.44      0.00
   12    7    8      0.09      0.00
   13    7    8     -0.09      0.00
   14    7    8     -1.06      0.00
   15    7    8     -0.06      0.00
   16    7    8      0.64      0.00
   -8    8    8     -0.39      0.00
   -7    8    8     -0.61      0.00
   -6    8    8     -0.47      0.00
   -5    8    8     -0.33      0.00
   -4    8    8     -0.68      0.00
   -3    8    8      0.27      0.00
   -2    8    8      0.27      0.00
   -1    8    8      0.13      0.00
    0    8    8      0.40      0.00
    1    8    8      1.02      0.00
    2    8    8     -1.43      0.00
    3    8    8     -1.95      0.00
    4    8    8      0.59      0.00
    5    8    8     -1.31      0.00
    6    8    8      0.78      0.00
    7    8    8      2.59      0.00
    8    8    8      1.66      0.00
    9    8    8     -0.15      0.00
   10    8    8      0.34      0.00
   11    8    8     -1.12      0.00
   12    8    8     -0.69      0.00
   13    8    8     -0.79      0.00
   14    8    8      0.95      0.00
   15    8    8      0.09      0.00
   16    8    8     -0.30      0.00
   -7    9    8      0.55      0.00
   -6    9    8      0.28      0.00
   -5    9    8     -0.10      0.00
   -4    9    8     -0.05      0.00
   -3    9    8     -0.03      0.00
   -2    9    8     -0.24      0.00
   -1    9    8     -0.21      0.00
    0    9    8     -0.26      0.00
    1    9    8     -0.76      0.00
    2    9    8      0.02      0.00
    3    9    8      0.99      0.00
    4    9    8      0.35      0.00
    5    9    8      1.81      0.00
    6    9    8      0.17      0.00
    7    9    8     -0.70      0.00
    8    9    8     -2.16      0.00
    9    9    8     -0.21      0.00
   10    9    8     -1.19      0.00
   11    9    8      0.03      0.00
   12    9    8      0.41      0.00
   13    9    8      1.57      0.00
   14    9    8     -0.73      0.00
   15    9    8     -0.05      0.00
   16    9    8      0.32      0.00
   -6   10    8      0.17      0.00
   -5   10    8     -0.34      0.00
   -4   10    8      1.29      0.00
   -3   10    8      0.36      0.00
   -2   10    8     -0.21      0.00
   -1   10    8      0.80      0.00
    0   10    8      0.35      0.00
    1   10    8      0.07      0.00
    2   10    8      0.66      0.00
    3   10    8      0.18      0.00
    4   10    8     -0.37      0.00
    5   10    8     -1.25      0.00
    6   10    8     -0.74      0.00
    7   10    8     -0.73      0.00
    8   10    8      1.24      0.00
    9   10    8      0.34      0.00
   10   10    8      1.25      0.00
   11   10    8      0.47      0.00
   12   10    8      0.31      0.00
   13   10    8     -1.27      0.00
   14   10    8      0.02      0.00
   15   10    8      0.04      0.00
   -5   11    8      1.19      0.00
   -4   11    8     -1.20      0.00
   -3   11    8     -1.37      0.00
   -2   11    8      0.40      0.00
   -1   11    8     -0.70      0.00
    0   11    8     -0.72      0.00
    1   11    8     -0.38      0.00
    2   11    8     -0.09      0.00
    3   11    8     -0.43      0.00
    4   11    8     -0.62      0.00
    5   11    8      0.28      0.00
    6   11    8      1.13      0.00
    7   11    8      0.71      0.00
    8   11    8      0.19      0.00
    9   11    8      0.17      0.00
   10   11    8     -1.39      0.00
   11   11    8     -0.10      0.00
   12   11    8     -0.77      0.00
   13   11    8      0.29      0.00
   14   11    8      0.27      0.00
   15   11    8      0.23      0.00
   -4   12    8      0.11      0.00
   -3   12    8      0.94      0.00
   -2   12    8      0.19      0.00
   -1   12    8      0.13      0.00
    0   12    8      0.91      0.00
    1   12    8      0.75      0.00
    2   12    8     -0.13      0.00
    3   12    8      0.06      0.00
    4   12    8      0.92      0.00
    5   12    8      0.53      0.00
    6   12    8     -0.55      0.00
    7   12    8     -0.31      0.00
    8   12    8     -1.02      0.00
    9   12    8     -0.88      0.00
   10   12    8      1.13      0.00
   11   12    8     -0.09      0.00
   12   12    8      0.67      0.00
   13   12    8      0.22      0.00
   14   12    8      0.24      0.00
   15   12    8     -0.13      0.00
   -3   13    8      0.33      0.00
   -2   13    8     -0.44      0.00
   -1   13    8      0.33      0.00
    0   13    8     -0.60      0.00
    1   13    8     -0.56      0.00
    2   13    8     -0.68      0.00
    3   13    8      0.62      0.00
    4   13    8     -0.57      0.00
    5   13    8     -0.82      0.00
    6   13    8     -0.22      0.00
    7   13    8     -0.13      0.00
    8   13    8      0.79      0.00
    9   13    8      1.13      0.00
   10   13    8     -0.05      0.00
   11   13    8     -0.20      0.00
   12   13    8     -0.38      0.00
   13   13    8      0.03      0.00
   14   13    8     -0.78      0.00
   -1   14    8     -0.62      0.00
    0   14    8      0.01      0.00
    1   14    8      0.19      0.00
    2   14    8      1.30      0.00
    3   14    8     -0.73      0.00
    4   14    8      0.37      0.00
    5   14    8      0.44      0.00
    6   14    8      0.71      0.00
    7   14    8      0.15      0.00
    8   14    8     -0.12      0.00
    9   14    8     -0.44      0.00
   10   14    8     -0.77      0.00
   11   14    8     -0.17      0.00
   12   14    8      0.36      0.00
   13   14    8     -0.17      0.00
    1   15    8     -0.02      0.00
    2   15    8     -0.78      0.00
    3   15    8      0.04      0.00
    4   15    8     -0.51      0.00
    5   15    8     -0.04      0.00
    6   15    8     -0.81      0.00
    7   15    8     -0.17      0.00
    8   15    8      0.16      0.00
    9   15    8     -0.30      0.00
   10   15    8      0.18      0.00
   11   15    8      1.05      0.00
   12   15    8     -0.15      0.00
    4   16    8      0.37      0.00
    5   16    8      0.35      0.00
    6   16    8      0.50      0.00
    7   16    8      0.38      0.00
    8   16    8     -0.13      0.00
    9   16    8     -0.05      0.00
   10   16    8      0.68      0.00
   -7  -13    9     -0.68      0.00
   -6  -13    9     -0.02      0.00
   -5  -13    9      1.21      0.00
   -4  -13    9      1.14      0.00
   -3  -13    9      0.29      0.00
  -10  -12    9      0.67      0.00
   -9  -12    9     -0.17      0.00
   -8  -12    9      0.45      0.00
   -7  -12    9      1.03      0.00
   -6  -12    9      1.07      0.00
   -5  -12    9      0.03      0.00
   -4  -12    9     -1.08      0.00
   -3  -12    9     -0.74      0.00
   -2  -12    9      0.79      0.00
   -1  -12    9      0.09      0.00
    0  -12    9      0.24      0.00
    1  -12    9      0.17      0.00
  -11  -11    9     -0.05      0.00
  -10  -11    9     -0.83      0.00
   -9  -11    9     -0.35      0.00
   -8  -11    9      0.00      0.00
   -7  -11    9     -0.89      0.00
   -6  -11    9     -1.21      0.00
   -5  -11    9     -0.69      0.00
   -4  -11    9     -0.54      0.00
   -3  -11    9      0.40      0.00
   -2  -11    9      0.33      0.00
   -1  -11    9     -0.53      0.00
    0  -11    9     -0.58      0.00
    1  -11    9     -0.17      0.00
    2  -11    9      0.46      0.00
    3  -11    9     -1.32      0.00
  -12  -10    9     -0.10      0.00
  -11  -10    9     -1.08      0.00
  -10  -10    9      0.64      0.00
   -9  -10    9      0.38      0.00
   -8  -10    9      0.10      0.00
   -7  -10    9      0.40      0.00
   -6  -10    9      0.82      0.00
   -5  -10    9      0.27      0.00
   -4  -10    9      0.80      0.00
   -3  -10    9      1.11      0.00
   -2  -10    9     -0.77      0.00
   -1  -10    9      0.35      0.00
    0  -10    9      0.26      0.00
    1  -10    9      0.42      0.00
    2  -10    9     -0.38      0.00
    3  -10    9      0.75      0.00
    4  -10    9     -0.09      0.00
  -12   -9    9     -0.91      0.00
  -11   -9    9      1.46      0.00
  -10   -9    9      0.08      0.00
   -9   -9    9      0.04      0.00
   -8   -9    9     -0.27      0.00
   -7   -9    9      0.07      0.00
   -6   -9    9     -0.68      0.00
   -5   -9    9      0.09      0.00
   -4   -9    9      0.26      0.00
   -3   -9    9     -1.26      0.00
   -2   -9    9     -0.08      0.00
   -1   -9    9      0.02      0.00
    0   -9    9      0.02      0.00
    1   -9    9     -0.40      0.00
    2   -9    9     -0.09      0.00
    3   -9    9      0.07      0.00
    4   -9    9     -0.39      0.00
    5   -9    9     -0.32      0.00
    6   -9    9      0.90      0.00
  -13   -8    9     -0.05      0.00
  -12   -8    9      1.01      0.00
  -11   -8    9     -0.39      0.00
  -10   -8    9      0.00      0.00
   -9   -8    9     -1.02      0.00
   -8   -8    9      0.35      0.00
   -7   -8    9     -0.22      0.00
   -6   -8    9      0.63      0.00
   -5   -8    9     -0.20      0.00
   -4   -8    9     -0.27      0.00
   -3   -8    9      0.41      0.00
   -2   -8    9      0.07      0.00
   -1   -8    9      0.40      0.00
    0   -8    9     -0.36      0.00
    1   -8    9      0.61      0.00
    2   -8    9      0.04      0.00
    3   -8    9     -0.05      0.00
    4   -8    9      0.79      0.00
    5   -8    9      0.37      0.00
    6   -8    9     -0.64      0.00
    7   -8    9     -0.41      0.00
  -13   -7    9      0.33      0.00
  -12   -7    9     -0.18      0.00
  -11   -7    9     -0.25      0.00
  -10   -7    9     -1.08      0.00
   -9   -7    9      1.45      0.00
   -8   -7    9     -0.11      0.00
   -7   -7    9      0.13      0.00
   -6   -7    9     -0.39      0.00
   -5   -7    9      0.28      0.00
   -4   -7    9     -0.38      0.00
   -3   -7    9     -0.24      0.00
   -2   -7    9     -0.04      0.00
   -1   -7    9     -0.58      0.00
    0   -7    9      0.72      0.00
    1   -7    9     -0.90      0.00
    2   -7    9      0.03      0.00
    3   -7    9      0.06      0.00
    4   -7    9     -1.10      0.00
    5   -7    9     -0.06      0.00
    6   -7    9     -0.31      0.00
    7   -7    9      0.24      0.00
    8   -7    9      0.47      0.00
  -13   -6    9     -0.45      0.00
  -12   -6    9     -0.17      0.00
  -11   -6    9     -0.16      0.00
  -10   -6    9      1.20      0.00
   -9   -6    9     -0.75      0.00
   -8   -6    9      0.16      0.00
   -7   -6    9     -0.73      0.00
   -6   -6    9      0.35      0.00
   -5   -6    9     -0.61      0.00
   -4   -6    9      0.66      0.00
   -3   -6    9     -0.21      0.00
   -2   -6    9      1.26      0.00
   -1   -6    9      0.12      0.00
    0   -6    9     -0.62      0.00
    1   -6    9      0.85      0.00
    2   -6    9     -0.31      0.00
    3   -6    9      0.11      0.00
    4   -6    9      0.62      0.00
    5   -6    9      0.03      0.00
    6   -6    9      0.59      0.00
    7   -6    9      0.11      0.00
    8   -6    9     -0.45      0.00
    9   -6    9      0.21      0.00
  -13   -5    9      0.62      0.00
  -12   -5    9     -0.15      0.00
  -11   -5    9      0.89      0.00
  -10   -5    9     -0.60      0.00
   -9   -5    9      0.31      0.00
   -8   -5    9     -0.15      0.00
   -7   -5    9      0.89      0.00
   -6   -5    9      0.23      0.00
   -5   -5    9      0.67      0.00
   -4   -5    9     -0.07      0.00
   -3   -5    9      0.89      0.00
   -2   -5    9     -1.68      0.00
   -1   -5    9      0.30      0.00
    0   -5    9     -0.03      0.00
    1   -5    9     -0.46      0.00
    2   -5    9      0.85      0.00
    3   -5    9     -0.58      0.00
    4   -5    9      0.58      0.00
    5   -5    9     -0.38      0.00
    6   -5    9     -0.19      0.00
    7   -5    9      0.31      0.00
    8   -5    9     -0.30      0.00
    9   -5    9     -0.43      0.00
   10   -5    9      0.64      0.00
  -13   -4    9     -0.94      0.00
  -12   -4    9      0.32      0.00
  -11   -4    9     -1.05      0.00
  -10   -4    9     -0.07      0.00
   -9   -4    9      0.09      0.00
   -8   -4    9     -1.06      0.00
   -7   -4    9      0.17      0.00
   -6   -4    9     -1.15      0.00
   -5   -4    9     -0.24      0.00
   -4   -4    9     -1.02      0.00
   -3   -4    9     -0.81      0.00
   -2   -4    9      0.52      0.00
   -1   -4    9     -1.14      0.00
    0   -4    9      0.88      0.00
    1   -4    9     -0.46      0.00
    2   -4    9     -0.79      0.00
    3   -4    9      0.76      0.00
    4   -4    9     -1.77      0.00
    5   -4    9      0.64      0.00
    6   -4    9      0.19      0.00
    7   -4    9     -1.28      0.00
    8   -4    9      0.41      0.00
    9   -4    9      0.93      0.00
   10   -4    9     -0.58      0.00
   11   -4    9      0.54      0.00
  -13   -3    9      1.13      0.00
  -12   -3    9      0.12      0.00
  -11   -3    9      0.63      0.00
  -10   -3    9      0.34      0.00
   -9   -3    9     -0.35      0.00
   -8   -3    9      1.86      0.00
   -7   -3    9     -0.63      0.00
   -6   -3    9      1.05      0.00
   -5   -3    9      0.02      0.00
   -4   -3    9      1.84      0.00
   -3   -3    9     -0.75      0.00
   -2   -3    9      0.97      0.00
   -1   -3    9      2.67      0.00
    0   -3    9     -1.87      0.00
    1   -3    9      1.76      0.00
    2   -3    9      0.34      0.00
    3   -3    9     -0.57      0.00
    4   -3    9      2.19      0.00
    5   -3    9     -0.40      0.00
    6   -3    9     -0.26      0.00
    7   -3    9      1.06      0.00
    8   -3    9      0.73      0.00
    9   -3    9     -0.73      0.00
   10   -3    9     -0.41      0.00
   11   -3    9     -0.41      0.00
   12   -3    9      0.06      0.00
  -13   -2    9     -1.15      0.00
  -12   -2    9     -0.41      0.00
  -11   -2    9     -0.76      0.00
  -10   -2    9      0.11      0.00
   -9   -2    9      0.31      0.00
   -8   -2    9     -1.52      0.00
   -7   -2    9      0.41      0.00
   -6   -2    9     -0.22      0.00
   -5   -2    9     -0.11      0.00
   -4   -2    9     -2.42      0.00
   -3   -2    9      2.78      0.00
   -2   -2    9     -1.05      0.00
   -1   -2    9     -3.62      0.00
    0   -2    9      1.88      0.00
    1   -2    9     -2.32      0.00
    2   -2    9      0.99      0.00
    3   -2    9     -1.25      0.00
    4   -2    9     -1.28      0.00
    5   -2    9      0.25      0.00
    6   -2    9     -0.18      0.00
    7   -2    9     -0.14      0.00
    8   -2    9     -1.26      0.00
    9   -2    9     -0.76      0.00
   10   -2    9      1.32      0.00
   11   -2    9      0.25      0.00
   12   -2    9      0.24      0.00
  -13   -1    9      0.79      0.00
  -12   -1    9      0.61      0.00
  -11   -1    9      0.80      0.00
  -10   -1    9     -0.07      0.00
   -9   -1    9     -0.38      0.00
   -8   -1    9      0.61      0.00
   -7   -1    9     -0.21      0.00
   -6   -1    9     -0.28      0.00
   -5   -1    9     -0.34      0.00
   -4   -1    9      2.88      0.00
   -3   -1    9     -2.51      0.00
   -2   -1    9     -0.79      0.00
   -1   -1    9      1.93      0.00
    0   -1    9      1.12      0.00
    1   -1    9      1.06      0.00
    2   -1    9     -4.25      0.00
    3   -1    9      4.80      0.00
    4   -1    9      0.29      0.00
    5   -1    9     -0.96      0.00
    6   -1    9      0.43      0.00
    7   -1    9     -0.36      0.00
    8   -1    9      1.07      0.00
    9   -1    9      1.52      0.00
   10   -1    9     -0.61      0.00
   11   -1    9     -0.26      0.00
   12   -1    9     -0.57      0.00
   13   -1    9     -0.42      0.00
  -13    0    9      0.16      0.00
  -12    0    9     -0.84      0.00
  -11    0    9     -0.31      0.00
  -10    0    9     -0.38      0.00
   -9    0    9      0.01      0.00
   -8    0    9      0.43      0.00
   -7    0    9      0.30      0.00
   -6    0    9     -0.03      0.00
   -5    0    9      1.48      0.00
   -4    0    9     -2.65      0.00
   -3    0    9     -0.10      0.00
   -2    0    9      2.25      0.00
   -1    0    9      1.96      0.00
    0    0    9     -5.79      0.00
    1    0    9      1.51      0.00
    2    0    9      6.77      0.00
    3    0    9     -5.88      0.00
    4    0    9     -0.69      0.00
    5    0    9      0.90      0.00
    6    0    9      0.57      0.00
    7    0    9      0.89      0.00
    8    0    9     -0.85      0.00
    9    0    9     -1.11      0.00
   10    0    9     -0.59      0.00
   11    0    9      0.08      0.00
   12    0    9      0.52      0.00
   13    0    9      0.18      0.00
  -12    1    9      0.43      0.00
  -11    1    9      0.12      0.00
  -10    1    9      0.46      0.00
   -9    1    9      0.34      0.00
   -8    1    9     -0.42      0.00
   -7    1    9     -0.68      0.00
   -6    1    9      0.18      0.00
   -5    1    9     -1.80      0.00
   -4    1    9      1.50      0.00
   -3    1    9      1.96      0.00
   -2    1    9     -1.69      0.00
   -1    1    9     -4.14      0.00
    0    1    9      6.83      0.00
    1    1    9     -2.06      0.00
    2    1    9     -6.15      0.00
    3    1    9      1.78      0.00
    4    1    9      1.92      0.00
    5    1    9      1.97      0.00
    6    1    9     -3.01      0.00
    7    1    9     -1.24      0.00
    8    1    9      0.30      0.00
    9    1    9      0.29      0.00
   10    1    9      1.04      0.00
   11    1    9      0.00      0.00
   12    1    9     -0.04      0.00
   13    1    9      0.22      0.00
   14    1    9     -1.05      0.00
  -12    2    9      0.05      0.00
  -11    2    9     -0.19      0.00
  -10    2    9     -0.12      0.00
   -9    2    9     -0.36      0.00
   -8    2    9     -0.26      0.00
   -7    2    9      0.58      0.00
   -6    2    9      0.57      0.00
   -5    2    9      0.80      0.00
   -4    2    9     -0.19      0.00
   -3    2    9     -1.68      0.00
   -2    2    9      0.61      0.00
   -1    2    9      2.30      0.00
    0    2    9     -2.52      0.00
    1    2    9     -0.68      0.00
    2    2    9      3.34      0.00
    3    2    9      4.88      0.00
    4    2    9     -3.29      0.00
    5    2    9     -5.30      0.00
    6    2    9      4.51      0.00
    7    2    9      1.26      0.00
    8    2    9      0.10      0.00
    9    2    9      0.87      0.00
   10    2    9     -0.51      0.00
   11    2    9     -0.18      0.00
   12    2    9     -0.27      0.00
   13    2    9     -0.35      0.00
   14    2    9      0.57      0.00
  -11    3    9      0.22      0.00
  -10    3    9     -0.27      0.00
   -9    3    9      0.46      0.00
   -8    3    9      0.32      0.00
   -7    3    9      0.05      0.00
   -6    3    9     -1.02      0.00
   -5    3    9     -0.18      0.00
   -4    3    9     -0.04      0.00
   -3    3    9     -0.02      0.00
   -2    3    9      0.31      0.00
   -1    3    9      0.24      0.00
    0    3    9     -1.34      0.00
    1    3    9      2.65      0.00
    2    3    9     -0.71      0.00
    3    3    9     -8.47      0.00
    4    3    9      3.47      0.00
    5    3    9      5.64      0.00
    6    3    9     -2.42      0.00
    7    3    9     -1.07      0.00
    8    3    9     -0.45      0.00
    9    3    9     -1.37      0.00
   10    3    9     -0.62      0.00
   11    3    9      0.15      0.00
   12    3    9      0.34      0.00
   13    3    9      0.21      0.00
   14    3    9      0.21      0.00
   15    3    9      0.85      0.00
  -11    4    9     -0.08      0.00
  -10    4    9     -0.02      0.00
   -9    4    9     -0.31      0.00
   -8    4    9      0.18      0.00
   -7    4    9     -0.41      0.00
   -6    4    9      0.17      0.00
   -5    4    9      0.91      0.00
   -4    4    9     -0.49      0.00
   -3    4    9      1.29      0.00
   -2    4    9     -0.84      0.00
   -1    4    9     -0.53      0.00
    0    4    9      0.66      0.00
    1    4    9     -2.23      0.00
    2    4    9      0.86      0.00
    3    4    9      6.27      0.00
    4    4    9     -1.32      0.00
    5    4    9     -3.01      0.00
    6    4    9     -1.92      0.00
    7    4    9      0.28      0.00
    8    4    9      0.82      0.00
    9    4    9      0.83      0.00
   10    4    9      1.20      0.00
   11    4    9      0.50      0.00
   12    4    9      0.33      0.00
   13    4    9     -0.77      0.00
   14    4    9     -0.45      0.00
   15    4    9     -0.80      0.00
  -10    5    9      0.41      0.00
   -9    5    9      0.18      0.00
   -8    5    9     -0.48      0.00
   -7    5    9      0.42      0.00
   -6    5    9      0.44      0.00
   -5    5    9     -0.95      0.00
   -4    5    9     -0.15      0.00
   -3    5    9     -0.74      0.00
   -2    5    9      0.17      0.00
   -1    5    9     -0.38      0.00
    0    5    9      2.20      0.00
    1    5    9      1.42      0.00
    2    5    9     -2.38      0.00
    3    5    9     -2.14      0.00
    4    5    9     -1.72      0.00
    5    5    9      0.00      0.00
    6    5    9      4.29      0.00
    7    5    9      0.81      0.00
    8    5    9     -0.35      0.00
    9    5    9      0.49      0.00
   10    5    9     -1.11      0.00
   11    5    9     -1.02      0.00
   12    5    9     -1.51      0.00
   13    5    9      1.17      0.00
   14    5    9      0.41      0.00
   15    5    9      0.88      0.00
  -10    6    9      0.21      0.00
   -9    6    9     -0.85      0.00
   -8    6    9      0.41      0.00
   -7    6    9     -0.57      0.00
   -6    6    9     -0.01      0.00
   -5    6    9     -0.03      0.00
   -4    6    9      0.87      0.00
   -3    6    9      0.38      0.00
   -2    6    9      0.50      0.00
   -1    6    9      1.06      0.00
    0    6    9     -3.26      0.00
    1    6    9     -1.38      0.00
    2    6    9      1.76      0.00
    3    6    9      0.55      0.00
    4    6    9      3.33      0.00
    5    6    9      1.35      0.00
    6    6    9     -2.66      0.00
    7    6    9     -1.13      0.00
    8    6    9     -0.67      0.00
    9    6    9     -1.92      0.00
   10    6    9      0.28      0.00
   11    6    9      1.01      0.00
   12    6    9      1.93      0.00
   13    6    9     -0.60      0.00
   14    6    9      0.26      0.00
   15    6    9     -1.73      0.00
   -9    7    9      1.30      0.00
   -8    7    9      0.19      0.00
   -7    7    9      0.67      0.00
   -6    7    9      0.19      0.00
   -5    7    9      0.24      0.00
   -4    7    9     -0.38      0.00
   -3    7    9     -0.88      0.00
   -2    7    9     -0.39      0.00
   -1    7    9     -0.98      0.00
    0    7    9      1.58      0.00
    1    7    9      1.55      0.00
    2    7    9      1.11      0.00
    3    7    9     -1.38      0.00
    4    7    9     -2.55      0.00
    5    7    9     -1.10      0.00
    6    7    9     -0.66      0.00
    7    7    9      0.10      0.00
    8    7    9      1.32      0.00
    9    7    9      1.98      0.00
   10    7    9      0.97      0.00
   11    7    9     -0.16      0.00
   12    7    9     -1.44      0.00
   13    7    9     -0.18      0.00
   14    7    9     -0.97      0.00
   15    7    9      1.83      0.00
   16    7    9     -0.12      0.00
   -8    8    9     -0.66      0.00
   -7    8    9     -1.17      0.00
   -6    8    9     -0.48      0.00
   -5    8    9     -0.26      0.00
   -4    8    9     -0.14      0.00
   -3    8    9      0.76      0.00
   -2    8    9      0.11      0.00
   -1    8    9      0.69      0.00
    0    8    9     -0.16      0.00
    1    8    9     -0.77      0.00
    2    8    9     -2.87      0.00
    3    8    9      1.16      0.00
    4    8    9      0.86      0.00
    5    8    9      0.62      0.00
    6    8    9      1.92      0.00
    7    8    9      1.45      0.00
    8    8    9     -0.84      0.00
    9    8    9     -0.98      0.00
   10    8    9     -1.19      0.00
   11    8    9     -1.04      0.00
   12    8    9      0.37      0.00
   13    8    9      0.66      0.00
   14    8    9      1.05      0.00
   15    8    9     -1.30      0.00
   16    8    9      0.05      0.00
   -7    9    9      1.47      0.00
   -6    9    9      0.40      0.00
   -5    9    9      0.09      0.00
   -4    9    9      0.35      0.00
   -3    9    9      0.04      0.00
   -2    9    9     -0.23      0.00
   -1    9    9     -0.52      0.00
    0    9    9      0.38      0.00
    1    9    9     -0.13      0.00
    2    9    9      1.96      0.00
    3    9    9      0.65      0.00
    4    9    9      0.55      0.00
    5    9    9     -0.55      0.00
    6    9    9     -0.82      0.00
    7    9    9     -1.80      0.00
    8    9    9     -0.54      0.00
    9    9    9      0.22      0.00
   10    9    9      0.41      0.00
   11    9    9      1.24      0.00
   12    9    9      0.57      0.00
   13    9    9     -0.25      0.00
   14    9    9     -1.17      0.00
   15    9    9      1.16      0.00
   -6   10    9     -0.71      0.00
   -5   10    9      0.44      0.00
   -4   10    9      0.47      0.00
   -3   10    9     -0.83      0.00
   -2   10    9      0.20      0.00
   -1   10    9      0.56      0.00
    0   10    9     -0.53      0.00
    1   10    9      0.20      0.00
    2   10    9     -1.08      0.00
    3   10    9     -0.87      0.00
    4   10    9     -1.51      0.00
    5   10    9     -0.19      0.00
    6   10    9     -0.21      0.00
    7   10    9      1.14      0.00
    8   10    9      0.80      0.00
    9   10    9      0.60      0.00
   10   10    9      0.12      0.00
   11   10    9     -0.54      0.00
   12   10    9     -0.57      0.00
   13   10    9     -0.62      0.00
   14   10    9      0.86      0.00
   15   10    9     -0.67      0.00
   -5   11    9     -0.50      0.00
   -4   11    9     -1.48      0.00
   -3   11    9      0.17      0.00
   -2   11    9      0.44      0.00
   -1   11    9     -0.73      0.00
    0   11    9     -0.15      0.00
    1   11    9      0.12      0.00
    2   11    9      1.13      0.00
    3   11    9     -0.33      0.00
    4   11    9      1.62      0.00
    5   11    9      1.02      0.00
    6   11    9      0.91      0.00
    7   11    9     -0.71      0.00
    8   11    9      0.40      0.00
    9   11    9     -1.43      0.00
   10   11    9     -0.18      0.00
   11   11    9     -0.05      0.00
   12   11    9     -0.07      0.00
   13   11    9      0.80      0.00
   14   11    9     -0.07      0.00
   15   11    9      0.20      0.00
   -4   12    9      0.90      0.00
   -3   12    9      1.15      0.00
   -2   12    9     -0.39      0.00
   -1   12    9      0.49      0.00
    0   12    9      0.67      0.00
    1   12    9     -0.20      0.00
    2   12    9     -0.74      0.00
    3   12    9      0.55      0.00
    4   12    9     -0.82      0.00
    5   12    9     -0.68      0.00
    6   12    9     -1.44      0.00
    7   12    9      0.17      0.00
    8   12    9     -1.28      0.00
    9   12    9      1.27      0.00
   10   12    9      0.30      0.00
   11   12    9      0.40      0.00
   12   12    9      0.31      0.00
   13   12    9     -0.13      0.00
   14   12    9     -0.15      0.00
   15   12    9     -0.12      0.00
   -2   13    9     -0.04      0.00
   -1   13    9     -0.23      0.00
    0   13    9     -0.50      0.00
    1   13    9     -0.04      0.00
    2   13    9      0.27      0.00
    3   13    9      0.32      0.00
    4   13    9     -0.44      0.00
    5   13    9      0.16      0.00
    6   13    9      1.06      0.00
    7   13    9      0.33      0.00
    8   13    9      1.14      0.00
    9   13    9     -0.03      0.00
   10   13    9     -0.40      0.00
   11   13    9     -0.74      0.00
   12   13    9     -0.05      0.00
   13   13    9     -0.37      0.00
   14   13    9     -0.31      0.00
   -1   14    9     -0.05      0.00
    0   14    9      0.08      0.00
    1   14    9      0.24      0.00
    2   14    9     -0.31      0.00
    3   14    9     -0.83      0.00
    4   14    9      0.77      0.00
    5   14    9     -0.12      0.00
    6   14    9     -0.09      0.00
    7   14    9     -0.66      0.00
    8   14    9     -0.12      0.00
    9   14    9     -0.85      0.00
   10   14    9     -0.08      0.00
   11   14    9      0.66      0.00
   12   14    9      0.35      0.00
   13   14    9      0.12      0.00
    1   15    9     -0.08      0.00
    2   15    9      0.45      0.00
    3   15    9      0.45      0.00
    4   15    9      0.00      0.00
    5   15    9      0.24      0.00
    6   15    9     -0.48      0.00
    7   15    9      0.73      0.00
    8   15    9     -0.29      0.00
    9   15    9      0.13      0.00
   10   15    9      0.57      0.00
   11   15    9      0.15      0.00
   12   15    9     -0.85      0.00
    4   16    9     -0.52      0.00
    5   16    9     -0.01      0.00
    6   16    9      0.09      0.00
    7   16    9     -0.03      0.00
    8   16    9     -0.40      0.00
    9   16    9      0.57      0.00
   10   16    9     -0.05      0.00
   -9  -12   10     -0.14      0.00
   -8  -12   10      0.35      0.00
   -7  -12   10      1.19      0.00
   -6  -12   10      0.04      0.00
   -5  -12   10     -1.43      0.00
   -4  -12   10     -0.97      0.00
   -3  -12   10     -1.01      0.00
   -2  -12   10      0.26      0.00
   -1  -12   10     -0.39      0.00
    0  -12   10      0.17      0.00
  -10  -11   10     -0.26      0.00
   -9  -11   10      0.54      0.00
   -8  -11   10     -0.26      0.00
   -7  -11   10     -1.49      0.00
   -6  -11   10     -0.45      0.00
   -5  -11   10      0.02      0.00
   -4  -11   10      0.33      0.00
   -3  -11   10      2.42      0.00
   -2  -11   10     -0.32      0.00
   -1  -11   10      0.44      0.00
    0  -11   10     -0.72      0.00
    1  -11   10      0.50      0.00
    2  -11   10     -1.29      0.00
  -11  -10   10      0.41      0.00
  -10  -10   10      1.03      0.00
   -9  -10   10     -0.42      0.00
   -8  -10   10      0.48      0.00
   -7  -10   10      1.08      0.00
   -6  -10   10      0.58      0.00
   -5  -10   10      0.66      0.00
   -4  -10   10      1.13      0.00
   -3  -10   10     -1.60      0.00
   -2  -10   10     -0.44      0.00
   -1  -10   10     -0.70      0.00
    0  -10   10      0.90      0.00
    1  -10   10     -0.05      0.00
    2  -10   10      0.67      0.00
    3  -10   10      0.20      0.00
    4  -10   10      0.49      0.00
  -12   -9   10      0.76      0.00
  -11   -9   10      0.21      0.00
  -10   -9   10     -0.89      0.00
   -9   -9   10     -0.22      0.00
   -8   -9   10     -0.45      0.00
   -7   -9   10     -0.95      0.00
   -6   -9   10     -0.50      0.00
   -5   -9   10     -0.12      0.00
   -4   -9   10     -1.19      0.00
   -3   -9   10     -0.55      0.00
   -2   -9   10      0.58      0.00
   -1   -9   10      0.80      0.00
    0   -9   10     -0.66      0.00
    1   -9   10     -0.12      0.00
    2   -9   10     -0.18      0.00
    3   -9   10     -0.16      0.00
    4   -9   10     -0.74      0.00
    5   -9   10      0.74      0.00
  -12   -8   10     -0.33      0.00
  -11   -8   10     -0.14      0.00
  -10   -8   10     -0.50      0.00
   -9   -8   10      0.49      0.00
   -8   -8   10      0.53      0.00
   -7   -8   10      0.86      0.00
   -6   -8   10      0.40      0.00
   -5   -8   10     -0.27      0.00
   -4   -8   10      0.32      0.00
   -3   -8   10      0.91      0.00
   -2   -8   10      0.18      0.00
   -1   -8   10     -0.27      0.00
    0   -8   10      0.17      0.00
    1   -8   10      0.27      0.00
    2   -8   10     -0.19      0.00
    3   -8   10      0.48      0.00
    4   -8   10      0.24      0.00
    5   -8   10     -0.63      0.00
    6   -8   10      0.12      0.00
    7   -8   10      0.15      0.00
  -13   -7   10     -0.47      0.00
  -12   -7   10      0.03      0.00
  -11   -7   10     -0.75      0.00
  -10   -7   10      1.25      0.00
   -9   -7   10     -0.01      0.00
   -8   -7   10     -0.41      0.00
   -7   -7   10     -0.94      0.00
   -6   -7   10     -0.17      0.00
   -5   -7   10     -0.06      0.00
   -4   -7   10      0.34      0.00
   -3   -7   10     -0.52      0.00
   -2   -7   10     -0.45      0.00
   -1   -7   10     -0.24      0.00
    0   -7   10      0.01      0.00
    1   -7   10     -0.66      0.00
    2   -7   10      0.38      0.00
    3   -7   10     -0.89      0.00
    4   -7   10     -0.07      0.00
    5   -7   10      0.23      0.00
    6   -7   10     -0.19      0.00
    7   -7   10      0.29      0.00
    8   -7   10     -0.25      0.00
  -13   -6   10      0.49      0.00
  -12   -6   10     -0.22      0.00
  -11   -6   10      1.19      0.00
  -10   -6   10     -0.65      0.00
   -9   -6   10      0.18      0.00
   -8   -6   10     -0.60      0.00
   -7   -6   10      1.11      0.00
   -6   -6   10      0.36      0.00
   -5   -6   10      0.25      0.00
   -4   -6   10     -0.61      0.00
   -3   -6   10      0.67      0.00
   -2   -6   10      0.79      0.00
   -1   -6   10     -0.02      0.00
    0   -6   10      0.76      0.00
    1   -6   10      0.20      0.00
    2   -6   10      0.23      0.00
    3   -6   10      0.82      0.00
    4   -6   10      0.59      0.00
    5   -6   10      0.28      0.00
    6   -6   10      0.20      0.00
    7   -6   10     -0.14      0.00
    8   -6   10      0.29      0.00
    9   -6   10     -0.23      0.00
  -13   -5   10     -0.91      0.00
  -12   -5   10      0.68      0.00
  -11   -5   10     -0.94      0.00
  -10   -5   10     -0.44      0.00
   -9   -5   10     -0.35      0.00
   -8   -5   10      0.76      0.00
   -7   -5   10     -0.59      0.00
   -6   -5   10     -0.75      0.00
   -5   -5   10     -0.25      0.00
   -4   -5   10      0.86      0.00
   -3   -5   10     -0.72      0.00
   -2   -5   10     -1.16      0.00
   -1   -5   10     -0.17      0.00
    0   -5   10     -1.48      0.00
    1   -5   10      0.57      0.00
    2   -5   10     -0.97      0.00
    3   -5   10     -0.35      0.00
    4   -5   10     -1.07      0.00
    5   -5   10     -0.88      0.00
    6   -5   10      0.07      0.00
    7   -5   10     -0.40      0.00
    8   -5   10     -0.62      0.00
    9   -5   10      0.81      0.00
   10   -5   10     -0.12      0.00
  -13   -4   10      0.92      0.00
  -12   -4   10     -0.57      0.00
  -11   -4   10      0.23      0.00
  -10   -4   10      0.95      0.00
   -9   -4   10      0.06      0.00
   -8   -4   10     -0.38      0.00
   -7   -4   10      0.39      0.00
   -6   -4   10      0.38      0.00
   -5   -4   10      0.41      0.00
   -4   -4   10     -1.24      0.00
   -3   -4   10      0.49      0.00
   -2   -4   10      0.19      0.00
   -1   -4   10      1.26      0.00
    0   -4   10      1.38      0.00
    1   -4   10     -0.70      0.00
    2   -4   10      1.31      0.00
    3   -4   10     -0.49      0.00
    4   -4   10      1.07      0.00
    5   -4   10      1.48      0.00
    6   -4   10     -0.21      0.00
    7   -4   10      0.11      0.00
    8   -4   10      1.17      0.00
    9   -4   10     -0.52      0.00
   10   -4   10     -0.32      0.00
   11   -4   10     -0.08      0.00
  -13   -3   10     -0.22      0.00
  -12   -3   10     -0.02      0.00
  -11   -3   10      0.04      0.00
  -10   -3   10     -0.06      0.00
   -9   -3   10     -0.13      0.00
   -8   -3   10      0.71      0.00
   -7   -3   10     -0.52      0.00
   -6   -3   10     -0.06      0.00
   -5   -3   10     -0.13      0.00
   -4   -3   10      0.94      0.00
   -3   -3   10     -0.29      0.00
   -2   -3   10      2.27      0.00
   -1   -3   10     -2.33      0.00
    0   -3   10     -0.79      0.00
    1   -3   10      0.63      0.00
    2   -3   10     -1.25      0.00
    3   -3   10      1.08      0.00
    4   -3   10     -0.33      0.00
    5   -3   10     -1.64      0.00
    6   -3   10     -0.19      0.00
    7   -3   10      0.50      0.00
    8   -3   10     -0.50      0.00
    9   -3   10     -0.77      0.00
   10   -3   10      0.36      0.00
   11   -3   10      0.60      0.00
  -13   -2   10     -0.59      0.00
  -12   -2   10      0.33      0.00
  -11   -2   10     -0.11      0.00
  -10   -2   10     -0.42      0.00
   -9   -2   10     -0.35      0.00
   -8   -2   10     -0.99      0.00
   -7   -2   10      0.23      0.00
   -6   -2   10      0.12      0.00
   -5   -2   10     -0.50      0.00
   -4   -2   10     -0.02      0.00
   -3   -2   10      0.80      0.00
   -2   -2   10     -4.33      0.00
   -1   -2   10      2.16      0.00
    0   -2   10     -0.21      0.00
    1   -2   10      0.28      0.00
    2   -2   10      0.22      0.00
    3   -2   10     -1.54      0.00
    4   -2   10      0.23      0.00
    5   -2   10      0.78      0.00
    6   -2   10      0.60      0.00
    7   -2   10     -0.40      0.00
    8   -2   10     -0.74      0.00
    9   -2   10      0.95      0.00
   10   -2   10      0.69      0.00
   11   -2   10     -0.97      0.00
   12   -2   10      0.35      0.00
  -13   -1   10      1.21      0.00
  -12   -1   10     -0.44      0.00
  -11   -1   10      0.63      0.00
  -10   -1   10     -0.19      0.00
   -9   -1   10      0.88      0.00
   -8   -1   10      0.96      0.00
   -7   -1   10      0.30      0.00
   -6   -1   10     -0.30      0.00
   -5   -1   10      0.81      0.00
   -4   -1   10     -0.03      0.00
   -3   -1   10     -1.97      0.00
   -2   -1   10      3.13      0.00
   -1   -1   10     -0.08      0.00
    0   -1   10      1.77      0.00
    1   -1   10     -3.07      0.00
    2   -1   10      1.79      0.00
    3   -1   10      2.84      0.00
    4   -1   10     -1.79      0.00
    5   -1   10      0.51      0.00
    6   -1   10     -0.64      0.00
    7   -1   10      0.33      0.00
    8   -1   10      0.96      0.00
    9   -1   10      0.17      0.00
   10   -1   10     -1.38      0.00
   11   -1   10      0.74      0.00
   12   -1   10     -0.58      0.00
   13   -1   10      0.09      0.00
  -12    0   10      0.03      0.00
  -11    0   10     -0.79      0.00
  -10    0   10      0.46      0.00
   -9    0   10     -0.65      0.00
   -8    0   10     -0.48      0.00
   -7    0   10     -0.77      0.00
   -6    0   10      0.33      0.00
   -5    0   10     -0.43      0.00
   -4    0   10     -1.04      0.00
   -3    0   10      2.34      0.00
   -2    0   10      0.66      0.00
   -1    0   10     -1.75      0.00
    0    0   10     -3.20      0.00
    1    0   10      5.94      0.00
    2    0   10     -3.41      0.00
    3    0   10     -3.61      0.00
    4    0   10      1.98      0.00
    5    0   10     -0.28      0.00
    6    0   10      0.79      0.00
    7    0   10     -0.50      0.00
    8    0   10     -1.06      0.00
    9    0   10     -0.71      0.00
   10    0   10      0.89      0.00
   11    0   10     -0.36      0.00
   12    0   10      0.76      0.00
   13    0   10     -0.04      0.00
  -12    1   10      0.71      0.00
  -11    1   10      0.61      0.00
  -10    1   10     -0.42      0.00
   -9    1   10      0.38      0.00
   -8    1   10     -0.10      0.00
   -7    1   10      0.26      0.00
   -6    1   10      0.22      0.00
   -5    1   10     -0.21      0.00
   -4    1   10      1.72      0.00
   -3    1   10     -1.54      0.00
   -2    1   10     -2.75      0.00
   -1    1   10      0.76      0.00
    0    1   10      3.31      0.00
    1    1   10     -5.61      0.00
    2    1   10      2.19      0.00
    3    1   10      2.88      0.00
    4    1   10      1.48      0.00
    5    1   10     -1.73      0.00
    6    1   10     -1.79      0.00
    7    1   10      0.93      0.00
    8    1   10      1.00      0.00
    9    1   10      0.60      0.00
   10    1   10     -0.12      0.00
   11    1   10      0.15      0.00
   12    1   10     -0.44      0.00
   13    1   10     -0.26      0.00
   14    1   10     -1.00      0.00
  -12    2   10     -1.05      0.00
  -11    2   10     -0.35      0.00
  -10    2   10      0.20      0.00
   -9    2   10     -0.46      0.00
   -8    2   10      0.38      0.00
   -7    2   10      0.63      0.00
   -6    2   10     -0.56      0.00
   -5    2   10      0.27      0.00
   -4    2   10     -1.06      0.00
   -3    2   10      0.42      0.00
   -2    2   10      1.94      0.00
   -1    2   10      1.38      0.00
    0    2   10     -1.32      0.00
    1    2   10      1.74      0.00
    2    2   10      2.24      0.00
    3    2   10     -2.17      0.00
    4    2   10     -5.61      0.00
    5    2   10      3.10      0.00
    6    2   10      3.29      0.00
    7    2   10     -1.45      0.00
    8    2   10     -0.13      0.00
    9    2   10     -0.09      0.00
   10    2   10     -0.58      0.00
   11    2   10     -0.05      0.00
   12    2   10      0.07      0.00
   13    2   10      0.33      0.00
   14    2   10      0.76      0.00
  -11    3   10      0.09      0.00
  -10    3   10      0.22      0.00
   -9    3   10      0.55      0.00
   -8    3   10     -0.45      0.00
   -7    3   10     -0.42      0.00
   -6    3   10     -0.09      0.00
   -5    3   10      0.27      0.00
   -4    3   10     -0.23      0.00
   -3    3   10      0.31      0.00
   -2    3   10     -0.41      0.00
   -1    3   10     -2.20      0.00
    0    3   10     -0.81      0.00
    1    3   10      1.00      0.00
    2    3   10     -5.37      0.00
    3    3   10      1.83      0.00
    4    3   10      6.56      0.00
    5    3   10     -1.82      0.00
    6    3   10     -3.46      0.00
    7    3   10      0.59      0.00
    8    3   10     -0.64      0.00
    9    3   10     -0.51      0.00
   10    3   10      0.50      0.00
   11    3   10      0.12      0.00
   12    3   10      0.14      0.00
   13    3   10     -0.11      0.00
   14    3   10     -0.22      0.00
   15    3   10     -0.56      0.00
  -11    4   10     -0.23      0.00
  -10    4   10     -0.52      0.00
   -9    4   10      0.05      0.00
   -8    4   10     -0.05      0.00
   -7    4   10     -0.27      0.00
   -6    4   10      0.60      0.00
   -5    4   10     -0.07      0.00
   -4    4   10      0.21      0.00
   -3    4   10      0.14      0.00
   -2    4   10     -0.58      0.00
   -1    4   10      1.59      0.00
    0    4   10      0.70      0.00
    1    4   10      0.57      0.00
    2    4   10      4.52      0.00
    3    4   10     -1.26      0.00
    4    4   10     -4.15      0.00
    5    4   10     -1.32      0.00
    6    4   10      1.51      0.00
    7    4   10      1.38      0.00
    8    4   10      0.74      0.00
    9    4   10      0.68      0.00
   10    4   10      0.45      0.00
   11    4   10      0.31      0.00
   12    4   10     -0.70      0.00
   13    4   10     -0.36      0.00
   14    4   10      0.11      0.00
   15    4   10      0.39      0.00
  -10    5   10      0.63      0.00
   -9    5   10     -0.89      0.00
   -8    5   10      0.63      0.00
   -7    5   10     -0.05      0.00
   -6    5   10      0.05      0.00
   -5    5   10     -0.85      0.00
   -4    5   10      0.40      0.00
   -3    5   10     -0.58      0.00
   -2    5   10      0.34      0.00
   -1    5   10      0.10      0.00
    0    5   10      0.69      0.00
    1    5   10     -3.22      0.00
    2    5   10     -2.28      0.00
    3    5   10     -0.02      0.00
    4    5   10      1.25      0.00
    5    5   10      3.70      0.00
    6    5   10      0.83      0.00
    7    5   10     -1.93      0.00
    8    5   10     -0.06      0.00
    9    5   10     -0.66      0.00
   10    5   10     -1.55      0.00
   11    5   10     -1.01      0.00
   12    5   10      0.87      0.00
   13    5   10      0.87      0.00
   14    5   10      0.17      0.00
   15    5   10     -0.33      0.00
   -9    6   10      0.71      0.00
   -8    6   10     -0.11      0.00
   -7    6   10      0.69      0.00
   -6    6   10     -0.30      0.00
   -5    6   10      0.76      0.00
   -4    6   10      0.30      0.00
   -3    6   10      0.27      0.00
   -2    6   10      0.16      0.00
   -1    6   10     -1.09      0.00
    0    6   10     -1.67      0.00
    1    6   10      2.78      0.00
    2    6   10      1.51      0.00
    3    6   10      1.69      0.00
    4    6   10      0.09      0.00
    5    6   10     -3.48      0.00
    6    6   10     -1.50      0.00
    7    6   10      0.30      0.00
    8    6   10     -1.13      0.00
    9    6   10      0.17      0.00
   10    6   10      2.12      0.00
   11    6   10      1.24      0.00
   12    6   10     -0.17      0.00
   13    6   10     -0.68      0.00
   14    6   10     -0.92      0.00
   15    6   10      0.10      0.00
   -9    7   10      0.10      0.00
   -8    7   10     -0.58      0.00
   -7    7   10     -0.82      0.00
   -6    7   10     -0.23      0.00
   -5    7   10     -0.50      0.00
   -4    7   10     -0.85      0.00
   -3    7   10     -0.31      0.00
   -2    7   10     -0.08      0.00
   -1    7   10      0.52      0.00
    0    7   10      1.45      0.00
    1    7   10      0.27      0.00
    2    7   10     -1.84      0.00
    3    7   10     -2.71      0.00
    4    7   10     -0.05      0.00
    5    7   10      1.02      0.00
    6    7   10      0.51      0.00
    7    7   10      1.41      0.00
    8    7   10      1.95      0.00
    9    7   10      0.69      0.00
   10    7   10     -1.11      0.00
   11    7   10     -1.13      0.00
   12    7   10     -0.83      0.00
   13    7   10      0.15      0.00
   14    7   10      1.07      0.00
   15    7   10      0.39      0.00
   -8    8   10     -0.15      0.00
   -7    8   10      0.91      0.00
   -6    8   10      0.45      0.00
   -5    8   10      0.61      0.00
   -4    8   10      0.53      0.00
   -3    8   10      0.41      0.00
   -2    8   10      0.24      0.00
   -1    8   10      0.06      0.00
    0    8   10     -0.54      0.00
    1    8   10     -1.60      0.00
    2    8   10      0.93      0.00
    3    8   10      2.33      0.00
    4    8   10      0.44      0.00
    5    8   10      0.95      0.00
    6    8   10      0.62      0.00
    7    8   10     -0.86      0.00
    8    8   10     -2.00      0.00
    9    8   10     -1.08      0.00
   10    8   10     -0.83      0.00
   11    8   10      0.68      0.00
   12    8   10      1.15      0.00
   13    8   10      0.48      0.00
   14    8   10     -0.93      0.00
   15    8   10     -0.29      0.00
   -7    9   10     -0.48      0.00
   -6    9   10     -0.42      0.00
   -5    9   10     -0.47      0.00
   -4    9   10      0.16      0.00
   -3    9   10     -0.19      0.00
   -2    9   10     -0.52      0.00
   -1    9   10      0.05      0.00
    0    9   10      0.06      0.00
    1    9   10      0.50      0.00
    2    9   10      0.35      0.00
    3    9   10     -0.67      0.00
    4    9   10     -1.47      0.00
    5    9   10     -1.32      0.00
    6    9   10     -0.85      0.00
    7    9   10     -1.00      0.00
    8    9   10      1.19      0.00
    9    9   10      0.98      0.00
   10    9   10      1.68      0.00
   11    9   10      0.02      0.00
   12    9   10     -0.30      0.00
   13    9   10     -1.02      0.00
   14    9   10      0.53      0.00
   15    9   10      0.25      0.00
   -6   10   10      0.07      0.00
   -5   10   10      0.86      0.00
   -4   10   10     -0.60      0.00
   -3   10   10     -0.79      0.00
   -2   10   10      0.77      0.00
   -1   10   10     -0.16      0.00
    0   10   10     -0.18      0.00
    1   10   10     -0.11      0.00
    2   10   10     -0.23      0.00
    3   10   10     -0.49      0.00
    4   10   10      0.87      0.00
    5   10   10      1.17      0.00
    6   10   10      1.14      0.00
    7   10   10      1.33      0.00
    8   10   10      0.08      0.00
    9   10   10     -0.35      0.00
   10   10   10     -1.41      0.00
   11   10   10     -0.35      0.00
   12   10   10     -0.88      0.00
   13   10   10      0.63      0.00
   14   10   10      0.22      0.00
   15   10   10     -0.30      0.00
   -5   11   10     -1.18      0.00
   -4   11   10     -0.14      0.00
   -3   11   10      1.56      0.00
   -2   11   10     -0.57      0.00
   -1   11   10     -0.22      0.00
    0   11   10      0.36      0.00
    1   11   10      0.55      0.00
    2   11   10     -0.15      0.00
    3   11   10      0.56      0.00
    4   11   10      0.53      0.00
    5   11   10     -0.40      0.00
    6   11   10     -1.53      0.00
    7   11   10     -0.65      0.00
    8   11   10     -0.65      0.00
    9   11   10     -0.65      0.00
   10   11   10      0.92      0.00
   11   11   10      0.13      0.00
   12   11   10      1.39      0.00
   13   11   10      0.38      0.00
   14   11   10     -0.28      0.00
   15   11   10     -0.01      0.00
   -4   12   10      0.92      0.00
   -3   12   10     -0.52      0.00
   -2   12   10      0.15      0.00
   -1   12   10      0.24      0.00
    0   12   10      0.00      0.00
    1   12   10     -0.28      0.00
    2   12   10     -0.15      0.00
    3   12   10     -0.32      0.00
    4   12   10     -0.75      0.00
    5   12   10     -0.78      0.00
    6   12   10      0.82      0.00
    7   12   10      0.44      0.00
    8   12   10      0.47      0.00
    9   12   10      0.98      0.00
   10   12   10     -0.06      0.00
   11   12   10      0.02      0.00
   12   12   10     -1.15      0.00
   13   12   10     -0.71      0.00
   14   12   10     -0.42      0.00
   15   12   10      0.07      0.00
   -2   13   10     -0.29      0.00
   -1   13   10     -0.11      0.00
    0   13   10     -0.49      0.00
    1   13   10     -0.26      0.00
    2   13   10      0.46      0.00
    3   13   10     -0.48      0.00
    4   13   10      0.51      0.00
    5   13   10      1.13      0.00
    6   13   10      0.20      0.00
    7   13   10     -0.34      0.00
    8   13   10      0.06      0.00
    9   13   10     -0.48      0.00
   10   13   10     -0.88      0.00
   11   13   10     -0.01      0.00
   12   13   10      0.76      0.00
   13   13   10      0.33      0.00
   14   13   10      0.61      0.00
   -1   14   10      0.28      0.00
    0   14   10      0.66      0.00
    1   14   10      0.20      0.00
    2   14   10     -0.28      0.00
    3   14   10      1.20      0.00
    4   14   10     -0.65      0.00
    5   14   10     -0.26      0.00
    6   14   10     -0.76      0.00
    7   14   10      0.38      0.00
    8   14   10     -0.35      0.00
    9   14   10     -0.24      0.00
   10   14   10      0.76      0.00
   11   14   10      0.37      0.00
   12   14   10     -0.42      0.00
   13   14   10     -0.28      0.00
    1   15   10      0.13      0.00
    2   15   10     -0.19      0.00
    3   15   10     -0.73      0.00
    4   15   10      0.68      0.00
    5   15   10     -0.49      0.00
    6   15   10      0.66      0.00
    7   15   10     -0.28      0.00
    8   15   10     -0.06      0.00
    9   15   10      0.08      0.00
   10   15   10      0.50      0.00
   11   15   10     -0.69      0.00
   12   15   10      0.05      0.00
    4   16   10     -0.33      0.00
    5   16   10      0.01      0.00
    6   16   10     -0.11      0.00
    7   16   10      0.05      0.00
    8   16   10      0.09      0.00
    9   16   10      0.96      0.00
   10   16   10     -0.96      0.00
   -7  -12   11     -0.25      0.00
   -6  -12   11     -0.72      0.00
   -5  -12   11     -1.10      0.00
   -4  -12   11     -0.19      0.00
   -3  -12   11      0.32      0.00
   -2  -12   11      0.57      0.00
   -9  -11   11      0.37      0.00
   -8  -11   11     -0.76      0.00
   -7  -11   11      0.14      0.00
   -6  -11   11      0.13      0.00
   -5  -11   11      1.10      0.00
   -4  -11   11      1.37      0.00
   -3  -11   11      0.67      0.00
   -2  -11   11     -0.79      0.00
   -1  -11   11     -0.59      0.00
    0  -11   11     -0.39      0.00
    1  -11   11     -0.06      0.00
  -10  -10   11     -1.44      0.00
   -9  -10   11     -0.38      0.00
   -8  -10   11      0.37      0.00
   -7  -10   11     -0.12      0.00
   -6  -10   11      0.30      0.00
   -5  -10   11     -0.34      0.00
   -4  -10   11     -0.76      0.00
   -3  -10   11     -1.97      0.00
   -2  -10   11      0.13      0.00
   -1  -10   11      0.47      0.00
    0  -10   11      1.26      0.00
    1  -10   11      0.00      0.00
    2  -10   11      0.22      0.00
    3  -10   11      0.14      0.00
  -11   -9   11     -0.58      0.00
  -10   -9   11      0.59      0.00
   -9   -9   11      0.20      0.00
   -8   -9   11     -0.17      0.00
   -7   -9   11     -0.32      0.00
   -6   -9   11      0.32      0.00
   -5   -9   11     -0.18      0.00
   -4   -9   11     -0.79      0.00
   -3   -9   11      1.65      0.00
   -2   -9   11      0.64      0.00
   -1   -9   11     -0.01      0.00
    0   -9   11     -1.14      0.00
    1   -9   11     -0.14      0.00
    2   -9   11     -0.38      0.00
    3   -9   11     -0.61      0.00
    4   -9   11      0.27      0.00
    5   -9   11      0.20      0.00
  -12   -8   11     -0.46      0.00
  -11   -8   11      0.03      0.00
  -10   -8   11     -0.15      0.00
   -9   -8   11      0.61      0.00
   -8   -8   11      0.10      0.00
   -7   -8   11      0.75      0.00
   -6   -8   11     -0.65      0.00
   -5   -8   11     -0.13      0.00
   -4   -8   11      1.12      0.00
   -3   -8   11     -0.39      0.00
   -2   -8   11     -0.21      0.00
   -1   -8   11     -0.79      0.00
    0   -8   11      0.76      0.00
    1   -8   11     -0.28      0.00
    2   -8   11      0.49      0.00
    3   -8   11      0.50      0.00
    4   -8   11     -0.49      0.00
    5   -8   11      0.16      0.00
    6   -8   11      0.47      0.00
  -12   -7   11      0.21      0.00
  -11   -7   11      0.55      0.00
  -10   -7   11      0.49      0.00
   -9   -7   11     -0.85      0.00
   -8   -7   11     -0.32      0.00
   -7   -7   11     -0.86      0.00
   -6   -7   11      0.30      0.00
   -5   -7   11      0.57      0.00
   -4   -7   11     -0.37      0.00
   -3   -7   11     -0.49      0.00
   -2   -7   11     -0.21      0.00
   -1   -7   11      0.90      0.00
    0   -7   11     -0.42      0.00
    1   -7   11      0.77      0.00
    2   -7   11     -0.13      0.00
    3   -7   11     -0.47      0.00
    4   -7   11      1.01      0.00
    5   -7   11     -0.23      0.00
    6   -7   11     -0.04      0.00
    7   -7   11      0.08      0.00
  -12   -6   11     -0.14      0.00
  -11   -6   11     -0.50      0.00
  -10   -6   11     -0.59      0.00
   -9   -6   11     -0.02      0.00
   -8   -6   11      0.00      0.00
   -7   -6   11      1.61      0.00
   -6   -6   11     -0.29      0.00
   -5   -6   11     -0.62      0.00
   -4   -6   11     -0.23      0.00
   -3   -6   11      1.06      0.00
   -2   -6   11     -0.13      0.00
   -1   -6   11     -0.04      0.00
    0   -6   11     -0.14      0.00
    1   -6   11     -1.03      0.00
    2   -6   11      0.27      0.00
    3   -6   11      0.19      0.00
    4   -6   11     -0.90      0.00
    5   -6   11     -0.23      0.00
    6   -6   11     -0.48      0.00
    7   -6   11      0.38      0.00
    8   -6   11      0.10      0.00
  -13   -5   11      0.08      0.00
  -12   -5   11      0.34      0.00
  -11   -5   11     -0.41      0.00
  -10   -5   11      0.49      0.00
   -9   -5   11      0.82      0.00
   -8   -5   11      0.29      0.00
   -7   -5   11     -1.58      0.00
   -6   -5   11     -0.18      0.00
   -5   -5   11      0.74      0.00
   -4   -5   11      0.26      0.00
   -3   -5   11     -1.16      0.00
   -2   -5   11     -0.06      0.00
   -1   -5   11     -0.95      0.00
    0   -5   11      0.59      0.00
    1   -5   11      0.75      0.00
    2   -5   11     -0.59      0.00
    3   -5   11      0.12      0.00
    4   -5   11      0.01      0.00
    5   -5   11      0.51      0.00
    6   -5   11      0.98      0.00
    7   -5   11     -0.78      0.00
    8   -5   11      0.09      0.00
    9   -5   11      0.43      0.00
  -13   -4   11      0.34      0.00
  -12   -4   11     -0.50      0.00
  -11   -4   11      0.89      0.00
  -10   -4   11      0.34      0.00
   -9   -4   11     -1.32      0.00
   -8   -4   11      0.40      0.00
   -7   -4   11      0.53      0.00
   -6   -4   11      0.84      0.00
   -5   -4   11     -0.77      0.00
   -4   -4   11     -0.10      0.00
   -3   -4   11      0.49      0.00
   -2   -4   11      0.84      0.00
   -1   -4   11      1.76      0.00
    0   -4   11     -0.71      0.00
    1   -4   11      0.30      0.00
    2   -4   11      0.40      0.00
    3   -4   11     -0.29      0.00
    4   -4   11      1.29      0.00
    5   -4   11     -0.42      0.00
    6   -4   11     -1.24      0.00
    7   -4   11      0.70      0.00
    8   -4   11      0.31      0.00
    9   -4   11     -0.69      0.00
   10   -4   11      0.91      0.00
  -13   -3   11     -0.86      0.00
  -12   -3   11      0.11      0.00
  -11   -3   11     -0.28      0.00
  -10   -3   11     -1.09      0.00
   -9   -3   11      0.87      0.00
   -8   -3   11     -0.60      0.00
   -7   -3   11     -0.37      0.00
   -6   -3   11     -0.83      0.00
   -5   -3   11      0.61      0.00
   -4   -3   11     -0.18      0.00
   -3   -3   11      1.02      0.00
   -2   -3   11     -1.39      0.00
   -1   -3   11     -2.22      0.00
    0   -3   11      0.70      0.00
    1   -3   11     -1.31      0.00
    2   -3   11     -0.26      0.00
    3   -3   11      0.48      0.00
    4   -3   11     -2.04      0.00
    5   -3   11     -0.04      0.00
    6   -3   11      0.87      0.00
    7   -3   11      0.07      0.00
    8   -3   11     -0.54      0.00
    9   -3   11     -0.18      0.00
   10   -3   11      0.20      0.00
   11   -3   11     -0.09      0.00
  -12   -2   11      0.05      0.00
  -11   -2   11      0.13      0.00
  -10   -2   11      0.57      0.00
   -9   -2   11     -0.21      0.00
   -8   -2   11      0.54      0.00
   -7   -2   11      0.51      0.00
   -6   -2   11      0.74      0.00
   -5   -2   11     -0.53      0.00
   -4   -2   11      0.63      0.00
   -3   -2   11     -2.41      0.00
   -2   -2   11      1.01      0.00
   -1   -2   11      1.66      0.00
    0   -2   11     -0.28      0.00
    1   -2   11      1.77      0.00
    2   -2   11     -0.64      0.00
    3   -2   11      0.37      0.00
    4   -2   11      1.51      0.00
    5   -2   11      0.37      0.00
    6   -2   11     -0.04      0.00
    7   -2   11     -0.64      0.00
    8   -2   11     -0.29      0.00
    9   -2   11      1.60      0.00
   10   -2   11     -0.98      0.00
   11   -2   11      0.08      0.00
   12   -2   11      0.56      0.00
  -12   -1   11      0.12      0.00
  -11   -1   11     -0.22      0.00
  -10   -1   11      0.06      0.00
   -9   -1   11      0.46      0.00
   -8   -1   11     -0.60      0.00
   -7   -1   11     -0.26      0.00
   -6   -1   11     -0.98      0.00
   -5   -1   11      0.84      0.00
   -4   -1   11     -1.00      0.00
   -3   -1   11      1.91      0.00
   -2   -1   11      0.27      0.00
   -1   -1   11      0.60      0.00
    0   -1   11     -1.22      0.00
    1   -1   11     -1.45      0.00
    2   -1   11      2.80      0.00
    3   -1   11     -2.28      0.00
    4   -1   11     -0.57      0.00
    5   -1   11     -0.03      0.00
    6   -1   11     -0.67      0.00
    7   -1   11      0.98      0.00
    8   -1   11      0.72      0.00
    9   -1   11     -1.48      0.00
   10   -1   11      0.69      0.00
   11   -1   11     -0.19      0.00
   12   -1   11      0.07      0.00
  -12    0   11     -0.02      0.00
  -11    0   11      0.04      0.00
  -10    0   11     -0.34      0.00
   -9    0   11     -0.57      0.00
   -8    0   11      0.23      0.00
   -7    0   11     -0.14      0.00
   -6    0   11      1.23      0.00
   -5    0   11     -1.25      0.00
   -4    0   11      0.86      0.00
   -3    0   11     -0.01      0.00
   -2    0   11     -0.75      0.00
   -1    0   11     -3.28      0.00
    0    0   11      2.50      0.00
    1    0   11      0.29      0.00
    2    0   11     -4.14      0.00
    3    0   11      2.86      0.00
    4    0   11      0.17      0.00
    5    0   11      0.26      0.00
    6    0   11      0.46      0.00
    7    0   11     -1.52      0.00
    8    0   11     -0.35      0.00
    9    0   11      0.46      0.00
   10    0   11     -0.31      0.00
   11    0   11      0.32      0.00
   12    0   11     -0.50      0.00
   13    0   11      0.63      0.00
  -12    1   11      0.02      0.00
  -11    1   11     -0.16      0.00
  -10    1   11      0.42      0.00
   -9    1   11      0.21      0.00
   -8    1   11      0.02      0.00
   -7    1   11      0.20      0.00
   -6    1   11     -0.63      0.00
   -5    1   11      0.85      0.00
   -4    1   11     -0.25      0.00
   -3    1   11     -1.04      0.00
   -2    1   11     -0.01      0.00
   -1    1   11      3.20      0.00
    0    1   11     -1.07      0.00
    1    1   11      0.23      0.00
    2    1   11      3.44      0.00
    3    1   11     -0.30      0.00
    4    1   11     -0.36      0.00
    5    1   11     -2.40      0.00
    6    1   11      1.14      0.00
    7    1   11      1.58      0.00
    8    1   11      0.18      0.00
    9    1   11      0.34      0.00
   10    1   11      0.18      0.00
   11    1   11      0.04      0.00
   12    1   11      0.41      0.00
   13    1   11     -0.78      0.00
  -11    2   11      0.32      0.00
  -10    2   11     -0.27      0.00
   -9    2   11      0.36      0.00
   -8    2   11      0.15      0.00
   -7    2   11      0.27      0.00
   -6    2   11     -0.32      0.00
   -5    2   11      0.09      0.00
   -4    2   11     -0.30      0.00
   -3    2   11      0.67      0.00
   -2    2   11      0.76      0.00
   -1    2   11     -0.50      0.00
    0    2   11     -1.74      0.00
    1    2   11      0.42      0.00
    2    2   11     -1.59      0.00
    3    2   11     -3.93      0.00
    4    2   11      0.86      0.00
    5    2   11      4.60      0.00
    6    2   11     -2.37      0.00
    7    2   11     -1.24      0.00
    8    2   11      0.15      0.00
    9    2   11     -1.11      0.00
   10    2   11     -0.24      0.00
   11    2   11     -0.39      0.00
   12    2   11     -0.21      0.00
   13    2   11      0.68      0.00
   14    2   11     -0.34      0.00
  -11    3   11     -0.13      0.00
  -10    3   11      0.07      0.00
   -9    3   11     -0.67      0.00
   -8    3   11     -0.43      0.00
   -7    3   11     -0.65      0.00
   -6    3   11      0.24      0.00
   -5    3   11     -0.46      0.00
   -4    3   11      0.00      0.00
   -3    3   11      0.57      0.00
   -2    3   11     -1.48      0.00
   -1    3   11     -1.14      0.00
    0    3   11      2.21      0.00
    1    3   11     -1.08      0.00
    2    3   11      0.53      0.00
    3    3   11      5.90      0.00
    4    3   11     -0.81      0.00
    5    3   11     -4.16      0.00
    6    3   11      1.04      0.00
    7    3   11      0.89      0.00
    8    3   11     -0.40      0.00
    9    3   11      1.23      0.00
   10    3   11      0.36      0.00
   11    3   11      0.65      0.00
   12    3   11      0.24      0.00
   13    3   11     -0.45      0.00
   14    3   11     -0.12      0.00
  -10    4   11      0.18      0.00
   -9    4   11      0.25      0.00
   -8    4   11      0.34      0.00
   -7    4   11      0.61      0.00
   -6    4   11      0.57      0.00
   -5    4   11      0.14      0.00
   -4    4   11      0.66      0.00
   -3    4   11     -0.96      0.00
   -2    4   11      1.45      0.00
   -1    4   11      0.87      0.00
    0    4   11     -0.10      0.00
    1    4   11      1.53      0.00
    2    4   11     -1.19      0.00
    3    4   11     -4.23      0.00
    4    4   11     -0.42      0.00
    5    4   11      1.60      0.00
    6    4   11      1.53      0.00
    7    4   11     -0.11      0.00
    8    4   11      0.09      0.00
    9    4   11     -0.24      0.00
   10    4   11      0.03      0.00
   11    4   11     -0.94      0.00
   12    4   11     -0.89      0.00
   13    4   11      0.67      0.00
   14    4   11      0.40      0.00
   15    4   11      0.62      0.00
  -10    5   11     -0.04      0.00
   -9    5   11      0.02      0.00
   -8    5   11      0.21      0.00
   -7    5   11     -0.38      0.00
   -6    5   11     -0.46      0.00
   -5    5   11     -0.46      0.00
   -4    5   11     -0.17      0.00
   -3    5   11     -0.08      0.00
   -2    5   11     -0.42      0.00
   -1    5   11      0.05      0.00
    0    5   11     -2.24      0.00
    1    5   11     -1.83      0.00
    2    5   11      1.56      0.00
    3    5   11      1.51      0.00
    4    5   11      2.37      0.00
    5    5   11      0.45      0.00
    6    5   11     -2.42      0.00
    7    5   11     -0.48      0.00
    8    5   11      0.11      0.00
    9    5   11     -1.51      0.00
   10    5   11     -0.59      0.00
   11    5   11      0.76      0.00
   12    5   11      1.60      0.00
   13    5   11     -0.82      0.00
   14    5   11     -0.14      0.00
   15    5   11     -0.87      0.00
   -9    6   11      0.55      0.00
   -8    6   11     -0.56      0.00
   -7    6   11      0.20      0.00
   -6    6   11     -0.29      0.00
   -5    6   11      0.85      0.00
   -4    6   11     -0.20      0.00
   -3    6   11      0.15      0.00
   -2    6   11     -0.05      0.00
   -1    6   11     -0.75      0.00
    0    6   11      2.33      0.00
    1    6   11      1.89      0.00
    2    6   11      0.04      0.00
    3    6   11     -0.39      0.00
    4    6   11     -3.21      0.00
    5    6   11     -1.06      0.00
    6    6   11      1.14      0.00
    7    6   11     -0.25      0.00
    8    6   11      0.04      0.00
    9    6   11      2.81      0.00
   10    6   11      1.08      0.00
   11    6   11      0.00      0.00
   12    6   11     -1.34      0.00
   13    6   11      0.39      0.00
   14    6   11     -0.73      0.00
   15    6   11      1.82      0.00
   -8    7   11      0.12      0.00
   -7    7   11     -0.22      0.00
   -6    7   11      0.22      0.00
   -5    7   11     -0.43      0.00
   -4    7   11     -0.13      0.00
   -3    7   11      0.38      0.00
   -2    7   11      0.06      0.00
   -1    7   11      0.75      0.00
    0    7   11     -0.47      0.00
    1    7   11     -1.18      0.00
    2    7   11     -2.27      0.00
    3    7   11      0.79      0.00
    4    7   11      1.91      0.00
    5    7   11      0.82      0.00
    6    7   11      0.59      0.00
    7    7   11      1.67      0.00
    8    7   11      0.01      0.00
    9    7   11     -2.17      0.00
   10    7   11     -1.53      0.00
   11    7   11     -1.08      0.00
   12    7   11      0.45      0.00
   13    7   11      0.26      0.00
   14    7   11      1.12      0.00
   15    7   11     -2.00      0.00
   -8    8   11      0.26      0.00
   -7    8   11      0.93      0.00
   -6    8   11     -0.15      0.00
   -5    8   11      0.35      0.00
   -4    8   11      0.04      0.00
   -3    8   11     -0.04      0.00
   -2    8   11     -0.09      0.00
   -1    8   11     -0.48      0.00
    0    8   11     -0.42      0.00
    1    8   11     -0.16      0.00
    2    8   11      2.18      0.00
    3    8   11     -0.26      0.00
    4    8   11     -0.28      0.00
    5    8   11     -0.51      0.00
    6    8   11     -0.67      0.00
    7    8   11     -2.30      0.00
    8    8   11     -0.73      0.00
    9    8   11      0.37      0.00
   10    8   11      1.41      0.00
   11    8   11      1.76      0.00
   12    8   11      0.29      0.00
   13    8   11     -0.46      0.00
   14    8   11     -0.88      0.00
   15    8   11      1.57      0.00
   -7    9   11     -1.19      0.00
   -6    9   11      0.12      0.00
   -5    9   11     -0.26      0.00
   -4    9   11      0.38      0.00
   -3    9   11     -0.54      0.00
   -2    9   11      0.17      0.00
   -1    9   11      0.10      0.00
    0    9   11     -0.02      0.00
    1    9   11      0.58      0.00
    2    9   11     -0.30      0.00
    3    9   11     -0.73      0.00
    4    9   11     -0.71      0.00
    5    9   11      0.39      0.00
    6    9   11     -0.43      0.00
    7    9   11      1.47      0.00
    8    9   11      1.45      0.00
    9    9   11      0.81      0.00
   10    9   11     -0.70      0.00
   11    9   11     -1.40      0.00
   12    9   11     -0.51      0.00
   13    9   11     -0.27      0.00
   14    9   11      0.85      0.00
   15    9   11     -1.20      0.00
   -6   10   11      0.36      0.00
   -5   10   11     -0.09      0.00
   -4   10   11     -1.35      0.00
   -3   10   11      0.49      0.00
   -2   10   11      0.07      0.00
   -1   10   11     -0.13      0.00
    0   10   11      0.25      0.00
    1   10   11     -0.07      0.00
    2   10   11     -0.03      0.00
    3   10   11      0.02      0.00
    4   10   11      1.22      0.00
    5   10   11      0.58      0.00
    6   10   11      0.83      0.00
    7   10   11     -0.50      0.00
    8   10   11     -0.61      0.00
    9   10   11     -1.26      0.00
   10   10   11      0.08      0.00
   11   10   11      0.40      0.00
   12   10   11      0.16      0.00
   13   10   11      1.08      0.00
   14   10   11     -0.38      0.00
   15   10   11      0.54      0.00
   -5   11   11      0.20      0.00
   -4   11   11      1.69      0.00
   -3   11   11      0.63      0.00
   -2   11   11     -0.30      0.00
   -1   11   11      0.50      0.00
    0   11   11      0.06      0.00
    1   11   11     -0.15      0.00
    2   11   11     -0.58      0.00
    3   11   11      0.86      0.00
    4   11   11     -1.01      0.00
    5   11   11     -1.37      0.00
    6   11   11     -1.36      0.00
    7   11   11      0.29      0.00
    8   11   11     -0.91      0.00
    9   11   11      1.01      0.00
   10   11   11      0.04      0.00
   11   11   11      0.45      0.00
   12   11   11      0.52      0.00
   13   11   11     -0.86      0.00
   14   11   11     -0.56      0.00
   15   11   11     -0.18      0.00
   -3   12   11     -1.28      0.00
   -2   12   11     -0.48      0.00
   -1   12   11     -0.50      0.00
    0   12   11     -0.21      0.00
    1   12   11     -0.18      0.00
    2   12   11      0.32      0.00
    3   12   11     -0.61      0.00
    4   12   11      0.30      0.00
    5   12   11      0.69      0.00
    6   12   11      2.11      0.00
    7   12   11      0.23      0.00
    8   12   11      1.23      0.00
    9   12   11      0.00      0.00
   10   12   11      0.36      0.00
   11   12   11     -1.02      0.00
   12   12   11     -0.80      0.00
   13   12   11     -0.13      0.00
   14   12   11      0.68      0.00
   -2   13   11      0.84      0.00
   -1   13   11      0.47      0.00
    0   13   11      0.20      0.00
    1   13   11      0.36      0.00
    2   13   11     -0.28      0.00
    3   13   11      0.38      0.00
    4   13   11      0.58      0.00
    5   13   11     -0.13      0.00
    6   13   11     -1.63      0.00
    7   13   11     -0.83      0.00
    8   13   11     -0.77      0.00
    9   13   11     -1.05      0.00
   10   13   11     -0.89      0.00
   11   13   11      1.01      0.00
   12   13   11      0.71      0.00
   13   13   11      0.63      0.00
   14   13   11      0.01      0.00
    0   14   11     -0.29      0.00
    1   14   11     -0.14      0.00
    2   14   11      0.94      0.00
    3   14   11     -0.46      0.00
    4   14   11     -0.87      0.00
    5   14   11      0.33      0.00
    6   14   11      0.42      0.00
    7   14   11      0.99      0.00
    8   14   11      0.10      0.00
    9   14   11      1.18      0.00
   10   14   11      1.00      0.00
   11   14   11     -0.09      0.00
   12   14   11     -0.81      0.00
    2   15   11     -1.13      0.00
    3   15   11      0.24      0.00
    4   15   11      0.31      0.00
    5   15   11     -0.50      0.00
    6   15   11      0.05      0.00
    7   15   11     -0.82      0.00
    8   15   11     -0.05      0.00
    9   15   11     -0.21      0.00
   10   15   11     -0.39      0.00
   11   15   11     -0.85      0.00
   12   15   11      0.74      0.00
    5   16   11      0.33      0.00
    6   16   11      0.53      0.00
    7   16   11      0.22      0.00
    8   16   11      0.63      0.00
    9   16   11     -0.23      0.00
   10   16   11     -0.55      0.00
   -8  -11   12     -0.29      0.00
   -7  -11   12      0.68      0.00
   -6  -11   12      0.52      0.00
   -5  -11   12      0.91      0.00
   -4  -11   12      0.33      0.00
   -3  -11   12     -0.92      0.00
   -2  -11   12     -0.03      0.00
   -1  -11   12     -0.52      0.00
    0  -11   12      1.23      0.00
  -10  -10   12     -0.47      0.00
   -9  -10   12      1.00      0.00
   -8  -10   12     -0.29      0.00
   -7  -10   12     -0.40      0.00
   -6  -10   12     -0.53      0.00
   -5  -10   12     -1.07      0.00
   -4  -10   12     -1.23      0.00
   -3  -10   12      0.08      0.00
   -2  -10   12      0.19      0.00
   -1  -10   12      1.38      0.00
    0  -10   12     -0.91      0.00
    1  -10   12     -0.85      0.00
    2  -10   12     -0.62      0.00
  -10   -9   12      0.60      0.00
   -9   -9   12     -0.43      0.00
   -8   -9   12      0.16      0.00
   -7   -9   12      0.98      0.00
   -6   -9   12      0.73      0.00
   -5   -9   12      0.15      0.00
   -4   -9   12      1.32      0.00
   -3   -9   12      0.96      0.00
   -2   -9   12     -0.02      0.00
   -1   -9   12     -1.19      0.00
    0   -9   12      0.17      0.00
    1   -9   12      0.17      0.00
    2   -9   12      0.38      0.00
    3   -9   12      0.33      0.00
    4   -9   12      0.91      0.00
  -11   -8   12      0.14      0.00
  -10   -8   12      0.33      0.00
   -9   -8   12     -0.05      0.00
   -8   -8   12      0.04      0.00
   -7   -8   12     -1.18      0.00
   -6   -8   12     -1.30      0.00
   -5   -8   12      0.09      0.00
   -4   -8   12     -0.42      0.00
   -3   -8   12     -0.88      0.00
   -2   -8   12     -0.28      0.00
   -1   -8   12      0.44      0.00
    0   -8   12      0.24      0.00
    1   -8   12      0.30      0.00
    2   -8   12      0.42      0.00
    3   -8   12     -0.37      0.00
    4   -8   12     -0.30      0.00
    5   -8   12      0.40      0.00
    6   -8   12     -0.79      0.00
  -12   -7   12     -0.06      0.00
  -11   -7   12     -0.27      0.00
  -10   -7   12     -1.24      0.00
   -9   -7   12     -0.01      0.00
   -8   -7   12     -0.52      0.00
   -7   -7   12      1.01      0.00
   -6   -7   12      1.30      0.00
   -5   -7   12      0.88      0.00
   -4   -7   12     -0.49      0.00
   -3   -7   12      0.41      0.00
   -2   -7   12      0.30      0.00
   -1   -7   12      0.05      0.00
    0   -7   12     -0.14      0.00
    1   -7   12     -0.12      0.00
    2   -7   12     -1.01      0.00
    3   -7   12      0.26      0.00
    4   -7   12      0.12      0.00
    5   -7   12     -0.39      0.00
    6   -7   12      0.34      0.00
    7   -7   12      0.06      0.00
  -12   -6   12     -0.04      0.00
  -11   -6   12      0.06      0.00
  -10   -6   12      1.32      0.00
   -9   -6   12     -0.21      0.00
   -8   -6   12      1.56      0.00
   -7   -6   12     -0.60      0.00
   -6   -6   12     -1.18      0.00
   -5   -6   12     -1.34      0.00
   -4   -6   12      0.51      0.00
   -3   -6   12     -0.17      0.00
   -2   -6   12     -0.18      0.00
   -1   -6   12     -0.25      0.00
    0   -6   12     -0.71      0.00
    1   -6   12      0.30      0.00
    2   -6   12      0.62      0.00
    3   -6   12     -0.15      0.00
    4   -6   12     -0.47      0.00
    5   -6   12     -0.11      0.00
    6   -6   12      0.37      0.00
    7   -6   12      0.16      0.00
    8   -6   12     -1.18      0.00
  -12   -5   12     -0.44      0.00
  -11   -5   12      0.36      0.00
  -10   -5   12     -0.27      0.00
   -9   -5   12      0.13      0.00
   -8   -5   12     -1.41      0.00
   -7   -5   12     -0.15      0.00
   -6   -5   12      0.82      0.00
   -5   -5   12      1.27      0.00
   -4   -5   12     -0.20      0.00
   -3   -5   12      0.07      0.00
   -2   -5   12     -0.17      0.00
   -1   -5   12      0.53      0.00
    0   -5   12      1.26      0.00
    1   -5   12     -0.28      0.00
    2   -5   12      0.15      0.00
    3   -5   12     -0.02      0.00
    4   -5   12      0.87      0.00
    5   -5   12      0.86      0.00
    6   -5   12     -0.31      0.00
    7   -5   12     -0.49      0.00
    8   -5   12      1.08      0.00
    9   -5   12     -0.43      0.00
  -12   -4   12      0.51      0.00
  -11   -4   12     -0.11      0.00
  -10   -4   12     -0.67      0.00
   -9   -4   12     -0.32      0.00
   -8   -4   12      0.77      0.00
   -7   -4   12      0.21      0.00
   -6   -4   12     -0.05      0.00
   -5   -4   12     -1.09      0.00
   -4   -4   12     -0.01      0.00
   -3   -4   12      0.03      0.00
   -2   -4   12      0.69      0.00
   -1   -4   12     -0.58      0.00
    0   -4   12     -0.85      0.00
    1   -4   12      0.00      0.00
    2   -4   12     -0.85      0.00
    3   -4   12      0.42      0.00
    4   -4   12     -0.96      0.00
    5   -4   12     -1.34      0.00
    6   -4   12     -0.36      0.00
    7   -4   12      0.60      0.00
    8   -4   12     -0.47      0.00
    9   -4   12      0.18      0.00
   10   -4   12     -0.06      0.00
  -12   -3   12     -0.02      0.00
  -11   -3   12     -0.24      0.00
  -10   -3   12      0.07      0.00
   -9   -3   12      1.14      0.00
   -8   -3   12     -0.55      0.00
   -7   -3   12     -0.23      0.00
   -6   -3   12      0.12      0.00
   -5   -3   12      0.33      0.00
   -4   -3   12      0.44      0.00
   -3   -3   12     -0.22      0.00
   -2   -3   12     -1.15      0.00
   -1   -3   12      0.40      0.00
    0   -3   12      0.04      0.00
    1   -3   12     -0.24      0.00
    2   -3   12      0.92      0.00
    3   -3   12     -0.36      0.00
    4   -3   12      0.28      0.00
    5   -3   12      1.44      0.00
    6   -3   12      0.68      0.00
    7   -3   12      0.10      0.00
    8   -3   12     -0.58      0.00
    9   -3   12      0.14      0.00
   10   -3   12      0.01      0.00
   11   -3   12     -0.65      0.00
  -12   -2   12     -0.17      0.00
  -11   -2   12      0.68      0.00
  -10   -2   12      0.23      0.00
   -9   -2   12     -0.74      0.00
   -8   -2   12      0.23      0.00
   -7   -2   12      0.59      0.00
   -6   -2   12     -0.56      0.00
   -5   -2   12      0.38      0.00
   -4   -2   12     -0.76      0.00
   -3   -2   12      0.21      0.00
   -2   -2   12      1.23      0.00
   -1   -2   12     -0.26      0.00
    0   -2   12      0.99      0.00
    1   -2   12      0.24      0.00
    2   -2   12     -0.11      0.00
    3   -2   12      0.45      0.00
    4   -2   12      0.11      0.00
    5   -2   12     -0.85      0.00
    6   -2   12     -0.60      0.00
    7   -2   12     -0.82      0.00
    8   -2   12      0.87      0.00
    9   -2   12      0.45      0.00
   10   -2   12     -0.47      0.00
   11   -2   12      1.13      0.00
  -12   -1   12      0.44      0.00
  -11   -1   12     -1.25      0.00
  -10   -1   12      0.35      0.00
   -9   -1   12     -0.40      0.00
   -8   -1   12     -0.12      0.00
   -7   -1   12     -0.73      0.00
   -6   -1   12      0.47      0.00
   -5   -1   12     -0.34      0.00
   -4   -1   12      0.18      0.00
   -3   -1   12      0.14      0.00
   -2   -1   12     -0.27      0.00
   -1   -1   12     -0.05      0.00
    0   -1   12     -2.08      0.00
    1   -1   12      0.84      0.00
    2   -1   12     -1.21      0.00
    3   -1   12     -1.33      0.00
    4   -1   12      0.47      0.00
    5   -1   12     -0.33      0.00
    6   -1   12      0.67      0.00
    7   -1   12      0.66      0.00
    8   -1   12     -0.34      0.00
    9   -1   12     -1.06      0.00
   10   -1   12      0.55      0.00
   11   -1   12     -1.28      0.00
   12   -1   12     -0.23      0.00
  -12    0   12     -0.64      0.00
  -11    0   12      0.80      0.00
  -10    0   12     -0.61      0.00
   -9    0   12      0.84      0.00
   -8    0   12      0.06      0.00
   -7    0   12      0.62      0.00
   -6    0   12      0.06      0.00
   -5    0   12     -0.19      0.00
   -4    0   12      0.75      0.00
   -3    0   12     -0.12      0.00
   -2    0   12     -0.91      0.00
   -1    0   12     -0.27      0.00
    0    0   12      2.58      0.00
    1    0   12     -2.09      0.00
    2    0   12      2.46      0.00
    3    0   12      1.66      0.00
    4    0   12     -0.13      0.00
    5    0   12      0.85      0.00
    6    0   12     -0.84      0.00
    7    0   12     -0.43      0.00
    8    0   12      0.41      0.00
    9    0   12      0.83      0.00
   10    0   12     -0.33      0.00
   11    0   12      1.22      0.00
   12    0   12      0.05      0.00
   13    0   12      1.15      0.00
  -11    1   12      0.15      0.00
  -10    1   12      0.83      0.00
   -9    1   12     -0.67      0.00
   -8    1   12      0.08      0.00
   -7    1   12     -0.05      0.00
   -6    1   12     -0.48      0.00
   -5    1   12      0.29      0.00
   -4    1   12     -0.83      0.00
   -3    1   12     -0.27      0.00
   -2    1   12      0.60      0.00
   -1    1   12      1.46      0.00
    0    1   12     -1.67      0.00
    1    1   12      1.74      0.00
    2    1   12     -1.89      0.00
    3    1   12     -1.10      0.00
    4    1   12     -2.30      0.00
    5    1   12     -0.10      0.00
    6    1   12      1.07      0.00
    7    1   12      0.18      0.00
    8    1   12     -0.54      0.00
    9    1   12     -0.39      0.00
   10    1   12      0.17      0.00
   11    1   12     -0.95      0.00
   12    1   12     -0.03      0.00
   13    1   12     -1.02      0.00
  -11    2   12     -0.45      0.00
  -10    2   12     -0.95      0.00
   -9    2   12      0.45      0.00
   -8    2   12     -0.39      0.00
   -7    2   12     -0.34      0.00
   -6    2   12      0.28      0.00
   -5    2   12     -0.01      0.00
   -4    2   12      0.06      0.00
   -3    2   12      0.69      0.00
   -2    2   12      0.30      0.00
   -1    2   12     -1.86      0.00
    0    2   12     -0.30      0.00
    1    2   12      0.06      0.00
    2    2   12     -0.76      0.00
    3    2   12      0.58      0.00
    4    2   12      4.65      0.00
    5    2   12     -0.54      0.00
    6    2   12     -1.50      0.00
    7    2   12      0.56      0.00
    8    2   12     -0.02      0.00
    9    2   12     -0.28      0.00
   10    2   12      0.18      0.00
   11    2   12      0.50      0.00
   12    2   12      0.02      0.00
   13    2   12      0.68      0.00
   14    2   12     -0.36      0.00
  -10    3   12      0.52      0.00
   -9    3   12     -0.43      0.00
   -8    3   12      0.56      0.00
   -7    3   12      0.16      0.00
   -6    3   12      0.06      0.00
   -5    3   12     -0.16      0.00
   -4    3   12      0.66      0.00
   -3    3   12     -0.66      0.00
   -2    3   12     -0.74      0.00
   -1    3   12      1.53      0.00
    0    3   12      1.14      0.00
    1    3   12     -0.63      0.00
    2    3   12      2.60      0.00
    3    3   12     -0.44      0.00
    4    3   12     -4.29      0.00
    5    3   12     -0.16      0.00
    6    3   12      1.34      0.00
    7    3   12     -0.64      0.00
    8    3   12      0.47      0.00
    9    3   12      0.84      0.00
   10    3   12     -0.14      0.00
   11    3   12      0.19      0.00
   12    3   12     -0.13      0.00
   13    3   12     -0.59      0.00
   14    3   12      0.23      0.00
  -10    4   12      0.17      0.00
   -9    4   12      0.05      0.00
   -8    4   12      0.11      0.00
   -7    4   12     -0.04      0.00
   -6    4   12      0.13      0.00
   -5    4   12     -0.07      0.00
   -4    4   12     -0.08      0.00
   -3    4   12     -0.31      0.00
   -2    4   12      0.88      0.00
   -1    4   12     -1.02      0.00
    0    4   12     -0.32      0.00
    1    4   12     -0.80      0.00
    2    4   12     -2.29      0.00
    3    4   12      0.37      0.00
    4    4   12      1.97      0.00
    5    4   12      1.44      0.00
    6    4   12     -0.24      0.00
    7    4   12     -0.17      0.00
    8    4   12     -0.27      0.00
    9    4   12     -0.57      0.00
   10    4   12     -0.66      0.00
   11    4   12     -1.26      0.00
   12    4   12      0.47      0.00
   13    4   12      0.60      0.00
   14    4   12     -0.06      0.00
   -9    5   12      0.63      0.00
   -8    5   12     -0.76      0.00
   -7    5   12      0.40      0.00
   -6    5   12     -0.64      0.00
   -5    5   12      0.27      0.00
   -4    5   12     -0.63      0.00
   -3    5   12      0.52      0.00
   -2    5   12     -0.40      0.00
   -1    5   12     -0.03      0.00
    0    5   12     -0.72      0.00
    1    5   12      2.04      0.00
    2    5   12      1.05      0.00
    3    5   12      0.43      0.00
    4    5   12     -0.09      0.00
    5    5   12     -2.36      0.00
    6    5   12     -0.33      0.00
    7    5   12      0.46      0.00
    8    5   12     -0.74      0.00
    9    5   12     -0.30      0.00
   10    5   12      1.67      0.00
   11    5   12      1.78      0.00
   12    5   12     -0.32      0.00
   13    5   12     -0.15      0.00
   14    5   12     -0.56      0.00
   15    5   12      0.25      0.00
   -9    6   12     -0.76      0.00
   -8    6   12      0.27      0.00
   -7    6   12     -0.77      0.00
   -6    6   12      0.47      0.00
   -5    6   12      0.09      0.00
   -4    6   12      0.02      0.00
   -3    6   12      0.11      0.00
   -2    6   12      0.28      0.00
   -1    6   12      0.51      0.00
    0    6   12      1.27      0.00
    1    6   12     -1.15      0.00
    2    6   12     -0.35      0.00
    3    6   12     -1.50      0.00
    4    6   12     -0.51      0.00
    5    6   12      2.17      0.00
    6    6   12     -0.37      0.00
    7    6   12      0.04      0.00
    8    6   12      2.02      0.00
    9    6   12      1.24      0.00
   10    6   12     -1.73      0.00
   11    6   12     -1.13      0.00
   12    6   12     -0.62      0.00
   13    6   12     -0.56      0.00
   14    6   12      1.15      0.00
   15    6   12     -0.10      0.00
   -8    7   12      0.20      0.00
   -7    7   12      1.17      0.00
   -6    7   12     -0.15      0.00
   -5    7   12      0.11      0.00
   -4    7   12      0.43      0.00
   -3    7   12     -0.13      0.00
   -2    7   12     -0.44      0.00
   -1    7   12     -0.25      0.00
    0    7   12     -0.96      0.00
    1    7   12     -0.74      0.00
    2    7   12      0.12      0.00
    3    7   12      1.74      0.00
    4    7   12      0.04      0.00
    5    7   12     -0.59      0.00
    6    7   12      1.30      0.00
    7    7   12     -0.25      0.00
    8    7   12     -2.20      0.00
    9    7   12     -1.77      0.00
   10    7   12      0.10      0.00
   11    7   12      0.21      0.00
   12    7   12      1.50      0.00
   13    7   12      0.65      0.00
   14    7   12     -1.05      0.00
   15    7   12     -0.10      0.00
   -7    8   12     -1.53      0.00
   -6    8   12      0.17      0.00
   -5    8   12     -0.49      0.00
   -4    8   12     -0.34      0.00
   -3    8   12      0.03      0.00
   -2    8   12      0.09      0.00
   -1    8   12      0.04      0.00
    0    8   12      0.25      0.00
    1    8   12      0.75      0.00
    2    8   12      0.44      0.00
    3    8   12     -0.87      0.00
    4    8   12      0.04      0.00
    5    8   12     -0.37      0.00
    6    8   12     -1.63      0.00
    7    8   12     -0.67      0.00
    8    8   12      1.12      0.00
    9    8   12      1.66      0.00
   10    8   12      1.83      0.00
   11    8   12      0.12      0.00
   12    8   12     -1.21      0.00
   13    8   12     -0.34      0.00
   14    8   12      0.69      0.00
   15    8   12      0.07      0.00
   -6    9   12     -0.05      0.00
   -5    9   12      0.47      0.00
   -4    9   12     -0.02      0.00
   -3    9   12     -0.24      0.00
   -2    9   12      0.06      0.00
   -1    9   12     -0.11      0.00
    0    9   12      0.20      0.00
    1    9   12      0.44      0.00
    2    9   12     -0.22      0.00
    3    9   12     -0.36      0.00
    4    9   12      0.44      0.00
    5    9   12      0.16      0.00
    6    9   12      1.29      0.00
    7    9   12      1.75      0.00
    8    9   12      0.41      0.00
    9    9   12     -1.16      0.00
   10    9   12     -2.18      0.00
   11    9   12     -0.16      0.00
   12    9   12      0.08      0.00
   13    9   12      0.01      0.00
   14    9   12     -0.16      0.00
   15    9   12     -0.42      0.00
   -5   10   12     -0.73      0.00
   -4   10   12      0.06      0.00
   -3   10   12      1.05      0.00
   -2   10   12     -0.11      0.00
   -1   10   12      0.28      0.00
    0   10   12      0.07      0.00
    1   10   12     -0.63      0.00
    2   10   12     -0.79      0.00
    3   10   12      0.39      0.00
    4   10   12      0.11      0.00
    5   10   12      0.07      0.00
    6   10   12     -1.25      0.00
    7   10   12     -1.38      0.00
    8   10   12     -1.54      0.00
    9   10   12      0.21      0.00
   10   10   12      1.34      0.00
   11   10   12      0.12      0.00
   12   10   12      0.75      0.00
   13   10   12      0.57      0.00
   14   10   12     -0.22      0.00
   15   10   12      0.59      0.00
   -4   11   12      0.71      0.00
   -3   11   12     -1.34      0.00
   -2   11   12      0.14      0.00
   -1   11   12     -0.35      0.00
    0   11   12     -0.62      0.00
    1   11   12      0.24      0.00
    2   11   12      0.88      0.00
    3   11   12      0.14      0.00
    4   11   12     -0.46      0.00
    5   11   12     -0.76      0.00
    6   11   12      1.14      0.00
    7   11   12      0.85      0.00
    8   11   12      1.52      0.00
    9   11   12      0.76      0.00
   10   11   12     -0.25      0.00
   11   11   12      0.18      0.00
   12   11   12     -0.84      0.00
   13   11   12     -1.26      0.00
   14   11   12     -0.31      0.00
   15   11   12     -0.12      0.00
   -3   12   12      0.26      0.00
   -2   12   12     -0.44      0.00
   -1   12   12      0.68      0.00
    0   12   12      0.28      0.00
    1   12   12      0.05      0.00
    2   12   12     -0.28      0.00
    3   12   12     -0.18      0.00
    4   12   12     -0.16      0.00
    5   12   12      1.52      0.00
    6   12   12      0.02      0.00
    7   12   12     -0.84      0.00
    8   12   12     -1.02      0.00
    9   12   12     -0.69      0.00
   10   12   12     -1.06      0.00
   11   12   12     -0.60      0.00
   12   12   12      0.42      0.00
   13   12   12      1.30      0.00
   14   12   12      1.26      0.00
   -2   13   12      0.94      0.00
   -1   13   12     -0.42      0.00
    0   13   12      0.42      0.00
    1   13   12     -0.51      0.00
    2   13   12      0.16      0.00
    3   13   12      0.76      0.00
    4   13   12     -0.01      0.00
    5   13   12     -1.29      0.00
    6   13   12     -0.78      0.00
    7   13   12      0.21      0.00
    8   13   12      0.30      0.00
    9   13   12      0.15      0.00
   10   13   12      1.59      0.00
   11   13   12      0.97      0.00
   12   13   12      0.20      0.00
   13   13   12     -0.86      0.00
   14   13   12     -1.22      0.00
    0   14   12     -0.70      0.00
    1   14   12      0.87      0.00
    2   14   12     -0.31      0.00
    3   14   12     -1.62      0.00
    4   14   12      0.69      0.00
    5   14   12      0.41      0.00
    6   14   12      0.71      0.00
    7   14   12      0.19      0.00
    8   14   12      0.58      0.00
    9   14   12      0.02      0.00
   10   14   12     -0.59      0.00
   11   14   12     -1.07      0.00
   12   14   12     -0.78      0.00
   13   14   12      0.70      0.00
    2   15   12      0.28      0.00
    3   15   12      1.26      0.00
    4   15   12     -0.39      0.00
    5   15   12     -0.07      0.00
    6   15   12     -0.54      0.00
    7   15   12      0.06      0.00
    8   15   12     -0.76      0.00
    9   15   12      0.35      0.00
   10   15   12     -0.84      0.00
   11   15   12      0.71      0.00
   12   15   12      0.66      0.00
    5   16   12      0.60      0.00
    6   16   12      0.28      0.00
    7   16   12     -0.23      0.00
    8   16   12      0.54      0.00
    9   16   12     -0.87      0.00
   -6  -11   13      0.20      0.00
   -5  -11   13     -0.86      0.00
   -4  -11   13     -0.10      0.00
   -3  -11   13     -0.34      0.00
   -2  -11   13     -0.11      0.00
   -9  -10   13      0.36      0.00
   -8  -10   13      0.21      0.00
   -7  -10   13      0.38      0.00
   -6  -10   13     -0.29      0.00
   -5  -10   13      0.49      0.00
   -4  -10   13      0.07      0.00
   -3  -10   13      0.83      0.00
   -2  -10   13      0.40      0.00
   -1  -10   13      0.27      0.00
    0  -10   13     -1.41      0.00
    1  -10   13     -0.08      0.00
  -10   -9   13     -0.81      0.00
   -9   -9   13     -0.43      0.00
   -8   -9   13     -0.18      0.00
   -7   -9   13      0.19      0.00
   -6   -9   13     -0.86      0.00
   -5   -9   13      0.18      0.00
   -4   -9   13      0.33      0.00
   -3   -9   13     -0.90      0.00
   -2   -9   13     -0.24      0.00
   -1   -9   13     -0.67      0.00
    0   -9   13      1.01      0.00
    1   -9   13      0.54      0.00
    2   -9   13      0.58      0.00
    3   -9   13      0.64      0.00
  -10   -8   13      0.13      0.00
   -9   -8   13     -0.13      0.00
   -8   -8   13     -0.01      0.00
   -7   -8   13     -0.83      0.00
   -6   -8   13      1.14      0.00
   -5   -8   13      0.15      0.00
   -4   -8   13     -0.24      0.00
   -3   -8   13      0.47      0.00
   -2   -8   13      0.04      0.00
   -1   -8   13      0.66      0.00
    0   -8   13     -0.50      0.00
    1   -8   13     -0.08      0.00
    2   -8   13     -0.87      0.00
    3   -8   13     -0.91      0.00
    4   -8   13     -0.23      0.00
    5   -8   13     -0.28      0.00
  -11   -7   13     -0.84      0.00
  -10   -7   13      0.36      0.00
   -9   -7   13      0.36      0.00
   -8   -7   13      0.45      0.00
   -7   -7   13      1.05      0.00
   -6   -7   13     -0.20      0.00
   -5   -7   13     -0.59      0.00
   -4   -7   13     -0.51      0.00
   -3   -7   13      0.03      0.00
   -2   -7   13     -0.31      0.00
   -1   -7   13     -0.52      0.00
    0   -7   13      0.31      0.00
    1   -7   13     -0.62      0.00
    2   -7   13      0.32      0.00
    3   -7   13      1.12      0.00
    4   -7   13      0.04      0.00
    5   -7   13      0.24      0.00
    6   -7   13      0.05      0.00
  -11   -6   13      1.49      0.00
  -10   -6   13     -0.36      0.00
   -9   -6   13      0.06      0.00
   -8   -6   13     -0.19      0.00
   -7   -6   13     -1.46      0.00
   -6   -6   13     -0.41      0.00
   -5   -6   13      0.39      0.00
   -4   -6   13      0.77      0.00
   -3   -6   13      0.05      0.00
   -2   -6   13      0.52      0.00
   -1   -6   13      0.15      0.00
    0   -6   13      0.12      0.00
    1   -6   13      1.10      0.00
    2   -6   13     -0.07      0.00
    3   -6   13     -0.78      0.00
    4   -6   13      0.08      0.00
    5   -6   13      0.11      0.00
    6   -6   13      0.62      0.00
    7   -6   13     -0.75      0.00
  -11   -5   13     -0.86      0.00
  -10   -5   13     -0.19      0.00
   -9   -5   13     -0.58      0.00
   -8   -5   13     -0.08      0.00
   -7   -5   13      0.73      0.00
   -6   -5   13      0.82      0.00
   -5   -5   13      0.02      0.00
   -4   -5   13     -0.44      0.00
   -3   -5   13     -0.34      0.00
   -2   -5   13     -0.50      0.00
   -1   -5   13      0.37      0.00
    0   -5   13     -0.50      0.00
    1   -5   13     -0.82      0.00
    2   -5   13     -0.12      0.00
    3   -5   13      0.42      0.00
    4   -5   13      0.01      0.00
    5   -5   13     -0.05      0.00
    6   -5   13     -1.36      0.00
    7   -5   13      0.55      0.00
    8   -5   13      0.40      0.00
    9   -5   13     -0.14      0.00
  -12   -4   13      0.17      0.00
  -11   -4   13      0.25      0.00
  -10   -4   13     -0.32      0.00
   -9   -4   13      1.10      0.00
   -8   -4   13     -0.14      0.00
   -7   -4   13      0.40      0.00
   -6   -4   13     -0.63      0.00
   -5   -4   13     -0.46      0.00
   -4   -4   13      0.18      0.00
   -3   -4   13      0.22      0.00
   -2   -4   13      0.56      0.00
   -1   -4   13     -0.63      0.00
    0   -4   13      0.66      0.00
    1   -4   13     -0.20      0.00
    2   -4   13      0.24      0.00
    3   -4   13     -0.19      0.00
    4   -4   13     -0.47      0.00
    5   -4   13     -0.04      0.00
    6   -4   13      1.26      0.00
    7   -4   13      0.09      0.00
    8   -4   13     -0.40      0.00
    9   -4   13     -0.08      0.00
  -12   -3   13      0.03      0.00
  -11   -3   13     -0.49      0.00
  -10   -3   13      1.32      0.00
   -9   -3   13     -0.69      0.00
   -8   -3   13     -0.20      0.00
   -7   -3   13     -0.28      0.00
   -6   -3   13      0.08      0.00
   -5   -3   13      0.43      0.00
   -4   -3   13      0.16      0.00
   -3   -3   13     -0.19      0.00
   -2   -3   13     -0.22      0.00
   -1   -3   13      0.36      0.00
    0   -3   13     -0.81      0.00
    1   -3   13      0.79      0.00
    2   -3   13      0.26      0.00
    3   -3   13      0.01      0.00
    4   -3   13      0.93      0.00
    5   -3   13      0.01      0.00
    6   -3   13     -0.59      0.00
    7   -3   13     -0.06      0.00
    8   -3   13     -0.44      0.00
    9   -3   13      0.73      0.00
   10   -3   13      0.50      0.00
  -12   -2   13      0.22      0.00
  -11   -2   13      0.28      0.00
  -10   -2   13     -1.33      0.00
   -9   -2   13      0.16      0.00
   -8   -2   13      0.07      0.00
   -7   -2   13      0.08      0.00
   -6   -2   13     -0.15      0.00
   -5   -2   13      0.04      0.00
   -4   -2   13     -0.49      0.00
   -3   -2   13      0.35      0.00
   -2   -2   13     -0.55      0.00
   -1   -2   13      0.40      0.00
    0   -2   13      0.75      0.00
    1   -2   13     -0.92      0.00
    2   -2   13     -0.12      0.00
    3   -2   13     -0.47      0.00
    4   -2   13     -0.90      0.00
    5   -2   13     -0.04      0.00
    6   -2   13      0.04      0.00
    7   -2   13     -0.54      0.00
    8   -2   13      1.26      0.00
    9   -2   13     -1.30      0.00
   10   -2   13      0.10      0.00
   11   -2   13     -0.18      0.00
  -11   -1   13     -0.21      0.00
  -10   -1   13      0.70      0.00
   -9   -1   13     -0.25      0.00
   -8   -1   13      0.58      0.00
   -7   -1   13     -0.35      0.00
   -6   -1   13      0.71      0.00
   -5   -1   13     -0.43      0.00
   -4   -1   13      0.37      0.00
   -3   -1   13      0.02      0.00
   -2   -1   13      1.06      0.00
   -1   -1   13     -1.35      0.00
    0   -1   13     -0.08      0.00
    1   -1   13      0.68      0.00
    2   -1   13     -0.85      0.00
    3   -1   13      1.41      0.00
    4   -1   13      0.38      0.00
    5   -1   13      0.05      0.00
    6   -1   13      0.61      0.00
    7   -1   13      0.30      0.00
    8   -1   13     -0.81      0.00
    9   -1   13      1.18      0.00
   10   -1   13     -0.58      0.00
   11   -1   13      0.49      0.00
   12   -1   13     -0.23      0.00
  -11    0   13      0.56      0.00
  -10    0   13      0.54      0.00
   -9    0   13      0.17      0.00
   -8    0   13     -0.55      0.00
   -7    0   13      0.53      0.00
   -6    0   13     -0.88      0.00
   -5    0   13      0.33      0.00
   -4    0   13      0.14      0.00
   -3    0   13     -0.40      0.00
   -2    0   13     -1.41      0.00
   -1    0   13      1.66      0.00
    0    0   13     -0.55      0.00
    1    0   13      0.16      0.00
    2    0   13      1.16      0.00
    3    0   13     -1.79      0.00
    4    0   13      0.46      0.00
    5    0   13     -0.40      0.00
    6    0   13     -1.16      0.00
    7    0   13      0.62      0.00
    8    0   13      0.13      0.00
    9    0   13     -0.95      0.00
   10    0   13      0.69      0.00
   11    0   13     -0.57      0.00
   12    0   13      1.00      0.00
  -11    1   13     -0.20      0.00
  -10    1   13     -1.54      0.00
   -9    1   13     -0.11      0.00
   -8    1   13     -0.03      0.00
   -7    1   13     -0.10      0.00
   -6    1   13      0.02      0.00
   -5    1   13      0.10      0.00
   -4    1   13     -0.38      0.00
   -3    1   13     -0.07      0.00
   -2    1   13      1.36      0.00
   -1    1   13     -0.42      0.00
    0    1   13      0.03      0.00
    1    1   13     -0.60      0.00
    2    1   13     -0.50      0.00
    3    1   13      0.56      0.00
    4    1   13     -0.85      0.00
    5    1   13      1.37      0.00
    6    1   13      0.51      0.00
    7    1   13     -0.78      0.00
    8    1   13      0.01      0.00
    9    1   13      0.40      0.00
   10    1   13     -0.42      0.00
   11    1   13      0.48      0.00
   12    1   13     -1.33      0.00
   13    1   13      0.49      0.00
  -10    2   13      1.20      0.00
   -9    2   13      0.20      0.00
   -8    2   13      0.37      0.00
   -7    2   13     -0.42      0.00
   -6    2   13      0.68      0.00
   -5    2   13     -0.19      0.00
   -4    2   13      0.33      0.00
   -3    2   13      0.82      0.00
   -2    2   13     -0.83      0.00
   -1    2   13     -0.87      0.00
    0    2   13      0.69      0.00
    1    2   13      0.33      0.00
    2    2   13     -0.57      0.00
    3    2   13      1.53      0.00
    4    2   13      0.54      0.00
    5    2   13     -2.08      0.00
    6    2   13      0.75      0.00
    7    2   13      0.50      0.00
    8    2   13     -0.46      0.00
    9    2   13      0.74      0.00
   10    2   13      0.28      0.00
   11    2   13     -0.36      0.00
   12    2   13      1.06      0.00
   13    2   13     -0.32      0.00
  -10    3   13     -0.14      0.00
   -9    3   13     -0.25      0.00
   -8    3   13     -0.09      0.00
   -7    3   13      0.36      0.00
   -6    3   13     -0.49      0.00
   -5    3   13      0.05      0.00
   -4    3   13      0.05      0.00
   -3    3   13     -1.52      0.00
   -2    3   13      0.76      0.00
   -1    3   13      0.59      0.00
    0    3   13     -0.59      0.00
    1    3   13      0.17      0.00
    2    3   13      0.74      0.00
    3    3   13     -2.05      0.00
    4    3   13     -0.12      0.00
    5    3   13      1.47      0.00
    6    3   13     -0.90      0.00
    7    3   13     -0.49      0.00
    8    3   13      0.82      0.00
    9    3   13     -1.38      0.00
   10    3   13     -0.04      0.00
   11    3   13     -0.23      0.00
   12    3   13     -0.80      0.00
   13    3   13      0.15      0.00
   14    3   13     -0.40      0.00
  -10    4   13     -0.45      0.00
   -9    4   13      0.38      0.00
   -8    4   13     -0.10      0.00
   -7    4   13     -0.22      0.00
   -6    4   13      0.24      0.00
   -5    4   13      0.16      0.00
   -4    4   13     -0.42      0.00
   -3    4   13      1.13      0.00
   -2    4   13     -0.53      0.00
   -1    4   13      0.08      0.00
    0    4   13     -0.06      0.00
    1    4   13     -0.57      0.00
    2    4   13      0.25      0.00
    3    4   13      0.80      0.00
    4    4   13      0.10      0.00
    5    4   13     -0.39      0.00
    6    4   13      0.18      0.00
    7    4   13      0.37      0.00
    8    4   13     -0.14      0.00
    9    4   13      0.55      0.00
   10    4   13     -0.59      0.00
   11    4   13      0.97      0.00
   12    4   13      0.95      0.00
   13    4   13     -0.02      0.00
   14    4   13     -0.01      0.00
   -9    5   13     -0.32      0.00
   -8    5   13     -0.29      0.00
   -7    5   13      0.23      0.00
   -6    5   13     -0.62      0.00
   -5    5   13      0.00      0.00
   -4    5   13     -0.15      0.00
   -3    5   13     -0.03      0.00
   -2    5   13      0.11      0.00
   -1    5   13     -0.42      0.00
    0    5   13      1.01      0.00
    1    5   13      0.45      0.00
    2    5   13     -0.79      0.00
    3    5   13      0.53      0.00
    4    5   13     -0.90      0.00
    5    5   13      0.28      0.00
    6    5   13      0.44      0.00
    7    5   13     -0.60      0.00
    8    5   13     -0.99      0.00
    9    5   13      1.35      0.00
   10    5   13      1.01      0.00
   11    5   13     -0.91      0.00
   12    5   13     -0.84      0.00
   13    5   13     -0.25      0.00
   14    5   13     -0.46      0.00
   -8    6   13      0.57      0.00
   -7    6   13     -0.09      0.00
   -6    6   13      0.89      0.00
   -5    6   13     -0.12      0.00
   -4    6   13      0.50      0.00
   -3    6   13      0.36      0.00
   -2    6   13     -0.09      0.00
   -1    6   13      0.44      0.00
    0    6   13     -1.17      0.00
    1    6   13     -0.05      0.00
    2    6   13     -0.03      0.00
    3    6   13     -0.60      0.00
    4    6   13      1.37      0.00
    5    6   13     -0.57      0.00
    6    6   13     -0.81      0.00
    7    6   13      1.50      0.00
    8    6   13      1.61      0.00
    9    6   13     -2.29      0.00
   10    6   13     -0.98      0.00
   11    6   13     -0.26      0.00
   12    6   13      0.11      0.00
   13    6   13      0.53      0.00
   14    6   13      1.30      0.00
   15    6   13     -1.23      0.00
   -8    7   13     -0.18      0.00
   -7    7   13     -0.02      0.00
   -6    7   13     -0.57      0.00
   -5    7   13      0.19      0.00
   -4    7   13     -0.34      0.00
   -3    7   13     -0.88      0.00
   -2    7   13     -0.26      0.00
   -1    7   13     -0.37      0.00
    0    7   13      0.49      0.00
    1    7   13     -0.41      0.00
    2    7   13      0.99      0.00
    3    7   13     -0.39      0.00
    4    7   13     -0.58      0.00
    5    7   13      0.70      0.00
    6    7   13      0.76      0.00
    7    7   13     -1.93      0.00
    8    7   13     -1.54      0.00
    9    7   13      0.88      0.00
   10    7   13      0.80      0.00
   11    7   13      1.67      0.00
   12    7   13      0.55      0.00
   13    7   13     -0.61      0.00
   14    7   13     -1.18      0.00
   15    7   13      1.27      0.00
   -7    8   13     -0.55      0.00
   -6    8   13      0.62      0.00
   -5    8   13     -0.75      0.00
   -4    8   13      0.28      0.00
   -3    8   13      0.45      0.00
   -2    8   13      0.55      0.00
   -1    8   13      0.38      0.00
    0    8   13     -0.03      0.00
    1    8   13      0.52      0.00
    2    8   13     -0.31      0.00
    3    8   13      0.61      0.00
    4    8   13      0.06      0.00
    5    8   13     -0.57      0.00
    6    8   13     -1.03      0.00
    7    8   13      1.40      0.00
    8    8   13      1.38      0.00
    9    8   13      1.19      0.00
   10    8   13     -0.50      0.00
   11    8   13     -2.03      0.00
   12    8   13     -0.47      0.00
   13    8   13      0.16      0.00
   14    8   13      0.62      0.00
   15    8   13     -1.03      0.00
   -6    9   13     -0.53      0.00
   -5    9   13      0.79      0.00
   -4    9   13     -0.23      0.00
   -3    9   13      0.13      0.00
   -2    9   13     -0.52      0.00
   -1    9   13      0.08      0.00
    0    9   13      0.06      0.00
    1    9   13     -0.02      0.00
    2    9   13     -0.72      0.00
    3    9   13     -0.43      0.00
    4    9   13     -0.17      0.00
    5    9   13      0.13      0.00
    6    9   13      1.58      0.00
    7    9   13     -0.32      0.00
    8    9   13     -1.28      0.00
    9    9   13     -1.94      0.00
   10    9   13      0.01      0.00
   11    9   13      1.31      0.00
   12    9   13      0.00      0.00
   13    9   13      0.38      0.00
   14    9   13     -0.45      0.00
   15    9   13      0.83      0.00
   -5   10   13     -0.41      0.00
   -4   10   13      0.73      0.00
   -3   10   13     -0.28      0.00
   -2   10   13      0.19      0.00
   -1   10   13     -0.07      0.00
    0   10   13     -0.56      0.00
    1   10   13     -0.60      0.00
    2   10   13      0.20      0.00
    3   10   13      0.79      0.00
    4   10   13      0.37      0.00
    5   10   13     -0.20      0.00
    6   10   13     -1.40      0.00
    7   10   13     -0.38      0.00
    8   10   13      0.34      0.00
    9   10   13      1.84      0.00
   10   10   13      0.38      0.00
   11   10   13     -0.43      0.00
   12   10   13      0.27      0.00
   13   10   13     -0.21      0.00
   14   10   13      0.13      0.00
   15   10   13     -0.43      0.00
   -4   11   13     -0.93      0.00
   -3   11   13     -0.18      0.00
   -2   11   13     -0.11      0.00
   -1   11   13     -0.38      0.00
    0   11   13      0.77      0.00
    1   11   13      0.88      0.00
    2   11   13      0.62      0.00
    3   11   13     -0.50      0.00
    4   11   13     -0.48      0.00
    5   11   13     -0.16      0.00
    6   11   13      1.54      0.00
    7   11   13      0.48      0.00
    8   11   13      0.75      0.00
    9   11   13     -1.17      0.00
   10   11   13     -0.47      0.00
   11   11   13     -0.15      0.00
   12   11   13     -0.52      0.00
   13   11   13     -0.51      0.00
   14   11   13      0.43      0.00
   -3   12   13      0.25      0.00
   -2   12   13      0.78      0.00
   -1   12   13      0.32      0.00
    0   12   13     -0.33      0.00
    1   12   13     -0.50      0.00
    2   12   13     -0.95      0.00
    3   12   13     -0.12      0.00
    4   12   13      0.24      0.00
    5   12   13      1.22      0.00
    6   12   13     -1.62      0.00
    7   12   13     -0.86      0.00
    8   12   13     -1.00      0.00
    9   12   13     -0.10      0.00
   10   12   13     -0.12      0.00
   11   12   13      0.66      0.00
   12   12   13      0.68      0.00
   13   12   13      1.21      0.00
   14   12   13     -0.36      0.00
   -1   13   13     -0.12      0.00
    0   13   13     -0.48      0.00
    1   13   13     -0.11      0.00
    2   13   13      1.57      0.00
    3   13   13     -0.18      0.00
    4   13   13     -0.26      0.00
    5   13   13     -0.96      0.00
    6   13   13      0.46      0.00
    7   13   13      0.64      0.00
    8   13   13      1.28      0.00
    9   13   13      1.12      0.00
   10   13   13      1.03      0.00
   11   13   13     -0.42      0.00
   12   13   13     -0.79      0.00
   13   13   13     -1.33      0.00
    0   14   13      0.83      0.00
    1   14   13      0.42      0.00
    2   14   13     -1.88      0.00
    3   14   13      0.42      0.00
    4   14   13      0.56      0.00
    5   14   13      0.03      0.00
    6   14   13      0.47      0.00
    7   14   13      0.26      0.00
    8   14   13     -1.03      0.00
    9   14   13     -1.43      0.00
   10   14   13     -1.30      0.00
   11   14   13     -0.85      0.00
   12   14   13      0.81      0.00
   13   14   13      0.96      0.00
    3   15   13      0.21      0.00
    4   15   13     -0.45      0.00
    5   15   13     -0.11      0.00
    6   15   13     -0.21      0.00
    7   15   13     -0.51      0.00
    8   15   13      0.17      0.00
    9   15   13      0.86      0.00
   10   15   13      0.86      0.00
   11   15   13      1.60      0.00
    7   16   13      0.34      0.00
    8   16   13      0.13      0.00
   -7  -10   14     -0.61      0.00
   -6  -10   14     -0.41      0.00
   -5  -10   14      0.36      0.00
   -4  -10   14     -0.36      0.00
   -3  -10   14      0.00      0.00
   -2  -10   14      0.63      0.00
   -1  -10   14     -0.72      0.00
    0  -10   14      0.29      0.00
   -9   -9   14      0.40      0.00
   -8   -9   14      0.46      0.00
   -7   -9   14     -0.22      0.00
   -6   -9   14      0.66      0.00
   -5   -9   14      0.33      0.00
   -4   -9   14     -0.40      0.00
   -3   -9   14     -0.10      0.00
   -2   -9   14     -0.45      0.00
   -1   -9   14      0.13      0.00
    0   -9   14      0.13      0.00
    1   -9   14      0.01      0.00
    2   -9   14     -0.42      0.00
  -10   -8   14     -0.38      0.00
   -9   -8   14     -0.16      0.00
   -8   -8   14     -0.36      0.00
   -7   -8   14      0.93      0.00
   -6   -8   14     -0.12      0.00
   -5   -8   14     -0.66      0.00
   -4   -8   14      0.17      0.00
   -3   -8   14      0.37      0.00
   -2   -8   14      0.08      0.00
   -1   -8   14      0.11      0.00
    0   -8   14     -0.08      0.00
    1   -8   14     -0.44      0.00
    2   -8   14     -0.22      0.00
    3   -8   14     -0.08      0.00
    4   -8   14      0.26      0.00
  -10   -7   14      1.14      0.00
   -9   -7   14      0.27      0.00
   -8   -7   14      0.80      0.00
   -7   -7   14     -1.25      0.00
   -6   -7   14     -0.28      0.00
   -5   -7   14     -0.21      0.00
   -4   -7   14      0.48      0.00
   -3   -7   14     -0.46      0.00
   -2   -7   14     -0.19      0.00
   -1   -7   14      0.26      0.00
    0   -7   14     -0.10      0.00
    1   -7   14      0.42      0.00
    2   -7   14      0.87      0.00
    3   -7   14      0.55      0.00
    4   -7   14     -0.04      0.00
    5   -7   14     -0.17      0.00
    6   -7   14     -0.25      0.00
  -11   -6   14     -0.46      0.00
  -10   -6   14     -1.73      0.00
   -9   -6   14     -0.25      0.00
   -8   -6   14     -1.69      0.00
   -7   -6   14      0.85      0.00
   -6   -6   14      0.40      0.00
   -5   -6   14      0.78      0.00
   -4   -6   14     -0.39      0.00
   -3   -6   14      0.45      0.00
   -2   -6   14      0.27      0.00
   -1   -6   14     -0.08      0.00
    0   -6   14      0.32      0.00
    1   -6   14     -0.53      0.00
    2   -6   14     -0.98      0.00
    3   -6   14     -0.73      0.00
    4   -6   14     -0.21      0.00
    5   -6   14      0.32      0.00
    6   -6   14     -0.10      0.00
    7   -6   14     -0.61      0.00
  -11   -5   14     -0.02      0.00
  -10   -5   14      1.33      0.00
   -9   -5   14      0.67      0.00
   -8   -5   14      1.34      0.00
   -7   -5   14     -0.17      0.00
   -6   -5   14      0.34      0.00
   -5   -5   14     -1.04      0.00
   -4   -5   14      0.22      0.00
   -3   -5   14     -0.71      0.00
   -2   -5   14     -0.03      0.00
   -1   -5   14     -0.57      0.00
    0   -5   14     -0.28      0.00
    1   -5   14      0.31      0.00
    2   -5   14      0.80      0.00
    3   -5   14      0.76      0.00
    4   -5   14      0.21      0.00
    5   -5   14     -0.36      0.00
    6   -5   14     -0.13      0.00
    7   -5   14      0.77      0.00
    8   -5   14     -0.58      0.00
  -11   -4   14     -0.14      0.00
  -10   -4   14     -0.75      0.00
   -9   -4   14     -0.53      0.00
   -8   -4   14     -0.72      0.00
   -7   -4   14      0.27      0.00
   -6   -4   14     -1.17      0.00
   -5   -4   14      0.87      0.00
   -4   -4   14     -0.23      0.00
   -3   -4   14      0.85      0.00
   -2   -4   14      0.13      0.00
   -1   -4   14      0.89      0.00
    0   -4   14      0.08      0.00
    1   -4   14     -0.05      0.00
    2   -4   14     -0.56      0.00
    3   -4   14     -0.81      0.00
    4   -4   14      0.04      0.00
    5   -4   14      0.31      0.00
    6   -4   14      0.23      0.00
    7   -4   14     -0.35      0.00
    8   -4   14      0.20      0.00
    9   -4   14     -0.62      0.00
  -11   -3   14      0.37      0.00
  -10   -3   14      0.93      0.00
   -9   -3   14     -0.37      0.00
   -8   -3   14      0.43      0.00
   -7   -3   14     -0.24      0.00
   -6   -3   14      0.57      0.00
   -5   -3   14      0.02      0.00
   -4   -3   14      0.07      0.00
   -3   -3   14     -0.43      0.00
   -2   -3   14     -0.57      0.00
   -1   -3   14     -0.98      0.00
    0   -3   14     -0.13      0.00
    1   -3   14      0.17      0.00
    2   -3   14      0.69      0.00
    3   -3   14      0.47      0.00
    4   -3   14      0.16      0.00
    5   -3   14     -0.70      0.00
    6   -3   14      0.43      0.00
    7   -3   14     -0.45      0.00
    8   -3   14     -0.16      0.00
    9   -3   14      0.75      0.00
   10   -3   14     -0.47      0.00
  -11   -2   14     -0.85      0.00
  -10   -2   14     -0.55      0.00
   -9   -2   14      0.31      0.00
   -8   -2   14     -0.13      0.00
   -7   -2   14      0.07      0.00
   -6   -2   14      0.26      0.00
   -5   -2   14     -0.49      0.00
   -4   -2   14      0.00      0.00
   -3   -2   14     -0.29      0.00
   -2   -2   14      0.93      0.00
   -1   -2   14      1.08      0.00
    0   -2   14      0.07      0.00
    1   -2   14      0.02      0.00
    2   -2   14     -0.76      0.00
    3   -2   14     -0.41      0.00
    4   -2   14     -0.41      0.00
    5   -2   14      0.85      0.00
    6   -2   14     -0.85      0.00
    7   -2   14      0.47      0.00
    8   -2   14      0.47      0.00
    9   -2   14     -0.78      0.00
   10   -2   14      0.62      0.00
   11   -2   14     -0.46      0.00
  -11   -1   14      1.37      0.00
  -10   -1   14      0.06      0.00
   -9   -1   14      0.40      0.00
   -8   -1   14     -0.03      0.00
   -7   -1   14     -0.09      0.00
   -6   -1   14     -0.17      0.00
   -5   -1   14      0.00      0.00
   -4   -1   14      0.31      0.00
   -3   -1   14      0.89      0.00
   -2   -1   14     -1.11      0.00
   -1   -1   14     -0.95      0.00
    0   -1   14      0.16      0.00
    1   -1   14     -0.42      0.00
    2   -1   14      0.65      0.00
    3   -1   14      0.41      0.00
    4   -1   14      0.13      0.00
    5   -1   14      0.03      0.00
    6   -1   14      0.40      0.00
    7   -1   14      0.03      0.00
    8   -1   14     -0.25      0.00
    9   -1   14      0.54      0.00
   10   -1   14     -0.85      0.00
   11   -1   14      0.70      0.00
  -11    0   14     -0.53      0.00
  -10    0   14     -0.15      0.00
   -9    0   14     -0.99      0.00
   -8    0   14      0.20      0.00
   -7    0   14      0.04      0.00
   -6    0   14     -0.39      0.00
   -5    0   14      0.46      0.00
   -4    0   14     -0.33      0.00
   -3    0   14     -1.32      0.00
   -2    0   14      0.63      0.00
   -1    0   14      0.91      0.00
    0    0   14     -0.16      0.00
    1    0   14      0.53      0.00
    2    0   14     -1.15      0.00
    3    0   14      0.47      0.00
    4    0   14      0.16      0.00
    5    0   14     -1.02      0.00
    6    0   14     -0.07      0.00
    7    0   14      0.06      0.00
    8    0   14     -0.58      0.00
    9    0   14     -0.60      0.00
   10    0   14      0.92      0.00
   11    0   14     -0.44      0.00
   12    0   14      0.48      0.00
  -10    1   14     -0.47      0.00
   -9    1   14      1.10      0.00
   -8    1   14     -0.14      0.00
   -7    1   14     -0.07      0.00
   -6    1   14      0.29      0.00
   -5    1   14      0.11      0.00
   -4    1   14     -0.11      0.00
   -3    1   14      1.23      0.00
   -2    1   14      0.61      0.00
   -1    1   14     -0.84      0.00
    0    1   14     -0.24      0.00
    1    1   14     -0.03      0.00
    2    1   14      1.46      0.00
    3    1   14     -1.20      0.00
    4    1   14      0.28      0.00
    5    1   14      0.57      0.00
    6    1   14      0.34      0.00
    7    1   14     -0.07      0.00
    8    1   14      0.79      0.00
    9    1   14      0.74      0.00
   10    1   14     -0.21      0.00
   11    1   14      0.14      0.00
   12    1   14     -0.82      0.00
   13    1   14      0.86      0.00
  -10    2   14      1.51      0.00
   -9    2   14     -0.54      0.00
   -8    2   14      0.10      0.00
   -7    2   14      0.07      0.00
   -6    2   14      0.37      0.00
   -5    2   14     -0.51      0.00
   -4    2   14      0.34      0.00
   -3    2   14     -0.91      0.00
   -2    2   14     -1.11      0.00
   -1    2   14      0.11      0.00
    0    2   14      0.63      0.00
    1    2   14     -0.73      0.00
    2    2   14     -0.98      0.00
    3    2   14      0.97      0.00
    4    2   14     -1.06      0.00
    5    2   14      0.71      0.00
    6    2   14     -0.28      0.00
    7    2   14     -0.62      0.00
    8    2   14     -0.30      0.00
    9    2   14     -0.24      0.00
   10    2   14     -0.79      0.00
   11    2   14     -0.34      0.00
   12    2   14      1.07      0.00
   13    2   14     -0.50      0.00
  -10    3   14     -1.46      0.00
   -9    3   14     -0.18      0.00
   -8    3   14     -0.23      0.00
   -7    3   14     -0.21      0.00
   -6    3   14     -0.57      0.00
   -5    3   14      0.11      0.00
   -4    3   14     -0.41      0.00
   -3    3   14      0.48      0.00
   -2    3   14      0.92      0.00
   -1    3   14      0.16      0.00
    0    3   14     -0.20      0.00
    1    3   14      0.82      0.00
    2    3   14      0.62      0.00
    3    3   14      0.03      0.00
    4    3   14      1.08      0.00
    5    3   14     -1.17      0.00
    6    3   14     -0.23      0.00
    7    3   14      0.77      0.00
    8    3   14     -0.10      0.00
    9    3   14     -0.17      0.00
   10    3   14      0.91      0.00
   11    3   14      0.20      0.00
   12    3   14     -0.48      0.00
   13    3   14      0.35      0.00
   -9    4   14      0.70      0.00
   -8    4   14      0.08      0.00
   -7    4   14      0.48      0.00
   -6    4   14      0.49      0.00
   -5    4   14      0.44      0.00
   -4    4   14     -0.12      0.00
   -3    4   14      0.42      0.00
   -2    4   14     -0.66      0.00
   -1    4   14      0.03      0.00
    0    4   14     -0.34      0.00
    1    4   14     -0.19      0.00
    2    4   14     -0.64      0.00
    3    4   14     -1.14      0.00
    4    4   14     -0.61      0.00
    5    4   14      0.59      0.00
    6    4   14      0.61      0.00
    7    4   14      0.18      0.00
    8    4   14      0.09      0.00
    9    4   14     -0.17      0.00
   10    4   14      0.08      0.00
   11    4   14      0.55      0.00
   12    4   14     -0.38      0.00
   13    4   14     -0.21      0.00
   14    4   14     -0.08      0.00
   -9    5   14     -0.91      0.00
   -8    5   14      0.10      0.00
   -7    5   14     -0.74      0.00
   -6    5   14     -0.56      0.00
   -5    5   14     -0.64      0.00
   -4    5   14      0.33      0.00
   -3    5   14     -0.50      0.00
   -2    5   14      0.25      0.00
   -1    5   14      0.17      0.00
    0    5   14      0.40      0.00
    1    5   14     -0.57      0.00
    2    5   14      0.98      0.00
    3    5   14      1.20      0.00
    4    5   14      0.41      0.00
    5    5   14      0.85      0.00
    6    5   14     -1.24      0.00
    7    5   14     -1.25      0.00
    8    5   14      0.50      0.00
    9    5   14      0.82      0.00
   10    5   14     -1.41      0.00
   11    5   14     -0.74      0.00
   12    5   14      0.38      0.00
   13    5   14     -0.65      0.00
   14    5   14      1.04      0.00
   -8    6   14      0.07      0.00
   -7    6   14      0.97      0.00
   -6    6   14      0.75      0.00
   -5    6   14      0.46      0.00
   -4    6   14      0.57      0.00
   -3    6   14      0.18      0.00
   -2    6   14     -0.50      0.00
   -1    6   14     -0.33      0.00
    0    6   14     -0.31      0.00
    1    6   14      0.66      0.00
    2    6   14     -1.12      0.00
    3    6   14     -0.39      0.00
    4    6   14     -0.63      0.00
    5    6   14     -2.00      0.00
    6    6   14      1.72      0.00
    7    6   14      1.77      0.00
    8    6   14     -0.98      0.00
    9    6   14     -1.09      0.00
   10    6   14      1.40      0.00
   11    6   14      0.15      0.00
   12    6   14      0.61      0.00
   13    6   14      1.46      0.00
   14    6   14     -1.53      0.00
   -7    7   14     -1.42      0.00
   -6    7   14     -0.36      0.00
   -5    7   14     -0.69      0.00
   -4    7   14     -1.22      0.00
   -3    7   14     -0.48      0.00
   -2    7   14      0.44      0.00
   -1    7   14      0.51      0.00
    0    7   14      0.35      0.00
    1    7   14     -0.35      0.00
    2    7   14      0.77      0.00
    3    7   14     -0.28      0.00
    4    7   14      1.37      0.00
    5    7   14      1.61      0.00
    6    7   14     -1.33      0.00
    7    7   14     -1.54      0.00
    8    7   14      0.27      0.00
    9    7   14      0.73      0.00
   10    7   14      0.38      0.00
   11    7   14      0.34      0.00
   12    7   14     -1.42      0.00
   13    7   14     -1.31      0.00
   14    7   14      1.16      0.00
   -7    8   14      1.74      0.00
   -6    8   14     -0.26      0.00
   -5    8   14      0.72      0.00
   -4    8   14      1.26      0.00
   -3    8   14      0.72      0.00
   -2    8   14      0.29      0.00
   -1    8   14     -0.30      0.00
    0    8   14     -0.50      0.00
    1    8   14      0.43      0.00
    2    8   14     -0.19      0.00
    3    8   14      0.34      0.00
    4    8   14     -1.37      0.00
    5    8   14     -1.23      0.00
    6    8   14      0.56      0.00
    7    8   14      1.12      0.00
    8    8   14      0.89      0.00
    9    8   14     -0.08      0.00
   10    8   14     -1.91      0.00
   11    8   14     -0.25      0.00
   12    8   14      0.97      0.00
   13    8   14      0.58      0.00
   14    8   14     -0.47      0.00
   -6    9   14      0.30      0.00
   -5    9   14     -0.38      0.00
   -4    9   14     -0.68      0.00
   -3    9   14     -0.84      0.00
   -2    9   14     -0.47      0.00
   -1    9   14     -0.05      0.00
    0    9   14      0.18      0.00
    1    9   14     -0.52      0.00
    2    9   14     -0.49      0.00
    3    9   14     -0.20      0.00
    4    9   14      0.42      0.00
    5    9   14      1.40      0.00
    6    9   14      0.15      0.00
    7    9   14     -0.86      0.00
    8    9   14     -1.52      0.00
    9    9   14     -0.20      0.00
   10    9   14      1.67      0.00
   11    9   14      0.19      0.00
   12    9   14     -0.25      0.00
   13    9   14      0.08      0.00
   14    9   14     -0.02      0.00
   -5   10   14      0.34      0.00
   -4   10   14      0.11      0.00
   -3   10   14      0.39      0.00
   -2   10   14      0.55      0.00
   -1   10   14     -0.04      0.00
    0   10   14     -0.26      0.00
    1   10   14      0.69      0.00
    2   10   14      0.66      0.00
    3   10   14      0.53      0.00
    4   10   14      0.08      0.00
    5   10   14     -1.20      0.00
    6   10   14     -0.30      0.00
    7   10   14      0.08      0.00
    8   10   14      1.74      0.00
    9   10   14      0.43      0.00
   10   10   14     -0.82      0.00
   11   10   14     -0.32      0.00
   12   10   14      0.11      0.00
   13   10   14     -0.22      0.00
   14   10   14     -0.10      0.00
   -4   11   14     -0.25      0.00
   -3   11   14      0.13      0.00
   -2   11   14     -0.67      0.00
   -1   11   14      0.30      0.00
    0   11   14      0.78      0.00
    1   11   14     -0.63      0.00
    2   11   14     -0.22      0.00
    3   11   14     -0.48      0.00
    4   11   14     -0.76      0.00
    5   11   14      1.16      0.00
    6   11   14      0.40      0.00
    7   11   14      0.25      0.00
    8   11   14     -1.37      0.00
    9   11   14     -0.76      0.00
   10   11   14      0.05      0.00
   11   11   14      0.25      0.00
   12   11   14     -0.15      0.00
   13   11   14      0.15      0.00
   14   11   14      0.52      0.00
   -2   12   14      0.77      0.00
   -1   12   14     -0.72      0.00
    0   12   14     -0.26      0.00
    1   12   14     -0.46      0.00
    2   12   14     -0.14      0.00
    3   12   14     -0.07      0.00
    4   12   14      1.28      0.00
    5   12   14     -0.96      0.00
    6   12   14     -0.86      0.00
    7   12   14     -0.30      0.00
    8   12   14      0.85      0.00
    9   12   14      0.42      0.00
   10   12   14      1.14      0.00
   11   12   14      0.04      0.00
   12   12   14      0.25      0.00
   14   12   14     -0.85      0.00
   -1   13   14      0.43      0.00
    0   13   14     -0.60      0.00
    1   13   14      1.75      0.00
    2   13   14      0.25      0.00
    3   13   14     -0.11      0.00
    4   13   14     -0.26      0.00
    5   13   14      0.32      0.00
    6   13   14      0.23      0.00
    7   13   14      1.13      0.00
    8   13   14      0.00      0.00
    9   13   14     -0.10      0.00
   10   13   14     -1.48      0.00
   11   13   14     -0.63      0.00
   12   13   14     -0.72      0.00
    1   14   14     -1.63      0.00
    2   14   14     -0.53      0.00
    3   14   14      0.49      0.00
    4   14   14     -0.67      0.00
    5   14   14     -0.07      0.00
    6   14   14      0.60      0.00
    7   14   14     -0.91      0.00
    8   14   14     -1.33      0.00
    9   14   14      0.10      0.00
   10   14   14      0.37      0.00
   11   14   14      1.07      0.00
   12   14   14      1.38      0.00
    3   15   14      0.04      0.00
    4   15   14      0.09      0.00
    5   15   14      0.33      0.00
    6   15   14     -0.21      0.00
    7   15   14     -0.37      0.00
    8   15   14      1.55      0.00
    9   15   14      0.12      0.00
   10   15   14      0.86      0.00
   11   15   14     -0.98      0.00
   -5  -10   15     -0.25      0.00
   -4  -10   15     -0.39      0.00
   -3  -10   15     -0.05      0.00
   -2  -10   15      0.05      0.00
   -7   -9   15      0.34      0.00
   -6   -9   15      1.52      0.00
   -5   -9   15     -0.84      0.00
   -4   -9   15      0.44      0.00
   -3   -9   15      0.38      0.00
   -2   -9   15     -0.32      0.00
   -1   -9   15      1.05      0.00
    0   -9   15      0.12      0.00
    1   -9   15      0.01      0.00
   -9   -8   15      0.35      0.00
   -8   -8   15      0.06      0.00
   -7   -8   15     -0.08      0.00
   -6   -8   15     -2.54      0.00
   -5   -8   15      0.47      0.00
   -4   -8   15     -0.40      0.00
   -3   -8   15      0.02      0.00
   -2   -8   15     -0.26      0.00
   -1   -8   15     -0.48      0.00
    0   -8   15     -0.33      0.00
    1   -8   15     -0.10      0.00
    2   -8   15      0.21      0.00
    3   -8   15      0.24      0.00
   -9   -7   15     -0.24      0.00
   -8   -7   15     -1.14      0.00
   -7   -7   15     -0.56      0.00
   -6   -7   15      1.93      0.00
   -5   -7   15      0.61      0.00
   -4   -7   15      0.82      0.00
   -3   -7   15     -0.75      0.00
   -2   -7   15      0.94      0.00
   -1   -7   15      0.28      0.00
    0   -7   15      0.30      0.00
    1   -7   15      0.29      0.00
    2   -7   15      0.00      0.00
    3   -7   15     -0.39      0.00
    4   -7   15     -0.62      0.00
    5   -7   15     -0.41      0.00
  -10   -6   15      0.67      0.00
   -9   -6   15      0.00      0.00
   -8   -6   15      1.14      0.00
   -7   -6   15      1.32      0.00
   -6   -6   15     -0.62      0.00
   -5   -6   15     -1.21      0.00
   -4   -6   15     -0.78      0.00
   -3   -6   15      0.50      0.00
   -2   -6   15     -0.62      0.00
   -1   -6   15     -0.37      0.00
    0   -6   15     -0.55      0.00
    1   -6   15     -0.64      0.00
    2   -6   15     -0.03      0.00
    3   -6   15      0.30      0.00
    4   -6   15      0.30      0.00
    5   -6   15      0.67      0.00
    6   -6   15     -0.28      0.00
  -10   -5   15     -0.15      0.00
   -9   -5   15     -0.01      0.00
   -8   -5   15     -0.97      0.00
   -7   -5   15     -0.61      0.00
   -6   -5   15     -0.52      0.00
   -5   -5   15      0.92      0.00
   -4   -5   15      0.52      0.00
   -3   -5   15     -0.08      0.00
   -2   -5   15      0.14      0.00
   -1   -5   15      0.12      0.00
    0   -5   15      0.80      0.00
    1   -5   15      0.76      0.00
    2   -5   15      0.38      0.00
    3   -5   15     -0.42      0.00
    4   -5   15      0.20      0.00
    5   -5   15     -0.77      0.00
    6   -5   15      0.32      0.00
    7   -5   15     -0.04      0.00
  -10   -4   15      0.12      0.00
   -9   -4   15     -0.19      0.00
   -8   -4   15      1.02      0.00
   -7   -4   15     -0.24      0.00
   -6   -4   15      0.34      0.00
   -5   -4   15     -0.09      0.00
   -4   -4   15     -0.48      0.00
   -3   -4   15      0.26      0.00
   -2   -4   15     -0.08      0.00
   -1   -4   15      0.37      0.00
    0   -4   15     -0.86      0.00
    1   -4   15     -0.64      0.00
    2   -4   15     -0.71      0.00
    3   -4   15      0.47      0.00
    4   -4   15     -0.11      0.00
    5   -4   15      0.23      0.00
    6   -4   15     -0.31      0.00
    7   -4   15      0.32      0.00
    8   -4   15     -0.07      0.00
  -11   -3   15      1.27      0.00
  -10   -3   15     -0.37      0.00
   -9   -3   15      0.35      0.00
   -8   -3   15     -0.63      0.00
   -7   -3   15      0.03      0.00
   -6   -3   15      0.33      0.00
   -5   -3   15     -0.11      0.00
   -4   -3   15      0.23      0.00
   -3   -3   15     -0.45      0.00
   -2   -3   15     -0.13      0.00
   -1   -3   15     -0.68      0.00
    0   -3   15      0.75      0.00
    1   -3   15      0.64      0.00
    2   -3   15      0.69      0.00
    3   -3   15     -0.11      0.00
    4   -3   15     -0.53      0.00
    5   -3   15      0.39      0.00
    6   -3   15      0.66      0.00
    7   -3   15     -1.18      0.00
    8   -3   15      0.54      0.00
    9   -3   15     -0.06      0.00
  -10   -2   15      0.49      0.00
   -9   -2   15     -0.76      0.00
   -8   -2   15      0.71      0.00
   -7   -2   15      0.06      0.00
   -6   -2   15     -0.34      0.00
   -5   -2   15     -0.13      0.00
   -4   -2   15     -0.12      0.00
   -3   -2   15      0.54      0.00
   -2   -2   15      0.62      0.00
   -1   -2   15      0.46      0.00
    0   -2   15     -0.41      0.00
    1   -2   15     -0.12      0.00
    2   -2   15     -1.05      0.00
    3   -2   15     -0.29      0.00
    4   -2   15      0.80      0.00
    5   -2   15     -0.52      0.00
    6   -2   15     -0.94      0.00
    7   -2   15      1.46      0.00
    8   -2   15     -0.52      0.00
    9   -2   15      0.59      0.00
   10   -2   15      0.40      0.00
  -10   -1   15     -0.43      0.00
   -9   -1   15      0.74      0.00
   -8   -1   15     -0.85      0.00
   -7   -1   15      0.19      0.00
   -6   -1   15     -0.16      0.00
   -5   -1   15      0.06      0.00
   -4   -1   15      0.60      0.00
   -3   -1   15     -0.78      0.00
   -2   -1   15     -0.99      0.00
   -1   -1   15      0.04      0.00
    0   -1   15      0.04      0.00
    1   -1   15     -0.49      0.00
    2   -1   15      0.93      0.00
    3   -1   15      0.18      0.00
    4   -1   15      0.11      0.00
    5   -1   15      0.56      0.00
    6   -1   15      0.27      0.00
    7   -1   15     -0.49      0.00
    8   -1   15      0.07      0.00
    9   -1   15     -1.33      0.00
   10   -1   15      0.08      0.00
   11   -1   15     -0.65      0.00
  -10    0   15     -0.61      0.00
   -9    0   15      0.14      0.00
   -8    0   15      0.31      0.00
   -7    0   15     -0.29      0.00
   -6    0   15      0.34      0.00
   -5    0   15      0.44      0.00
   -4    0   15     -1.00      0.00
   -3    0   15      0.48      0.00
   -2    0   15      1.25      0.00
   -1    0   15     -0.08      0.00
    0    0   15      0.07      0.00
    1    0   15     -0.01      0.00
    2    0   15      0.27      0.00
    3    0   15      0.85      0.00
    4    0   15     -1.48      0.00
    5    0   15     -0.86      0.00
    6    0   15      0.48      0.00
    7    0   15     -0.45      0.00
    8    0   15     -0.07      0.00
    9    0   15      1.54      0.00
   10    0   15      0.12      0.00
   11    0   15      1.15      0.00
   12    0   15     -0.51      0.00
  -10    1   15      1.60      0.00
   -9    1   15     -0.27      0.00
   -8    1   15      0.43      0.00
   -7    1   15     -0.19      0.00
   -6    1   15      0.24      0.00
   -5    1   15     -0.41      0.00
   -4    1   15      0.52      0.00
   -3    1   15      0.38      0.00
   -2    1   15     -0.92      0.00
   -1    1   15     -0.57      0.00
    0    1   15     -0.01      0.00
    1    1   15      0.99      0.00
    2    1   15     -1.26      0.00
    3    1   15     -1.68      0.00
    4    1   15      1.21      0.00
    5    1   15      0.96      0.00
    6    1   15      0.21      0.00
    7    1   15      0.50      0.00
    8    1   15      0.06      0.00
    9    1   15     -0.59      0.00
   10    1   15     -0.20      0.00
   11    1   15     -2.03      0.00
   12    1   15      0.91      0.00
  -10    2   15     -1.00      0.00
   -9    2   15     -0.49      0.00
   -8    2   15     -0.80      0.00
   -7    2   15      0.52      0.00
   -6    2   15     -0.52      0.00
   -5    2   15     -0.31      0.00
   -4    2   15     -0.19      0.00
   -3    2   15     -0.91      0.00
   -2    2   15      0.22      0.00
   -1    2   15      0.70      0.00
    0    2   15      0.24      0.00
    1    2   15     -1.45      0.00
    2    2   15      1.31      0.00
    3    2   15      1.34      0.00
    4    2   15      0.49      0.00
    5    2   15     -0.23      0.00
    6    2   15     -1.49      0.00
    7    2   15     -0.61      0.00
    8    2   15      0.33      0.00
    9    2   15     -0.70      0.00
   10    2   15     -0.25      0.00
   11    2   15      2.20      0.00
   12    2   15     -0.38      0.00
   13    2   15      0.43      0.00
   -9    3   15      0.80      0.00
   -8    3   15      0.70      0.00
   -7    3   15     -0.30      0.00
   -6    3   15      0.38      0.00
   -5    3   15      0.59      0.00
   -4    3   15      0.28      0.00
   -3    3   15      1.41      0.00
   -2    3   15     -0.05      0.00
   -1    3   15     -0.03      0.00
    0    3   15     -0.27      0.00
    1    3   15      1.00      0.00
    2    3   15     -0.38      0.00
    3    3   15     -0.68      0.00
    4    3   15     -1.63      0.00
    5    3   15     -0.81      0.00
    6    3   15      1.48      0.00
    7    3   15      0.86      0.00
    8    3   15     -0.15      0.00
    9    3   15      1.47      0.00
   10    3   15      0.05      0.00
   11    3   15     -0.84      0.00
   12    3   15     -0.14      0.00
   13    3   15     -0.68      0.00
   -9    4   15     -0.38      0.00
   -8    4   15     -0.59      0.00
   -7    4   15      0.16      0.00
   -6    4   15     -0.28      0.00
   -5    4   15     -0.64      0.00
   -4    4   15     -0.23      0.00
   -3    4   15     -1.24      0.00
   -2    4   15     -0.26      0.00
   -1    4   15     -0.47      0.00
    0    4   15      0.11      0.00
    1    4   15     -0.26      0.00
    2    4   15     -0.89      0.00
    3    4   15      0.33      0.00
    4    4   15      1.37      0.00
    5    4   15      1.53      0.00
    6    4   15     -0.42      0.00
    7    4   15     -0.45      0.00
    8    4   15     -0.95      0.00
    9    4   15     -1.11      0.00
   10    4   15      0.45      0.00
   11    4   15     -0.73      0.00
   12    4   15      0.19      0.00
   13    4   15      0.52      0.00
   -8    5   15      0.49      0.00
   -7    5   15     -0.19      0.00
   -6    5   15      0.39      0.00
   -5    5   15      0.47      0.00
   -4    5   15      0.46      0.00
   -3    5   15      0.60      0.00
   -2    5   15      0.39      0.00
   -1    5   15      0.80      0.00
    0    5   15     -0.49      0.00
    1    5   15      0.32      0.00
    2    5   15      1.34      0.00
    3    5   15     -0.29      0.00
    4    5   15      0.14      0.00
    5    5   15     -1.90      0.00
    6    5   15     -0.89      0.00
    7    5   15      0.06      0.00
    8    5   15      1.97      0.00
    9    5   15     -0.40      0.00
   10    5   15     -0.20      0.00
   11    5   15      1.28      0.00
   12    5   15     -0.48      0.00
   13    5   15      0.24      0.00
   14    5   15      0.60      0.00
   -8    6   15     -0.27      0.00
   -7    6   15      0.10      0.00
   -6    6   15     -0.49      0.00
   -5    6   15     -0.09      0.00
   -4    6   15     -0.32      0.00
   -3    6   15     -0.87      0.00
   -2    6   15     -0.27      0.00
   -1    6   15     -0.71      0.00
    0    6   15      0.87      0.00
    1    6   15     -0.93      0.00
    2    6   15     -0.68      0.00
    3    6   15     -0.11      0.00
    4    6   15     -1.30      0.00
    5    6   15      1.52      0.00
    6    6   15      2.00      0.00
    7    6   15     -0.09      0.00
    8    6   15     -2.00      0.00
    9    6   15      1.22      0.00
   10    6   15     -0.35      0.00
   11    6   15     -0.41      0.00
   12    6   15      0.77      0.00
   13    6   15     -0.91      0.00
   14    6   15     -1.17      0.00
   -7    7   15      0.12      0.00
   -6    7   15      0.38      0.00
   -5    7   15     -0.37      0.00
   -4    7   15      0.08      0.00
   -3    7   15      0.73      0.00
   -2    7   15      0.63      0.00
   -1    7   15      0.71      0.00
    0    7   15     -0.89      0.00
    1    7   15      0.97      0.00
    2    7   15     -0.03      0.00
    3    7   15      1.12      0.00
    4    7   15      1.18      0.00
    5    7   15     -0.76      0.00
    6    7   15     -1.96      0.00
    7    7   15     -0.32      0.00
    8    7   15      0.98      0.00
    9    7   15     -0.09      0.00
   10    7   15      0.53      0.00
   11    7   15     -0.96      0.00
   12    7   15     -0.62      0.00
   13    7   15      0.90      0.00
   14    7   15      1.02      0.00
   -6    8   15     -0.55      0.00
   -5    8   15      0.80      0.00
   -4    8   15      0.06      0.00
   -3    8   15     -0.11      0.00
   -2    8   15     -0.66      0.00
   -1    8   15     -0.89      0.00
    0    8   15      0.33      0.00
    1    8   15     -0.09      0.00
    2    8   15     -0.06      0.00
    3    8   15     -1.36      0.00
    4    8   15     -0.99      0.00
    5    8   15     -0.10      0.00
    6    8   15      1.47      0.00
    7    8   15      0.80      0.00
    8    8   15      0.20      0.00
    9    8   15     -1.17      0.00
   10    8   15     -0.56      0.00
   11    8   15      1.30      0.00
   12    8   15      0.07      0.00
   13    8   15     -0.02      0.00
   14    8   15     -0.77      0.00
   -5    9   15     -0.48      0.00
   -4    9   15     -0.48      0.00
   -3    9   15     -0.22      0.00
   -2    9   15      0.52      0.00
   -1    9   15      0.41      0.00
    0    9   15      0.08      0.00
    1    9   15     -0.39      0.00
    2    9   15      0.09      0.00
    3    9   15      0.65      0.00
    4    9   15      1.00      0.00
    5    9   15      0.97      0.00
    6    9   15     -1.08      0.00
    7    9   15     -0.86      0.00
    8    9   15     -0.61      0.00
    9    9   15      1.02      0.00
   10    9   15      0.64      0.00
   11    9   15     -0.63      0.00
   12    9   15      0.21      0.00
   13    9   15     -0.38      0.00
   14    9   15      0.69      0.00
   -4   10   15      0.37      0.00
   -3   10   15      0.53      0.00
   -2   10   15     -0.32      0.00
   -1   10   15     -0.39      0.00
    0   10   15      0.62      0.00
    1   10   15      0.32      0.00
    2   10   15      0.19      0.00
    3   10   15      0.16      0.00
    4   10   15     -0.75      0.00
    5   10   15     -1.05      0.00
    6   10   15      0.32      0.00
    7   10   15      0.48      0.00
    8   10   15      0.76      0.00
    9   10   15     -0.62      0.00
   10   10   15     -0.62      0.00
   11   10   15     -0.01      0.00
   12   10   15      0.13      0.00
   13   10   15     -0.21      0.00
   14   10   15     -0.62      0.00
   -3   11   15     -0.66      0.00
   -2   11   15      0.20      0.00
   -1   11   15      0.51      0.00
    0   11   15     -1.03      0.00
    1   11   15     -0.51      0.00
    2   11   15     -0.32      0.00
    3   11   15     -0.79      0.00
    4   11   15      0.13      0.00
    5   11   15      1.14      0.00
    6   11   15     -0.26      0.00
    7   11   15      0.11      0.00
    8   11   15     -0.52      0.00
    9   11   15      0.21      0.00
   10   11   15      0.64      0.00
   11   11   15      0.17      0.00
   12   11   15     -0.22      0.00
   14   11   15      0.45      0.00
   -2   12   15     -0.47      0.00
   -1   12   15      0.10      0.00
    0   12   15      0.42      0.00
    1   12   15      0.34      0.00
    2   12   15      0.91      0.00
    3   12   15      0.61      0.00
    4   12   15      0.73      0.00
    5   12   15     -1.33      0.00
    6   12   15      0.41      0.00
    7   12   15     -0.27      0.00
    8   12   15     -0.03      0.00
    9   12   15      0.28      0.00
   10   12   15     -0.36      0.00
   11   12   15     -0.34      0.00
   12   12   15     -0.03      0.00
    0   13   15      0.43      0.00
    1   13   15      0.20      0.00
    2   13   15     -1.64      0.00
    3   13   15      0.22      0.00
    4   13   15     -0.89      0.00
    5   13   15      0.24      0.00
    6   13   15      0.15      0.00
    7   13   15      0.96      0.00
    8   13   15     -0.44      0.00
    9   13   15     -0.21      0.00
   10   13   15     -0.17      0.00
   11   13   15      0.02      0.00
   12   13   15      0.45      0.00
    1   14   15     -0.50      0.00
    2   14   15      1.15      0.00
    3   14   15     -0.32      0.00
    4   14   15      0.36      0.00
    5   14   15      0.61      0.00
    6   14   15     -0.03      0.00
    7   14   15     -1.78      0.00
    8   14   15      0.44      0.00
    9   14   15      0.12      0.00
   10   14   15      0.37      0.00
   11   14   15      0.96      0.00
   12   14   15     -0.75      0.00
    4   15   15     -0.11      0.00
    5   15   15     -0.01      0.00
    6   15   15     -0.57      0.00
    7   15   15      1.15      0.00
    8   15   15      0.71      0.00
    9   15   15      0.06      0.00
   10   15   15     -0.43      0.00
   -6   -9   16     -1.31      0.00
   -5   -9   16     -0.64      0.00
   -4   -9   16     -0.02      0.00
   -3   -9   16     -0.40      0.00
   -2   -9   16      0.17      0.00
   -1   -9   16      0.25      0.00
    0   -9   16     -0.16      0.00
   -7   -8   16     -1.49      0.00
   -6   -8   16      0.55      0.00
   -5   -8   16      1.07      0.00
   -4   -8   16      0.59      0.00
   -3   -8   16     -0.10      0.00
   -2   -8   16      0.01      0.00
   -1   -8   16     -0.36      0.00
    0   -8   16     -0.01      0.00
    1   -8   16      0.34      0.00
    2   -8   16     -0.33      0.00
   -8   -7   16     -1.00      0.00
   -7   -7   16      1.89      0.00
   -6   -7   16      0.65      0.00
   -5   -7   16     -0.38      0.00
   -4   -7   16     -1.18      0.00
   -3   -7   16      0.02      0.00
   -2   -7   16      0.41      0.00
   -1   -7   16      0.12      0.00
    0   -7   16      0.19      0.00
    1   -7   16     -0.50      0.00
    2   -7   16      0.41      0.00
    3   -7   16     -0.27      0.00
    4   -7   16     -0.22      0.00
   -9   -6   16      0.23      0.00
   -8   -6   16      1.82      0.00
   -7   -6   16     -1.08      0.00
   -6   -6   16     -1.29      0.00
   -5   -6   16     -0.42      0.00
   -4   -6   16      0.96      0.00
   -3   -6   16      0.25      0.00
   -2   -6   16     -0.53      0.00
   -1   -6   16     -0.44      0.00
    0   -6   16     -0.46      0.00
    1   -6   16      0.62      0.00
    2   -6   16     -0.07      0.00
    3   -6   16     -0.06      0.00
    4   -6   16      0.54      0.00
    5   -6   16      0.09      0.00
    6   -6   16     -0.49      0.00
   -9   -5   16     -0.67      0.00
   -8   -5   16     -1.39      0.00
   -7   -5   16      0.33      0.00
   -6   -5   16      0.33      0.00
   -5   -5   16      1.25      0.00
   -4   -5   16     -0.80      0.00
   -3   -5   16     -0.11      0.00
   -2   -5   16      0.16      0.00
   -1   -5   16      0.80      0.00
    0   -5   16      0.77      0.00
    1   -5   16     -0.10      0.00
    2   -5   16     -0.44      0.00
    3   -5   16      0.11      0.00
    4   -5   16     -0.41      0.00
    5   -5   16     -0.42      0.00
    6   -5   16      0.22      0.00
    7   -5   16     -0.07      0.00
  -10   -4   16      1.19      0.00
   -9   -4   16      1.01      0.00
   -8   -4   16      1.02      0.00
   -7   -4   16     -0.48      0.00
   -6   -4   16      0.74      0.00
   -5   -4   16     -1.37      0.00
   -4   -4   16      0.68      0.00
   -3   -4   16     -0.13      0.00
   -2   -4   16      0.24      0.00
   -1   -4   16     -0.74      0.00
    0   -4   16     -0.93      0.00
    1   -4   16     -0.55      0.00
    2   -4   16      0.63      0.00
    3   -4   16      0.28      0.00
    4   -4   16      0.06      0.00
    5   -4   16      0.08      0.00
    6   -4   16      0.58      0.00
    7   -4   16      0.02      0.00
    8   -4   16     -0.92      0.00
  -10   -3   16     -0.96      0.00
   -9   -3   16     -0.76      0.00
   -8   -3   16     -1.07      0.00
   -7   -3   16      0.48      0.00
   -6   -3   16     -0.52      0.00
   -5   -3   16      0.71      0.00
   -4   -3   16     -0.51      0.00
   -3   -3   16      0.29      0.00
   -2   -3   16     -0.53      0.00
   -1   -3   16      0.49      0.00
    0   -3   16      0.73      0.00
    1   -3   16      0.94      0.00
    2   -3   16     -0.56      0.00
    3   -3   16     -0.64      0.00
    4   -3   16     -0.40      0.00
    5   -3   16      0.97      0.00
    6   -3   16     -1.31      0.00
    7   -3   16     -0.17      0.00
    8   -3   16      1.30      0.00
    9   -3   16     -0.83      0.00
  -10   -2   16     -0.19      0.00
   -9   -2   16      0.44      0.00
   -8   -2   16      1.11      0.00
   -7   -2   16     -0.58      0.00
   -6   -2   16      0.29      0.00
   -5   -2   16     -0.35      0.00
   -4   -2   16      0.49      0.00
   -3   -2   16     -0.18      0.00
   -2   -2   16      0.31      0.00
   -1   -2   16     -0.20      0.00
    0   -2   16      0.07      0.00
    1   -2   16     -1.08      0.00
    2   -2   16      0.00      0.00
    3   -2   16      0.86      0.00
    4   -2   16      1.00      0.00
    5   -2   16     -1.22      0.00
    6   -2   16      1.12      0.00
    7   -2   16      0.43      0.00
    8   -2   16     -1.12      0.00
    9   -2   16      0.63      0.00
   10   -2   16     -0.71      0.00
  -10   -1   16      0.55      0.00
   -9   -1   16     -0.01      0.00
   -8   -1   16     -0.77      0.00
   -7   -1   16      0.62      0.00
   -6   -1   16     -0.57      0.00
   -5   -1   16      0.59      0.00
   -4   -1   16     -0.55      0.00
   -3   -1   16     -0.39      0.00
   -2   -1   16      0.34      0.00
   -1   -1   16     -0.01      0.00
    0   -1   16     -0.57      0.00
    1   -1   16      0.33      0.00
    2   -1   16      0.42      0.00
    3   -1   16     -0.17      0.00
    4   -1   16     -0.82      0.00
    5   -1   16      0.00      0.00
    6   -1   16     -0.57      0.00
    7   -1   16     -0.30      0.00
    8   -1   16      0.32      0.00
    9   -1   16     -0.43      0.00
   10   -1   16      0.97      0.00
  -10    0   16      0.13      0.00
   -9    0   16      0.07      0.00
   -8    0   16     -0.05      0.00
   -7    0   16     -0.12      0.00
   -6    0   16      0.75      0.00
   -5    0   16     -0.54      0.00
   -4    0   16      0.21      0.00
   -3    0   16      0.98      0.00
   -2    0   16     -0.31      0.00
   -1    0   16     -0.17      0.00
    0    0   16      0.02      0.00
    1    0   16      0.77      0.00
    2    0   16      0.51      0.00
    3    0   16     -1.16      0.00
    4    0   16     -0.31      0.00
    5    0   16      0.89      0.00
    6    0   16      0.64      0.00
    7    0   16      0.08      0.00
    8    0   16      0.11      0.00
    9    0   16      0.62      0.00
   10    0   16     -0.69      0.00
   11    0   16      0.67      0.00
   -9    1   16     -0.41      0.00
   -8    1   16      0.34      0.00
   -7    1   16     -0.31      0.00
   -6    1   16     -0.28      0.00
   -5    1   16     -0.21      0.00
   -4    1   16     -0.06      0.00
   -3    1   16     -0.76      0.00
   -2    1   16     -0.52      0.00
   -1    1   16      0.14      0.00
    0    1   16      0.98      0.00
    1    1   16     -0.95      0.00
    2    1   16     -1.78      0.00
    3    1   16      1.14      0.00
    4    1   16      1.13      0.00
    5    1   16      0.29      0.00
    6    1   16     -0.91      0.00
    7    1   16     -0.38      0.00
    8    1   16      0.02      0.00
    9    1   16     -0.26      0.00
   10    1   16     -0.38      0.00
   11    1   16     -0.63      0.00
   12    1   16      1.17      0.00
   -9    2   16      0.16      0.00
   -8    2   16     -0.03      0.00
   -7    2   16      0.27      0.00
   -6    2   16     -0.11      0.00
   -5    2   16      0.26      0.00
   -4    2   16      0.32      0.00
   -3    2   16      0.48      0.00
   -2    2   16      0.86      0.00
   -1    2   16      0.44      0.00
    0    2   16     -1.28      0.00
    1    2   16      0.15      0.00
    2    2   16      1.97      0.00
    3    2   16      0.05      0.00
    4    2   16     -0.41      0.00
    5    2   16     -2.03      0.00
    6    2   16      0.32      0.00
    7    2   16      0.54      0.00
    8    2   16     -0.12      0.00
    9    2   16     -0.38      0.00
   10    2   16      0.77      0.00
   11    2   16      1.05      0.00
   12    2   16     -1.14      0.00
   -9    3   16      0.45      0.00
   -8    3   16     -0.13      0.00
   -7    3   16      0.08      0.00
   -6    3   16      0.01      0.00
   -5    3   16      0.25      0.00
   -4    3   16     -0.03      0.00
   -3    3   16     -0.38      0.00
   -2    3   16     -0.91      0.00
   -1    3   16     -0.58      0.00
    0    3   16      0.54      0.00
    1    3   16      0.61      0.00
    2    3   16     -0.99      0.00
    3    3   16     -1.05      0.00
    4    3   16     -0.90      0.00
    5    3   16      2.02      0.00
    6    3   16      0.52      0.00
    7    3   16      0.26      0.00
    8    3   16      0.51      0.00
    9    3   16      0.15      0.00
   10    3   16     -0.25      0.00
   11    3   16     -0.59      0.00
   12    3   16      0.16      0.00
   13    3   16      0.20      0.00
   -8    4   16     -0.05      0.00
   -7    4   16     -0.06      0.00
   -6    4   16     -0.29      0.00
   -5    4   16     -0.51      0.00
   -4    4   16      0.01      0.00
   -3    4   16     -0.35      0.00
   -2    4   16      0.64      0.00
   -1    4   16      0.60      0.00
    0    4   16      0.23      0.00
    1    4   16     -0.76      0.00
    2    4   16     -0.31      0.00
    3    4   16      1.30      0.00
    4    4   16      1.38      0.00
    5    4   16     -0.60      0.00
    6    4   16     -0.53      0.00
    7    4   16     -1.32      0.00
    8    4   16     -1.11      0.00
    9    4   16      0.32      0.00
   10    4   16     -0.54      0.00
   11    4   16     -0.07      0.00
   12    4   16      0.53      0.00
   13    4   16     -0.35      0.00
   -8    5   16      0.10      0.00
   -7    5   16      0.00      0.00
   -6    5   16      0.62      0.00
   -5    5   16      0.56      0.00
   -4    5   16     -0.06      0.00
   -3    5   16      0.64      0.00
   -2    5   16      0.06      0.00
   -1    5   16     -0.61      0.00
    0    5   16     -0.50      0.00
    1    5   16      0.72      0.00
    2    5   16      0.54      0.00
    3    5   16     -0.52      0.00
    4    5   16     -0.87      0.00
    5    5   16     -1.26      0.00
    6    5   16      0.49      0.00
    7    5   16      1.82      0.00
    8    5   16      0.88      0.00
    9    5   16     -0.22      0.00
   10    5   16      1.57      0.00
   11    5   16     -0.26      0.00
   12    5   16     -0.37      0.00
   13    5   16      0.97      0.00
   -7    6   16     -0.26      0.00
   -6    6   16     -0.54      0.00
   -5    6   16     -0.21      0.00
   -4    6   16     -0.44      0.00
   -3    6   16     -0.58      0.00
   -2    6   16      0.01      0.00
   -1    6   16      0.27      0.00
    0    6   16      0.24      0.00
    1    6   16     -0.65      0.00
    2    6   16      0.03      0.00
    3    6   16     -0.74      0.00
    4    6   16      0.32      0.00
    5    6   16      2.35      0.00
    6    6   16     -0.46      0.00
    7    6   16     -1.88      0.00
    8    6   16     -0.22      0.00
    9    6   16     -0.22      0.00
   10    6   16     -1.64      0.00
   11    6   16      0.57      0.00
   12    6   16     -0.34      0.00
   13    6   16     -1.31      0.00
   14    6   16      1.13      0.00
   -6    7   16      0.03      0.00
   -5    7   16      0.06      0.00
   -4    7   16      0.49      0.00
   -3    7   16      0.45      0.00
   -2    7   16      0.16      0.00
   -1    7   16     -0.25      0.00
    0    7   16     -0.17      0.00
    1    7   16      0.73      0.00
    2    7   16     -0.04      0.00
    3    7   16      1.45      0.00
    4    7   16     -0.49      0.00
    5    7   16     -1.75      0.00
    6    7   16     -0.17      0.00
    7    7   16      1.17      0.00
    8    7   16      0.56      0.00
    9    7   16      0.67      0.00
   10    7   16      0.20      0.00
   11    7   16     -0.18      0.00
   12    7   16      0.78      0.00
   13    7   16      1.08      0.00
   14    7   16     -0.90      0.00
   -6    8   16      0.33      0.00
   -5    8   16      0.00      0.00
   -4    8   16     -0.24      0.00
   -3    8   16     -0.07      0.00
   -2    8   16     -0.57      0.00
   -1    8   16      0.09      0.00
    0    8   16      0.47      0.00
    1    8   16     -0.65      0.00
    2    8   16     -0.69      0.00
    3    8   16     -1.34      0.00
    4    8   16      0.22      0.00
    5    8   16      0.95      0.00
    6    8   16      0.82      0.00
    7    8   16     -0.03      0.00
    8    8   16     -1.06      0.00
    9    8   16     -1.00      0.00
   10    8   16      0.85      0.00
   11    8   16     -0.27      0.00
   12    8   16     -0.28      0.00
   13    8   16     -0.61      0.00
   14    8   16      0.17      0.00
   -5    9   16     -0.10      0.00
   -4    9   16     -0.24      0.00
   -3    9   16      0.37      0.00
   -2    9   16      0.26      0.00
   -1    9   16      0.03      0.00
    0    9   16     -0.22      0.00
    1    9   16      0.41      0.00
    2    9   16      0.86      0.00
    3    9   16      1.08      0.00
    4    9   16      0.69      0.00
    5    9   16     -0.56      0.00
    6    9   16     -1.02      0.00
    7    9   16     -0.68      0.00
    8    9   16      0.69      0.00
    9    9   16      0.77      0.00
   10    9   16     -0.30      0.00
   11    9   16      0.08      0.00
   12    9   16     -0.12      0.00
   13    9   16      0.14      0.00
   14    9   16      0.18      0.00
   -4   10   16      0.67      0.00
   -3   10   16     -0.67      0.00
   -2   10   16     -0.33      0.00
   -1   10   16      0.11      0.00
    0   10   16      0.35      0.00
    1   10   16     -0.94      0.00
    2   10   16     -0.20      0.00
    3   10   16     -0.88      0.00
    4   10   16     -1.08      0.00
    5   10   16      0.09      0.00
    6   10   16      0.48      0.00
    7   10   16      1.03      0.00
    8   10   16     -0.09      0.00
    9   10   16     -0.21      0.00
   10   10   16     -0.30      0.00
   11   10   16      0.03      0.00
   12   10   16      0.15      0.00
   13   10   16     -0.32      0.00
   14   10   16      0.21      0.00
   -3   11   16      0.40      0.00
   -2   11   16      0.67      0.00
   -1   11   16     -0.13      0.00
    0   11   16     -0.62      0.00
    1   11   16      1.04      0.00
    2   11   16     -0.07      0.00
    3   11   16      0.24      0.00
    4   11   16      1.23      0.00
    5   11   16     -0.14      0.00
    6   11   16      0.12      0.00
    7   11   16     -0.34      0.00
    8   11   16     -0.34      0.00
    9   11   16     -0.33      0.00
   10   11   16      0.24      0.00
   11   11   16      0.21      0.00
   12   11   16     -0.19      0.00
   -1   12   16      0.35      0.00
    0   12   16     -0.16      0.00
    1   12   16      0.25      0.00
    2   12   16     -0.20      0.00
    3   12   16      0.35      0.00
    4   12   16     -0.91      0.00
    5   12   16      0.32      0.00
    6   12   16     -0.29      0.00
    7   12   16     -0.37      0.00
    8   12   16     -0.14      0.00
    9   12   16      0.95      0.00
   10   12   16     -0.32      0.00
   11   12   16     -0.10      0.00
   12   12   16      0.04      0.00
    0   13   16      0.78      0.00
    1   13   16     -1.27      0.00
    2   13   16      0.28      0.00
    3   13   16     -0.28      0.00
    4   13   16     -0.34      0.00
    5   13   16     -0.36      0.00
    6   13   16      1.00      0.00
    7   13   16     -0.28      0.00
    8   13   16      0.72      0.00
    9   13   16     -0.51      0.00
   10   13   16     -0.07      0.00
   11   13   16     -0.09      0.00
   12   13   16      0.41      0.00
    2   14   16      0.00      0.00
    3   14   16      0.25      0.00
    4   14   16      0.89      0.00
    5   14   16      0.66      0.00
    6   14   16     -1.06      0.00
    7   14   16      0.08      0.00
    8   14   16     -0.11      0.00
    9   14   16     -0.39      0.00
   10   14   16      0.66      0.00
   11   14   16      0.03      0.00
    5   15   16     -0.81      0.00
    6   15   16     -0.12      0.00
    7   15   16      0.92      0.00
    8   15   16     -0.20      0.00
    9   15   16      0.24      0.00
   -6   -8   17      2.03      0.00
   -5   -8   17     -0.43      0.00
   -4   -8   17      0.93      0.00
   -3   -8   17     -0.64      0.00
   -2   -8   17      0.32      0.00
   -1   -8   17      0.21      0.00
    0   -8   17      0.68      0.00
    1   -8   17      0.01      0.00
   -7   -7   17      1.24      0.00
   -6   -7   17     -1.31      0.00
   -5   -7   17     -0.29      0.00
   -4   -7   17     -1.49      0.00
   -3   -7   17      1.17      0.00
   -2   -7   17     -0.79      0.00
   -1   -7   17      0.19      0.00
    0   -7   17     -0.93      0.00
    1   -7   17      0.30      0.00
    2   -7   17      0.18      0.00
    3   -7   17     -0.48      0.00
   -8   -6   17     -0.58      0.00
   -7   -6   17     -1.54      0.00
   -6   -6   17     -0.09      0.00
   -5   -6   17      0.98      0.00
   -4   -6   17      1.05      0.00
   -3   -6   17     -0.69      0.00
   -2   -6   17      0.58      0.00
   -1   -6   17     -0.39      0.00
    0   -6   17      1.01      0.00
    1   -6   17     -0.02      0.00
    2   -6   17     -0.57      0.00
    3   -6   17      0.21      0.00
    4   -6   17      0.63      0.00
    5   -6   17     -0.30      0.00
   -9   -5   17      0.14      0.00
   -8   -5   17      0.65      0.00
   -7   -5   17      0.67      0.00
   -6   -5   17      1.03      0.00
   -5   -5   17     -1.06      0.00
   -4   -5   17     -0.59      0.00
   -3   -5   17      0.26      0.00
   -2   -5   17     -0.33      0.00
   -1   -5   17      0.66      0.00
    0   -5   17     -0.53      0.00
    1   -5   17     -0.33      0.00
    2   -5   17      0.27      0.00
    3   -5   17      0.37      0.00
    4   -5   17     -0.88      0.00
    5   -5   17      0.09      0.00
    6   -5   17      0.17      0.00
   -9   -4   17     -0.05      0.00
   -8   -4   17     -0.88      0.00
   -7   -4   17     -0.28      0.00
   -6   -4   17     -0.74      0.00
   -5   -4   17      0.62      0.00
   -4   -4   17      0.50      0.00
   -3   -4   17      0.04      0.00
   -2   -4   17      0.20      0.00
   -1   -4   17     -0.87      0.00
    0   -4   17     -0.19      0.00
    1   -4   17      0.18      0.00
    2   -4   17      0.15      0.00
    3   -4   17     -0.52      0.00
    4   -4   17      0.22      0.00
    5   -4   17      0.38      0.00
    6   -4   17      0.36      0.00
    7   -4   17     -0.79      0.00
   -9   -3   17     -0.56      0.00
   -8   -3   17      0.70      0.00
   -7   -3   17      0.44      0.00
   -6   -3   17      0.35      0.00
   -5   -3   17     -0.34      0.00
   -4   -3   17     -0.21      0.00
   -3   -3   17     -0.40      0.00
   -2   -3   17     -0.23      0.00
   -1   -3   17      0.77      0.00
    0   -3   17      0.59      0.00
    1   -3   17      0.44      0.00
    2   -3   17     -0.26      0.00
    3   -3   17     -0.05      0.00
    4   -3   17      0.93      0.00
    5   -3   17     -0.33      0.00
    6   -3   17     -1.06      0.00
    7   -3   17      1.36      0.00
    8   -3   17      0.00      0.00
   -9   -2   17      1.35      0.00
   -8   -2   17     -0.78      0.00
   -7   -2   17     -0.18      0.00
   -6   -2   17     -0.08      0.00
   -5   -2   17     -0.14      0.00
   -4   -2   17      0.05      0.00
   -3   -2   17      0.12      0.00
   -2   -2   17      0.42      0.00
   -1   -2   17     -0.04      0.00
    0   -2   17     -0.43      0.00
    1   -2   17     -1.31      0.00
    2   -2   17      0.34      0.00
    3   -2   17      0.72      0.00
    4   -2   17     -1.30      0.00
    5   -2   17     -0.03      0.00
    6   -2   17      0.72      0.00
    7   -2   17     -1.10      0.00
    8   -2   17     -0.17      0.00
    9   -2   17     -0.05      0.00
   -9   -1   17     -0.90      0.00
   -8   -1   17      0.51      0.00
   -7   -1   17     -0.09      0.00
   -6   -1   17     -0.09      0.00
   -5   -1   17      0.67      0.00
   -4   -1   17     -0.36      0.00
   -3   -1   17      0.71      0.00
   -2   -1   17     -0.31      0.00
   -1   -1   17     -0.65      0.00
    0   -1   17     -0.36      0.00
    1   -1   17      1.26      0.00
    2   -1   17      0.15      0.00
    3   -1   17     -0.67      0.00
    4   -1   17      0.13      0.00
    5   -1   17     -0.13      0.00
    6   -1   17      0.44      0.00
    7   -1   17      0.48      0.00
    8   -1   17      0.40      0.00
    9   -1   17      0.70      0.00
   10   -1   17     -0.33      0.00
   -9    0   17     -0.65      0.00
   -8    0   17      0.22      0.00
   -7    0   17      0.13      0.00
   -6    0   17      0.00      0.00
   -5    0   17     -0.76      0.00
   -4    0   17      0.44      0.00
   -3    0   17     -0.82      0.00
   -2    0   17     -0.21      0.00
   -1    0   17      0.38      0.00
    0    0   17      1.08      0.00
    1    0   17      0.31      0.00
    2    0   17     -0.84      0.00
    3    0   17     -0.45      0.00
    4    0   17      1.18      0.00
    5    0   17      0.91      0.00
    6    0   17     -0.57      0.00
    7    0   17     -0.27      0.00
    8    0   17     -0.61      0.00
    9    0   17     -0.63      0.00
   10    0   17      0.49      0.00
   11    0   17     -0.49      0.00
   -9    1   17      1.09      0.00
   -8    1   17     -0.61      0.00
   -7    1   17      0.04      0.00
   -6    1   17      0.01      0.00
   -5    1   17      0.05      0.00
   -4    1   17      0.14      0.00
   -3    1   17      0.29      0.00
   -2    1   17      0.17      0.00
   -1    1   17      0.58      0.00
    0    1   17     -0.72      0.00
    1    1   17     -1.95      0.00
    2    1   17      0.48      0.00
    3    1   17      1.25      0.00
    4    1   17     -0.49      0.00
    5    1   17     -1.36      0.00
    6    1   17     -0.68      0.00
    7    1   17      0.10      0.00
    8    1   17      0.95      0.00
    9    1   17     -0.01      0.00
   10    1   17     -0.94      0.00
   11    1   17      1.04      0.00
   -9    2   17     -0.29      0.00
   -8    2   17      0.47      0.00
   -7    2   17      0.00      0.00
   -6    2   17      0.12      0.00
   -5    2   17      0.46      0.00
   -4    2   17     -0.03      0.00
   -3    2   17      0.09      0.00
   -2    2   17      0.22      0.00
   -1    2   17     -0.84      0.00
    0    2   17     -0.41      0.00
    1    2   17      2.10      0.00
    2    2   17      0.51      0.00
    3    2   17     -0.57      0.00
    4    2   17     -0.98      0.00
    5    2   17      0.52      0.00
    6    2   17      1.40      0.00
    7    2   17      0.37      0.00
    8    2   17     -0.77      0.00
    9    2   17      0.32      0.00
   10    2   17      1.14      0.00
   11    2   17     -0.59      0.00
   12    2   17      0.40      0.00
   -8    3   17     -0.35      0.00
   -7    3   17     -0.05      0.00
   -6    3   17     -0.52      0.00
   -5    3   17     -0.23      0.00
   -4    3   17     -0.36      0.00
   -3    3   17     -0.86      0.00
   -2    3   17     -0.29      0.00
   -1    3   17      0.37      0.00
    0    3   17      0.73      0.00
    1    3   17     -0.55      0.00
    2    3   17     -1.17      0.00
    3    3   17     -0.67      0.00
    4    3   17      1.03      0.00
    5    3   17      0.67      0.00
    6    3   17     -0.69      0.00
    7    3   17     -0.19      0.00
    8    3   17      0.01      0.00
    9    3   17     -0.73      0.00
   10    3   17      0.01      0.00
   11    3   17     -0.56      0.00
   12    3   17     -0.40      0.00
   -8    4   17      0.46      0.00
   -7    4   17     -0.10      0.00
   -6    4   17      0.43      0.00
   -5    4   17      0.57      0.00
   -4    4   17      0.08      0.00
   -3    4   17      0.97      0.00
   -2    4   17      0.71      0.00
   -1    4   17      0.37      0.00
    0    4   17     -0.41      0.00
    1    4   17     -1.03      0.00
    2    4   17      1.18      0.00
    3    4   17      1.13      0.00
    4    4   17      0.14      0.00
    5    4   17     -0.98      0.00
    6    4   17      0.00      0.00
    7    4   17     -0.94      0.00
    8    4   17      0.59      0.00
    9    4   17      0.79      0.00
   10    4   17     -0.72      0.00
   11    4   17      0.96      0.00
   12    4   17      0.08      0.00
   13    4   17     -0.58      0.00
   -7    5   17      0.09      0.00
   -6    5   17      0.01      0.00
   -5    5   17     -0.75      0.00
   -4    5   17     -0.02      0.00
   -3    5   17     -0.35      0.00
   -2    5   17     -0.60      0.00
   -1    5   17     -1.24      0.00
    0    5   17      0.28      0.00
    1    5   17      0.98      0.00
    2    5   17     -0.50      0.00
    3    5   17     -0.49      0.00
    4    5   17     -1.65      0.00
    5    5   17      0.83      0.00
    6    5   17      0.30      0.00
    7    5   17      1.41      0.00
    8    5   17     -0.79      0.00
    9    5   17      0.43      0.00
   10    5   17      0.12      0.00
   11    5   17     -0.92      0.00
   12    5   17      0.87      0.00
   13    5   17      0.06      0.00
   -7    6   17      0.04      0.00
   -6    6   17      0.07      0.00
   -5    6   17      0.19      0.00
   -4    6   17     -0.09      0.00
   -3    6   17      0.20      0.00
   -2    6   17     -0.01      0.00
   -1    6   17      1.07      0.00
    0    6   17     -0.17      0.00
    1    6   17      0.29      0.00
    2    6   17     -0.56      0.00
    3    6   17     -0.05      0.00
    4    6   17      2.34      0.00
    5    6   17     -0.49      0.00
    6    6   17     -0.85      0.00
    7    6   17     -1.05      0.00
    8    6   17      0.84      0.00
    9    6   17     -1.44      0.00
   10    6   17      0.34      0.00
   11    6   17      0.37      0.00
   12    6   17     -1.10      0.00
   13    6   17      0.34      0.00
   -6    7   17     -0.25      0.00
   -5    7   17      0.14      0.00
   -4    7   17     -0.01      0.00
   -3    7   17      0.35      0.00
   -2    7   17      0.15      0.00
   -1    7   17     -0.57      0.00
    0    7   17      0.32      0.00
    1    7   17     -0.77      0.00
    2    7   17      0.94      0.00
    3    7   17     -0.34      0.00
    4    7   17     -1.58      0.00
    5    7   17     -0.09      0.00
    6    7   17      0.89      0.00
    7    7   17      1.33      0.00
    8    7   17     -0.40      0.00
    9    7   17      0.75      0.00
   10    7   17     -0.13      0.00
   11    7   17      0.62      0.00
   12    7   17      0.51      0.00
   13    7   17     -0.32      0.00
   -5    8   17      0.10      0.00
   -4    8   17      0.27      0.00
   -3    8   17     -0.63      0.00
   -2    8   17     -0.30      0.00
   -1    8   17      0.41      0.00
    0    8   17     -0.31      0.00
    1    8   17     -0.08      0.00
    2    8   17     -0.57      0.00
    3    8   17      0.66      0.00
    4    8   17      0.48      0.00
    5    8   17      0.87      0.00
    6    8   17     -0.57      0.00
    7    8   17     -1.50      0.00
    8    8   17     -0.56      0.00
    9    8   17      0.19      0.00
   10    8   17     -0.01      0.00
   11    8   17     -0.86      0.00
   12    8   17      0.05      0.00
   13    8   17     -0.43      0.00
   -4    9   17      0.03      0.00
   -3    9   17      0.12      0.00
   -2    9   17      0.03      0.00
   -1    9   17     -0.21      0.00
    0    9   17      0.43      0.00
    1    9   17      0.39      0.00
    2    9   17      0.45      0.00
    3    9   17     -0.16      0.00
    4    9   17     -0.05      0.00
    5    9   17     -1.33      0.00
    6    9   17      0.32      0.00
    7    9   17      0.75      0.00
    8    9   17      0.97      0.00
    9    9   17      0.00      0.00
   10    9   17      0.03      0.00
   11    9   17      0.04      0.00
   12    9   17     -0.08      0.00
   13    9   17      0.56      0.00
   -3   10   17     -0.03      0.00
   -2   10   17      0.30      0.00
   -1   10   17      0.66      0.00
    0   10   17     -1.03      0.00
    1   10   17     -0.24      0.00
    2   10   17     -0.35      0.00
    3   10   17     -0.62      0.00
    4   10   17      0.14      0.00
    5   10   17      0.79      0.00
    6   10   17      0.11      0.00
    7   10   17      0.31      0.00
    8   10   17     -0.48      0.00
    9   10   17     -0.20      0.00
   10   10   17     -0.48      0.00
   11   10   17      0.64      0.00
   12   10   17     -0.09      0.00
   13   10   17      0.04      0.00
   -2   11   17     -0.29      0.00
   -1   11   17     -0.79      0.00
    0   11   17      0.94      0.00
    1   11   17      0.38      0.00
    2   11   17      0.45      0.00
    3   11   17      0.81      0.00
    4   11   17      0.00      0.00
    5   11   17     -0.37      0.00
    6   11   17      0.24      0.00
    7   11   17     -0.81      0.00
    8   11   17     -0.96      0.00
    9   11   17      0.07      0.00
   10   11   17      0.62      0.00
   11   11   17     -0.16      0.00
   12   11   17     -0.19      0.00
   -1   12   17      0.02      0.00
    0   12   17     -0.33      0.00
    1   12   17     -0.17      0.00
    2   12   17     -1.19      0.00
    3   12   17     -0.18      0.00
    4   12   17     -0.58      0.00
    5   12   17      0.33      0.00
    6   12   17     -0.77      0.00
    7   12   17      0.23      0.00
    8   12   17      1.93      0.00
    9   12   17      0.60      0.00
   10   12   17     -0.14      0.00
   11   12   17     -0.61      0.00
   12   12   17      0.19      0.00
    1   13   17      0.06      0.00
    2   13   17      1.45      0.00
    3   13   17     -0.53      0.00
    4   13   17      0.73      0.00
    5   13   17      0.28      0.00
    6   13   17      0.65      0.00
    7   13   17     -0.06      0.00
    8   13   17     -0.46      0.00
    9   13   17     -1.69      0.00
   10   13   17     -0.69      0.00
   11   13   17      1.05      0.00
    3   14   17      0.40      0.00
    4   14   17     -0.33      0.00
    5   14   17     -0.33      0.00
    6   14   17     -0.81      0.00
    7   14   17      0.36      0.00
    8   14   17     -0.75      0.00
    9   14   17      1.42      0.00
   10   14   17      1.26      0.00
   -6   -7   18     -0.41      0.00
   -5   -7   18     -0.31      0.00
   -4   -7   18      0.27      0.00
   -3   -7   18      0.01      0.00
   -2   -7   18      0.05      0.00
   -1   -7   18     -0.39      0.00
    0   -7   18     -0.24      0.00
    1   -7   18      0.49      0.00
    2   -7   18     -0.94      0.00
   -7   -6   18     -0.32      0.00
   -6   -6   18      0.77      0.00
   -5   -6   18     -0.03      0.00
   -4   -6   18     -0.03      0.00
   -3   -6   18      0.11      0.00
   -2   -6   18      0.13      0.00
   -1   -6   18      0.17      0.00
    0   -6   18      0.37      0.00
    1   -6   18     -0.73      0.00
    2   -6   18      0.51      0.00
    3   -6   18      0.98      0.00
    4   -6   18      0.16      0.00
   -8   -5   18      0.67      0.00
   -7   -5   18      0.26      0.00
   -6   -5   18     -0.30      0.00
   -5   -5   18     -0.19      0.00
   -4   -5   18      0.37      0.00
   -3   -5   18     -0.05      0.00
   -2   -5   18     -0.58      0.00
   -1   -5   18      0.22      0.00
    0   -5   18     -0.65      0.00
    1   -5   18      0.45      0.00
    2   -5   18      0.06      0.00
    3   -5   18     -1.02      0.00
    4   -5   18     -0.29      0.00
    5   -5   18      0.10      0.00
   -8   -4   18     -0.75      0.00
   -7   -4   18      0.15      0.00
   -6   -4   18      0.05      0.00
   -5   -4   18      0.70      0.00
   -4   -4   18     -0.47      0.00
   -3   -4   18     -0.13      0.00
   -2   -4   18      0.52      0.00
   -1   -4   18     -0.32      0.00
    0   -4   18      0.56      0.00
    1   -4   18     -0.11      0.00
    2   -4   18     -0.04      0.00
    3   -4   18      0.54      0.00
    4   -4   18      0.28      0.00
    5   -4   18      0.68      0.00
    6   -4   18     -0.50      0.00
   -8   -3   18      0.84      0.00
   -7   -3   18     -0.14      0.00
   -6   -3   18     -0.05      0.00
   -5   -3   18     -1.12      0.00
   -4   -3   18      0.24      0.00
   -3   -3   18     -0.42      0.00
   -2   -3   18      0.07      0.00
   -1   -3   18      0.06      0.00
    0   -3   18      0.19      0.00
    1   -3   18      0.07      0.00
    2   -3   18     -0.30      0.00
    3   -3   18      0.09      0.00
    4   -3   18      0.25      0.00
    5   -3   18     -1.46      0.00
    6   -3   18      0.52      0.00
    7   -3   18      0.17      0.00
    8   -3   18     -1.23      0.00
   -8   -2   18     -0.83      0.00
   -7   -2   18      0.71      0.00
   -6   -2   18     -0.52      0.00
   -5   -2   18      1.14      0.00
   -4   -2   18     -0.06      0.00
   -3   -2   18      1.14      0.00
   -2   -2   18      0.08      0.00
   -1   -2   18      0.22      0.00
    0   -2   18     -1.08      0.00
    1   -2   18     -0.33      0.00
    2   -2   18      0.45      0.00
    3   -2   18     -0.56      0.00
    4   -2   18     -0.92      0.00
    5   -2   18      1.01      0.00
    6   -2   18     -0.27      0.00
    7   -2   18     -0.01      0.00
    8   -2   18      1.21      0.00
   -8   -1   18      0.52      0.00
   -7   -1   18     -1.14      0.00
   -6   -1   18      0.74      0.00
   -5   -1   18     -0.76      0.00
   -4   -1   18      0.16      0.00
   -3   -1   18     -1.00      0.00
   -2   -1   18     -0.90      0.00
   -1   -1   18     -0.59      0.00
    0   -1   18      0.85      0.00
    1   -1   18      1.04      0.00
    2   -1   18     -0.05      0.00
    3   -1   18      0.18      0.00
    4   -1   18      1.03      0.00
    5   -1   18      0.45      0.00
    6   -1   18      0.46      0.00
    7   -1   18      0.07      0.00
    8   -1   18     -0.71      0.00
    9   -1   18     -0.25      0.00
   -8    0   18      0.21      0.00
   -7    0   18      0.59      0.00
   -6    0   18     -0.27      0.00
   -5    0   18      0.30      0.00
   -4    0   18     -0.39      0.00
   -3    0   18      0.42      0.00
   -2    0   18      0.82      0.00
   -1    0   18      0.98      0.00
    0    0   18      0.65      0.00
    1    0   18     -1.34      0.00
    2    0   18     -0.82      0.00
    3    0   18      0.37      0.00
    4    0   18     -0.30      0.00
    5    0   18     -1.04      0.00
    6    0   18     -1.06      0.00
    7    0   18     -0.82      0.00
    8    0   18      0.29      0.00
    9    0   18      0.27      0.00
   10    0   18      1.24      0.00
   -8    1   18     -0.45      0.00
   -7    1   18     -0.07      0.00
   -6    1   18     -0.16      0.00
   -5    1   18     -0.06      0.00
   -4    1   18      0.99      0.00
   -3    1   18     -0.48      0.00
   -2    1   18      0.21      0.00
   -1    1   18     -0.60      0.00
    0    1   18     -1.90      0.00
    1    1   18      0.34      0.00
    2    1   18      1.19      0.00
    3    1   18      0.11      0.00
    4    1   18     -0.35      0.00
    5    1   18     -0.14      0.00
    6    1   18      1.36      0.00
    7    1   18      1.38      0.00
    8    1   18      0.16      0.00
    9    1   18     -0.45      0.00
   10    1   18     -0.73      0.00
   11    1   18      0.89      0.00
   -8    2   18      0.08      0.00
   -7    2   18      0.49      0.00
   -6    2   18     -0.28      0.00
   -5    2   18      0.43      0.00
   -4    2   18     -1.25      0.00
   -3    2   18      0.28      0.00
   -2    2   18     -0.75      0.00
   -1    2   18     -0.26      0.00
    0    2   18      1.49      0.00
    1    2   18      1.10      0.00
    2    2   18     -0.58      0.00
    3    2   18     -0.68      0.00
    4    2   18     -0.26      0.00
    5    2   18      1.23      0.00
    6    2   18     -0.91      0.00
    7    2   18     -0.84      0.00
    8    2   18     -0.39      0.00
    9    2   18      0.32      0.00
   10    2   18      0.87      0.00
   11    2   18     -0.41      0.00
   -8    3   18      0.15      0.00
   -7    3   18     -1.00      0.00
   -6    3   18      0.43      0.00
   -5    3   18     -0.36      0.00
   -4    3   18      0.40      0.00
   -3    3   18      0.18      0.00
   -2    3   18      0.91      0.00
   -1    3   18      0.50      0.00
    0    3   18      0.06      0.00
    1    3   18     -1.29      0.00
    2    3   18     -0.66      0.00
    3    3   18      0.46      0.00
    4    3   18      1.26      0.00
    5    3   18     -0.84      0.00
    6    3   18      0.62      0.00
    7    3   18      0.00      0.00
    8    3   18     -0.28      0.00
    9    3   18      0.20      0.00
   10    3   18     -1.00      0.00
   11    3   18     -0.86      0.00
   12    3   18      0.13      0.00
   -7    4   18      0.47      0.00
   -6    4   18      0.56      0.00
   -5    4   18      0.23      0.00
   -4    4   18     -0.24      0.00
   -3    4   18      0.20      0.00
   -2    4   18     -0.40      0.00
   -1    4   18     -0.67      0.00
    0    4   18     -1.12      0.00
    1    4   18      0.36      0.00
    2    4   18      1.43      0.00
    3    4   18      0.02      0.00
    4    4   18     -1.28      0.00
    5    4   18      0.07      0.00
    6    4   18     -1.05      0.00
    7    4   18      0.11      0.00
    8    4   18      0.99      0.00
    9    4   18     -0.23      0.00
   10    4   18      0.95      0.00
   11    4   18      1.15      0.00
   12    4   18      0.24      0.00
   -7    5   18      0.08      0.00
   -6    5   18     -0.95      0.00
   -5    5   18     -0.70      0.00
   -4    5   18      0.41      0.00
   -3    5   18     -0.31      0.00
   -2    5   18     -0.47      0.00
   -1    5   18      0.43      0.00
    0    5   18      1.18      0.00
    1    5   18      0.40      0.00
    2    5   18     -0.77      0.00
    3    5   18     -0.72      0.00
    4    5   18      0.59      0.00
    5    5   18      0.72      0.00
    6    5   18      0.91      0.00
    7    5   18     -0.08      0.00
    8    5   18     -0.44      0.00
    9    5   18     -0.07      0.00
   10    5   18     -1.48      0.00
   11    5   18     -0.14      0.00
   12    5   18     -0.60      0.00
   -6    6   18      0.44      0.00
   -5    6   18      0.59      0.00
   -4    6   18      0.06      0.00
   -3    6   18      0.12      0.00
   -2    6   18      0.26      0.00
   -1    6   18      0.35      0.00
    0    6   18     -0.33      0.00
    1    6   18     -0.64      0.00
    2    6   18     -0.43      0.00
    3    6   18      1.57      0.00
    4    6   18     -0.13      0.00
    5    6   18     -1.49      0.00
    6    6   18     -0.48      0.00
    7    6   18      0.74      0.00
    8    6   18     -0.44      0.00
    9    6   18      0.16      0.00
   10    6   18      1.36      0.00
   11    6   18     -0.16      0.00
   12    6   18      0.70      0.00
   13    6   18      0.76      0.00
   -5    7   18     -0.17      0.00
   -4    7   18      0.04      0.00
   -3    7   18      0.29      0.00
   -2    7   18     -0.17      0.00
   -1    7   18     -0.32      0.00
    0    7   18     -0.19      0.00
    1    7   18      0.24      0.00
    2    7   18      0.55      0.00
    3    7   18     -1.51      0.00
    4    7   18      0.04      0.00
    5    7   18      1.30      0.00
    6    7   18      0.97      0.00
    7    7   18     -0.75      0.00
    8    7   18     -0.05      0.00
    9    7   18     -0.18      0.00
   10    7   18     -0.02      0.00
   11    7   18     -0.30      0.00
   12    7   18     -0.70      0.00
   13    7   18     -0.35      0.00
   -4    8   18     -0.42      0.00
   -3    8   18     -0.92      0.00
   -2    8   18      0.20      0.00
   -1    8   18     -0.11      0.00
    0    8   18     -0.12      0.00
    1    8   18      0.05      0.00
    2    8   18      0.28      0.00
    3    8   18      0.56      0.00
    4    8   18      0.27      0.00
    5    8   18     -0.75      0.00
    6    8   18     -1.51      0.00
    7    8   18     -0.40      0.00
    8    8   18      0.72      0.00
    9    8   18      0.24      0.00
   10    8   18     -0.80      0.00
   11    8   18      0.32      0.00
   12    8   18      0.13      0.00
   13    8   18      0.27      0.00
   -4    9   18      0.61      0.00
   -3    9   18      0.53      0.00
   -2    9   18      0.32      0.00
   -1    9   18      0.51      0.00
    0    9   18      0.33      0.00
    1    9   18     -0.05      0.00
    2    9   18     -0.34      0.00
    3    9   18     -0.17      0.00
    4    9   18     -0.51      0.00
    5    9   18      0.62      0.00
    6    9   18      1.33      0.00
    7    9   18      1.21      0.00
    8    9   18     -0.30      0.00
    9    9   18      0.19      0.00
   10    9   18      0.26      0.00
   11    9   18      0.06      0.00
   12    9   18      0.45      0.00
   13    9   18     -0.07      0.00
   -3   10   18      0.14      0.00
   -2   10   18     -0.28      0.00
   -1   10   18     -0.50      0.00
    0   10   18     -0.81      0.00
    1   10   18      0.37      0.00
    2   10   18     -0.22      0.00
    3   10   18      0.39      0.00
    4   10   18      0.35      0.00
    5   10   18     -0.65      0.00
    6   10   18     -0.69      0.00
    7   10   18     -1.01      0.00
    8   10   18     -0.32      0.00
    9   10   18     -0.95      0.00
   10   10   18     -0.10      0.00
   11   10   18      0.35      0.00
   12   10   18     -0.73      0.00
   13   10   18      0.18      0.00
   -1   11   18      0.14      0.00
    0   11   18      0.81      0.00
    1   11   18     -0.03      0.00
    2   11   18      0.17      0.00
    3   11   18     -0.29      0.00
    4   11   18     -0.48      0.00
    5   11   18      0.79      0.00
    6   11   18      0.36      0.00
    7   11   18     -0.38      0.00
    8   11   18      0.34      0.00
    9   11   18      1.37      0.00
   10   11   18      0.83      0.00
   11   11   18     -0.91      0.00
   12   11   18      0.47      0.00
    0   12   18      0.03      0.00
    1   12   18     -0.84      0.00
    2   12   18      0.08      0.00
    3   12   18     -0.06      0.00
    4   12   18      0.53      0.00
    5   12   18     -0.71      0.00
    6   12   18     -0.31      0.00
    7   12   18      1.09      0.00
    8   12   18      1.06      0.00
    9   12   18     -1.13      0.00
   10   12   18     -1.34      0.00
   11   12   18      0.24      0.00
   12   12   18      0.20      0.00
    2   13   18     -0.18      0.00
    3   13   18      0.30      0.00
    4   13   18      0.07      0.00
    5   13   18      0.58      0.00
    6   13   18     -0.27      0.00
    7   13   18      0.09      0.00
    8   13   18     -2.25      0.00
    9   13   18     -0.51      0.00
   10   13   18      1.46      0.00
   11   13   18      0.82      0.00
    4   14   18     -0.31      0.00
    5   14   18     -0.60      0.00
    6   14   18      0.16      0.00
    7   14   18     -0.53      0.00
    8   14   18      1.37      0.00
    9   14   18      1.71      0.00
   -3   -7   19     -0.67      0.00
   -2   -7   19      0.53      0.00
   -1   -7   19     -0.82      0.00
   -5   -6   19      0.02      0.00
   -4   -6   19      0.05      0.00
   -3   -6   19      0.89      0.00
   -2   -6   19     -1.07      0.00
   -1   -6   19      0.79      0.00
    0   -6   19     -0.38      0.00
    1   -6   19      0.79      0.00
    2   -6   19      0.98      0.00
   -6   -5   19     -0.33      0.00
   -5   -5   19      0.85      0.00
   -4   -5   19     -0.18      0.00
   -3   -5   19     -1.23      0.00
   -2   -5   19      0.96      0.00
   -1   -5   19     -0.46      0.00
    0   -5   19      0.50      0.00
    1   -5   19     -0.45      0.00
    2   -5   19     -1.16      0.00
    3   -5   19     -0.43      0.00
    4   -5   19      0.42      0.00
   -7   -4   19      0.05      0.00
   -6   -4   19      0.36      0.00
   -5   -4   19     -1.27      0.00
   -4   -4   19     -0.22      0.00
   -3   -4   19      0.56      0.00
   -2   -4   19     -0.17      0.00
   -1   -4   19      0.20      0.00
    0   -4   19     -0.61      0.00
    1   -4   19      0.29      0.00
    2   -4   19      1.04      0.00
    3   -4   19      0.40      0.00
    4   -4   19     -0.07      0.00
    5   -4   19     -0.25      0.00
   -7   -3   19     -0.09      0.00
   -6   -3   19     -0.58      0.00
   -5   -3   19      1.03      0.00
   -4   -3   19      0.16      0.00
   -3   -3   19      0.52      0.00
   -2   -3   19     -0.22      0.00
   -1   -3   19      0.05      0.00
    0   -3   19      0.69      0.00
    1   -3   19     -0.46      0.00
    2   -3   19     -0.74      0.00
    3   -3   19     -0.07      0.00
    4   -3   19     -0.70      0.00
    5   -3   19      0.16      0.00
    6   -3   19      0.63      0.00
    7   -3   19     -0.35      0.00
   -8   -2   19      0.50      0.00
   -7   -2   19     -0.18      0.00
   -6   -2   19      0.10      0.00
   -5   -2   19      0.00      0.00
   -4   -2   19      0.12      0.00
   -3   -2   19     -0.46      0.00
   -2   -2   19      0.06      0.00
   -1   -2   19     -0.60      0.00
    0   -2   19     -0.70      0.00
    1   -2   19      0.44      0.00
    2   -2   19      0.36      0.00
    3   -2   19     -0.40      0.00
    4   -2   19      1.05      0.00
    5   -2   19     -0.02      0.00
    6   -2   19      0.11      0.00
    7   -2   19      0.42      0.00
    8   -2   19      0.10      0.00
   -8   -1   19     -0.66      0.00
   -7   -1   19     -0.07      0.00
   -6   -1   19      0.50      0.00
   -5   -1   19     -0.55      0.00
   -4   -1   19     -0.24      0.00
   -3   -1   19     -0.52      0.00
   -2   -1   19     -0.17      0.00
   -1   -1   19      0.78      0.00
    0   -1   19      0.85      0.00
    1   -1   19      0.29      0.00
    2   -1   19     -0.28      0.00
    3   -1   19      0.67      0.00
    4   -1   19     -0.20      0.00
    5   -1   19      0.15      0.00
    6   -1   19     -0.84      0.00
    7   -1   19     -0.32      0.00
    8   -1   19     -0.87      0.00
    9   -1   19     -0.78      0.00
   -8    0   19      0.21      0.00
   -7    0   19      0.43      0.00
   -6    0   19     -0.14      0.00
   -5    0   19     -0.01      0.00
   -4    0   19      0.44      0.00
   -3    0   19      0.94      0.00
   -2    0   19      0.54      0.00
   -1    0   19      0.09      0.00
    0    0   19     -0.79      0.00
    1    0   19     -1.24      0.00
    2    0   19      0.18      0.00
    3    0   19     -0.43      0.00
    4    0   19     -0.75      0.00
    5    0   19     -0.71      0.00
    6    0   19      0.41      0.00
    7    0   19      0.08      0.00
    8    0   19      1.46      0.00
    9    0   19      1.13      0.00
   -7    1   19     -0.40      0.00
   -6    1   19     -0.52      0.00
   -5    1   19      0.91      0.00
   -4    1   19     -0.71      0.00
   -3    1   19     -0.85      0.00
   -2    1   19     -0.19      0.00
   -1    1   19     -1.22      0.00
    0    1   19     -0.15      0.00
    1    1   19      1.46      0.00
    2    1   19      0.32      0.00
    3    1   19      0.18      0.00
    4    1   19      0.26      0.00
    5    1   19      1.24      0.00
    6    1   19      0.59      0.00
    7    1   19      0.30      0.00
    8    1   19     -1.21      0.00
    9    1   19     -0.82      0.00
   10    1   19     -0.23      0.00
   -7    2   19      0.08      0.00
   -6    2   19      0.30      0.00
   -5    2   19     -0.63      0.00
   -4    2   19      0.04      0.00
   -3    2   19      0.66      0.00
   -2    2   19     -0.18      0.00
   -1    2   19      1.17      0.00
    0    2   19      1.18      0.00
    1    2   19     -0.51      0.00
    2    2   19     -0.57      0.00
    3    2   19     -0.47      0.00
    4    2   19      0.53      0.00
    5    2   19     -0.74      0.00
    6    2   19     -0.83      0.00
    7    2   19     -0.51      0.00
    8    2   19      0.45      0.00
    9    2   19      0.20      0.00
   10    2   19      0.64      0.00
   11    2   19     -0.30      0.00
   -7    3   19     -0.19      0.00
   -6    3   19      0.61      0.00
   -5    3   19     -0.02      0.00
   -4    3   19      0.39      0.00
   -3    3   19      0.22      0.00
   -2    3   19     -0.03      0.00
   -1    3   19     -0.39      0.00
    0    3   19     -0.74      0.00
    1    3   19     -1.08      0.00
    2    3   19      0.25      0.00
    3    3   19      0.88      0.00
    4    3   19     -0.28      0.00
    5    3   19     -0.13      0.00
    6    3   19      0.50      0.00
    7    3   19      0.18      0.00
    8    3   19     -0.30      0.00
    9    3   19      0.69      0.00
   10    3   19     -1.39      0.00
   11    3   19      0.69      0.00
   -6    4   19     -0.36      0.00
   -5    4   19     -0.74      0.00
   -4    4   19     -0.05      0.00
   -3    4   19     -0.50      0.00
   -2    4   19     -0.14      0.00
   -1    4   19     -0.42      0.00
    0    4   19     -0.21      0.00
    1    4   19      1.61      0.00
    2    4   19     -0.03      0.00
    3    4   19     -0.71      0.00
    4    4   19     -0.36      0.00
    5    4   19      0.41      0.00
    6    4   19     -0.77      0.00
    7    4   19      0.46      0.00
    8    4   19      0.50      0.00
    9    4   19     -0.77      0.00
   10    4   19      1.25      0.00
   11    4   19     -0.26      0.00
   12    4   19     -0.52      0.00
   -6    5   19     -0.50      0.00
   -5    5   19      0.98      0.00
   -4    5   19      0.21      0.00
   -3    5   19      0.17      0.00
   -2    5   19     -0.06      0.00
   -1    5   19      0.97      0.00
    0    5   19      0.66      0.00
    1    5   19     -0.53      0.00
    2    5   19      0.00      0.00
    3    5   19      0.14      0.00
    4    5   19      1.35      0.00
    5    5   19     -0.74      0.00
    6    5   19      0.93      0.00
    7    5   19     -0.45      0.00
    8    5   19     -0.02      0.00
    9    5   19     -0.23      0.00
   10    5   19     -0.59      0.00
   11    5   19      0.13      0.00
   12    5   19     -0.48      0.00
   -5    6   19      0.02      0.00
   -4    6   19     -0.26      0.00
   -3    6   19     -0.21      0.00
   -2    6   19      0.52      0.00
   -1    6   19     -0.35      0.00
    0    6   19     -0.82      0.00
    1    6   19     -0.87      0.00
    2    6   19      0.31      0.00
    3    6   19      0.02      0.00
    4    6   19     -2.41      0.00
    5    6   19      0.92      0.00
    6    6   19     -0.06      0.00
    7    6   19      0.46      0.00
    8    6   19     -0.90      0.00
    9    6   19      0.83      0.00
   10    6   19      0.30      0.00
   11    6   19      0.15      0.00
   12    6   19      0.56      0.00
   -5    7   19     -0.39      0.00
   -4    7   19      0.25      0.00
   -3    7   19     -0.38      0.00
   -2    7   19     -0.47      0.00
   -1    7   19     -0.24      0.00
    0    7   19      0.38      0.00
    1    7   19      0.97      0.00
    2    7   19     -0.35      0.00
    3    7   19      0.25      0.00
    4    7   19      2.01      0.00
    5    7   19     -0.07      0.00
    6    7   19     -0.40      0.00
    7    7   19     -1.61      0.00
    8    7   19      0.93      0.00
    9    7   19     -0.29      0.00
   10    7   19     -0.17      0.00
   11    7   19     -0.79      0.00
   12    7   19     -0.32      0.00
   -4    8   19     -0.38      0.00
   -3    8   19      0.64      0.00
   -2    8   19      0.46      0.00
   -1    8   19      0.10      0.00
    0    8   19      0.04      0.00
    1    8   19     -0.13      0.00
    2    8   19      0.07      0.00
    3    8   19     -0.42      0.00
    4    8   19     -0.42      0.00
    5    8   19     -1.11      0.00
    6    8   19      0.27      0.00
    7    8   19      2.07      0.00
    8    8   19      0.14      0.00
    9    8   19     -0.29      0.00
   10    8   19      0.07      0.00
   11    8   19      0.63      0.00
   12    8   19      0.43      0.00
   -3    9   19      0.02      0.00
   -2    9   19     -0.20      0.00
   -1    9   19      0.12      0.00
    0    9   19     -0.24      0.00
    1    9   19      0.09      0.00
    2    9   19     -0.05      0.00
    3    9   19      0.21      0.00
    4    9   19     -0.21      0.00
    5    9   19      1.40      0.00
    6    9   19     -0.40      0.00
    7    9   19     -1.05      0.00
    8    9   19     -0.72      0.00
    9    9   19      0.47      0.00
   10    9   19     -0.41      0.00
   11    9   19      0.42      0.00
   12    9   19     -0.54      0.00
   -2   10   19     -0.01      0.00
   -1   10   19     -0.66      0.00
    0   10   19      0.31      0.00
    1   10   19     -0.31      0.00
    2   10   19      0.00      0.00
    3   10   19      0.10      0.00
    4   10   19     -0.49      0.00
    5   10   19     -0.87      0.00
    6   10   19      0.36      0.00
    7   10   19      0.08      0.00
    8   10   19      0.18      0.00
    9   10   19     -1.05      0.00
   10   10   19      0.99      0.00
   11   10   19     -0.99      0.00
   -1   11   19      0.65      0.00
    0   11   19      0.00      0.00
    1   11   19      0.42      0.00
    2   11   19     -0.33      0.00
    3   11   19     -0.07      0.00
    4   11   19      0.86      0.00
    5   11   19      0.77      0.00
    6   11   19     -0.23      0.00
    7   11   19     -0.11      0.00
    8   11   19      1.18      0.00
    9   11   19      1.52      0.00
   10   11   19     -0.52      0.00
   11   11   19      0.23      0.00
   12   11   19      0.50      0.00
    1   12   19     -0.72      0.00
    2   12   19      0.87      0.00
    3   12   19     -0.22      0.00
    4   12   19     -0.22      0.00
    5   12   19     -0.81      0.00
    6   12   19     -0.07      0.00
    7   12   19      0.89      0.00
    8   12   19     -1.61      0.00
    9   12   19     -1.95      0.00
   10   12   19     -0.77      0.00
   11   12   19      0.60      0.00
    3   13   19      0.52      0.00
    4   13   19     -0.37      0.00
    5   13   19      0.24      0.00
    6   13   19      0.34      0.00
    7   13   19     -0.87      0.00
    8   13   19     -0.25      0.00
    9   13   19      2.16      0.00
   10   13   19      1.88      0.00
   -2   -6   20     -0.11      0.00
   -1   -6   20      0.31      0.00
   -5   -5   20     -0.89      0.00
   -4   -5   20     -0.54      0.00
   -3   -5   20     -0.25      0.00
   -2   -5   20      0.97      0.00
   -1   -5   20     -0.38      0.00
    0   -5   20     -0.12      0.00
    1   -5   20     -1.38      0.00
    2   -5   20     -0.17      0.00
   -6   -4   20     -0.39      0.00
   -5   -4   20      0.40      0.00
   -4   -4   20      0.38      0.00
   -3   -4   20      1.05      0.00
   -2   -4   20     -0.91      0.00
   -1   -4   20      0.04      0.00
    0   -4   20     -0.36      0.00
    1   -4   20      1.69      0.00
    2   -4   20      0.58      0.00
    3   -4   20     -0.67      0.00
    4   -4   20      0.20      0.00
   -6   -3   20      0.31      0.00
   -5   -3   20      0.36      0.00
   -4   -3   20     -0.16      0.00
   -3   -3   20     -0.57      0.00
   -2   -3   20      0.22      0.00
   -1   -3   20      0.33      0.00
    0   -3   20      0.39      0.00
    1   -3   20     -1.35      0.00
    2   -3   20     -0.55      0.00
    3   -3   20     -0.13      0.00
    4   -3   20     -0.05      0.00
    5   -3   20      0.60      0.00
    6   -3   20     -0.26      0.00
   -7   -2   20     -0.70      0.00
   -6   -2   20      0.17      0.00
   -5   -2   20     -0.64      0.00
   -4   -2   20      0.02      0.00
   -3   -2   20     -0.24      0.00
   -2   -2   20     -0.19      0.00
   -1   -2   20     -0.36      0.00
    0   -2   20     -0.17      0.00
    1   -2   20      0.71      0.00
    2   -2   20      0.30      0.00
    3   -2   20      0.78      0.00
    4   -2   20      0.34      0.00
    5   -2   20     -0.52      0.00
    6   -2   20      0.05      0.00
    7   -2   20     -0.47      0.00
   -7   -1   20      1.02      0.00
   -6   -1   20      0.05      0.00
   -5   -1   20      0.39      0.00
   -4   -1   20     -0.14      0.00
   -3   -1   20      0.43      0.00
   -2   -1   20      0.56      0.00
   -1   -1   20      0.37      0.00
    0   -1   20      0.38      0.00
    1   -1   20     -0.37      0.00
    2   -1   20      0.00      0.00
    3   -1   20     -0.34      0.00
    4   -1   20     -0.75      0.00
    5   -1   20     -0.27      0.00
    6   -1   20      0.05      0.00
    7   -1   20      0.19      0.00
    8   -1   20      0.35      0.00
   -7    0   20     -0.32      0.00
   -6    0   20     -0.71      0.00
   -5    0   20     -0.29      0.00
   -4    0   20      0.58      0.00
   -3    0   20     -0.47      0.00
   -2    0   20     -0.16      0.00
   -1    0   20     -0.45      0.00
    0    0   20     -0.97      0.00
    1    0   20      0.25      0.00
    2    0   20     -0.42      0.00
    3    0   20     -0.42      0.00
    4    0   20      0.28      0.00
    5    0   20      0.60      0.00
    6    0   20      0.21      0.00
    7    0   20      0.39      0.00
    8    0   20      0.17      0.00
    9    0   20      0.29      0.00
   -7    1   20     -0.13      0.00
   -6    1   20      0.66      0.00
   -5    1   20      0.65      0.00
   -4    1   20     -1.34      0.00
   -3    1   20      0.94      0.00
   -2    1   20     -0.67      0.00
   -1    1   20      0.05      0.00
    0    1   20      1.16      0.00
    1    1   20      0.24      0.00
    2    1   20      0.71      0.00
    3    1   20      0.40      0.00
    4    1   20      0.63      0.00
    5    1   20      0.23      0.00
    6    1   20     -0.69      0.00
    7    1   20     -0.35      0.00
    8    1   20     -0.51      0.00
    9    1   20     -0.92      0.00
   -6    2   20      0.38      0.00
   -5    2   20     -1.10      0.00
   -4    2   20      1.27      0.00
   -3    2   20     -0.55      0.00
   -2    2   20      0.83      0.00
   -1    2   20      0.35      0.00
    0    2   20     -0.20      0.00
    1    2   20     -0.76      0.00
    2    2   20     -0.76      0.00
    3    2   20     -0.28      0.00
    4    2   20     -0.42      0.00
    5    2   20     -0.89      0.00
    6    2   20      0.64      0.00
    7    2   20      0.07      0.00
    8    2   20      0.34      0.00
    9    2   20      1.15      0.00
   10    2   20      0.13      0.00
   -6    3   20     -0.55      0.00
   -5    3   20      0.53      0.00
   -4    3   20     -0.14      0.00
   -3    3   20     -0.27      0.00
   -2    3   20     -0.79      0.00
   -1    3   20     -0.08      0.00
    0    3   20     -1.07      0.00
    1    3   20      0.26      0.00
    2    3   20      0.75      0.00
    3    3   20      0.46      0.00
    4    3   20     -0.60      0.00
    5    3   20      0.60      0.00
    6    3   20     -0.39      0.00
    7    3   20     -0.50      0.00
    8    3   20     -0.08      0.00
    9    3   20     -0.65      0.00
   10    3   20     -0.66      0.00
   -6    4   20     -0.47      0.00
   -5    4   20     -0.20      0.00
   -4    4   20      0.04      0.00
   -3    4   20      0.18      0.00
   -2    4   20      0.39      0.00
   -1    4   20      0.11      0.00
    0    4   20      1.21      0.00
    1    4   20      0.48      0.00
    2    4   20     -0.33      0.00
    3    4   20     -0.31      0.00
    4    4   20      1.19      0.00
    5    4   20     -0.45      0.00
    6    4   20      0.65      0.00
    7    4   20      1.09      0.00
    8    4   20      0.33      0.00
    9    4   20      0.28      0.00
   10    4   20      0.69      0.00
   11    4   20     -0.70      0.00
   -5    5   20      0.79      0.00
   -4    5   20     -0.15      0.00
   -3    5   20     -0.10      0.00
   -2    5   20      0.08      0.00
   -1    5   20     -0.02      0.00
    0    5   20     -0.44      0.00
    1    5   20     -0.42      0.00
    2    5   20     -0.35      0.00
    3    5   20      0.46      0.00
    4    5   20     -1.53      0.00
    5    5   20      0.14      0.00
    6    5   20     -0.59      0.00
    7    5   20     -0.49      0.00
    8    5   20     -0.97      0.00
    9    5   20     -0.60      0.00
   10    5   20     -0.10      0.00
   11    5   20      0.00      0.00
   -5    6   20     -0.72      0.00
   -4    6   20     -0.40      0.00
   -3    6   20      0.04      0.00
   -2    6   20      0.28      0.00
   -1    6   20     -0.43      0.00
    0    6   20     -0.51      0.00
    1    6   20      0.04      0.00
    2    6   20      0.42      0.00
    3    6   20     -1.53      0.00
    4    6   20      1.47      0.00
    5    6   20      0.84      0.00
    6    6   20      0.59      0.00
    7    6   20     -1.16      0.00
    8    6   20      1.15      0.00
    9    6   20      0.54      0.00
   10    6   20      0.11      0.00
   11    6   20      0.16      0.00
   -4    7   20      0.32      0.00
   -3    7   20     -0.15      0.00
   -2    7   20     -0.13      0.00
   -1    7   20      0.15      0.00
    0    7   20      0.59      0.00
    1    7   20      0.29      0.00
    2    7   20      0.22      0.00
    3    7   20      1.81      0.00
    4    7   20     -0.25      0.00
    5    7   20     -1.06      0.00
    6    7   20     -1.42      0.00
    7    7   20      1.45      0.00
    8    7   20     -0.19      0.00
    9    7   20      0.11      0.00
   10    7   20     -0.52      0.00
   11    7   20     -0.18      0.00
   12    7   20      0.74      0.00
   -3    8   20      0.56      0.00
   -2    8   20     -0.19      0.00
   -1    8   20      0.28      0.00
    0    8   20     -0.07      0.00
    1    8   20     -0.12      0.00
    2    8   20     -0.62      0.00
    3    8   20     -0.59      0.00
    4    8   20     -1.16      0.00
    5    8   20      0.55      0.00
    6    8   20      1.68      0.00
    7    8   20     -0.02      0.00
    8    8   20     -0.73      0.00
    9    8   20     -0.32      0.00
   10    8   20      0.39      0.00
   11    8   20      0.26      0.00
   12    8   20     -0.24      0.00
   -2    9   20     -0.12      0.00
   -1    9   20     -0.33      0.00
    0    9   20     -0.02      0.00
    1    9   20     -0.17      0.00
    2    9   20      0.00      0.00
    3    9   20     -0.25      0.00
    4    9   20      1.03      0.00
    5    9   20     -0.64      0.00
    6    9   20     -1.09      0.00
    7    9   20     -1.01      0.00
    8    9   20      0.89      0.00
    9    9   20     -0.33      0.00
   10    9   20     -0.08      0.00
   11    9   20     -0.05      0.00
   12    9   20     -0.47      0.00
   -1   10   20     -0.05      0.00
    0   10   20      0.07      0.00
    1   10   20      0.05      0.00
    2   10   20      0.43      0.00
    3   10   20      0.16      0.00
    4   10   20     -0.05      0.00
    5   10   20      1.06      0.00
    6   10   20      0.92      0.00
    7   10   20      0.98      0.00
    8   10   20     -0.89      0.00
    9   10   20      0.72      0.00
   10   10   20      0.59      0.00
   11   10   20     -0.66      0.00
    0   11   20      0.27      0.00
    1   11   20     -0.23      0.00
    2   11   20     -0.04      0.00
    3   11   20      0.04      0.00
    4   11   20     -0.10      0.00
    5   11   20     -0.93      0.00
    6   11   20     -1.36      0.00
    7   11   20     -0.20      0.00
    8   11   20      0.82      0.00
    9   11   20     -0.21      0.00
   10   11   20     -1.15      0.00
   11   11   20      0.82      0.00
    2   12   20     -0.21      0.00
    3   12   20      0.09      0.00
    4   12   20     -0.29      0.00
    5   12   20      0.31      0.00
    6   12   20      1.16      0.00
    7   12   20     -0.03      0.00
    8   12   20     -1.34      0.00
    9   12   20     -0.63      0.00
   10   12   20      0.93      0.00
    5   13   20     -0.06      0.00
    6   13   20     -0.04      0.00
    7   13   20     -0.74      0.00
    8   13   20      1.61      0.00
   -1   -5   21      0.35      0.00
   -4   -4   21      0.17      0.00
   -3   -4   21     -0.31      0.00
   -2   -4   21      0.09      0.00
   -1   -4   21     -0.53      0.00
    0   -4   21      1.37      0.00
    1   -4   21      0.45      0.00
    2   -4   21     -1.02      0.00
    3   -4   21     -0.35      0.00
   -5   -3   21     -1.41      0.00
   -4   -3   21     -0.09      0.00
   -3   -3   21     -0.47      0.00
   -2   -3   21      0.21      0.00
   -1   -3   21      0.35      0.00
    0   -3   21     -1.13      0.00
    1   -3   21     -0.51      0.00
    2   -3   21      0.06      0.00
    3   -3   21      0.37      0.00
    4   -3   21      0.27      0.00
   -5   -2   21      0.85      0.00
   -4   -2   21      0.26      0.00
   -3   -2   21      0.60      0.00
   -2   -2   21     -0.33      0.00
   -1   -2   21      0.26      0.00
    0   -2   21      0.39      0.00
    1   -2   21      0.53      0.00
    2   -2   21      0.59      0.00
    3   -2   21      0.38      0.00
    4   -2   21     -0.65      0.00
    5   -2   21      0.48      0.00
    6   -2   21      0.05      0.00
   -6   -1   21     -0.38      0.00
   -5   -1   21     -0.41      0.00
   -4   -1   21     -0.39      0.00
   -3   -1   21     -0.41      0.00
   -2   -1   21      0.36      0.00
   -1   -1   21     -0.67      0.00
    0   -1   21      0.13      0.00
    1   -1   21     -0.57      0.00
    2   -1   21     -0.31      0.00
    3   -1   21     -1.19      0.00
    4   -1   21     -0.24      0.00
    5   -1   21     -0.26      0.00
    6   -1   21      0.54      0.00
    7   -1   21     -0.43      0.00
   -6    0   21     -0.27      0.00
   -5    0   21      0.70      0.00
   -4    0   21      0.05      0.00
   -3    0   21      0.35      0.00
   -2    0   21     -0.14      0.00
   -1    0   21      0.42      0.00
    0    0   21     -0.03      0.00
    1    0   21      0.39      0.00
    2    0   21     -0.37      0.00
    3    0   21      1.07      0.00
    4    0   21      1.11      0.00
    5    0   21      0.80      0.00
    6    0   21     -0.69      0.00
    7    0   21      0.46      0.00
    8    0   21     -0.09      0.00
   -6    1   21      0.84      0.00
   -5    1   21     -1.06      0.00
   -4    1   21      0.32      0.00
   -3    1   21     -0.11      0.00
   -2    1   21     -0.50      0.00
   -1    1   21      0.10      0.00
    0    1   21      0.07      0.00
    1    1   21     -0.29      0.00
    2    1   21      0.68      0.00
    3    1   21     -0.14      0.00
    4    1   21     -0.56      0.00
    5    1   21     -1.48      0.00
    6    1   21      0.34      0.00
    7    1   21     -0.15      0.00
    8    1   21     -0.05      0.00
   -6    2   21     -0.46      0.00
   -5    2   21      0.32      0.00
   -4    2   21      0.19      0.00
   -3    2   21     -0.09      0.00
   -2    2   21      0.53      0.00
   -1    2   21     -0.01      0.00
    0    2   21     -0.35      0.00
    1    2   21      0.02      0.00
    2    2   21     -0.72      0.00
    3    2   21     -0.36      0.00
    4    2   21     -0.25      0.00
    5    2   21      0.77      0.00
    6    2   21     -0.01      0.00
    7    2   21      0.00      0.00
    8    2   21     -0.32      0.00
    9    2   21      1.05      0.00
   -5    3   21      0.32      0.00
   -4    3   21     -0.32      0.00
   -3    3   21     -0.52      0.00
   -2    3   21      0.03      0.00
   -1    3   21     -0.32      0.00
    0    3   21     -0.03      0.00
    1    3   21      0.54      0.00
    2    3   21      0.80      0.00
    3    3   21      0.17      0.00
    4    3   21      0.27      0.00
    5    3   21      0.39      0.00
    6    3   21     -0.24      0.00
    7    3   21     -0.41      0.00
    8    3   21      1.41      0.00
    9    3   21     -1.51      0.00
   10    3   21      1.14      0.00
   -5    4   21      0.46      0.00
   -4    4   21     -0.15      0.00
   -3    4   21      0.70      0.00
   -2    4   21      0.09      0.00
   -1    4   21      0.56      0.00
    0    4   21      0.37      0.00
    1    4   21     -0.35      0.00
    2    4   21     -0.38      0.00
    3    4   21      0.02      0.00
    4    4   21     -0.21      0.00
    5    4   21     -0.59      0.00
    6    4   21      0.84      0.00
    7    4   21      0.85      0.00
    8    4   21     -1.31      0.00
    9    4   21      1.09      0.00
   10    4   21     -0.89      0.00
   -4    5   21      0.01      0.00
   -3    5   21     -0.49      0.00
   -2    5   21     -0.10      0.00
   -1    5   21     -0.59      0.00
    0    5   21     -0.39      0.00
    1    5   21     -0.41      0.00
    2    5   21     -0.38      0.00
    3    5   21     -0.34      0.00
    4    5   21     -0.48      0.00
    5    5   21      0.84      0.00
    6    5   21     -0.96      0.00
    7    5   21     -1.29      0.00
    8    5   21     -0.38      0.00
    9    5   21     -0.67      0.00
   10    5   21      0.64      0.00
   -4    6   21      0.09      0.00
   -3    6   21      0.49      0.00
   -2    6   21     -0.04      0.00
   -1    6   21     -0.09      0.00
    0    6   21      0.42      0.00
    1    6   21      0.55      0.00
    2    6   21      0.33      0.00
    3    6   21      0.67      0.00
    4    6   21      2.17      0.00
    5    6   21     -1.12      0.00
    6    6   21      0.06      0.00
    7    6   21      0.98      0.00
    8    6   21      1.96      0.00
    9    6   21      0.67      0.00
   10    6   21      0.05      0.00
   11    6   21      0.05      0.00
   -3    7   21      0.07      0.00
   -2    7   21     -0.10      0.00
   -1    7   21      0.33      0.00
    0    7   21     -0.06      0.00
    1    7   21      0.23      0.00
    2    7   21      0.14      0.00
    3    7   21     -0.06      0.00
    4    7   21     -2.36      0.00
    5    7   21      0.20      0.00
    6    7   21      0.29      0.00
    7    7   21      0.67      0.00
    8    7   21     -2.03      0.00
    9    7   21     -0.73      0.00
   10    7   21     -0.83      0.00
   11    7   21     -0.12      0.00
   -2    8   21      0.02      0.00
   -1    8   21     -0.01      0.00
    0    8   21     -0.10      0.00
    1    8   21     -0.72      0.00
    2    8   21     -0.40      0.00
    3    8   21     -0.96      0.00
    4    8   21      0.25      0.00
    5    8   21      0.79      0.00
    6    8   21     -0.17      0.00
    7    8   21     -1.64      0.00
    8    8   21      0.80      0.00
    9    8   21      0.82      0.00
   10    8   21      0.56      0.00
   11    8   21      0.61      0.00
   -1    9   21     -0.05      0.00
    0    9   21     -0.11      0.00
    1    9   21      0.08      0.00
    2    9   21      0.33      0.00
    3    9   21      1.16      0.00
    4    9   21      1.20      0.00
    5    9   21     -0.44      0.00
    6    9   21      0.74      0.00
    7    9   21      1.28      0.00
    8    9   21      0.34      0.00
    9    9   21     -1.33      0.00
   10    9   21      0.50      0.00
   11    9   21     -1.11      0.00
    0   10   21      0.30      0.00
    1   10   21      0.38      0.00
    2   10   21      0.12      0.00
    3   10   21     -0.44      0.00
    4   10   21     -0.63      0.00
    5   10   21     -0.19      0.00
    6   10   21     -1.03      0.00
    7   10   21     -1.03      0.00
    8   10   21     -0.89      0.00
    9   10   21      1.98      0.00
   10   10   21     -0.87      0.00
    2   11   21     -0.08      0.00
    3   11   21     -0.30      0.00
    4   11   21     -0.27      0.00
    5   11   21     -0.11      0.00
    6   11   21      0.39      0.00
    7   11   21      1.16      0.00
    8   11   21      0.58      0.00
    9   11   21     -1.54      0.00
   10   11   21     -0.07      0.00
    4   12   21      0.26      0.00
    5   12   21      0.43      0.00
    6   12   21      0.49      0.00
    7   12   21     -1.12      0.00
    8   12   21     -0.24      0.00
   -3   -3   22      0.55      0.00
   -2   -3   22     -0.34      0.00
   -1   -3   22     -0.05      0.00
    0   -3   22     -0.53      0.00
    1   -3   22      0.58      0.00
    2   -3   22      0.61      0.00
   -4   -2   22     -0.19      0.00
   -3   -2   22     -0.71      0.00
   -2   -2   22      0.37      0.00
   -1   -2   22     -0.09      0.00
    0   -2   22      0.33      0.00
    1   -2   22     -0.24      0.00
    2   -2   22     -0.25      0.00
    3   -2   22     -1.01      0.00
    4   -2   22     -0.39      0.00
   -4   -1   22     -0.13      0.00
   -3   -1   22      0.62      0.00
   -2   -1   22     -0.15      0.00
   -1   -1   22      0.33      0.00
    0   -1   22     -0.17      0.00
    1   -1   22      0.34      0.00
    2   -1   22     -0.15      0.00
    3   -1   22      0.14      0.00
    4   -1   22      0.63      0.00
    5   -1   22      0.57      0.00
    6   -1   22     -0.16      0.00
   -5    0   22      0.45      0.00
   -4    0   22      0.04      0.00
   -3    0   22      0.07      0.00
   -2    0   22     -0.26      0.00
   -1    0   22     -0.27      0.00
    0    0   22      0.01      0.00
    1    0   22     -0.97      0.00
    2    0   22      0.40      0.00
    3    0   22      0.72      0.00
    4    0   22      0.36      0.00
    5    0   22     -0.83      0.00
    6    0   22     -0.35      0.00
    7    0   22      0.63      0.00
   -5    1   22     -0.47      0.00
   -4    1   22      0.52      0.00
   -3    1   22     -0.90      0.00
   -2    1   22      0.57      0.00
   -1    1   22      0.11      0.00
    0    1   22     -0.13      0.00
    1    1   22      1.17      0.00
    2    1   22      0.07      0.00
    3    1   22     -0.53      0.00
    4    1   22     -1.56      0.00
    5    1   22     -0.06      0.00
    6    1   22      1.01      0.00
    7    1   22     -0.48      0.00
   -4    2   22     -0.46      0.00
   -3    2   22      0.58      0.00
   -2    2   22     -0.50      0.00
   -1    2   22      0.00      0.00
    0    2   22     -0.10      0.00
    1    2   22     -0.56      0.00
    2    2   22     -0.69      0.00
    3    2   22      0.11      0.00
    4    2   22      1.11      0.00
    5    2   22      0.63      0.00
    6    2   22     -0.64      0.00
    7    2   22     -0.24      0.00
    8    2   22      0.58      0.00
   -4    3   22     -0.22      0.00
   -3    3   22      0.09      0.00
   -2    3   22      0.49      0.00
   -1    3   22     -0.03      0.00
    0    3   22      0.77      0.00
    1    3   22      0.30      0.00
    2    3   22      0.78      0.00
    3    3   22     -0.05      0.00
    4    3   22      0.22      0.00
    5    3   22     -0.29      0.00
    6    3   22      0.03      0.00
    7    3   22      1.34      0.00
    8    3   22      0.36      0.00
    9    3   22     -0.58      0.00
   -4    4   22      0.02      0.00
   -3    4   22      0.02      0.00
   -2    4   22     -0.14      0.00
   -1    4   22     -0.46      0.00
    0    4   22     -1.00      0.00
    1    4   22     -0.36      0.00
    2    4   22     -0.97      0.00
    3    4   22     -0.30      0.00
    4    4   22     -0.96      0.00
    5    4   22      0.47      0.00
    6    4   22     -0.31      0.00
    7    4   22     -1.60      0.00
    8    4   22     -1.45      0.00
    9    4   22      0.01      0.00
   -3    5   22     -0.10      0.00
   -2    5   22     -0.20      0.00
   -1    5   22      0.43      0.00
    0    5   22      0.68      0.00
    1    5   22      0.13      0.00
    2    5   22      1.02      0.00
    3    5   22      0.28      0.00
    4    5   22      1.80      0.00
    5    5   22     -0.78      0.00
    6    5   22      0.39      0.00
    7    5   22      0.13      0.00
    8    5   22      1.95      0.00
    9    5   22      1.20      0.00
   10    5   22      1.10      0.00
   -3    6   22      0.16      0.00
   -2    6   22     -0.11      0.00
   -1    6   22      0.07      0.00
    0    6   22     -0.13      0.00
    1    6   22      0.08      0.00
    2    6   22     -0.37      0.00
    3    6   22      1.07      0.00
    4    6   22     -2.22      0.00
    5    6   22      0.07      0.00
    6    6   22     -0.39      0.00
    7    6   22      2.30      0.00
    8    6   22     -1.79      0.00
    9    6   22     -0.99      0.00
   10    6   22     -1.04      0.00
   -2    7   22     -0.01      0.00
   -1    7   22      0.11      0.00
    0    7   22      0.17      0.00
    1    7   22     -0.20      0.00
    2    7   22     -0.33      0.00
    3    7   22     -1.70      0.00
    4    7   22      0.50      0.00
    5    7   22      0.33      0.00
    6    7   22      1.08      0.00
    7    7   22     -3.08      0.00
    8    7   22      0.58      0.00
    9    7   22     -0.04      0.00
   10    7   22      0.60      0.00
   -1    8   22     -0.36      0.00
    0    8   22     -0.48      0.00
    1    8   22     -0.20      0.00
    2    8   22      0.24      0.00
    3    8   22      0.38      0.00
    4    8   22      1.49      0.00
    5    8   22      0.06      0.00
    6    8   22     -1.10      0.00
    7    8   22      1.68      0.00
    8    8   22      0.89      0.00
    9    8   22      0.39      0.00
   10    8   22     -0.15      0.00
    0    9   22      0.26      0.00
    1    9   22      0.68      0.00
    2    9   22      0.49      0.00
    3    9   22      0.92      0.00
    4    9   22     -1.01      0.00
    5    9   22      0.22      0.00
    6    9   22      0.33      0.00
    7    9   22     -0.08      0.00
    8    9   22     -1.67      0.00
    9    9   22     -0.17      0.00
   10    9   22      0.29      0.00
    1   10   22     -0.64      0.00
    2   10   22     -0.52      0.00
    3   10   22     -1.06      0.00
    4   10   22     -0.66      0.00
    5   10   22     -0.98      0.00
    6   10   22     -0.46      0.00
    7   10   22     -0.80      0.00
    8   10   22      1.56      0.00
    9   10   22      0.35      0.00
    3   11   22      0.55      0.00
    4   11   22      1.03      0.00
    5   11   22      1.03      0.00
    6   11   22      1.34      0.00
    7   11   22      0.89      0.00
    8   11   22     -0.61      0.00
   -1   -2   23     -0.08      0.00
    0   -2   23     -0.42      0.00
    1   -2   23     -0.30      0.00
    2   -2   23     -0.78      0.00
   -2   -1   23     -0.53      0.00
   -1   -1   23      0.19      0.00
    0   -1   23     -0.04      0.00
    1   -1   23      0.62      0.00
    2   -1   23      0.37      0.00
    3   -1   23      0.66      0.00
    4   -1   23      0.81      0.00
   -3    0   23     -0.70      0.00
   -2    0   23      0.09      0.00
   -1    0   23     -0.33      0.00
    0    0   23     -0.18      0.00
    1    0   23     -0.60      0.00
    2    0   23      0.13      0.00
    3    0   23     -0.14      0.00
    4    0   23     -1.03      0.00
    5    0   23     -1.62      0.00
   -3    1   23      0.29      0.00
   -2    1   23      0.32      0.00
   -1    1   23      0.17      0.00
    0    1   23      0.46      0.00
    1    1   23      1.04      0.00
    2    1   23     -0.15      0.00
    3    1   23     -0.86      0.00
    4    1   23      0.18      0.00
    5    1   23      1.88      0.00
    6    1   23      0.23      0.00
   -3    2   23      0.01      0.00
   -2    2   23     -0.17      0.00
   -1    2   23     -0.07      0.00
    0    2   23     -0.03      0.00
    1    2   23     -1.30      0.00
    2    2   23     -0.16      0.00
    3    2   23      1.04      0.00
    4    2   23      0.40      0.00
    5    2   23     -0.47      0.00
    6    2   23     -0.56      0.00
    7    2   23     -0.11      0.00
   -3    3   23      0.18      0.00
   -2    3   23     -0.08      0.00
   -1    3   23      0.28      0.00
    0    3   23     -0.34      0.00
    1    3   23      0.69      0.00
    2    3   23      0.06      0.00
    3    3   23     -0.44      0.00
    4    3   23     -0.33      0.00
    5    3   23     -0.68      0.00
    6    3   23      0.51      0.00
    7    3   23      0.82      0.00
    8    3   23     -2.12      0.00
   -3    4   23     -0.05      0.00
   -2    4   23     -0.20      0.00
   -1    4   23     -0.81      0.00
    0    4   23      0.31      0.00
    1    4   23     -0.39      0.00
    2    4   23     -0.10      0.00
    3    4   23      0.06      0.00
    4    4   23      0.84      0.00
    5    4   23      0.33      0.00
    6    4   23     -0.65      0.00
    7    4   23     -1.19      0.00
    8    4   23      1.28      0.00
   -2    5   23      0.13      0.00
   -1    5   23      1.06      0.00
    0    5   23      0.31      0.00
    1    5   23      0.61      0.00
    2    5   23      0.62      0.00
    3    5   23      0.61      0.00
    4    5   23     -0.96      0.00
    5    5   23     -0.42      0.00
    6    5   23      0.29      0.00
    7    5   23      1.61      0.00
    8    5   23      0.70      0.00
   -2    6   23      0.06      0.00
   -1    6   23     -0.42      0.00
    0    6   23     -0.90      0.00
    1    6   23     -0.56      0.00
    2    6   23     -0.77      0.00
    3    6   23     -1.22      0.00
    4    6   23     -0.77      0.00
    5    6   23      1.11      0.00
    6    6   23      0.90      0.00
    7    6   23     -1.37      0.00
    8    6   23     -2.20      0.00
    9    6   23     -0.90      0.00
   -1    7   23      0.09      0.00
    0    7   23      0.53      0.00
    1    7   23     -0.09      0.00
    2    7   23      0.67      0.00
    3    7   23      0.36      0.00
    4    7   23      1.89      0.00
    5    7   23     -0.58      0.00
    6    7   23     -1.23      0.00
    7    7   23     -0.42      0.00
    8    7   23      2.28      0.00
    9    7   23      0.97      0.00
    0    8   23     -0.18      0.00
    1    8   23      0.49      0.00
    2    8   23     -0.32      0.00
    3    8   23      0.89      0.00
    4    8   23     -0.52      0.00
    5    8   23     -0.19      0.00
    6    8   23      0.71      0.00
    7    8   23      1.74      0.00
    8    8   23     -0.95      0.00
    9    8   23     -1.34      0.00
    1    9   23     -0.11      0.00
    2    9   23     -0.06      0.00
    3    9   23     -0.92      0.00
    4    9   23     -0.87      0.00
    5    9   23     -0.33      0.00
    6    9   23     -0.77      0.00
    7    9   23     -1.55      0.00
    8    9   23     -0.56      0.00
    3   10   23      0.10      0.00
    4   10   23      0.62      0.00
    5   10   23      0.85      0.00
    6   10   23      0.91      0.00
    7   10   23      1.14      0.00
    0    0   24     -0.26      0.00
    1    0   24      0.31      0.00
    2    0   24      0.25      0.00
   -1    1   24     -0.28      0.00
    0    1   24      0.44      0.00
    1    1   24     -0.39      0.00
    2    1   24     -0.64      0.00
    3    1   24     -0.60      0.00
    4    1   24      1.21      0.00
   -1    2   24      0.13      0.00
    0    2   24     -0.46      0.00
    1    2   24     -0.25      0.00
    2    2   24      0.85      0.00
    3    2   24      0.72      0.00
    4    2   24     -0.29      0.00
    5    2   24     -0.75      0.00
   -1    3   24     -0.30      0.00
    0    3   24     -0.20      0.00
    1    3   24      0.46      0.00
    2    3   24     -0.49      0.00
    3    3   24     -0.50      0.00
    4    3   24     -0.62      0.00
    5    3   24      0.08      0.00
    6    3   24      0.60      0.00
   -1    4   24      0.65      0.00
    0    4   24      0.84      0.00
    1    4   24     -0.07      0.00
    2    4   24      0.57      0.00
    3    4   24      0.96      0.00
    4    4   24      0.73      0.00
    5    4   24     -0.21      0.00
    6    4   24      0.33      0.00
    7    4   24      0.94      0.00
   -1    5   24     -0.21      0.00
    0    5   24     -0.83      0.00
    1    5   24     -0.20      0.00
    2    5   24     -0.73      0.00
    3    5   24     -1.34      0.00
    4    5   24     -1.68      0.00
    5    5   24      0.52      0.00
    6    5   24     -0.78      0.00
    7    5   24      0.24      0.00
    0    6   24      0.21      0.00
    1    6   24      0.01      0.00
    2    6   24      0.34      0.00
    3    6   24      0.18      0.00
    4    6   24      2.84      0.00
    5    6   24      0.29      0.00
    6    6   24      1.08      0.00
    7    6   24     -2.08      0.00
    1    7   24      0.55      0.00
    2    7   24      0.24      0.00
    3    7   24      0.84      0.00
    4    7   24     -1.61      0.00
    5    7   24     -0.92      0.00
    6    7   24     -2.04      0.00
    7    7   24      2.44      0.00
    2    8   24     -0.51      0.00
    3    8   24     -0.42      0.00
    4    8   24     -0.43      0.00
    5    8   24      0.56      0.00
    6    8   24      2.08      0.00
    7    8   24     -0.94      0.00
    5    9   24     -0.46      0.00
    2    3   25     -0.21      0.00
    3    3   25     -0.11      0.00
    2    4   25     -0.04      0.00
    3    4   25      0.12      0.00
    4    4   25     -0.80      0.00
    2    5   25     -0.25      0.00
    3    5   25     -0.76      0.00
    4    5   25      1.50      0.00
    3    6   25      1.52      0.00
    4    6   25     -0.06      0.00
    1    0    0     13.37      0.00
   -1    1    0     17.50      0.00
    0    1    0    -83.38      0.00
    1    1    0    -41.50      0.00
    2    1    0    -28.93      0.00
   15    1    0      0.77      0.00
    1    2    0     38.95      0.00
   -2    3    0     14.48      0.00
   16    5    0      0.17      0.00
  -11    6    0     -0.07      0.00
   16    6    0      0.33      0.00
   16    8    0      0.33      0.00
   -6   11    0      0.51      0.00
   14   13    0      0.16      0.00
   13   14    0      0.82      0.00
    1   15    0     -0.24      0.00
    5   16    0     -0.73      0.00
    8   16    0      0.32      0.00
  -11  -15    1     -0.23      0.00
    1  -14    1     -0.46      0.00
    3  -13    1      1.00      0.00
  -15  -11    1     -0.04      0.00
    6  -11    1     -0.72      0.00
   11   -6    1     -0.14      0.00
    1   -3    1     15.10      0.00
   -1   -1    1    -32.10      0.00
    0   -1    1     27.19      0.00
    1   -1    1     64.75      0.00
   -1    0    1     65.44      0.00
    0    0    1     13.17      0.00
    1    0    1    -54.48      0.00
    2    0    1    -28.45      0.00
   -1    1    1    -56.77      0.00
    0    1    1    -46.62      0.00
    1    1    1      6.22      0.00
    2    1    1     31.98      0.00
   15    1    1     -0.46      0.00
   -1    2    1     25.48      0.00
    0    2    1     46.93      0.00
    1    2    1     38.07      0.00
  -13    3    1     -0.30      0.00
    0    3    1    -26.27      0.00
    1    3    1    -43.28      0.00
   16    5    1      0.56      0.00
  -11    6    1      0.30      0.00
   16    9    1     -0.14      0.00
   15   12    1     -0.25      0.00
   12   15    1     -0.48      0.00
    4   16    1     -0.20      0.00
    9   16    1     -0.18      0.00
   -2  -15    2      1.14      0.00
    7  -10    2     -0.74      0.00
   11   -6    2     -0.35      0.00
   -3   -2    2     15.10      0.00
    2   -2    2     20.91      0.00
   -1   -1    2      6.46      0.00
    0   -1    2     66.10      0.00
   -1    0    2     16.74      0.00
    0    0    2    -75.40      0.00
    1    0    2    -20.37      0.00
  -14    1    2      0.58      0.00
   -1    1    2    -29.74      0.00
    0    1    2     39.94      0.00
    1    1    2     30.38      0.00
   15    1    2     -0.77      0.00
    1    2    2    -18.38      0.00
    2    2    2    -45.47      0.00
  -13    3    2     -0.25      0.00
    1    3    2     -1.49      0.00
   16    4    2     -0.10      0.00
  -11    6    2      0.47      0.00
   10   16    2      0.29      0.00
   -3  -15    3      0.59      0.00
  -13  -13    3     -0.04      0.00
  -15  -10    3      0.06      0.00
    8   -9    3      0.34      0.00
    9   -8    3     -0.21      0.00
   10   -7    3     -0.03      0.00
   13   -3    3     -0.12      0.00
  -15   -2    3     -0.52      0.00
    0    1    3     17.84      0.00
   15    1    3      0.48      0.00
    0    2    3    -12.46      0.00
    2    4    3     -5.33      0.00
   16    4    3     -0.03      0.00
  -11    6    3     -0.27      0.00
   16   10    3      0.47      0.00
   -5   12    3      0.57      0.00
    3   16    3      0.04      0.00
   -8  -15    4      0.80      0.00
   -4  -15    4     -0.04      0.00
  -11  -14    4     -0.21      0.00
    2  -13    4     -0.60      0.00
  -15   -9    4     -0.41      0.00
   13   -3    4     -0.33      0.00
   15    1    4     -0.13      0.00
   16    4    4      0.58      0.00
   16   10    4      0.11      0.00
   -5   12    4     -0.70      0.00
   14   14    4      0.35      0.00
    0   15    4      0.09      0.00
    3   16    4     -0.32      0.00
   11   16    4     -0.26      0.00
   -1  -14    5      0.61      0.00
  -12  -13    5     -0.15      0.00
  -13  -12    5      0.49      0.00
    5  -11    5      0.50      0.00
  -15   -4    5     -0.44      0.00
   14   -1    5     -0.45      0.00
  -14    0    5     -0.65      0.00
   15    1    5     -0.39      0.00
  -10    7    5      0.77      0.00
   -5   12    5     -0.92      0.00
   14   14    5     -0.03      0.00
    0   15    5      0.00      0.00
   13   15    5      0.30      0.00
    3   16    5      0.29      0.00
   11   16    5     -0.01      0.00
   -2  -14    6      0.06      0.00
    1  -13    6     -0.40      0.00
    3  -12    6      1.04      0.00
   12   -4    6     -0.04      0.00
  -13    2    6      0.29      0.00
  -12    4    6     -0.06      0.00
   14   14    6     -0.88      0.00
    0   15    6      0.14      0.00
   13   15    6      0.56      0.00
   11   16    6      0.85      0.00
   -8  -14    7     -0.12      0.00
   -3  -14    7     -0.10      0.00
  -12  -12    7     -0.09      0.00
  -14   -9    7      0.13      0.00
    7   -9    7     -0.23      0.00
   11   -5    7      0.22      0.00
  -14   -1    7     -0.42      0.00
   16    5    7      0.07      0.00
   -9    8    7      1.32      0.00
   -8    9    7     -0.77      0.00
   -7   10    7      0.77      0.00
   16   10    7      0.30      0.00
   -6   11    7     -0.34      0.00
   13   15    7      0.00      0.00
    2  -12    8     -0.32      0.00
  -13  -10    8      0.32      0.00
    9   -7    8     -0.55      0.00
   10   -6    8      0.17      0.00
  -14   -2    8      0.18      0.00
   13   -2    8      0.45      0.00
  -13    1    8     -0.45      0.00
   15    2    8      0.25      0.00
  -11    5    8     -0.18      0.00
   16   10    8     -0.20      0.00
   14   14    8      0.58      0.00
   13   15    8     -0.08      0.00
    3   16    8      0.41      0.00
   11   16    8     -0.87      0.00
   -8  -13    9     -0.86      0.00
   -2  -13    9     -1.00      0.00
    5  -10    9      0.08      0.00
  -13   -9    9     -0.31      0.00
   14    0    9      0.81      0.00
   16    6    9      0.29      0.00
   16    9    9     -0.21      0.00
   -3   13    9     -1.23      0.00
   14   14    9      0.55      0.00
   13   15    9      0.01      0.00
    3   16    9      0.07      0.00
   11   16    9     -0.79      0.00
   -6  -13   10      0.33      0.00
   -5  -13   10      1.51      0.00
   -4  -13   10      0.30      0.00
   16    7   10     -0.82      0.00
   16    8   10      0.50      0.00
   16    9   10     -0.50      0.00
   11   16   10      0.24      0.00
   -8  -12   11      0.83      0.00
   -1  -12   11      0.34      0.00
  -10  -11   11      1.33      0.00
  -11  -10   11      0.22      0.00
  -13   -6   11      0.01      0.00
    9   -6   11     -0.25      0.00
   10   -5   11     -1.05      0.00
  -13   -2   11      0.88      0.00
   13   -1   11     -0.37      0.00
   14    1   11      0.46      0.00
   -4   12   11     -0.69      0.00
   15   12   11      0.32      0.00
   -1   14   11     -0.29      0.00
   13   14   11     -0.42      0.00
    1   15   11     -0.17      0.00
    4   16   11      0.15      0.00
   -5  -12   12     -0.06      0.00
   -4  -12   12      0.21      0.00
    3  -10   12     -0.33      0.00
  -11   -9   12      0.10      0.00
   12   -2   12      0.28      0.00
  -11    3   12      0.19      0.00
   15    4   12     -0.08      0.00
  -10    5   12     -0.51      0.00
   -7    9   12      0.91      0.00
   -6   10   12      0.05      0.00
   10   16   12      0.92      0.00
   -7  -11   13     -0.23      0.00
   -1  -11   13      0.25      0.00
    2  -10   13      0.18      0.00
    4   -9   13      0.04      0.00
  -11   -8   13      0.09      0.00
    8   -6   13     -0.18      0.00
  -12   -5   13     -0.05      0.00
   10   -4   13     -0.82      0.00
  -12   -1   13     -0.83      0.00
   13    0   13     -0.48      0.00
  -11    2   13     -0.49      0.00
   14    2   13      0.71      0.00
   15    5   13      0.48      0.00
   -9    6   13     -0.08      0.00
   15   11   13      0.21      0.00
   -2   13   13     -0.68      0.00
   14   13   13     -0.26      0.00
    2   15   13      1.08      0.00
   12   15   13     -0.44      0.00
    6   16   13     -0.36      0.00
    9   16   13     -0.24      0.00
   -8  -10   14     -0.33      0.00
    1  -10   14      0.67      0.00
    3   -9   14     -0.14      0.00
   12   -1   14     -0.38      0.00
  -11    1   14     -0.72      0.00
   14    3   14     -0.30      0.00
   15    7   14     -0.14      0.00
   15    8   14      0.28      0.00
   15    9   14      0.22      0.00
   -3   12   14     -0.07      0.00
   13   12   14     -0.11      0.00
   13   13   14      0.18      0.00
   -6  -10   15      0.16      0.00
   -1  -10   15     -0.91      0.00
   -8   -9   15      0.67      0.00
    2   -9   15     -0.15      0.00
    4   -8   15      0.55      0.00
  -10   -7   15     -0.46      0.00
    8   -5   15     -0.13      0.00
  -11   -4   15     -0.91      0.00
    9   -4   15     -0.13      0.00
   10   -3   15     -0.88      0.00
  -11   -2   15     -0.56      0.00
  -11   -1   15      0.07      0.00
   14    4   15     -0.20      0.00
   13   11   15      0.52      0.00
   13   12   15     -0.49      0.00
   -1   13   15     -0.55      0.00
   13   13   15      0.54      0.00
   -8   -8   16      0.18      0.00
    3   -8   16      0.21      0.00
   -9   -7   16     -0.44      0.00
  -10   -5   16     -1.02      0.00
   11   -1   16     -0.90      0.00
  -10    1   16      0.04      0.00
   14    5   16     -0.63      0.00
   -7    7   16      0.66      0.00
   13   11   16      0.56      0.00
   14   11   16     -0.23      0.00
   -2   12   16     -0.68      0.00
   13   12   16     -0.37      0.00
   -8   -7   17      0.88      0.00
   14    8   17      0.25      0.00
   13   11   17     -0.08      0.00
   13   12   17     -0.04      0.00
   12   13   17      0.06      0.00
   11   14   17     -0.91      0.00
    7   15   17      0.15      0.00
   -4   -8   18     -0.47      0.00
   -3   -8   18      0.05      0.00
   -2   -8   18     -0.03      0.00
   -1   -8   18      0.48      0.00
    7   -4   18     -0.13      0.00
   -9   -3   18      0.31      0.00
   -9   -2   18     -0.11      0.00
    9   -2   18     -0.13      0.00
   -9   -1   18     -0.29      0.00
   10   -1   18     -1.28      0.00
   -9    0   18      0.19      0.00
   13    5   18     -1.02      0.00
   -5    8   18      0.04      0.00
   -2   11   18     -0.14      0.00
    1   13   18      0.99      0.00
   10   14   18     -0.62      0.00
   -4   -7   19      0.85      0.00
    0   -7   19      0.19      0.00
   -6   -6   19      0.09      0.00
   -7   -5   19      0.16      0.00
    6   -4   19     -0.51      0.00
   -8   -3   19      0.05      0.00
   10    0   19     -0.01      0.00
   -8    1   19      0.06      0.00
   -7    4   19      0.45      0.00
   -6    6   19      0.41      0.00
   13    8   19      0.18      0.00
   12   10   19      0.13      0.00
    6   14   19     -0.05      0.00
    7   14   19      0.29      0.00
    8   14   19      1.30      0.00
   -3   -6   20     -0.59      0.00
    0   -6   20      0.40      0.00
    3   -5   20      0.76      0.00
    5   -4   20     -0.13      0.00
   -7   -3   20     -0.07      0.00
   10    1   20      0.39      0.00
   -7    2   20     -0.40      0.00
   11    3   20      0.77      0.00
   12    6   20     -0.61      0.00
    4   13   20      0.17      0.00
    9   13   20      1.80      0.00
   -3   -5   21      1.06      0.00
   -2   -5   21     -0.65      0.00
    0   -5   21     -0.97      0.00
    5   -3   21     -0.64      0.00
   -6   -2   21      0.30      0.00
    9    1   21     -0.21      0.00
   -5    5   21     -0.67      0.00
   11    5   21      0.02      0.00
   11   10   21      1.02      0.00
    1   11   21     -0.50      0.00
    3   12   21      0.45      0.00
    9   12   21      0.84      0.00
   -1   -4   22      0.07      0.00
    0   -4   22      0.68      0.00
    3   -3   22      0.67      0.00
    5   -2   22      0.25      0.00
   -5   -1   22     -0.54      0.00
    8    1   22     -0.68      0.00
   -5    2   22      0.55      0.00
   -4    5   22      0.17      0.00
   10   10   22     -0.69      0.00
    9   11   22     -0.70      0.00
   -2   -2   23      0.52      0.00
   -3   -1   23      0.71      0.00
    9    5   23      0.68      0.00
    9    9   23      1.76      0.00
    8   10   23      1.25      0.00
   -1    0   24      0.52      0.00
    3    0   24      0.26      0.00
   -2    1   24     -0.23      0.00
    5    1   24      0.77      0.00
   -2    2   24      0.21      0.00
    6    2   24     -0.47      0.00
   -2    3   24     -0.16      0.00
    8    6   24      1.39      0.00
    0    7   24      0.02      0.00
    8    7   24     -0.64      0.00
    3    9   24     -0.15      0.00
    4    9   24      0.59      0.00
    6    9   24     -0.91      0.00
    2    2   25      0.64      0.00
    1    3   25      0.04      0.00
    4    3   25     -0.08      0.00
    1    4   25     -0.29      0.00
    5    4   25     -0.14      0.00
    1    5   25      0.09      0.00
    5    5   25     -0.14      0.00
    2    6   25      0.50      0.00
    5    6   25     -0.35      0.00
    4    7   25     -1.53      0.00
    0    0    0      0.00      0.00
# SQUEEZE RESULTS (Version = 201118)
# Note: Data are Listed for all Voids in the P1 Unit Cell
# i.e. Centre of Gravity, Solvent Accessible Volume,
# Recovered number of Electrons in the Void and
# Details about the Squeezed Material
loop_
  _platon_squeeze_void_nr
  _platon_squeeze_void_average_x
  _platon_squeeze_void_average_y
  _platon_squeeze_void_average_z
  _platon_squeeze_void_volume
  _platon_squeeze_void_count_electrons
  _platon_squeeze_void_content
   1  0.262  0.432  0.235       309        53 ' '
   2 -0.263  0.569  0.765       311        53 ' '
# Missing Reflections Below sin(th)/lambda = 0.25
loop_
  _platon_missing_refln_index_h
  _platon_missing_refln_index_k
  _platon_missing_refln_index_l
  _platon_missing_refln_theta
    1    0    0     1.666
   -1    1    0     2.804
    0    1    0     1.664
    1    1    0     1.796
    2    1    0     3.039
    1    2    0     3.036
   -2    3    0     7.082
    1   -3    1     6.136
   -1   -1    1     2.282
    0   -1    1     2.119
    1   -1    1     3.054
   -1    0    1     2.011
    0    0    1     1.004
    1    0    1     1.877
    2    0    1     3.406
   -1    1    1     2.902
    0    1    1     1.750
    1    1    1     1.806
    2    1    1     3.002
   -1    2    1     4.284
    0    2    1     3.266
    1    2    1     2.922
    0    3    1     4.882
    1    3    1     4.402
   -3   -2    2     5.538
    2   -2    2     6.116
   -1   -1    2     3.034
    0   -1    2     2.868
   -1    0    2     2.707
    0    0    2     2.008
    1    0    2     2.507
   -1    1    2     3.316
    0    1    2     2.318
    1    1    2     2.305
    1    2    2     3.143
    2    2    2     3.613
    1    3    2     4.473
    0    1    3     3.115
    0    2    3     3.986
    2    4    3     5.994
_platon_squeeze_void_probe_radius                  1.20
_platon_squeeze_details
)
TITL 1                P -1         R = 0.06
CELL   13.7019   13.9995   21.1430     74.26     79.16     63.49
SPGR P-1
# Solvent Accessible Volume =       619
# Electrons Found in S.A.V. =       104
# Note: Atoms in Void are Labelled as Cxxx and Qxxx for all Others
C101 0.146 0.394 0.221 !       2.23 eA-3
C102 0.046 0.405 0.261 !       1.64 eA-3
C103 0.138 0.403 0.122 !       1.64 eA-3
C104 0.054 0.374 0.241 !       1.49 eA-3
Q105 0.464 0.541 0.247 !       1.44 eA-3
Q106 0.403 0.640 0.261 !       1.34 eA-3
C107 0.266 0.463 0.160 !       1.22 eA-3
C108 0.205 0.435 0.283 !       1.17 eA-3
C109 0.093 0.382 0.326 !       1.13 eA-3
Q110 0.125 0.812 0.374 !       0.92 eA-3
C111 0.313 0.303 0.285 !       0.80 eA-3
Q112 0.123 0.851 0.247 !       0.64 eA-3
Q113 0.534 0.333 0.032 !       0.53 eA-3
Q114 0.597 0.372 0.048 !       0.52 eA-3
Q115 0.112 0.492 0.439 !       0.51 eA-3
Q116 0.283 0.662 0.187 !       0.50 eA-3
)
;
_shelx_fab_checksum              20030
loop_
_space_group_symop_operation_xyz
'x, y, z'
'-x, -y, -z'
loop_
_atom_site_label
_atom_site_type_symbol
_atom_site_fract_x
_atom_site_fract_y
_atom_site_fract_z
_atom_site_U_iso_or_equiv
_atom_site_adp_type
_atom_site_occupancy
_atom_site_site_symmetry_order
_atom_site_calc_flag
_atom_site_refinement_flags_posn
_atom_site_refinement_flags_adp
_atom_site_refinement_flags_occupancy
_atom_site_disorder_assembly
_atom_site_disorder_group
Zn1 Zn 0.86013(3) 0.23013(3) -0.59459(2) 0.04601(12) Uani 1 1 d . . . . .
Zn2 Zn 0.89035(3) 0.17631(3) -0.75498(2) 0.04381(12) Uani 1 1 d . . . . .
Zn3 Zn 0.97127(3) 0.20824(3) 0.07652(2) 0.04448(12) Uani 1 1 d . . . . .
O2 O 0.8008(2) 0.1182(2) -0.57834(14) 0.0658(7) Uani 1 1 d . . . . .
O4 O 0.03749(17) 0.09889(19) -0.72754(12) 0.0551(6) Uani 1 1 d . . . . .
O7 O 0.87457(19) 1.07214(18) 0.20663(12) 0.0577(6) Uani 1 1 d . . . . .
O8 O 0.85476(18) 1.15503(19) 0.10099(12) 0.0539(6) Uani 1 1 d . . . . .
O9 O 0.89301(19) 0.35727(19) 0.09206(14) 0.0641(7) Uani 1 1 d . . . . .
N10 N 0.9531(2) 0.2109(2) -0.26294(13) 0.0472(6) Uani 1 1 d . . . . .
C11 C 0.8433(2) 1.0874(2) 0.15134(17) 0.0423(7) Uani 1 1 d . . . . .
C12 C 0.0696(2) 0.1127(2) -0.67990(17) 0.0434(7) Uani 1 1 d . . . . .
O6 O 0.77542(18) 0.19773(19) -0.68276(13) 0.0607(6) Uani 1 1 d . . . . .
O12 O 0.8464(2) 0.32593(19) 0.19938(14) 0.0724(8) Uani 1 1 d . . . . .
N4 N 0.9727(2) 0.2297(2) -0.02246(14) 0.0488(7) Uani 1 1 d . . . . .
C16 C 0.6793(2) 0.9020(2) 0.13198(18) 0.0468(8) Uani 1 1 d . . . . .
C17 C 0.7876(2) 1.0209(2) 0.14399(16) 0.0409(7) Uani 1 1 d . . . . .
N3 N 0.9126(2) 0.2066(2) -0.50422(14) 0.0539(7) Uani 1 1 d . . . . .
C19 C 0.7879(2) 0.5074(2) 0.14044(16) 0.0444(7) Uani 1 1 d . . . . .
C20 C 0.5054(3) 0.9003(3) 0.12064(17) 0.0478(8) Uani 1 1 d . . . . .
O1 O 0.00920(17) 0.1704(2) -0.64071(14) 0.0662(7) Uani 1 1 d . . . . .
O5 O 0.8258(2) -0.6139(2) -0.62945(14) 0.0763(8) Uani 1 1 d . . . . .
N2 N 0.6177(2) 0.8453(2) 0.12657(17) 0.0607(8) Uani 1 1 d . . . . .
C24 C 0.5749(3) -0.2243(3) -0.6265(2) 0.0565(9) Uani 1 1 d . . . . .
C25 C 0.2798(3) 1.0156(3) 0.10776(17) 0.0520(8) Uani 1 1 d . . . . .
C27 C 0.1894(2) 0.0563(2) -0.67094(16) 0.0416(7) Uani 1 1 d . . . . .
C28 C 0.7626(3) 0.1312(3) -0.6307(2) 0.0537(9) Uani 1 1 d . . . . .
C29 C 0.4103(2) -0.0524(3) -0.64907(19) 0.0508(9) Uani 1 1 d . . . . .
C30 C 0.5807(2) -0.0476(3) -0.63350(19) 0.0525(9) Uani 1 1 d . . . . .
N1 N 0.5230(2) -0.1092(2) -0.63618(18) 0.0615(9) Uani 1 1 d . . . . .
C32 C 0.8473(2) 0.3872(3) 0.14450(19) 0.0469(8) Uani 1 1 d . . . . .
C33 C 0.2611(2) -0.0183(3) -0.70855(17) 0.0502(8) Uani 1 1 d . . . . .
H33A H 0.235410 -0.032001 -0.741324 0.060 Uiso 1 1 calc R U . . .
C34 C 0.3399(3) 0.0219(3) -0.6124(2) 0.0654(11) Uani 1 1 d . . . . .
H34A H 0.365807 0.036148 -0.579939 0.078 Uiso 1 1 calc R U . . .
C35 C 0.6743(2) 0.7300(2) 0.13176(18) 0.0484(8) Uani 1 1 d . . . . .
C36 C 0.9820(3) 0.2439(3) -0.15736(17) 0.0491(8) Uani 1 1 d . . . . .
C37 C 0.6976(2) 0.0707(3) -0.63187(18) 0.0489(8) Uani 1 1 d . . . . .
C38 C 0.7659(3) 0.9504(3) 0.19828(18) 0.0561(9) Uani 1 1 d . . . . .
H38A H 0.787819 0.942160 0.239194 0.067 Uiso 1 1 calc R U . . .
N8 N 1.0445(3) 0.2963(3) -0.33153(15) 0.0690(9) Uani 1 1 d . . . . .
C40 C 0.6863(3) -0.2769(3) -0.64280(18) 0.0542(9) Uani 1 1 d . . . . .
H40A H 0.727829 -0.236576 -0.658227 0.065 Uiso 1 1 calc R U . . .
C41 C 0.9931(3) 0.2528(3) -0.22817(17) 0.0506(8) Uani 1 1 d . . . . .
C42 C 1.0195(3) 0.2429(3) -0.44506(18) 0.0600(10) Uani 1 1 d . . . . .
H42A H 1.076016 0.262951 -0.446059 0.072 Uiso 1 1 calc R U . . .
C43 C 0.7072(3) -0.0225(3) -0.58260(19) 0.0580(9) Uani 1 1 d . . . . .
H43A H 0.751998 -0.044558 -0.548622 0.070 Uiso 1 1 calc R U . . .
C44 C 0.9626(3) 0.2203(3) -0.38575(17) 0.0514(8) Uani 1 1 d . . . . .
C45 C 0.6287(3) 0.1034(3) -0.68029(19) 0.0546(9) Uani 1 1 d . . . . .
H45A H 0.622195 0.165012 -0.713149 0.065 Uiso 1 1 calc R U . . .
C46 C 0.3411(3) 1.0662(3) 0.1165(2) 0.0653(10) Uani 1 1 d . . . . .
H46A H 0.306770 1.139838 0.118079 0.078 Uiso 1 1 calc R U . . .
C47 C 0.9928(3) 0.2357(3) -0.50173(19) 0.0624(10) Uani 1 1 d . . . . .
H47A H 1.032025 0.251803 -0.540906 0.075 Uiso 1 1 calc R U . . .
N7 N 1.0481(3) 0.3044(3) -0.26881(15) 0.0654(8) Uani 1 1 d . . . . .
O3 O 0.6833(3) -0.6297(2) -0.56918(19) 0.0992(11) Uani 1 1 d . . . . .
C50 C 0.4439(3) 0.8483(3) 0.11254(19) 0.0566(9) Uani 1 1 d . . . . .
H50A H 0.477995 0.774641 0.111095 0.068 Uiso 1 1 calc R U . . .
N5 N 0.8871(3) 0.1534(3) -0.23926(14) 0.0699(9) Uani 1 1 d . . . . .
H5A H 0.867139 0.140935 -0.197899 0.084 Uiso 1 1 calc R U . . .
H5B H 0.866681 0.130668 -0.266136 0.084 Uiso 1 1 calc DR U . . .
C52 C 0.7357(3) -0.3891(3) -0.63613(18) 0.0574(9) Uani 1 1 d . . . . .
H52A H 0.809883 -0.423691 -0.648348 0.069 Uiso 1 1 calc R U . . .
C53 C 0.2304(3) 0.0757(3) -0.6238(2) 0.0636(10) Uani 1 1 d . . . . .
H53A H 0.183258 0.126397 -0.598812 0.076 Uiso 1 1 calc R U . . .
C54 C 0.3335(3) 0.9047(3) 0.10669(18) 0.0563(9) Uani 1 1 d . . . . .
H54A H 0.293654 0.868350 0.101912 0.068 Uiso 1 1 calc R U . . .
C55 C 0.9858(3) 0.2410(3) -0.32784(17) 0.0520(8) Uani 1 1 d . . . . .
C56 C 0.6757(3) -0.4500(3) -0.6115(2) 0.0615(10) Uani 1 1 d . . . . .
C57 C 0.6505(3) -0.0811(3) -0.5845(2) 0.0614(10) Uani 1 1 d . . . . .
H57A H 0.659013 -0.144174 -0.552534 0.074 Uiso 1 1 calc R U . . .
C58 C 0.1609(3) 1.0768(3) 0.10065(18) 0.0592(9) Uani 1 1 d . . . . .
C59 C 0.7038(3) 0.9698(3) 0.07731(19) 0.0629(10) Uani 1 1 d . . . . .
H59A H 0.684803 0.975087 0.036106 0.075 Uiso 1 1 calc R U . . .
C60 C 0.7310(4) -0.5728(3) -0.6027(2) 0.0699(11) Uani 1 1 d . . . . .
C61 C 0.9490(3) 0.1715(3) -0.11184(18) 0.0605(9) Uani 1 1 d . . . . .
H61A H 0.928945 0.125505 -0.125640 0.073 Uiso 1 1 calc R U . . .
C62 C 0.7565(3) 1.0298(3) 0.08409(18) 0.0619(10) Uani 1 1 d . . . . .
H62A H 0.771212 1.077226 0.047356 0.074 Uiso 1 1 calc R U . . .
C64 C 0.5683(3) 0.0466(3) -0.68144(19) 0.0552(9) Uani 1 1 d . . . . .
H64A H 0.520094 0.071179 -0.713876 0.066 Uiso 1 1 calc R U . . .
C65 C 0.7111(3) 0.8921(3) 0.1911(2) 0.0628(10) Uani 1 1 d . . . . .
H65A H 0.695790 0.845066 0.227811 0.075 Uiso 1 1 calc R U . . .
C66 C 0.3697(3) -0.0715(3) -0.6972(2) 0.0595(10) Uani 1 1 d . . . . .
H66A H 0.417132 -0.121594 -0.722426 0.071 Uiso 1 1 calc R U . . .
C68 C 0.7834(3) 0.5796(3) 0.08120(19) 0.0672(11) Uani 1 1 d . . . . .
H68A H 0.818626 0.553339 0.043321 0.081 Uiso 1 1 calc R U . . .
C69 C 0.9456(3) 0.1669(3) -0.04641(19) 0.0640(10) Uani 1 1 d . . . . .
H69A H 0.922936 0.116885 -0.016609 0.077 Uiso 1 1 calc R U . . .
C70 C 0.4514(3) 1.0107(3) 0.1229(2) 0.0645(11) Uani 1 1 d . . . . .
H70A H 0.490585 1.046933 0.128837 0.077 Uiso 1 1 calc R U . . .
C71 C 0.7278(4) 0.6895(3) 0.0772(2) 0.0718(11) Uani 1 1 d . . . . .
H71A H 0.726496 0.737363 0.036767 0.086 Uiso 1 1 calc R U . . .
C72 C 0.5155(3) -0.2864(3) -0.6006(3) 0.0772(13) Uani 1 1 d . . . . .
H72A H 0.441324 -0.252396 -0.588122 0.093 Uiso 1 1 calc R U . . .
C74 C 0.5656(3) -0.3971(3) -0.5934(3) 0.0816(14) Uani 1 1 d . . . . .
H74A H 0.524858 -0.437894 -0.576051 0.098 Uiso 1 1 calc R U . . .
C76 C 1.0087(4) 0.2964(4) -0.0664(2) 0.0754(12) Uani 1 1 d . . . . .
H76A H 1.030665 0.339637 -0.051173 0.090 Uiso 1 1 calc R U . . .
C80 C 0.8602(4) 0.1817(4) -0.4476(2) 0.0792(13) Uani 1 1 d . . . . .
H80A H 0.805874 0.159114 -0.447879 0.095 Uiso 1 1 calc R U . . .
C81 C 0.8814(4) 0.1873(4) -0.3904(2) 0.0882(15) Uani 1 1 d . . . . .
H81A H 0.841517 0.168937 -0.352210 0.106 Uiso 1 1 calc DR U . . .
C83 C 1.0155(4) 0.3053(4) -0.1325(2) 0.0784(13) Uani 1 1 d . . . . .
H83A H 1.042683 0.352751 -0.161088 0.094 Uiso 1 1 calc R U . . .
C84 C 0.6798(4) 0.6587(3) 0.1909(2) 0.0771(13) Uani 1 1 d . . . . .
H84A H 0.645024 0.685066 0.228808 0.092 Uiso 1 1 calc R U . . .
C85 C 0.7367(4) 0.5475(3) 0.1948(2) 0.0789(13) Uani 1 1 d . . . . .
H85A H 0.739746 0.499642 0.235481 0.095 Uiso 1 1 calc R U . . .
O10 O 0.1196(2) 1.1775(2) 0.09508(17) 0.0865(9) Uani 1 1 d . . . . .
O11 O 0.1042(2) 1.0325(2) 0.09739(19) 0.1004(11) Uani 1 1 d . . . . .
O21 O 0.7603(4) -0.2740(4) -0.4577(2) 0.1367(16) Uani 1 1 d . . . . .
O20 O 0.4007(7) -0.3315(7) 0.0521(6) 0.255(4) Uani 1 1 d . . . . .
N9 N 0.6694(9) -0.3757(9) -0.4399(3) 0.203(4) Uani 1 1 d . . . . .
N6 N 0.4473(9) -0.3291(9) -0.0540(6) 0.214(4) Uani 1 1 d . U . . .
C207 C 0.7468(9) -0.3587(10) -0.4524(4) 0.166(4) Uani 1 1 d . . . . .
C206 C 0.8504(7) -0.4635(7) -0.4688(4) 0.207(5) Uani 1 1 d . . . . .
H20B H 0.913785 -0.447828 -0.479032 0.310 Uiso 1 1 calc R U . . .
H20C H 0.861974 -0.523273 -0.431372 0.310 Uiso 1 1 calc R U . . .
H20D H 0.838216 -0.482676 -0.505962 0.310 Uiso 1 1 calc R U . . .
C205 C 0.3899(9) -0.3565(7) -0.0030(10) 0.192(5) Uani 1 1 d . . . . .
C204 C 0.5624(6) -0.2703(9) -0.4248(5) 0.237(6) Uani 1 1 d . . . . .
H20E H 0.500044 -0.287590 -0.414728 0.356 Uiso 1 1 calc R U . . .
H20F H 0.572496 -0.248834 -0.387993 0.356 Uiso 1 1 calc R U . . .
H20G H 0.550599 -0.211419 -0.462848 0.356 Uiso 1 1 calc R U . . .
C203 C 0.3205(6) -0.4162(7) 0.0020(6) 0.235(6) Uani 1 1 d . . . . .
H20H H 0.287031 -0.425411 0.046066 0.352 Uiso 1 1 calc R U . . .
H20I H 0.264651 -0.374859 -0.028412 0.352 Uiso 1 1 calc R U . . .
H20J H 0.365200 -0.486473 -0.008410 0.352 Uiso 1 1 calc R U . . .
C202 C 0.5167(11) -0.2798(9) -0.0532(8) 0.312(10) Uani 1 1 d . . . . .
H20K H 0.551112 -0.266651 -0.096646 0.469 Uiso 1 1 calc R U . . .
H20L H 0.474600 -0.211662 -0.039537 0.469 Uiso 1 1 calc R U . . .
H20M H 0.571676 -0.327287 -0.023020 0.469 Uiso 1 1 calc R U . . .
C201 C 0.6597(10) -0.4818(9) -0.4287(5) 0.242(6) Uani 1 1 d . . . . .
H20N H 0.584162 -0.469332 -0.419217 0.362 Uiso 1 1 calc R U . . .
H20O H 0.688252 -0.511523 -0.467622 0.362 Uiso 1 1 calc R U . . .
H20Q H 0.700479 -0.532399 -0.392239 0.362 Uiso 1 1 calc R U . . .
C200 C 0.4236(10) -0.3595(10) -0.1157(6) 0.287(7) Uani 1 1 d . U . . .
H20P H 0.465782 -0.339635 -0.154305 0.431 Uiso 1 1 calc R U . . .
H20T H 0.443644 -0.436637 -0.106812 0.431 Uiso 1 1 calc R U . . .
H20R H 0.347184 -0.320444 -0.122762 0.431 Uiso 1 1 calc R U . . .
O1W O 0.3002(5) -0.3412(5) 0.1896(4) 0.220(3) Uani 1 1 d . . . . .
loop_
_atom_site_aniso_label
_atom_site_aniso_U_11
_atom_site_aniso_U_22
_atom_site_aniso_U_33
_atom_site_aniso_U_23
_atom_site_aniso_U_13
_atom_site_aniso_U_12
Zn1 0.0452(2) 0.0418(2) 0.0564(3) -0.01686(17) -0.01136(17) -0.01634(17)
Zn2 0.0456(2) 0.0365(2) 0.0518(2) -0.00870(16) -0.02003(16) -0.01349(16)
Zn3 0.0430(2) 0.0429(2) 0.0520(2) -0.01582(17) -0.00504(16) -0.01811(16)
O2 0.0664(16) 0.0591(16) 0.086(2) -0.0190(14) -0.0228(14) -0.0302(13)
O4 0.0414(12) 0.0619(15) 0.0613(15) -0.0185(12) -0.0195(11) -0.0119(11)
O7 0.0748(16) 0.0479(14) 0.0611(16) -0.0118(11) -0.0275(13) -0.0264(12)
O8 0.0566(14) 0.0606(15) 0.0551(15) -0.0084(12) -0.0092(11) -0.0341(12)
O9 0.0631(15) 0.0457(14) 0.0808(19) -0.0270(13) 0.0004(13) -0.0152(12)
N10 0.0540(15) 0.0476(16) 0.0472(17) -0.0087(13) -0.0089(12) -0.0264(13)
C11 0.0349(15) 0.0376(18) 0.055(2) -0.0154(15) -0.0102(14) -0.0099(13)
C12 0.0389(16) 0.0359(17) 0.058(2) -0.0098(15) -0.0129(15) -0.0142(14)
O6 0.0498(13) 0.0480(14) 0.0867(19) -0.0162(13) 0.0022(12) -0.0245(11)
O12 0.103(2) 0.0389(14) 0.0678(18) -0.0086(13) -0.0274(15) -0.0166(13)
N4 0.0518(16) 0.0484(16) 0.0533(17) -0.0160(14) -0.0038(13) -0.0243(13)
C16 0.0383(16) 0.0292(16) 0.074(2) -0.0144(16) -0.0172(16) -0.0082(13)
C17 0.0386(16) 0.0334(16) 0.052(2) -0.0145(14) -0.0078(14) -0.0117(13)
N3 0.0582(17) 0.0578(18) 0.0555(19) -0.0180(14) -0.0087(14) -0.0277(14)
C19 0.0429(17) 0.0358(17) 0.054(2) -0.0137(15) -0.0129(14) -0.0103(14)
C20 0.0488(18) 0.0361(18) 0.062(2) -0.0088(15) -0.0166(15) -0.0167(14)
O1 0.0361(12) 0.0732(17) 0.095(2) -0.0487(16) -0.0055(12) -0.0100(12)
O5 0.087(2) 0.0418(15) 0.082(2) -0.0201(13) -0.0151(16) -0.0045(14)
N2 0.0468(15) 0.0309(15) 0.109(3) -0.0160(15) -0.0287(15) -0.0113(12)
C24 0.0421(18) 0.0366(18) 0.094(3) -0.0130(18) -0.0163(17) -0.0151(15)
C25 0.0473(18) 0.044(2) 0.060(2) -0.0108(16) -0.0113(16) -0.0134(15)
C27 0.0360(15) 0.0374(17) 0.052(2) -0.0118(14) -0.0077(14) -0.0126(13)
C28 0.0394(17) 0.046(2) 0.082(3) -0.028(2) -0.0052(18) -0.0145(15)
C29 0.0357(16) 0.0368(18) 0.082(3) -0.0144(17) -0.0155(16) -0.0113(14)
C30 0.0363(16) 0.0401(19) 0.085(3) -0.0204(18) -0.0105(16) -0.0132(14)
N1 0.0359(14) 0.0374(16) 0.119(3) -0.0221(16) -0.0225(15) -0.0127(12)
C32 0.0421(17) 0.0385(18) 0.065(2) -0.0119(17) -0.0189(16) -0.0149(14)
C33 0.0454(18) 0.058(2) 0.057(2) -0.0237(17) -0.0097(15) -0.0209(16)
C34 0.0445(19) 0.074(3) 0.083(3) -0.039(2) -0.0222(18) -0.0107(18)
C35 0.0444(17) 0.0302(17) 0.076(3) -0.0133(16) -0.0195(16) -0.0131(14)
C36 0.0515(19) 0.049(2) 0.052(2) -0.0098(16) -0.0107(15) -0.0234(16)
C37 0.0408(17) 0.0441(19) 0.068(2) -0.0202(17) -0.0067(16) -0.0173(15)
C38 0.071(2) 0.055(2) 0.055(2) -0.0081(17) -0.0167(17) -0.0340(18)
N8 0.091(2) 0.094(3) 0.051(2) -0.0121(17) -0.0091(16) -0.065(2)
C40 0.0422(18) 0.045(2) 0.075(3) -0.0112(17) -0.0117(16) -0.0159(15)
C41 0.061(2) 0.052(2) 0.047(2) -0.0070(16) -0.0114(16) -0.0308(17)
C42 0.053(2) 0.087(3) 0.056(2) -0.025(2) -0.0026(17) -0.0382(19)
C43 0.052(2) 0.057(2) 0.071(3) -0.0128(19) -0.0215(17) -0.0225(17)
C44 0.0549(19) 0.056(2) 0.050(2) -0.0138(16) -0.0122(16) -0.0251(16)
C45 0.0520(19) 0.0433(19) 0.070(2) -0.0085(17) -0.0109(17) -0.0209(16)
C46 0.059(2) 0.041(2) 0.095(3) -0.0227(19) -0.027(2) -0.0076(17)
C47 0.057(2) 0.087(3) 0.054(2) -0.023(2) -0.0010(17) -0.037(2)
N7 0.086(2) 0.081(2) 0.0521(19) -0.0099(16) -0.0105(16) -0.0555(19)
O3 0.087(2) 0.0494(17) 0.162(3) -0.0088(19) -0.034(2) -0.0278(16)
C50 0.0511(19) 0.0330(18) 0.086(3) -0.0130(17) -0.0170(18) -0.0133(15)
N5 0.106(3) 0.096(2) 0.0461(18) -0.0097(17) -0.0087(17) -0.078(2)
C52 0.0463(18) 0.050(2) 0.066(2) -0.0126(17) -0.0084(16) -0.0092(16)
C53 0.0417(18) 0.073(3) 0.083(3) -0.048(2) -0.0099(17) -0.0098(17)
C54 0.053(2) 0.046(2) 0.076(3) -0.0082(17) -0.0180(17) -0.0242(16)
C55 0.058(2) 0.055(2) 0.050(2) -0.0094(16) -0.0120(16) -0.0285(17)
C56 0.063(2) 0.041(2) 0.084(3) -0.0143(18) -0.0220(19) -0.0185(18)
C57 0.059(2) 0.047(2) 0.083(3) 0.0006(18) -0.0238(19) -0.0267(17)
C58 0.054(2) 0.060(3) 0.052(2) -0.0092(18) -0.0110(17) -0.013(2)
C59 0.081(3) 0.072(3) 0.057(2) -0.017(2) -0.0173(19) -0.044(2)
C60 0.080(3) 0.045(2) 0.088(3) -0.017(2) -0.040(2) -0.015(2)
C61 0.086(3) 0.062(2) 0.052(2) -0.0172(18) -0.0073(19) -0.044(2)
C62 0.082(3) 0.073(3) 0.052(2) -0.0055(18) -0.0145(19) -0.051(2)
C64 0.0465(18) 0.045(2) 0.079(3) -0.0126(18) -0.0242(17) -0.0169(15)
C65 0.078(2) 0.059(2) 0.065(3) 0.0018(18) -0.019(2) -0.044(2)
C66 0.0419(18) 0.058(2) 0.085(3) -0.037(2) -0.0047(17) -0.0141(16)
C68 0.092(3) 0.044(2) 0.059(2) -0.0175(18) 0.005(2) -0.023(2)
C69 0.082(3) 0.072(3) 0.053(2) -0.0159(19) 0.0010(19) -0.047(2)
C70 0.052(2) 0.041(2) 0.110(3) -0.025(2) -0.025(2) -0.0142(16)
C71 0.103(3) 0.045(2) 0.061(3) -0.0029(18) -0.011(2) -0.028(2)
C72 0.0375(18) 0.049(2) 0.147(4) -0.021(2) -0.010(2) -0.0184(17)
C74 0.054(2) 0.046(2) 0.148(4) -0.009(2) -0.019(2) -0.0253(19)
C76 0.118(3) 0.085(3) 0.060(3) -0.017(2) -0.007(2) -0.074(3)
C80 0.116(3) 0.112(4) 0.054(3) -0.010(2) -0.017(2) -0.086(3)
C81 0.116(4) 0.133(4) 0.058(3) -0.006(3) -0.005(2) -0.097(3)
C83 0.125(4) 0.095(3) 0.052(3) -0.013(2) -0.004(2) -0.082(3)
C84 0.106(3) 0.038(2) 0.067(3) -0.0198(19) 0.005(2) -0.011(2)
C85 0.126(4) 0.039(2) 0.055(2) -0.0087(17) -0.007(2) -0.021(2)
O10 0.0575(15) 0.0681(19) 0.133(3) -0.0480(18) -0.0419(16) 0.0030(14)
O11 0.0516(16) 0.072(2) 0.164(3) 0.0156(19) -0.0325(18) -0.0274(15)
O21 0.143(4) 0.109(3) 0.144(4) 0.007(3) -0.018(3) -0.057(3)
O20 0.282(10) 0.230(8) 0.325(11) -0.103(8) -0.030(8) -0.144(7)
N9 0.279(11) 0.313(12) 0.103(5) -0.011(6) -0.012(6) -0.219(11)
N6 0.185(7) 0.161(7) 0.222(8) -0.028(6) 0.004(6) -0.025(5)
C207 0.188(9) 0.231(12) 0.096(5) 0.027(6) -0.022(5) -0.132(9)
C206 0.157(7) 0.158(7) 0.183(8) -0.041(6) 0.001(6) 0.038(6)
C205 0.144(8) 0.087(6) 0.319(18) -0.038(8) -0.077(10) -0.006(5)
C204 0.113(6) 0.269(12) 0.257(11) -0.126(10) 0.065(7) -0.007(7)
C203 0.126(6) 0.151(8) 0.447(19) -0.056(9) -0.109(9) -0.047(6)
C202 0.226(12) 0.165(10) 0.56(3) -0.082(12) 0.070(13) -0.133(10)
C201 0.386(16) 0.272(12) 0.198(10) -0.030(8) -0.008(9) -0.269(13)
C200 0.264(12) 0.271(12) 0.214(10) -0.083(10) -0.052(9) 0.016(9)
O1W 0.173(5) 0.187(5) 0.308(8) -0.055(5) 0.047(5) -0.106(4)
loop_
_atom_type_symbol
_atom_type_description
_atom_type_scat_dispersion_real
_atom_type_scat_dispersion_imag
_atom_type_scat_source
C C 0.0033 0.0016 'International Tables Vol C Tables 4.2.6.8 and 6.1.1.4'
H H 0.0000 0.0000 'International Tables Vol C Tables 4.2.6.8 and 6.1.1.4'
N N 0.0061 0.0033 'International Tables Vol C Tables 4.2.6.8 and 6.1.1.4'
O O 0.0106 0.0060 'International Tables Vol C Tables 4.2.6.8 and 6.1.1.4'
Zn Zn 0.2839 1.4301 'International Tables Vol C Tables 4.2.6.8 and 6.1.1.4'
loop_
_geom_angle_atom_site_label_1
_geom_angle_atom_site_label_2
_geom_angle_atom_site_label_3
_geom_angle
_geom_angle_site_symmetry_1
_geom_angle_site_symmetry_3
_geom_angle_publ_flag
O5 Zn1 O2 143.55(12) 1_565 . ?
O5 Zn1 O1 97.44(12) 1_565 1_655 ?
O2 Zn1 O1 107.44(11) . 1_655 ?
O5 Zn1 N3 100.92(12) 1_565 . ?
O2 Zn1 N3 102.43(11) . . ?
O1 Zn1 N3 96.04(11) 1_655 . ?
O5 Zn1 O3 58.72(11) 1_565 1_565 ?
O2 Zn1 O3 92.65(11) . 1_565 ?
O1 Zn1 O3 155.91(12) 1_655 1_565 ?
N3 Zn1 O3 92.35(12) . 1_565 ?
O5 Zn1 C60 29.56(13) 1_565 1_565 ?
O2 Zn1 C60 119.57(13) . 1_565 ?
O1 Zn1 C60 126.99(15) 1_655 1_565 ?
N3 Zn1 C60 96.44(12) . 1_565 ?
O3 Zn1 C60 29.20(12) 1_565 1_565 ?
O12 Zn2 O4 117.10(12) 1_554 1_655 ?
O12 Zn2 O7 120.45(11) 1_554 1_544 ?
O4 Zn2 O7 103.11(10) 1_655 1_544 ?
O12 Zn2 O6 98.40(11) 1_554 . ?
O4 Zn2 O6 114.71(10) 1_655 . ?
O7 Zn2 O6 102.57(10) 1_544 . ?
O9 Zn3 O10 99.20(11) . 1_645 ?
O9 Zn3 O8 101.57(10) . 1_545 ?
O10 Zn3 O8 143.76(12) 1_645 1_545 ?
O9 Zn3 N4 103.67(11) . . ?
O10 Zn3 N4 106.88(12) 1_645 . ?
O8 Zn3 N4 96.64(10) 1_545 . ?
O9 Zn3 O11 152.86(13) . 1_645 ?
O10 Zn3 O11 58.90(11) 1_645 1_645 ?
O8 Zn3 O11 91.13(10) 1_545 1_645 ?
N4 Zn3 O11 98.48(13) . 1_645 ?
O9 Zn3 C58 127.79(13) . 1_645 ?
O10 Zn3 C58 29.84(12) 1_645 1_645 ?
O8 Zn3 C58 118.40(12) 1_545 1_645 ?
N4 Zn3 C58 103.49(11) . 1_645 ?
O11 Zn3 C58 29.09(11) 1_645 1_645 ?
C28 O2 Zn1 105.9(2) . . ?
C12 O4 Zn2 124.7(2) . 1_455 ?
C11 O7 Zn2 128.3(2) . 1_566 ?
C11 O8 Zn3 128.6(2) . 1_565 ?
C32 O9 Zn3 128.7(2) . . ?
C41 N10 C55 105.8(3) . . ?
C41 N10 N5 128.3(3) . . ?
C55 N10 N5 125.8(3) . . ?
O7 C11 O8 125.1(3) . . ?
O7 C11 C17 118.1(3) . . ?
O8 C11 C17 116.8(3) . . ?
O1 C12 O4 124.7(3) . . ?
O1 C12 C27 117.9(3) . . ?
O4 C12 C27 117.4(3) . . ?
C28 O6 Zn2 131.0(2) . . ?
C32 O12 Zn2 144.2(2) . 1_556 ?
C76 N4 C69 116.0(3) . . ?
C76 N4 Zn3 124.2(2) . . ?
C69 N4 Zn3 119.5(2) . . ?
C65 C16 C59 119.5(3) . . ?
C65 C16 N2 120.4(3) . . ?
C59 C16 N2 120.1(3) . . ?
C62 C17 C38 119.3(3) . . ?
C62 C17 C11 120.9(3) . . ?
C38 C17 C11 119.8(3) . . ?
C80 N3 C47 116.9(3) . . ?
C80 N3 Zn1 123.4(2) . . ?
C47 N3 Zn1 118.8(2) . . ?
C85 C19 C68 118.5(3) . . ?
C85 C19 C32 120.9(3) . . ?
C68 C19 C32 120.6(3) . . ?
N2 C20 C50 121.9(3) . . ?
N2 C20 C70 119.9(3) . . ?
C50 C20 C70 118.1(3) . . ?
C12 O1 Zn1 146.4(2) . 1_455 ?
C60 O5 Zn1 99.6(3) . 1_545 ?
C20 N2 C35 121.9(3) . . ?
C20 N2 C16 120.6(2) . . ?
C35 N2 C16 117.4(2) . . ?
C72 C24 C40 119.0(3) . . ?
C72 C24 N1 120.7(3) . . ?
C40 C24 N1 120.3(3) . . ?
C46 C25 C54 117.7(3) . . ?
C46 C25 C58 121.0(3) . . ?
C54 C25 C58 121.3(3) . . ?
C53 C27 C33 118.5(3) . . ?
C53 C27 C12 120.0(3) . . ?
C33 C27 C12 121.4(3) . . ?
O2 C28 O6 121.5(3) . . ?
O2 C28 C37 119.2(4) . . ?
O6 C28 C37 119.2(3) . . ?
C34 C29 C66 118.9(3) . . ?
C34 C29 N1 119.4(3) . . ?
C66 C29 N1 121.7(3) . . ?
C57 C30 C64 119.5(3) . . ?
C57 C30 N1 121.0(3) . . ?
C64 C30 N1 119.5(3) . . ?
C24 N1 C30 121.5(2) . . ?
C24 N1 C29 119.8(2) . . ?
C30 N1 C29 118.7(3) . . ?
O12 C32 O9 125.8(3) . . ?
O12 C32 C19 117.6(3) . . ?
O9 C32 C19 116.6(3) . . ?
C66 C33 C27 119.8(3) . . ?
C29 C34 C53 119.8(3) . . ?
C71 C35 C84 118.7(3) . . ?
C71 C35 N2 119.9(3) . . ?
C84 C35 N2 121.4(3) . . ?
C61 C36 C83 116.2(3) . . ?
C61 C36 C41 124.6(3) . . ?
C83 C36 C41 118.9(3) . . ?
C45 C37 C43 118.9(3) . . ?
C45 C37 C28 121.5(3) . . ?
C43 C37 C28 119.5(3) . . ?
C17 C38 C65 119.1(3) . . ?
C55 N8 N7 107.9(3) . . ?
C52 C40 C24 120.1(3) . . ?
N7 C41 N10 109.6(3) . . ?
N7 C41 C36 122.3(3) . . ?
N10 C41 C36 128.1(3) . . ?
C47 C42 C44 120.1(3) . . ?
C57 C43 C37 120.0(3) . . ?
C42 C44 C81 114.5(3) . . ?
C42 C44 C55 117.9(3) . . ?
C81 C44 C55 127.4(3) . . ?
C37 C45 C64 121.5(3) . . ?
C70 C46 C25 121.6(3) . . ?
N3 C47 C42 123.4(3) . . ?
C41 N7 N8 107.7(3) . . ?
C60 O3 Zn1 79.2(3) . 1_545 ?
C54 C50 C20 120.6(3) . . ?
C56 C52 C40 120.5(3) . . ?
C27 C53 C34 121.6(3) . . ?
C50 C54 C25 121.3(3) . . ?
N8 C55 N10 108.9(3) . . ?
N8 C55 C44 122.4(3) . . ?
N10 C55 C44 128.7(3) . . ?
C52 C56 C74 118.9(3) . . ?
C52 C56 C60 120.1(4) . . ?
C74 C56 C60 121.0(4) . . ?
C43 C57 C30 120.8(3) . . ?
O11 C58 O10 119.5(3) . . ?
O11 C58 C25 122.1(4) . . ?
O10 C58 C25 118.4(4) . . ?
O11 C58 Zn3 67.4(2) . 1_465 ?
O10 C58 Zn3 52.22(18) . 1_465 ?
C25 C58 Zn3 169.0(3) . 1_465 ?
C16 C59 C62 119.4(3) . . ?
O3 C60 O5 122.2(4) . . ?
O3 C60 C56 120.2(4) . . ?
O5 C60 C56 117.5(4) . . ?
O3 C60 Zn1 71.6(2) . 1_545 ?
O5 C60 Zn1 50.80(19) . 1_545 ?
C56 C60 Zn1 167.4(3) . 1_545 ?
C69 C61 C36 119.9(3) . . ?
C17 C62 C59 121.0(3) . . ?
C45 C64 C30 119.2(3) . . ?
C16 C65 C38 121.5(3) . . ?
C33 C66 C29 121.5(3) . . ?
C71 C68 C19 120.7(4) . . ?
N4 C69 C61 124.0(4) . . ?
C46 C70 C20 120.6(3) . . ?
C35 C71 C68 120.9(4) . . ?
C74 C72 C24 120.2(3) . . ?
C72 C74 C56 121.2(4) . . ?
N4 C76 C83 123.7(4) . . ?
C81 C80 N3 123.0(4) . . ?
C80 C81 C44 122.1(4) . . ?
C76 C83 C36 120.2(4) . . ?
C35 C84 C85 120.3(4) . . ?
C19 C85 C84 120.9(4) . . ?
C58 O10 Zn3 97.9(2) . 1_465 ?
C58 O11 Zn3 83.6(2) . 1_465 ?
C207 N9 C201 129.2(13) . . ?
C207 N9 C204 112.0(11) . . ?
C201 N9 C204 118.4(9) . . ?
C205 N6 C202 124.0(15) . . ?
C205 N6 C200 108.1(16) . . ?
C202 N6 C200 127.9(13) . . ?
N9 C207 O21 131.8(13) . . ?
N9 C207 C206 110.7(12) . . ?
O21 C207 C206 117.4(9) . . ?
N6 C205 O20 113.5(13) . . ?
N6 C205 C203 127.7(17) . . ?
O20 C205 C203 118.7(15) . . ?
loop_
_geom_bond_atom_site_label_1
_geom_bond_atom_site_label_2
_geom_bond_distance
_geom_bond_site_symmetry_2
_geom_bond_publ_flag
Zn1 O5 1.968(3) 1_565 ?
Zn1 O2 1.994(2) . ?
Zn1 O1 1.998(2) 1_655 ?
Zn1 N3 2.059(3) . ?
Zn1 O3 2.418(3) 1_565 ?
Zn1 C60 2.504(4) 1_565 ?
Zn2 O12 1.918(2) 1_554 ?
Zn2 O4 1.930(2) 1_655 ?
Zn2 O7 1.955(2) 1_544 ?
Zn2 O6 1.956(2) . ?
Zn3 O9 1.963(2) . ?
Zn3 O10 1.974(3) 1_645 ?
Zn3 O8 1.978(2) 1_545 ?
Zn3 N4 2.029(3) . ?
Zn3 O11 2.297(3) 1_645 ?
Zn3 C58 2.473(4) 1_645 ?
O2 C28 1.248(4) . ?
O4 C12 1.263(4) . ?
O7 C11 1.252(4) . ?
O8 C11 1.255(4) . ?
O9 C32 1.247(4) . ?
N10 C41 1.362(4) . ?
N10 C55 1.373(4) . ?
N10 N5 1.407(4) . ?
C11 C17 1.494(4) . ?
C12 O1 1.238(4) . ?
C12 C27 1.494(4) . ?
O6 C28 1.275(4) . ?
O12 C32 1.243(4) . ?
N4 C76 1.321(4) . ?
N4 C69 1.331(4) . ?
C16 C65 1.353(5) . ?
C16 C59 1.376(5) . ?
C16 N2 1.429(4) . ?
C17 C62 1.368(5) . ?
C17 C38 1.378(4) . ?
N3 C80 1.320(5) . ?
N3 C47 1.346(4) . ?
C19 C85 1.352(5) . ?
C19 C68 1.371(5) . ?
C19 C32 1.492(4) . ?
C20 N2 1.392(4) . ?
C20 C50 1.392(4) . ?
C20 C70 1.394(4) . ?
O5 C60 1.253(5) . ?
N2 C35 1.426(4) . ?
C24 C72 1.386(5) . ?
C24 C40 1.389(4) . ?
C24 N1 1.413(4) . ?
C25 C46 1.379(5) . ?
C25 C54 1.395(5) . ?
C25 C58 1.479(5) . ?
C27 C53 1.371(5) . ?
C27 C33 1.388(4) . ?
C28 C37 1.485(5) . ?
C29 C34 1.369(5) . ?
C29 C66 1.382(5) . ?
C29 N1 1.427(4) . ?
C30 C57 1.383(5) . ?
C30 C64 1.391(5) . ?
C30 N1 1.422(4) . ?
C33 C66 1.369(4) . ?
C34 C53 1.381(4) . ?
C35 C71 1.362(5) . ?
C35 C84 1.363(5) . ?
C36 C61 1.369(5) . ?
C36 C83 1.383(5) . ?
C36 C41 1.453(5) . ?
C37 C45 1.368(5) . ?
C37 C43 1.403(5) . ?
C38 C65 1.380(5) . ?
N8 C55 1.322(4) . ?
N8 N7 1.373(4) . ?
C40 C52 1.383(5) . ?
C41 N7 1.317(4) . ?
C42 C47 1.357(5) . ?
C42 C44 1.384(5) . ?
C43 C57 1.370(5) . ?
C44 C81 1.409(5) . ?
C44 C55 1.451(5) . ?
C45 C64 1.386(5) . ?
C46 C70 1.370(5) . ?
O3 C60 1.243(5) . ?
C50 C54 1.370(4) . ?
C52 C56 1.377(5) . ?
C56 C74 1.382(5) . ?
C56 C60 1.511(5) . ?
C58 O11 1.210(5) . ?
C58 O10 1.243(4) . ?
C59 C62 1.376(5) . ?
C61 C69 1.360(5) . ?
C68 C71 1.365(5) . ?
C72 C74 1.364(5) . ?
C76 C83 1.358(5) . ?
C80 C81 1.326(5) . ?
C84 C85 1.382(5) . ?
O21 C207 1.252(11) . ?
O20 C205 1.354(14) . ?
N9 C207 1.157(9) . ?
N9 C201 1.501(11) . ?
N9 C204 1.605(12) . ?
N6 C205 1.286(14) . ?
N6 C202 1.406(14) . ?
N6 C200 1.604(15) . ?
C207 C206 1.587(12) . ?
C205 C203 1.496(12) . ?
