#------------------------------------------------------------------------------
#$Date: 2021-12-04 00:56:46 +0200 (Sat, 04 Dec 2021) $
#$Revision: 271062 $
#$URL: file:///home/coder/svn-repositories/cod/cif/7/12/93/7129345.cif $
#------------------------------------------------------------------------------
#
# This file is available in the Crystallography Open Database (COD),
# http://www.crystallography.net/
#
# All data on this site have been placed in the public domain by the
# contributors.
#
data_7129345
loop_
_publ_author_name
'Yang, Yang'
'Li, Hanning'
'Jing, Xu'
'Wu, Yuchen'
'Shi, Youpeng'
'Duan, Chunying'
_publ_section_title
;
 Dye-loaded metal-organic helical capsules applied to the combination of
 photocatalytic H2S splitting and nitroaromatic hydrogenation
;
_journal_name_full               'Chemical Communications'
_journal_paper_doi               10.1039/D1CC06166F
_journal_year                    2021
_chemical_formula_moiety         'C79 H64 Fe2 N23 O6, O, 4(B F4)'
_chemical_formula_sum            'C33 H33 B0.5 F0.5 Fe33 N33 O33'
_chemical_formula_weight         3277.88
_space_group_crystal_system      triclinic
_space_group_IT_number           2
_space_group_name_Hall           '-P 1'
_space_group_name_H-M_alt        'P -1'
_atom_sites_solution_hydrogens   geom
_audit_creation_date             2021-10-24
_audit_creation_method
;
Olex2 1.2
(compiled 2018.05.29 svn.r3508 for OlexSys, GUI svn.r5506)
;
_audit_update_record
;
2021-10-24 deposited with the CCDC.	2021-12-01 downloaded from the CCDC.
;
_cell_angle_alpha                104.066(5)
_cell_angle_beta                 100.757(4)
_cell_angle_gamma                94.934(4)
_cell_formula_units_Z            2
_cell_length_a                   12.7733(13)
_cell_length_b                   19.091(2)
_cell_length_c                   22.774(3)
_cell_measurement_reflns_used    8492
_cell_measurement_temperature    120(2)
_cell_measurement_theta_max      23.26
_cell_measurement_theta_min      2.22
_cell_volume                     5241.8(10)
_computing_cell_refinement       'SAINT V8.38A (?, 2016)'
_computing_data_reduction        'SAINT V8.38A (?, 2016)'
_computing_molecular_graphics    'Olex2 (Dolomanov et al., 2009)'
_computing_publication_material  'Olex2 (Dolomanov et al., 2009)'
_computing_structure_refinement  'XL (Sheldrick, 2008)'
_computing_structure_solution    'XT (Sheldrick, 2015)'
_diffrn_ambient_temperature      120.0
_diffrn_measured_fraction_theta_full 0.993
_diffrn_measured_fraction_theta_max 0.993
_diffrn_measurement_device_type  'Bruker APEX-II CCD'
_diffrn_measurement_method       '\f and \w scans'
_diffrn_radiation_type           MoK\a
_diffrn_radiation_wavelength     0.71073
_diffrn_reflns_av_R_equivalents  0.1043
_diffrn_reflns_av_unetI/netI     0.0828
_diffrn_reflns_Laue_measured_fraction_full 0.993
_diffrn_reflns_Laue_measured_fraction_max 0.993
_diffrn_reflns_limit_h_max       15
_diffrn_reflns_limit_h_min       -15
_diffrn_reflns_limit_k_max       22
_diffrn_reflns_limit_k_min       -22
_diffrn_reflns_limit_l_max       27
_diffrn_reflns_limit_l_min       -27
_diffrn_reflns_number            106089
_diffrn_reflns_point_group_measured_fraction_full 0.993
_diffrn_reflns_point_group_measured_fraction_max 0.993
_diffrn_reflns_theta_full        25.144
_diffrn_reflns_theta_max         25.144
_diffrn_reflns_theta_min         2.218
_diffrn_standards_number         0
_exptl_absorpt_coefficient_mu    4.476
_exptl_absorpt_correction_T_max  0.0096
_exptl_absorpt_correction_T_min  0.0014
_exptl_absorpt_correction_type   none
_exptl_absorpt_process_details
;
SADABS-2016/2 (Bruker,2016/2) was used for absorption correction.
wR2(int) was 0.1006 before and 0.0741 after correction.
The Ratio of minimum to maximum transmission is 0.1458.
The \l/2 correction factor is Not present.
;
_exptl_crystal_colour            red
_exptl_crystal_density_diffrn    2.077
_exptl_crystal_description       block
_exptl_crystal_F_000             3182
_refine_diff_density_max         0.914
_refine_diff_density_min         -0.445
_refine_diff_density_rms         0.091
_refine_ls_extinction_method     none
_refine_ls_goodness_of_fit_ref   1.023
_refine_ls_hydrogen_treatment    constr
_refine_ls_matrix_type           full
_refine_ls_number_parameters     1180
_refine_ls_number_reflns         18645
_refine_ls_number_restraints     60
_refine_ls_restrained_S_all      1.023
_refine_ls_R_factor_all          0.1705
_refine_ls_R_factor_gt           0.1133
_refine_ls_shift/su_max          0.001
_refine_ls_shift/su_mean         0.000
_refine_ls_structure_factor_coef Fsqd
_refine_ls_weighting_details
'w=1/[\s^2^(Fo^2^)+(0.2000P)^2^] where P=(Fo^2^+2Fc^2^)/3'
_refine_ls_weighting_scheme      calc
_refine_ls_wR_factor_gt          0.3021
_refine_ls_wR_factor_ref         0.3456
_reflns_Friedel_coverage         0.000
_reflns_number_gt                9679
_reflns_number_total             18645
_reflns_threshold_expression     'I > 2\s(I)'
_cod_data_source_file            d1cc06166f2.cif
_cod_data_source_block           1021d
_cod_original_cell_volume        5241.7(10)
_cod_original_formula_sum        'C33 H33 B0.50 F0.50 Fe33 N33 O33'
_cod_database_code               7129345
_shelx_shelxl_version_number     2018/3
_shelx_space_group_comment
;
The symmetry employed for this shelxl refinement is uniquely defined
by the following loop, which should always be used as a source of
symmetry information in preference to the above space-group names.
They are only intended as comments.
;
_olex2_refinement_description
;
1. Fixed Uiso
 At 1.2 times of:
  All C(H) groups, All C(H,H) groups, All N(H) groups
2. Uiso/Uaniso restraints and constraints
F27 \\sim F24 \\sim B7 \\sim F25 \\sim F26: within 2.8A with sigma of 0.04 and
sigma for terminal atoms of 0.08
3.a Secondary CH2 refined with riding coordinates:
 C028(H02A,H02B), C02F(H02D,H02F), C02P(H02L,H02O), C037(H03A,H03B), C03G(H03G,
 H03H), C03H(H03I,H03J)
3.b Aromatic/amide H refined with riding coordinates:
 N19(H19), N00G(H00G), C42(H42), C41(H41), C43(H43), C019(H019), C01C(H01C),
 N20(H20), C01J(H01J), N21(H21), C01P(H01P), C01S(H01S), C01U(H01U), C01W(H01W),
  C01X(H01X), C01Y(H01Y), C01Z(H01Z), C020(H020), C021(H021), C022(H022),
 C023(H023), C024(H024), C02A(H02C), C02E(H02E), C02G(H02G), C02H(H02H),
 C02I(H02I), C02J(H02J), C02K(H02K), C02M(H02M), C02N(H02N), C02Q(H02Q),
 C02R(H02R), C02T(H02T), C02U(H02U), C02V(H02V), C02W(H02W), C02X(H02X),
 C02Y(H02Y), C030(H030), C031(H031), C034(H034), C036(H036), C038(H038),
 C03A(H03C), C03B(H03D), C03C(H03E), C03F(H03F), C03I(H03K), C03J(H03L),
 C03M(H03M), C03Q(H03Q)
;
_smtbx_masks_void_probe_radius   1.2
_smtbx_masks_void_truncation_radius 1.2
_shelx_res_file
;
TITL 1021d_a.res in P-1
    1021d.res
    created by SHELXL-2018/3 at 12:07:24 on 24-Oct-2021
REM Old TITL 1021d in P-1
REM SHELXT solution in P-1
REM R1 0.303, Rweak 0.128, Alpha 0.187, Orientation as input
REM Formula found by SHELXT: C100 N23 O15 Fe2
CELL 0.71073 12.7733 19.0909 22.7735 104.066 100.757 94.934
ZERR 2 0.0013 0.0022 0.0026 0.005 0.004 0.004
LATT 1
SFAC C H N O Fe F B
UNIT 66 66 66 66 66 1 1
SIMU 0.04 0.08 2.8 F27 F24 B7 F25 F26

L.S. 20 0 0
PLAN  30
TEMP -153.15
CONF
BOND $H
list 4
ABIN
MORE -1
fmap 2 53
acta
REM <olex2.extras>
REM <HklSrc "%.\\1021d.hkl">
REM </olex2.extras>

WGHT    0.200000
FVAR       0.19683
FE01  5    0.192909    0.820399    0.453918    11.00000    0.06192    0.04889 =
         0.07412    0.01252    0.01571    0.01123
FE02  5    0.678420    0.691200    0.949992    11.00000    0.06509    0.08478 =
         0.06552   -0.00115    0.01225    0.00002
O003  4    0.631156    0.576573    0.436474    11.00000    0.08119    0.04541 =
         0.07480    0.00910    0.01127    0.00821
F1    6    0.841008    0.991879    0.685125    11.00000    0.10025    0.07597 =
         0.12623    0.02772   -0.02590   -0.01741
O005  4    0.582277    0.568922    0.546371    11.00000    0.09188    0.06283 =
         0.06351    0.00841    0.01721    0.01393
O006  4    0.215926    0.505865    0.681599    11.00000    0.08486    0.07912 =
         0.09093    0.03230    0.02465    0.00132
O007  4    0.814738    0.785600    0.672133    11.00000    0.06109    0.08347 =
         0.08197    0.00757    0.01329    0.00109
F13   6    0.603014    0.804883    0.450404    11.00000    0.11640    0.05945 =
         0.17153    0.01528   -0.00170    0.01822
N19   3    0.536794    0.556439    0.632819    11.00000    0.07341    0.05498 =
         0.05071    0.00280    0.01392    0.00611
AFIX  43
H19   2    0.492067    0.517180    0.611000    11.00000   -1.20000
AFIX   0
F12   6    0.648480    0.702392    0.395092    11.00000    0.12313    0.05830 =
         0.14774    0.01302    0.03006    0.00003
N22   3    0.276274    0.739168    0.458346    11.00000    0.05450    0.04818 =
         0.07345    0.01045    0.01827    0.00866
N18   3    0.543100    0.577211    0.694114    11.00000    0.06811    0.05209 =
         0.05902    0.00366    0.00677    0.00946
N23   3    0.256640    0.544930    0.603368    11.00000    0.07205    0.07024 =
         0.07191    0.01766    0.01086    0.00016
N00E  3    0.263841    0.598145    0.572126    11.00000    0.06448    0.05377 =
         0.07272    0.01620    0.00975    0.00737
N00F  3    0.307847    0.895526    0.510418    11.00000    0.07740    0.04624 =
         0.06031    0.00399    0.01473    0.01089
N00G  3    0.698030    0.855589    0.639254    11.00000    0.06787    0.05169 =
         0.08789   -0.00029    0.00975   -0.00216
AFIX  43
H00G  2    0.746806    0.894459    0.654717    11.00000   -1.20000
AFIX   0
N00H  3    0.072041    0.750324    0.397976    11.00000    0.06496    0.05955 =
         0.08036    0.01955    0.01177    0.00183
N00I  3    0.599637    0.863370    0.609269    11.00000    0.05473    0.07124 =
         0.07193    0.00340   -0.00114   -0.00594
N00J  3    0.267810    0.825177    0.387112    11.00000    0.06708    0.04242 =
         0.07422    0.01559    0.00946    0.00209

F5    6    0.780595    0.595235    1.180725    11.00000    0.09360    0.14598 =
         0.10662    0.00871    0.02068   -0.00611
F3    6    0.954664    1.095141    0.731575    11.00000    0.11568    0.09808 =
         0.13465    0.02875   -0.01589   -0.02331
N00M  3    0.121137    0.906432    0.448148    11.00000    0.07526    0.07237 =
         0.07304    0.01727    0.01871    0.03563
N00N  3    0.114303    0.802452    0.516341    11.00000    0.06630    0.06511 =
         0.08324    0.01611    0.01364    0.01997
N00O  3    0.568785    0.622332    0.885490    11.00000    0.06188    0.06734 =
         0.06825    0.00976    0.01603    0.00761
N00Q  3    0.194760    0.887996    0.709315    11.00000    0.10729    0.07161 =
         0.08531    0.01438    0.04574    0.02649
C00R  1    0.324911    0.633624    0.490532    11.00000    0.07136    0.04700 =
         0.06602    0.01096    0.01234    0.00872
N00S  3    0.776054    0.618732    0.941851    11.00000    0.06633    0.10617 =
         0.05772    0.02498   -0.00185   -0.00890
C40   1    0.483707    0.555273    0.781391    11.00000    0.05951    0.05475 =
         0.07400    0.01077    0.01814    0.00619
C00U  1    0.339943    0.777379    0.378237    11.00000    0.06552    0.06044 =
         0.06517    0.00492    0.00920   -0.00300
C42   1    0.269592    0.694251    0.493788    11.00000    0.06181    0.04840 =
         0.06489    0.00643    0.01943    0.00904
AFIX  43
H42   2    0.224921    0.703534    0.523035    11.00000   -1.20000
AFIX   0
C41   1    0.402043    0.885871    0.540972    11.00000    0.06844    0.05066 =
         0.06656    0.00815    0.01108    0.00996
AFIX  43
H41   2    0.415218    0.837290    0.539371    11.00000   -1.20000
AFIX   0
N00X  3    0.286123    0.768750    0.848206    11.00000    0.08015    0.08366 =
         0.07470    0.00904    0.02340    0.01998
N00Y  3    0.692531    0.892988    0.810746    11.00000    0.08482    0.07762 =
         0.08932    0.01079    0.03484    0.00119
N00Z  3    0.753242    0.722979    0.891423    11.00000    0.05710    0.08236 =
         0.07224   -0.01053    0.02444   -0.00116
N010  3    0.183466    0.766142    0.817101    11.00000    0.08524    0.09254 =
         0.07769    0.01136    0.02055    0.04114
O011  4    0.319144    0.975687    0.863735    11.00000    0.14587    0.08367 =
         0.10142   -0.00396    0.05570    0.00804
N012  3    0.588662    0.770348    0.957199    11.00000    0.06399    0.08172 =
         0.06754   -0.00266    0.02198   -0.00008
C43   1    0.310940    0.584164    0.527887    11.00000    0.06857    0.04470 =
         0.07561    0.00489    0.01707    0.01218
AFIX  43
H43   2    0.338525    0.539031    0.518678    11.00000   -1.20000
AFIX   0
F14   6    0.719287    0.742554    0.495950    11.00000    0.13510    0.13654 =
         0.14701    0.02657   -0.01607    0.03527

F2    6    0.882409    1.036318    0.787438    11.00000    0.11363    0.19670 =
         0.10418    0.01849    0.02282   -0.03806
O016  4    0.047245    0.716200    0.736975    11.00000    0.09257    0.19198 =
         0.07484    0.01350    0.01416    0.07936
N017  3    0.598665    0.651851    1.004679    11.00000    0.06757    0.10127 =
         0.05933    0.00578    0.01258    0.01030
C018  1    0.341669    0.725136    0.416320    11.00000    0.06557    0.04812 =
         0.07426    0.01450    0.01382    0.01547
C019  1    0.139710    0.834559    0.577077    11.00000    0.07548    0.04677 =
         0.08747    0.01270    0.02116    0.01814
AFIX  43
H019  2    0.200311    0.871302    0.593640    11.00000   -1.20000
AFIX   0
C01A  1    0.724997    0.790253    0.646587    11.00000    0.05512    0.07576 =
         0.07982    0.00073    0.01351    0.01176
C01B  1    0.775571    0.764889    1.019357    11.00000    0.04634    0.09656 =
         0.05866   -0.01447    0.00630    0.00410
C01C  1    0.480518    0.538567    0.715496    11.00000    0.06349    0.05760 =
         0.05316    0.00952    0.00568    0.01273
AFIX  43
H01C  2    0.431673    0.498677    0.687964    11.00000   -1.20000
AFIX   0
N20   3    0.211795    0.920081    0.771084    11.00000    0.10023    0.08296 =
         0.09179    0.01685    0.05095    0.01937
AFIX  43
H20   2    0.156135    0.921318    0.788810    11.00000   -1.20000
AFIX   0
C01E  1    0.215084    0.555761    0.654305    11.00000    0.06459    0.07788 =
         0.06437    0.00837    0.01259   -0.00266
C01F  1    0.186515    0.972165    0.477483    11.00000    0.08711    0.04585 =
         0.08001    0.01291    0.01516    0.01921
C01G  1    0.594324    0.591734    0.602787    11.00000    0.08298    0.04967 =
         0.06019    0.01058    0.00966    0.01862

F6    6    0.798427    0.519035    1.091180    11.00000    0.11556    0.25634 =
         0.07672    0.02249    0.00178   -0.05721
C01I  1    0.825707    0.678772    0.871027    11.00000    0.05267    0.09828 =
         0.07506    0.01046    0.00963    0.00505
C01J  1    0.563002    0.605719    0.824529    11.00000    0.06144    0.06877 =
         0.05573    0.00622    0.01861    0.00736
AFIX  43
H01J  2    0.616554    0.629966    0.809756    11.00000   -1.20000
AFIX   0
F11   6    0.770069    0.805399    0.430699    11.00000    0.14102    0.07323 =
         0.26632    0.02171    0.02170   -0.02517
N21   3    0.681547    0.955088    0.789889    11.00000    0.09966    0.09466 =
         0.12919    0.02501    0.05852    0.00725
AFIX  43
H21   2    0.736065    0.974365    0.777734    11.00000   -1.20000
AFIX   0
C01M  1    0.838692    0.619471    0.899430    11.00000    0.06996    0.09233 =
         0.06429    0.00949    0.01162    0.01377
C01N  1    0.492309    0.587120    0.906303    11.00000    0.05791    0.07161 =
         0.06898    0.01275    0.00873    0.01140

F4    6    1.005900    0.990558    0.739485    11.00000    0.12580    0.15010 =
         0.18922    0.00305   -0.03941    0.05282
C01P  1    0.389899    0.621969    0.447097    11.00000    0.08972    0.07158 =
         0.08588    0.00808    0.03846    0.03545
AFIX  43
H01P  2    0.426947    0.580562    0.442129    11.00000   -1.20000
AFIX   0
C01Q  1    0.480535    0.940571    0.574237    11.00000    0.07471    0.05337 =
         0.08090    0.00397    0.01014    0.00552
O01R  4    0.588665    1.040096    0.766475    11.00000    0.14445    0.13187 =
         0.22019    0.10191    0.08728    0.03000
C01S  1    0.583005    0.928420    0.606690    11.00000    0.08744    0.04183 =
         0.10374    0.00352    0.00772   -0.00728
AFIX  43
H01S  2    0.638247    0.968371    0.626167    11.00000   -1.20000
AFIX   0
C01T  1    0.290123    0.965587    0.512188    11.00000    0.08639    0.04669 =
         0.08470    0.01001    0.01992    0.01523
C01U  1    0.399372    0.774751    0.332670    11.00000    0.07871    0.06969 =
         0.07577    0.01735    0.02758    0.01483
AFIX  43
H01U  2    0.450130    0.741397    0.327561    11.00000   -1.20000
AFIX   0
C01V  1    0.632991    0.833373    1.002490    11.00000    0.06883    0.08406 =
         0.07653   -0.01229    0.01311    0.00088
C01W  1    0.492498    0.769306    0.924182    11.00000    0.06849    0.06892 =
         0.07183   -0.00063    0.02568    0.00101
AFIX  43
H01W  2    0.463272    0.726764    0.891534    11.00000   -1.20000
AFIX   0
C01X  1    0.775082    0.863857    0.804524    11.00000    0.07323    0.07289 =
         0.09203    0.02084    0.04059    0.00230
AFIX  43
H01X  2    0.826470    0.884177    0.785860    11.00000   -1.20000
AFIX   0
C01Y  1    0.405037    0.519712    0.803922    11.00000    0.06648    0.07042 =
         0.06530    0.01243    0.00665   -0.00092
AFIX  43
H01Y  2    0.348801    0.484868    0.776131    11.00000   -1.20000
AFIX   0
C01Z  1    0.400901    0.669455    0.411580    11.00000    0.09018    0.07185 =
         0.07104    0.02534    0.03344    0.03183
AFIX  43
H01Z  2    0.449121    0.663418    0.384188    11.00000   -1.20000
AFIX   0
C020  1    0.436551    0.578857    1.006158    11.00000    0.08044    0.08153 =
         0.08380    0.02147    0.02628    0.01192
AFIX  43
H020  2    0.374118    0.545496    0.983993    11.00000   -1.20000
AFIX   0
C021  1    0.308629    0.869006    0.304112    11.00000    0.07949    0.06402 =
         0.08349    0.03269    0.01977    0.00521
AFIX  43
H021  2    0.295183    0.901046    0.278358    11.00000   -1.20000
AFIX   0
C022  1    0.254336    0.869615    0.350358    11.00000    0.07262    0.05739 =
         0.06601    0.00927    0.01668    0.00436
AFIX  43
H022  2    0.204474    0.903427    0.356616    11.00000   -1.20000
AFIX   0
C023  1    0.322497    0.820312    0.895360    11.00000    0.07799    0.07459 =
         0.09498    0.01489    0.02927    0.01985
AFIX  43
H023  2    0.278670    0.856917    0.906760    11.00000   -1.20000
AFIX   0
C024  1    0.851340    0.513183    0.961065    11.00000    0.09078    0.12794 =
         0.08700    0.03005    0.03051    0.04056
AFIX  43
H024  2    0.855061    0.477773    0.984082    11.00000   -1.20000
AFIX   0
C025  1    0.026531    0.751172    0.492217    11.00000    0.05602    0.08093 =
         0.10286    0.02830    0.02875    0.00944
C026  1    0.076760    0.814240    0.617356    11.00000    0.08400    0.09234 =
         0.10038    0.02727    0.03762    0.03598
C027  1    0.792874    0.799477    0.825531    11.00000    0.05729    0.10221 =
         0.08074   -0.00421    0.00946   -0.01011
C028  1    0.639858    0.724901    0.619840    11.00000    0.07273    0.05156 =
         0.10519    0.00732    0.00030    0.01055
AFIX  23
H02A  2    0.573010    0.736351    0.633929    11.00000   -1.20000
H02B  2    0.624036    0.714251    0.574066    11.00000   -1.20000
AFIX   0
C029  1    0.428809    0.826357    0.933236    11.00000    0.08584    0.06886 =
         0.07711    0.00900    0.03668    0.00761
C02A  1    0.883519    0.693446    0.826915    11.00000    0.06476    0.11289 =
         0.07689   -0.00970    0.01147    0.00836
AFIX  43
H02C  2    0.933711    0.662848    0.813036    11.00000   -1.20000
AFIX   0
C02B  1    0.002788    0.722645    0.426031    11.00000    0.05923    0.07064 =
         0.09952    0.02872    0.00637    0.00965
C02C  1    0.505548    0.606688    0.974344    11.00000    0.06732    0.08387 =
         0.06656    0.00806    0.00877    0.01513
C02D  1    0.739564    0.828591    1.035487    11.00000    0.08119    0.11045 =
         0.08230   -0.01685    0.01167   -0.00401
C02E  1    0.055449    0.727242    0.336221    11.00000    0.07863    0.08753 =
         0.08009    0.00926    0.00745    0.01003
AFIX  43
H02E  2    0.104969    0.746850    0.316052    11.00000   -1.20000
AFIX   0
C02F  1    0.672790    0.659126    0.638283    11.00000    0.08222    0.08636 =
         0.06717    0.00684    0.00613   -0.00928
AFIX  23
H02D  2    0.676767    0.666538    0.683248    11.00000   -1.20000
H02F  2    0.745299    0.652092    0.630381    11.00000   -1.20000
AFIX   0
C02G  1    0.738553    0.781567    0.868253    11.00000    0.06362    0.06506 =
         0.07283    0.00463    0.01827   -0.00182
AFIX  43
H02G  2    0.688138    0.811936    0.882178    11.00000   -1.20000
AFIX   0
C02H  1    0.383616    0.821302    0.294916    11.00000    0.08913    0.08487 =
         0.07873    0.01320    0.03024   -0.00920
AFIX  43
H02H  2    0.423185    0.820659    0.263412    11.00000   -1.20000
AFIX   0
C02I  1    0.459457    1.011990    0.576141    11.00000    0.09992    0.04024 =
         0.12243    0.00038    0.00589   -0.00106
AFIX  43
H02I  2    0.512134    1.052325    0.599059    11.00000   -1.20000
AFIX   0
C02J  1    0.410645    0.535917    0.865985    11.00000    0.07197    0.07176 =
         0.08186    0.01682    0.03008    0.00480
AFIX  43
H02J  2    0.358305    0.512015    0.881811    11.00000   -1.20000
AFIX   0
C02K  1    0.864933    0.753299    0.804714    11.00000    0.07145    0.08889 =
         0.07451    0.01481    0.02046    0.01132
AFIX  43
H02K  2    0.902011    0.763347    0.774560    11.00000   -1.20000
AFIX   0
C02L  1    0.309117    0.949989    0.806473    11.00000    0.11171    0.07096 =
         0.09058    0.01305    0.05125    0.02854
C02M  1    0.912768    0.513638    0.917289    11.00000    0.07462    0.10545 =
         0.12267    0.01996    0.00220    0.01677
AFIX  43
H02M  2    0.959678    0.478163    0.909115    11.00000   -1.20000
AFIX   0
C02N  1    0.104059    0.851237    0.683489    11.00000    0.08938    0.09406 =
         0.11099    0.02884    0.03708    0.02647
AFIX  43
H02N  2    0.051877    0.847460    0.707724    11.00000   -1.20000
AFIX   0
C02O  1    0.138441    0.717540    0.764500    11.00000    0.09432    0.16263 =
         0.05898    0.01366    0.02072    0.06061
C02P  1    0.169226    0.623777    0.676176    11.00000    0.10907    0.08289 =
         0.08893    0.02126    0.03454    0.00861
AFIX  23
H02L  2    0.189484    0.659473    0.653758    11.00000   -1.20000
H02O  2    0.089750    0.612926    0.666420    11.00000   -1.20000
AFIX   0
C02Q  1    0.024185    0.906864    0.415708    11.00000    0.08238    0.07764 =
         0.08795    0.01802    0.00217    0.03830
AFIX  43
H02Q  2   -0.020006    0.861501    0.395994    11.00000   -1.20000
AFIX   0
C02R  1    0.904487    0.567034    0.885498    11.00000    0.07076    0.10007 =
         0.07732    0.01047    0.00929    0.02545
AFIX  43
H02R  2    0.944114    0.567463    0.854162    11.00000   -1.20000
AFIX   0

B1    7    0.922940    1.027379    0.736708    11.00000    0.06938    0.08115 =
         0.08570    0.02458    0.00769   -0.00089
C02T  1    0.474510    0.890430    0.980225    11.00000    0.09913    0.07431 =
         0.11085   -0.01532    0.04053    0.00270
AFIX  43
H02T  2    0.436850    0.931326    0.988273    11.00000   -1.20000
AFIX   0
C02U  1   -0.017044    0.971220    0.408854    11.00000    0.10231    0.11745 =
         0.08986    0.02700    0.01219    0.05731
AFIX  43
H02U  2   -0.086680    0.970125    0.384715    11.00000   -1.20000
AFIX   0
C02V  1    0.147605    1.036859    0.472538    11.00000    0.11222    0.07675 =
         0.08557    0.01213    0.01169    0.03395
AFIX  43
H02V  2    0.190752    1.082450    0.492939    11.00000   -1.20000
AFIX   0
C02W  1    0.458548    0.599380    1.068603    11.00000    0.10122    0.11744 =
         0.07220    0.02461    0.01826    0.01292
AFIX  43
H02W  2    0.408565    0.584273    1.090690    11.00000   -1.20000
AFIX   0
C02X  1   -0.036307    0.731082    0.531691    11.00000    0.07529    0.11630 =
         0.12365    0.03077    0.03072    0.01004
AFIX  43
H02X  2   -0.097479    0.694881    0.514600    11.00000   -1.20000
AFIX   0
C02Y  1    0.365656    1.022884    0.545793    11.00000    0.10753    0.04927 =
         0.12476    0.01645    0.01225    0.01842
AFIX  43
H02Y  2    0.351101    1.071235    0.547560    11.00000   -1.20000
AFIX   0
C02Z  1    0.592278    0.987076    0.787346    11.00000    0.10280    0.10248 =
         0.13288    0.04249    0.04763    0.01949
C030  1    0.576832    0.891028    1.014120    11.00000    0.10725    0.07937 =
         0.10521   -0.02844    0.01750   -0.00434
AFIX  43
H030  2    0.609021    0.933095    1.046619    11.00000   -1.20000
AFIX   0
C031  1    0.784988    0.565437    0.970147    11.00000    0.07634    0.12963 =
         0.06187    0.00373    0.01905    0.02168
AFIX  43
H031  2    0.741192    0.563593    0.999326    11.00000   -1.20000
AFIX   0
B2    7    0.686541    0.766476    0.441922    11.00000    0.12600    0.05395 =
         0.14085    0.01712   -0.01829    0.00922
C034  1    0.047450    1.034282    0.438309    11.00000    0.13842    0.08786 =
         0.11033    0.02989    0.02249    0.05963
AFIX  43
H034  2    0.021955    1.078782    0.435049    11.00000   -1.20000
AFIX   0
C036  1   -0.029501    0.676690    0.300629    11.00000    0.08159    0.10617 =
         0.10538    0.02284   -0.00681   -0.01391
AFIX  43
H036  2   -0.038512    0.662058    0.256827    11.00000   -1.20000
AFIX   0
C037  1    0.205886    0.654910    0.740710    11.00000    0.09409    0.13820 =
         0.09304   -0.01488    0.00917    0.05012
AFIX  23
H03A  2    0.282899    0.675158    0.749663    11.00000   -1.20000
H03B  2    0.198736    0.616723    0.762902    11.00000   -1.20000
AFIX   0
C038  1   -0.010635    0.763064    0.594868    11.00000    0.06952    0.12922 =
         0.12889    0.01999    0.04666    0.01015
AFIX  43
H038  2   -0.053044    0.749470    0.621468    11.00000   -1.20000
AFIX   0
C03A  1    0.873675    0.758633    1.045655    11.00000    0.09798    0.14586 =
         0.08781   -0.01875   -0.00294    0.00106
AFIX  43
H03C  2    0.900338    0.713841    1.032241    11.00000   -1.20000
AFIX   0
C03B  1    0.618648    0.670698    1.066422    11.00000    0.09252    0.12043 =
         0.06640    0.00417    0.01157   -0.00467
AFIX  43
H03D  2    0.679998    0.705024    1.088691    11.00000   -1.20000
AFIX   0
C03C  1   -0.085475    0.671010    0.391346    11.00000    0.07139    0.12019 =
         0.11007    0.03213    0.00955   -0.00058
AFIX  43
H03E  2   -0.135260    0.651998    0.411680    11.00000   -1.20000
AFIX   0
C03F  1    0.552340    0.641635    1.099489    11.00000    0.09815    0.15120 =
         0.05714    0.00968    0.01355    0.03088
AFIX  43
H03F  2    0.573047    0.651509    1.143301    11.00000   -1.20000
AFIX   0
C03G  1    0.403092    0.957458    0.775967    11.00000    0.14511    0.18989 =
         0.08554    0.00144    0.04821   -0.02824
AFIX  23
H03G  2    0.392642    0.916220    0.738445    11.00000   -1.20000
H03H  2    0.403016    1.002919    0.762357    11.00000   -1.20000
AFIX   0
C03H  1    0.507127    0.959000    0.814690    11.00000    0.09788    0.13183 =
         0.16317    0.07222    0.06711    0.04281
AFIX  23
H03I  2    0.517144    0.909230    0.818242    11.00000   -1.20000
H03J  2    0.511435    0.990677    0.856773    11.00000   -1.20000
AFIX   0
C03I  1    0.801697    0.891533    1.079996    11.00000    0.08559    0.14909 =
         0.18564   -0.06512   -0.00127    0.01132
AFIX  43
H03K  2    0.775009    0.936938    1.089767    11.00000   -1.20000
AFIX   0
C03J  1   -0.099985    0.648033    0.328483    11.00000    0.09588    0.10334 =
         0.12523    0.02982   -0.00626   -0.00951
AFIX  43
H03L  2   -0.158876    0.612388    0.304746    11.00000   -1.20000
AFIX   0
C03M  1    0.904688    0.881656    1.108227    11.00000    0.11025    0.25737 =
         0.17744   -0.09781   -0.02901    0.01855
AFIX  43
H03M  2    0.950112    0.921165    1.138445    11.00000   -1.20000
AFIX   0
C03Q  1    0.940740    0.814198    1.092188    11.00000    0.11627    0.18503 =
         0.16148   -0.05366   -0.02434    0.03592
AFIX  43
H03Q  2    1.009070    0.806314    1.112393    11.00000   -1.20000
AFIX   0

F23   6    0.925371    0.534465    1.179000    11.00000    0.14394    1.00038 =
         0.16675   -0.28981   -0.07516    0.25599
F10   6    0.896404    0.628580    1.127694    11.00000    0.28386    0.47780 =
         0.14572   -0.02643    0.02079   -0.27460
B6    7    0.848284    0.569648    1.143646    11.00000    0.10414    0.30487 =
         0.08438   -0.04497    0.02380   -0.09410
F24   6    0.608521    0.339561    0.800505    11.00000    0.39360    0.23259 =
         0.22129    0.04735    0.12180    0.03371
F27   6    0.729331    0.383437    0.755899    11.00000    0.20948    0.27435 =
         0.25677   -0.04927    0.04343    0.01630
F25   6    0.653858    0.457048    0.825398    11.00000    0.20258    0.20327 =
         0.17545    0.00981    0.03873    0.02197
F26   6    0.556049    0.399120    0.729706    11.00000    0.28030    0.18756 =
         0.18375   -0.00717   -0.01208    0.09511
B7    7    0.645595    0.403570    0.777926    11.00000    0.19545    0.19335 =
         0.15527   -0.02578    0.05113    0.09004
HKLF 4




REM  1021d_a.res in P-1
REM wR2 = 0.345589, GooF = S = 1.02297, Restrained GooF = 1.02251 for all data
REM R1 = 0.113308 for 9679 Fo > 4sig(Fo) and 0.170462 for all 18645 data
REM 1180 parameters refined using 60 restraints

END

WGHT      0.2000      0.0000

REM Highest difference peak  0.914,  deepest hole -0.445,  1-sigma level  0.091
Q1    1   0.7575  0.6772  0.9749  11.00000  0.05    0.91
Q2    1   0.4058  0.7730  0.6770  11.00000  0.05    0.88
Q3    1   0.7435  0.6593  0.9675  11.00000  0.05    0.85
Q4    1   0.4688  0.7521  0.7352  11.00000  0.05    0.74
Q5    1   0.1224  0.8180  0.4201  11.00000  0.05    0.71
Q6    1   0.2516  0.8381  0.4907  11.00000  0.05    0.66
Q7    1   0.2712  0.8244  0.4756  11.00000  0.05    0.66
Q8    1   0.7065  0.6400  0.9394  11.00000  0.05    0.62
Q9    1   0.6613  0.7445  0.9779  11.00000  0.05    0.56
Q10   1   0.2255  0.7999  0.4157  11.00000  0.05    0.53
Q11   1   0.9222  0.5817  1.1622  11.00000  0.05    0.51
Q12   1   0.1792  0.8753  0.4618  11.00000  0.05    0.48
Q13   1   0.8879  0.4614  1.2155  11.00000  0.05    0.48
Q14   1   0.7261  0.7386  0.9903  11.00000  0.05    0.43
Q15   1   0.7131  0.7178  0.4385  11.00000  0.05    0.43
Q16   1   0.1335  0.7830  0.4598  11.00000  0.05    0.43
Q17   1   0.6119  0.6581  0.9565  11.00000  0.05    0.39
Q18   1   0.5945  0.6960  0.9261  11.00000  0.05    0.38
Q19   1   0.6479  0.6213  0.4204  11.00000  0.05    0.38
Q20   1   0.9379  0.9654  0.7106  11.00000  0.05    0.38
Q21   1   0.0719  0.8876  0.8621  11.00000  0.05    0.36
Q22   1   0.9790  1.0028  0.7182  11.00000  0.05    0.35
Q23   1   0.7759  0.9245  0.8052  11.00000  0.05    0.34
Q24   1   0.1608  0.8000  0.8353  11.00000  0.05    0.34
Q25   1   0.1032  0.7611  0.7744  11.00000  0.05    0.33
Q26   1   0.2729  0.9132  0.7490  11.00000  0.05    0.32
Q27   1   0.3753  0.9571  0.7861  11.00000  0.05    0.32
Q28   1   0.8011  0.7957  1.0434  11.00000  0.05    0.32
Q29   1   0.8581  0.5794  0.9204  11.00000  0.05    0.32
Q30   1   0.1417  0.7736  0.7775  11.00000  0.05    0.32
;
_shelx_res_checksum              64802
_shelx_fab_file
;
-15 -2 6 -0.4396 -0.0207
-15 -2 7 -0.6165 -0.0231
-15 -1 3 -1.6789 -0.0325
-15 -1 4 -0.1278 -0.0332
-15 -1 5 -0.9353 0.0097
-15 -1 6 0.7036 0.0026
-15 -1 7 1.4920 0.0209
-15 -1 8 -2.3361 -0.0251
-15 -1 9 -0.6370 -0.0355
-15 0 2 1.4864 0.0046
-15 0 3 2.4533 0.0453
-15 0 4 -1.1489 0.0451
-15 0 5 -1.0468 0.0408
-15 0 6 -0.5064 0.0476
-15 0 7 0.1309 0.0665
-15 0 8 3.1582 0.0322
-15 0 9 -1.2299 -0.0368
-15 1 1 -0.7434 0.1190
-15 1 2 0.4807 0.1208
-15 1 3 1.4659 0.0681
-15 1 4 2.9164 0.0263
-15 1 5 -0.1607 0.0069
-15 1 6 -1.8149 -0.0455
-15 1 7 1.3752 -0.0565
-15 1 8 0.7311 -0.0256
-15 1 9 0.6209 -0.0581
-15 2 1 -0.5921 -0.0253
-15 2 2 -2.1275 -0.0192
-15 2 3 -0.8934 -0.0279
-15 2 4 0.3542 -0.0849
-15 2 5 1.0895 -0.0768
-15 2 6 0.3526 -0.0666
-15 2 7 -3.2103 -0.0619
-15 2 8 -1.8285 -0.0062
-15 2 9 0.5525 0.0109
-15 3 1 1.5718 -0.0669
-15 3 2 0.4502 -0.0911
-15 3 3 -0.2914 -0.0108
-15 3 4 -1.7676 0.0184
-15 3 5 0.0484 0.0030
-15 3 6 1.4595 0.0514
-15 3 7 0.2122 0.0382
-15 3 8 -1.4059 0.0346
-15 3 9 -3.5879 0.0528
-15 4 1 0.6650 0.0143
-15 4 2 1.4609 0.0271
-15 4 3 2.2007 -0.0334
-15 4 4 2.1205 0.0259
-15 4 5 -2.4003 0.0083
-15 4 6 -0.9819 0.0095
-15 4 7 1.3283 0.0413
-15 4 8 -1.3092 -0.0100
-15 5 1 -0.4891 -0.0058
-15 5 2 -0.0627 0.0059
-15 5 3 4.0780 -0.0135
-15 5 4 3.3817 -0.0178
-15 5 5 1.3270 0.0064
-15 5 6 -1.8206 -0.0351
-15 5 7 -2.1813 0.0223
-15 6 3 0.2709 0.0435
-15 6 4 6.1655 0.0050
-14 -7 6 1.7336 0.0158
-14 -7 7 0.6168 -0.0041
-14 -7 8 1.3756 0.0002
-14 -7 9 -0.2848 0.0153
-14 -6 3 0.0187 -0.0573
-14 -6 4 -0.6330 -0.0591
-14 -6 5 2.1852 -0.0543
-14 -6 6 1.7112 -0.0295
-14 -6 7 3.4489 -0.0043
-14 -6 8 1.1635 -0.0170
-14 -6 9 1.8314 0.0035
-14 -6 10 -0.1902 -0.0178
-14 -6 11 -0.1920 0.0225
-14 -6 12 2.4093 -0.0372
-14 -5 1 -1.3992 -0.0397
-14 -5 2 -1.0632 -0.1008
-14 -5 3 -2.0684 0.0060
-14 -5 4 2.0371 -0.0106
-14 -5 5 0.0121 -0.0142
-14 -5 6 1.3134 0.0255
-14 -5 7 -1.2339 0.0250
-14 -5 8 -0.3919 0.0279
-14 -5 9 -0.2773 0.0139
-14 -5 10 2.8948 0.0130
-14 -5 11 1.9209 0.0058
-14 -5 12 1.6033 0.0477
-14 -5 13 4.7618 -0.0220
-14 -4 1 1.4078 0.1797
-14 -4 2 -0.4103 0.0607
-14 -4 3 0.8756 0.0370
-14 -4 4 -2.8034 0.0883
-14 -4 5 -1.1833 0.0527
-14 -4 6 -3.4325 0.0452
-14 -4 7 0.6898 0.0394
-14 -4 8 -1.5174 0.0021
-14 -4 9 -2.0177 0.0083
-14 -4 10 1.7224 -0.0170
-14 -4 11 2.4786 -0.0208
-14 -4 12 0.5433 -0.0001
-14 -4 13 0.4879 -0.0141
-14 -4 14 0.5640 -0.0245
-14 -3 1 0.7986 0.1272
-14 -3 2 1.6827 0.1341
-14 -3 3 -1.5732 0.0335
-14 -3 4 1.4399 -0.0056
-14 -3 5 -2.5263 -0.0304
-14 -3 6 -1.8534 -0.0859
-14 -3 7 -1.4263 -0.0760
-14 -3 8 1.0422 -0.0565
-14 -3 9 -1.9001 -0.0442
-14 -3 10 -1.9059 -0.0273
-14 -3 11 1.4449 -0.0492
-14 -3 12 -1.4717 -0.0358
-14 -3 13 -2.2564 -0.0037
-14 -3 14 0.7892 -0.0165
-14 -2 1 -0.6452 -0.1368
-14 -2 2 -1.0637 -0.0465
-14 -2 3 1.9451 -0.0260
-14 -2 4 -0.0859 -0.0807
-14 -2 5 3.1172 -0.0826
-14 -2 6 -3.3058 -0.0424
-14 -2 7 -3.7843 -0.0224
-14 -2 8 0.2874 0.0109
-14 -2 9 -1.8635 0.0397
-14 -2 10 -2.1633 0.0832
-14 -2 11 -0.6062 0.0844
-14 -2 12 0.7213 0.0699
-14 -2 13 0.5591 0.0536
-14 -2 14 -1.9609 0.0171
-14 -2 15 -0.1027 0.0751
-14 -1 1 -0.5177 -0.0716
-14 -1 2 0.5815 -0.0849
-14 -1 3 -1.5035 -0.0755
-14 -1 4 0.1302 -0.0233
-14 -1 5 -2.1789 -0.0031
-14 -1 6 0.7971 -0.0148
-14 -1 7 -1.0176 0.0293
-14 -1 8 -3.4857 0.0347
-14 -1 9 -0.0894 0.0091
-14 -1 10 -2.3088 0.0226
-14 -1 11 -0.8819 0.0026
-14 -1 12 0.1381 -0.0389
-14 -1 13 -0.5761 -0.0087
-14 -1 14 2.3250 -0.0277
-14 -1 15 -0.3067 -0.0671
-14 0 1 0.0523 -0.1231
-14 0 2 -0.5606 -0.0433
-14 0 3 0.1446 0.0013
-14 0 4 -1.7200 -0.0267
-14 0 5 -0.1360 0.0155
-14 0 6 -2.6411 0.0245
-14 0 7 -2.0112 0.0181
-14 0 8 3.3393 0.0560
-14 0 9 0.2485 -0.0181
-14 0 10 -0.7493 -0.0718
-14 0 11 -1.5726 -0.0435
-14 0 12 0.3874 -0.0928
-14 0 13 2.6696 -0.0713
-14 0 14 1.7059 -0.0305
-14 0 15 2.8198 -0.0842
-14 1 1 -1.4271 0.0311
-14 1 2 -0.7998 0.0034
-14 1 3 -0.1423 0.0798
-14 1 4 0.6178 0.0700
-14 1 5 -1.4340 0.0440
-14 1 6 -0.2876 0.0416
-14 1 7 1.4936 -0.0230
-14 1 8 -0.8170 -0.0098
-14 1 9 2.6236 0.0123
-14 1 10 0.7557 -0.0191
-14 1 11 -0.7215 0.0287
-14 1 12 -0.0250 0.0565
-14 1 13 -1.0073 0.0173
-14 1 14 1.7021 0.0811
-14 1 15 2.4658 0.0545
-14 2 1 0.0829 0.2139
-14 2 2 -2.2309 0.0494
-14 2 3 -2.2642 0.0062
-14 2 4 0.1201 0.0236
-14 2 5 1.5793 -0.0301
-14 2 6 1.5865 -0.0380
-14 2 7 -1.1341 -0.0459
-14 2 8 -0.1468 -0.0638
-14 2 9 -0.0872 0.0175
-14 2 10 0.0593 0.0229
-14 2 11 -0.2381 0.0111
-14 2 12 -0.0215 0.0505
-14 2 13 1.2140 0.0077
-14 2 14 -1.2944 -0.0134
-14 3 1 -0.0924 0.0826
-14 3 2 -0.4912 0.0821
-14 3 3 -0.8264 -0.0323
-14 3 4 0.0333 -0.0419
-14 3 5 0.3957 -0.0280
-14 3 6 -0.3266 -0.0324
-14 3 7 2.7626 0.0113
-14 3 8 -0.4990 -0.0013
-14 3 9 -2.6097 -0.0307
-14 3 10 -0.3756 -0.0005
-14 3 11 -1.1760 -0.0320
-14 3 12 1.6173 -0.0281
-14 3 13 0.4626 -0.0169
-14 3 14 0.3696 -0.0822
-14 4 1 -0.4922 -0.1668
-14 4 2 -0.6625 0.0306
-14 4 3 -1.0218 0.0175
-14 4 4 2.2873 -0.0085
-14 4 5 0.4616 0.0133
-14 4 6 0.3069 -0.0073
-14 4 7 -0.1577 -0.0257
-14 4 8 0.7078 -0.0219
-14 4 9 1.5043 -0.0126
-14 4 10 -0.3609 0.0190
-14 4 11 1.2075 0.0198
-14 4 12 -1.0666 0.0081
-14 4 13 -0.1862 0.0315
-14 5 1 -1.1844 -0.1658
-14 5 2 0.6611 -0.1385
-14 5 3 -0.7557 -0.0086
-14 5 4 -0.1441 -0.0257
-14 5 5 3.0855 0.0094
-14 5 6 -2.9028 0.0205
-14 5 7 -2.5987 0.0475
-14 5 8 0.7886 0.0742
-14 5 9 1.0558 0.0396
-14 5 10 2.3393 0.0389
-14 5 11 0.6921 0.0570
-14 5 12 2.5063 0.0440
-14 5 13 -0.4888 0.0407
-14 6 1 -0.1188 0.0249
-14 6 2 2.0675 -0.0184
-14 6 3 0.7232 0.0012
-14 6 4 1.8046 0.0176
-14 6 5 0.1278 0.0282
-14 6 6 1.8229 0.0640
-14 6 7 -2.1104 0.0423
-14 6 8 -2.1029 0.0270
-14 6 9 1.3362 -0.0064
-14 6 10 -0.1303 -0.0467
-14 6 11 0.1131 -0.0674
-14 6 12 -0.1947 -0.0279
-14 7 1 1.0053 0.1025
-14 7 2 1.5457 0.0090
-14 7 3 2.8752 0.0313
-14 7 4 -1.3554 0.0098
-14 7 5 1.4556 -0.0373
-14 7 6 -0.5254 -0.0542
-14 7 7 -1.0236 -0.0677
-14 7 8 -1.4334 -0.0527
-14 7 9 2.6655 -0.0238
-14 7 10 2.5331 -0.0411
-14 7 11 -1.7485 -0.0764
-14 8 1 2.7018 0.0858
-14 8 2 2.7647 0.0290
-14 8 3 -1.1428 -0.0124
-14 8 4 1.0999 -0.0059
-14 8 5 -4.1243 -0.0204
-14 8 6 -0.4517 -0.0202
-14 8 7 -0.4560 0.0046
-14 8 8 -2.3524 -0.0095
-14 8 9 -2.2446 0.0091
-14 8 10 1.2485 0.0680
-14 9 1 -0.0922 0.0813
-14 9 2 1.1845 0.0454
-14 9 3 3.1115 -0.0199
-14 9 4 -0.8296 0.0086
-14 9 5 2.3707 0.0037
-14 9 6 -0.2748 0.0423
-14 9 7 0.7117 0.0484
-14 9 8 -1.8865 0.0317
-14 10 1 -1.6960 -0.0958
-14 10 2 1.0279 0.0032
-14 10 3 -0.4740 -0.0102
-14 10 4 2.2636 -0.0187
-14 10 5 -1.5376 -0.0076
-14 10 6 1.0524 -0.0235
-13 -10 6 0.2354 -0.0395
-13 -10 7 -1.3626 0.0150
-13 -10 8 -0.7299 -0.0204
-13 -10 9 -0.5449 0.0159
-13 -10 10 0.3169 0.0014
-13 -9 2 2.4331 -0.0473
-13 -9 3 3.3613 0.0094
-13 -9 4 1.3704 0.0447
-13 -9 5 -0.0637 0.0621
-13 -9 6 -0.5561 0.0637
-13 -9 7 -0.5581 0.0269
-13 -9 8 -0.1983 0.0374
-13 -9 9 -1.2654 0.0134
-13 -9 10 -2.8171 0.0370
-13 -9 11 -1.8761 -0.0091
-13 -9 12 -0.0284 0.0319
-13 -9 13 -1.1973 -0.0347
-13 -8 1 2.5584 0.1731
-13 -8 2 -2.3701 0.1203
-13 -8 3 -1.2584 0.0274
-13 -8 4 -0.2080 0.0657
-13 -8 5 -0.3152 0.0279
-13 -8 6 -0.4020 -0.0311
-13 -8 7 0.0083 0.0061
-13 -8 8 -0.1936 -0.0498
-13 -8 9 -0.0284 -0.0329
-13 -8 10 -1.9421 -0.0445
-13 -8 11 -1.2928 -0.0284
-13 -8 12 -1.4884 -0.0348
-13 -8 13 0.3725 -0.0006
-13 -8 14 0.8395 -0.0345
-13 -8 15 0.5798 -0.0376
-13 -7 1 2.8032 0.0236
-13 -7 2 0.8493 0.0757
-13 -7 3 -1.1593 0.0235
-13 -7 4 0.9375 -0.0583
-13 -7 5 0.9387 -0.0385
-13 -7 6 1.0736 -0.0322
-13 -7 7 -1.2839 -0.0597
-13 -7 8 0.6587 -0.0229
-13 -7 9 0.8685 -0.0175
-13 -7 10 1.6084 0.0148
-13 -7 11 1.6199 -0.0026
-13 -7 12 4.4401 0.0676
-13 -7 13 3.2235 0.0300
-13 -7 14 0.2703 0.0092
-13 -7 15 0.6849 0.0467
-13 -7 16 -2.2857 -0.0117
-13 -6 1 4.7416 -0.1423
-13 -6 2 3.7784 -0.1014
-13 -6 3 1.6640 -0.0471
-13 -6 4 0.6242 -0.0227
-13 -6 5 3.1533 -0.0522
-13 -6 6 1.5385 -0.0057
-13 -6 7 3.4032 0.0333
-13 -6 8 0.1797 0.0056
-13 -6 9 0.2990 0.0397
-13 -6 10 -0.8327 0.0358
-13 -6 11 -0.4101 0.0257
-13 -6 12 -0.1123 0.0128
-13 -6 13 1.9132 0.0309
-13 -6 14 2.9345 -0.0131
-13 -6 15 -0.5181 0.0039
-13 -6 16 1.7626 -0.0005
-13 -5 1 0.4763 -0.0797
-13 -5 2 3.0539 -0.1351
-13 -5 3 2.8939 -0.0701
-13 -5 4 5.0216 -0.0075
-13 -5 5 3.1644 0.0152
-13 -5 6 5.0724 0.0111
-13 -5 7 1.4903 0.0404
-13 -5 8 3.2661 0.0276
-13 -5 9 -0.2489 -0.0046
-13 -5 10 0.6962 0.0020
-13 -5 11 0.7797 -0.0425
-13 -5 12 -1.4238 -0.0253
-13 -5 13 0.7895 -0.0212
-13 -5 14 0.7372 -0.0729
-13 -5 15 1.0866 -0.0507
-13 -5 16 0.0360 0.0066
-13 -5 17 0.0630 -0.0424
-13 -4 1 -3.2558 -0.0117
-13 -4 2 0.1598 -0.0018
-13 -4 3 1.7370 -0.0282
-13 -4 4 0.8330 0.0286
-13 -4 5 4.4238 0.0536
-13 -4 6 -2.2810 0.0533
-13 -4 7 -0.5545 0.0397
-13 -4 8 1.5926 0.0330
-13 -4 9 3.3315 0.0112
-13 -4 10 2.2408 -0.0018
-13 -4 11 4.2959 -0.0030
-13 -4 12 2.9006 -0.0232
-13 -4 13 -1.3783 -0.0042
-13 -4 14 -0.2676 0.0126
-13 -4 15 -1.5357 0.0189
-13 -4 16 -0.5010 0.0300
-13 -4 17 2.4138 0.0352
-13 -3 1 0.6525 0.0969
-13 -3 2 -0.2914 0.0683
-13 -3 3 -1.3779 0.0835
-13 -3 4 -1.2944 0.0628
-13 -3 5 -1.8247 0.0322
-13 -3 6 4.0425 -0.0012
-13 -3 7 -2.2704 -0.0262
-13 -3 8 0.3964 -0.0434
-13 -3 9 3.9720 -0.0380
-13 -3 10 1.9028 -0.0371
-13 -3 11 1.9273 -0.0379
-13 -3 12 -0.1371 -0.0170
-13 -3 13 -2.4108 0.0100
-13 -3 14 -1.1340 -0.0114
-13 -3 15 -0.2266 -0.0144
-13 -3 16 1.0501 0.0478
-13 -3 17 1.1690 -0.0000
-13 -3 18 1.9286 -0.0164
-13 -2 1 -2.1877 0.1703
-13 -2 2 -0.7059 0.0545
-13 -2 3 1.1946 -0.0186
-13 -2 4 -0.4016 -0.0277
-13 -2 5 0.9935 -0.0312
-13 -2 6 -2.1463 -0.0476
-13 -2 7 0.2119 -0.0421
-13 -2 8 -0.6187 -0.0225
-13 -2 9 -0.2774 -0.0206
-13 -2 10 1.0267 0.0060
-13 -2 11 -0.3074 0.0290
-13 -2 12 1.1717 0.0107
-13 -2 13 0.2523 0.0211
-13 -2 14 -1.4312 0.0178
-13 -2 15 1.2263 -0.0246
-13 -2 16 0.0495 -0.0399
-13 -2 17 0.2089 -0.0350
-13 -2 18 -0.0089 -0.1039
-13 -1 1 0.2745 0.0131
-13 -1 2 -0.2771 0.0774
-13 -1 3 0.3712 -0.0242
-13 -1 4 0.5331 -0.0662
-13 -1 5 -3.5830 -0.0309
-13 -1 6 -1.0815 0.0004
-13 -1 7 -2.9248 0.0033
-13 -1 8 -3.0546 0.0416
-13 -1 9 -0.1191 0.0432
-13 -1 10 -1.9227 0.0177
-13 -1 11 -0.1748 0.0359
-13 -1 12 0.2989 0.0277
-13 -1 13 -0.4926 0.0180
-13 -1 14 1.1781 0.0461
-13 -1 15 1.1546 0.0016
-13 -1 16 1.7218 0.0336
-13 -1 17 -0.3043 0.0690
-13 -1 18 -0.1760 -0.0087
-13 0 1 0.8777 -0.2480
-13 0 2 0.3476 -0.0681
-13 0 3 -0.9713 0.0640
-13 0 4 -0.1927 -0.0129
-13 0 5 2.0017 -0.0340
-13 0 6 -2.9719 0.0207
-13 0 7 -3.0089 0.0194
-13 0 8 0.7222 0.0274
-13 0 9 0.3753 0.0472
-13 0 10 1.7975 -0.0186
-13 0 11 -1.5018 -0.0287
-13 0 12 0.3835 -0.0211
-13 0 13 3.0041 -0.0468
-13 0 14 -0.2306 -0.0049
-13 0 15 1.7288 0.0254
-13 0 16 2.8057 -0.0325
-13 0 17 -1.3555 0.0520
-13 0 18 -2.1989 0.1180
-13 1 1 -0.3715 -0.0764
-13 1 2 -0.0447 -0.1794
-13 1 3 -0.0104 -0.0419
-13 1 4 -1.7993 0.0694
-13 1 5 -1.6812 0.0171
-13 1 6 1.0918 0.0292
-13 1 7 0.9414 0.0383
-13 1 8 -1.8595 -0.0055
-13 1 9 0.9501 0.0061
-13 1 10 0.8269 -0.0006
-13 1 11 1.5481 -0.0493
-13 1 12 1.3637 -0.0144
-13 1 13 2.4829 -0.0151
-13 1 14 2.5174 -0.0330
-13 1 15 -0.4431 -0.0028
-13 1 16 0.7596 -0.0404
-13 1 17 2.8132 -0.1108
-13 1 18 -0.0040 -0.0062
-13 2 1 1.6688 0.1575
-13 2 2 -1.3806 0.0541
-13 2 3 -3.2043 -0.0422
-13 2 4 -0.8910 0.0296
-13 2 5 1.3205 0.0429
-13 2 6 0.8232 -0.0099
-13 2 7 -0.0636 -0.0001
-13 2 8 1.2273 -0.0188
-13 2 9 -2.5704 -0.0344
-13 2 10 -0.5152 0.0039
-13 2 11 -0.6108 0.0055
-13 2 12 0.5289 -0.0056
-13 2 13 4.3775 0.0166
-13 2 14 1.5901 -0.0127
-13 2 15 -0.3578 -0.0045
-13 2 16 0.4205 0.0446
-13 2 17 -1.1787 -0.0375
-13 3 1 1.3650 0.1121
-13 3 2 2.0369 0.1463
-13 3 3 0.2063 0.0602
-13 3 4 -0.0826 -0.0181
-13 3 5 1.6363 0.0091
-13 3 6 0.3626 -0.0191
-13 3 7 1.2177 -0.0220
-13 3 8 -1.1847 0.0141
-13 3 9 -1.1140 -0.0038
-13 3 10 -2.1465 -0.0014
-13 3 11 -0.3782 0.0171
-13 3 12 0.8181 0.0046
-13 3 13 1.7540 0.0233
-13 3 14 5.8847 0.0295
-13 3 15 1.7586 0.0056
-13 3 16 -1.7292 0.0531
-13 3 17 0.3673 0.1078
-13 4 1 -0.7996 0.0594
-13 4 2 2.9895 0.0311
-13 4 3 2.0882 0.0419
-13 4 4 0.3599 0.0017
-13 4 5 2.1557 -0.0047
-13 4 6 3.0481 0.0091
-13 4 7 -1.2755 -0.0440
-13 4 8 0.1018 -0.0364
-13 4 9 -0.7946 -0.0161
-13 4 10 1.1733 -0.0148
-13 4 11 0.9203 -0.0031
-13 4 12 -0.9633 -0.0024
-13 4 13 0.7119 0.0101
-13 4 14 -2.0347 0.0145
-13 4 15 2.0155 -0.0292
-13 4 16 3.1352 -0.0218
-13 5 1 -3.3167 -0.0516
-13 5 2 0.4734 -0.0276
-13 5 3 1.6215 -0.0352
-13 5 4 1.0622 -0.0610
-13 5 5 2.1178 -0.0544
-13 5 6 -0.9510 -0.0211
-13 5 7 -1.1106 0.0025
-13 5 8 -1.8207 0.0041
-13 5 9 2.2699 0.0027
-13 5 10 2.8744 0.0104
-13 5 11 1.7349 0.0235
-13 5 12 2.8917 -0.0179
-13 5 13 -0.0663 -0.0354
-13 5 14 -0.5335 -0.0368
-13 5 15 -2.5603 -0.0753
-13 5 16 -1.0498 -0.0691
-13 6 1 -0.2086 -0.1925
-13 6 2 -1.5475 -0.0716
-13 6 3 0.8988 0.0100
-13 6 4 -0.0206 -0.0038
-13 6 5 -2.0203 -0.0229
-13 6 6 1.2889 0.0259
-13 6 7 -1.2938 0.0466
-13 6 8 -3.6652 0.0543
-13 6 9 -2.3083 0.0508
-13 6 10 3.1541 0.0264
-13 6 11 1.4791 0.0079
-13 6 12 -1.0233 -0.0027
-13 6 13 2.4785 0.0073
-13 6 14 1.2607 0.0479
-13 6 15 1.8547 -0.0075
-13 7 1 0.1876 -0.0358
-13 7 2 0.7231 -0.1113
-13 7 3 -1.7034 0.0056
-13 7 4 -1.2697 0.0797
-13 7 5 1.0116 0.0291
-13 7 6 -1.0335 0.0012
-13 7 7 3.3616 0.0023
-13 7 8 2.0638 -0.0010
-13 7 9 -0.0633 -0.0099
-13 7 10 1.7280 -0.0060
-13 7 11 1.7973 0.0215
-13 7 12 -1.5108 0.0008
-13 7 13 -0.5913 0.0077
-13 7 14 0.7418 0.0724
-13 8 1 0.6866 0.2035
-13 8 2 1.4840 0.0652
-13 8 3 -1.1264 -0.0464
-13 8 4 -3.5026 0.0160
-13 8 5 -6.2798 0.0351
-13 8 6 -1.0271 -0.0189
-13 8 7 3.1168 -0.0102
-13 8 8 4.0998 -0.0192
-13 8 9 -0.3296 -0.0437
-13 8 10 1.2702 -0.0299
-13 8 11 2.4282 0.0080
-13 8 12 1.4096 -0.0067
-13 8 13 -0.5384 -0.0586
-13 9 1 -3.4577 0.1414
-13 9 2 0.7690 0.1665
-13 9 3 0.8282 0.0371
-13 9 4 -3.1856 -0.0214
-13 9 5 -1.8243 0.0052
-13 9 6 -5.5717 0.0011
-13 9 7 -0.1453 -0.0367
-13 9 8 3.7835 -0.0164
-13 9 9 2.0670 -0.0014
-13 9 10 -1.9315 -0.0298
-13 9 11 -0.7679 -0.0370
-13 9 12 -0.3568 0.0065
-13 10 1 -1.5306 -0.0894
-13 10 2 -2.1735 0.0256
-13 10 3 0.2061 0.0090
-13 10 4 3.7147 -0.0342
-13 10 5 -0.5398 -0.0200
-13 10 6 0.0437 -0.0311
-13 10 7 -0.2805 0.0134
-13 10 8 3.6457 0.0359
-13 10 9 1.8938 0.0186
-13 10 10 1.3859 0.0274
-13 10 11 0.8948 0.0458
-13 11 1 -0.7146 -0.1245
-13 11 2 -1.1186 -0.0714
-13 11 3 -2.9624 -0.0028
-13 11 4 -2.4596 -0.0139
-13 11 5 5.0080 0.0033
-13 11 6 0.3067 0.0499
-13 11 7 -1.9036 0.0549
-13 11 8 -1.3514 0.0555
-13 11 9 2.2671 0.0964
-13 12 1 0.9091 -0.0694
-13 12 2 -0.8906 -0.0104
-13 12 3 -1.4656 -0.0336
-13 12 4 -1.0514 0.0212
-13 12 5 -1.8351 0.0382
-13 12 6 3.5297 -0.0136
-13 12 7 1.2174 0.0703
-13 13 1 0.1152 -0.0222
-13 13 2 1.9275 -0.0357
-13 13 3 1.6700 0.0193
-13 13 4 -0.0213 -0.0424
-12 -12 5 3.0625 -0.0217
-12 -12 6 1.5159 -0.0424
-12 -12 7 0.2713 -0.0665
-12 -12 8 0.1312 -0.0480
-12 -12 9 2.3897 -0.0887
-12 -12 10 0.8032 -0.0398
-12 -12 11 0.2123 -0.0439
-12 -12 12 1.9121 -0.0016
-12 -11 1 -0.0615 -0.0775
-12 -11 2 0.4031 -0.0682
-12 -11 3 -1.1647 -0.0807
-12 -11 4 1.0051 -0.0937
-12 -11 5 0.0811 0.0036
-12 -11 6 1.1939 -0.0402
-12 -11 7 1.1208 -0.0132
-12 -11 8 1.4990 0.0053
-12 -11 9 0.1340 0.0245
-12 -11 10 -1.6949 0.0289
-12 -11 11 -0.8634 0.0463
-12 -11 12 -0.8896 0.0361
-12 -11 13 -2.1475 0.0494
-12 -11 14 -0.4352 0.0319
-12 -10 1 0.7732 -0.0815
-12 -10 2 -0.9396 -0.0757
-12 -10 3 0.8675 -0.0728
-12 -10 4 -1.8753 -0.0330
-12 -10 5 -0.3776 -0.0317
-12 -10 6 -0.0920 0.0088
-12 -10 7 -1.6077 0.0101
-12 -10 8 -1.2666 0.0107
-12 -10 9 2.1271 0.0067
-12 -10 10 1.3867 0.0243
-12 -10 11 -1.2427 -0.0005
-12 -10 12 -0.4359 -0.0192
-12 -10 13 1.7163 -0.0001
-12 -10 14 -0.4050 -0.0329
-12 -10 15 0.6867 -0.0480
-12 -10 16 -1.8036 0.0289
-12 -9 1 1.1449 -0.0486
-12 -9 2 1.9077 -0.0369
-12 -9 3 -0.8171 -0.0291
-12 -9 4 2.1257 -0.0280
-12 -9 5 -1.0239 0.0339
-12 -9 6 -3.1090 0.0195
-12 -9 7 -2.2073 0.0286
-12 -9 8 -1.4315 0.0419
-12 -9 9 -0.4542 -0.0144
-12 -9 10 0.5133 0.0113
-12 -9 11 1.2592 -0.0083
-12 -9 12 1.9906 -0.0225
-12 -9 13 0.1097 -0.0087
-12 -9 14 3.4703 -0.0155
-12 -9 15 -0.1432 -0.0051
-12 -9 16 -2.0011 0.0113
-12 -9 17 -1.7407 -0.0190
-12 -8 1 4.1621 0.0392
-12 -8 2 1.1593 0.0728
-12 -8 3 -0.1773 0.0663
-12 -8 4 -2.6467 0.0339
-12 -8 5 -0.7422 0.0272
-12 -8 6 0.3214 0.0079
-12 -8 7 -1.5635 0.0126
-12 -8 8 -3.4774 0.0066
-12 -8 9 -2.3007 -0.0002
-12 -8 10 -2.8253 -0.0261
-12 -8 11 -4.5310 -0.0047
-12 -8 12 -4.8090 -0.0368
-12 -8 13 -1.0006 0.0147
-12 -8 14 -1.6572 -0.0006
-12 -8 15 1.7490 -0.0169
-12 -8 16 1.4092 0.0328
-12 -8 17 -1.3323 0.0229
-12 -8 18 -0.0611 0.0013
-12 -7 1 0.9718 0.1391
-12 -7 2 2.9108 0.0652
-12 -7 3 -1.7752 0.0625
-12 -7 4 -1.4355 0.0336
-12 -7 5 0.0657 -0.0006
-12 -7 6 1.0143 -0.0187
-12 -7 7 0.4896 -0.0547
-12 -7 8 -0.2970 -0.0444
-12 -7 9 -2.0317 -0.0497
-12 -7 10 -0.8213 -0.0110
-12 -7 11 -0.5300 -0.0217
-12 -7 12 0.2626 0.0051
-12 -7 13 -1.4972 0.0013
-12 -7 14 0.0539 -0.0030
-12 -7 15 0.4436 -0.0069
-12 -7 16 -1.0843 0.0219
-12 -7 17 -0.3038 0.0019
-12 -7 18 -1.2089 -0.0338
-12 -7 19 0.9318 0.0183
-12 -6 1 -4.6360 0.1354
-12 -6 2 0.4444 0.0499
-12 -6 3 1.1993 -0.0505
-12 -6 4 -0.8762 -0.0443
-12 -6 5 -1.6398 -0.0450
-12 -6 6 -0.9981 -0.0425
-12 -6 7 1.5100 -0.0010
-12 -6 8 -0.2687 0.0002
-12 -6 9 0.0834 0.0048
-12 -6 10 0.2542 0.0325
-12 -6 11 2.5009 0.0447
-12 -6 12 2.1449 0.0072
-12 -6 13 2.4510 0.0534
-12 -6 14 1.4239 0.0369
-12 -6 15 -2.0364 -0.0189
-12 -6 16 0.0715 0.0051
-12 -6 17 -0.7913 0.0089
-12 -6 18 -0.9673 -0.0109
-12 -6 19 -0.4779 0.0020
-12 -5 1 1.6134 -0.1273
-12 -5 2 -0.5656 0.0556
-12 -5 3 1.7478 0.0100
-12 -5 4 1.7934 -0.0578
-12 -5 5 3.1416 -0.0161
-12 -5 6 3.4116 -0.0088
-12 -5 7 -1.4733 0.0123
-12 -5 8 1.0909 0.0434
-12 -5 9 0.7068 0.0274
-12 -5 10 -0.4359 0.0111
-12 -5 11 0.0522 0.0233
-12 -5 12 0.3112 0.0011
-12 -5 13 -0.1553 -0.0143
-12 -5 14 0.4463 -0.0087
-12 -5 15 1.4789 -0.0284
-12 -5 16 -1.2541 -0.0144
-12 -5 17 -0.1318 0.0170
-12 -5 18 -1.2542 -0.0208
-12 -5 19 0.3145 0.0093
-12 -5 20 1.0509 0.0656
-12 -4 1 -1.6365 -0.2813
-12 -4 2 1.3854 -0.1638
-12 -4 3 1.3517 0.0293
-12 -4 4 2.9198 0.0467
-12 -4 5 2.6041 -0.0081
-12 -4 6 1.0168 0.0185
-12 -4 7 -0.2117 0.0083
-12 -4 8 -4.4107 0.0068
-12 -4 9 0.4490 0.0147
-12 -4 10 1.5502 -0.0003
-12 -4 11 1.4096 -0.0274
-12 -4 12 3.0614 -0.0179
-12 -4 13 -0.1640 -0.0343
-12 -4 14 -0.7548 -0.0185
-12 -4 15 -1.6134 -0.0212
-12 -4 16 -0.9531 -0.0269
-12 -4 17 0.7906 0.0016
-12 -4 18 0.5437 0.0018
-12 -4 19 -1.3506 -0.0197
-12 -4 20 -0.8269 0.0355
-12 -3 1 3.4396 0.0615
-12 -3 2 -0.4128 -0.1237
-12 -3 3 1.8132 -0.0828
-12 -3 4 -1.0570 0.0633
-12 -3 5 -1.7934 0.0649
-12 -3 6 3.1437 0.0117
-12 -3 7 1.1185 0.0198
-12 -3 8 -0.1066 -0.0130
-12 -3 9 0.0647 -0.0141
-12 -3 10 2.1634 -0.0062
-12 -3 11 1.9520 -0.0158
-12 -3 12 -1.2029 -0.0195
-12 -3 13 -2.2181 0.0179
-12 -3 14 -2.4737 0.0124
-12 -3 15 -0.5416 0.0059
-12 -3 16 1.0288 0.0254
-12 -3 17 0.6600 0.0363
-12 -3 18 -0.2394 0.0071
-12 -3 19 -1.1586 -0.0350
-12 -3 20 -0.4415 -0.0441
-12 -2 1 -0.3944 0.2087
-12 -2 2 1.7980 0.1670
-12 -2 3 0.7313 0.0032
-12 -2 4 4.2480 -0.0249
-12 -2 5 2.6481 0.0286
-12 -2 6 -1.1402 -0.0055
-12 -2 7 3.4745 -0.0270
-12 -2 8 4.3103 -0.0101
-12 -2 9 3.4480 -0.0169
-12 -2 10 1.0676 -0.0017
-12 -2 11 -1.4493 0.0240
-12 -2 12 -0.6096 0.0164
-12 -2 13 -1.8764 0.0083
-12 -2 14 -2.4716 0.0318
-12 -2 15 -0.6255 -0.0009
-12 -2 16 -0.1001 -0.0392
-12 -2 17 0.1079 0.0049
-12 -2 18 -0.3199 0.0309
-12 -2 19 -1.3095 0.0151
-12 -2 20 -3.5200 -0.0056
-12 -1 1 0.5292 0.0537
-12 -1 2 1.8578 0.1199
-12 -1 3 2.8700 0.0955
-12 -1 4 -0.1835 -0.0103
-12 -1 5 -0.2998 -0.0462
-12 -1 6 -0.1656 -0.0129
-12 -1 7 -3.5565 -0.0398
-12 -1 8 -1.9068 -0.0304
-12 -1 9 -0.2624 0.0033
-12 -1 10 0.3213 -0.0013
-12 -1 11 0.5527 0.0040
-12 -1 12 -1.8011 0.0289
-12 -1 13 -1.5465 -0.0112
-12 -1 14 -0.5539 -0.0137
-12 -1 15 -1.5577 0.0082
-12 -1 16 0.1061 -0.0314
-12 -1 17 1.4412 -0.0467
-12 -1 18 -2.5488 0.0010
-12 -1 19 -2.7786 0.0074
-12 -1 20 -0.2195 -0.0032
-12 0 1 1.6787 0.0148
-12 0 2 1.2443 -0.0428
-12 0 3 0.8121 -0.0109
-12 0 4 0.2696 0.0073
-12 0 5 -0.6180 -0.0313
-12 0 6 -1.2801 -0.0197
-12 0 7 -2.2739 0.0134
-12 0 8 -2.0433 -0.0262
-12 0 9 0.6333 -0.0049
-12 0 10 -0.0616 0.0050
-12 0 11 -2.3782 -0.0146
-12 0 12 -0.7645 -0.0004
-12 0 13 0.4055 0.0216
-12 0 14 -0.0867 -0.0106
-12 0 15 -1.6258 0.0052
-12 0 16 -1.3592 0.0387
-12 0 17 -2.4141 0.0034
-12 0 18 -0.8931 -0.0269
-12 0 19 -1.5759 -0.0038
-12 0 20 -1.3330 -0.0427
-12 1 1 -0.2974 -0.1163
-12 1 2 1.0587 -0.0187
-12 1 3 1.9244 -0.0705
-12 1 4 -1.3359 -0.0552
-12 1 5 -2.5510 -0.0232
-12 1 6 -0.0805 -0.0097
-12 1 7 0.5928 0.0400
-12 1 8 0.5213 0.0608
-12 1 9 0.3557 0.0158
-12 1 10 0.2424 0.0179
-12 1 11 1.5942 0.0167
-12 1 12 -1.8961 0.0053
-12 1 13 -0.1011 0.0184
-12 1 14 2.9131 0.0201
-12 1 15 -1.2556 -0.0127
-12 1 16 -4.4781 0.0084
-12 1 17 1.0876 0.0432
-12 1 18 -1.1184 0.0128
-12 1 19 0.0464 0.0031
-12 1 20 0.9850 0.0504
-12 2 1 1.1904 -0.2589
-12 2 2 -1.8966 -0.0948
-12 2 3 -3.1187 0.0326
-12 2 4 -2.2900 0.0130
-12 2 5 -1.1172 0.0015
-12 2 6 -0.0812 0.0095
-12 2 7 -1.5690 0.0090
-12 2 8 -1.3967 0.0366
-12 2 9 -0.7805 0.0350
-12 2 10 0.9923 -0.0003
-12 2 11 -0.3132 -0.0096
-12 2 12 1.2929 -0.0157
-12 2 13 -0.6801 -0.0144
-12 2 14 -0.0606 0.0151
-12 2 15 2.3693 -0.0116
-12 2 16 0.0069 -0.0531
-12 2 17 -5.2568 -0.0111
-12 2 18 0.4290 0.0300
-12 2 19 1.0614 0.0214
-12 3 1 -0.2673 0.0690
-12 3 2 -0.4912 -0.1231
-12 3 3 -0.7192 -0.0155
-12 3 4 -1.4432 0.0871
-12 3 5 -0.7831 0.0584
-12 3 6 0.1969 0.0137
-12 3 7 0.2709 -0.0121
-12 3 8 -3.7705 -0.0285
-12 3 9 -4.2995 -0.0112
-12 3 10 -3.4773 -0.0234
-12 3 11 3.6399 -0.0181
-12 3 12 2.3979 -0.0163
-12 3 13 2.3469 -0.0267
-12 3 14 2.1298 -0.0100
-12 3 15 -0.8074 0.0115
-12 3 16 -0.0741 -0.0169
-12 3 17 0.8141 -0.0577
-12 3 18 -3.8111 -0.0545
-12 3 19 -0.9344 -0.0171
-12 4 1 1.3816 0.3280
-12 4 2 1.9369 0.1507
-12 4 3 1.5212 -0.0373
-12 4 4 -0.2978 -0.0056
-12 4 5 0.5531 0.0454
-12 4 6 1.9320 0.0182
-12 4 7 -0.9403 -0.0251
-12 4 8 -1.8586 -0.0277
-12 4 9 -5.6615 -0.0276
-12 4 10 -1.9687 -0.0158
-12 4 11 -0.9949 -0.0047
-12 4 12 3.8503 0.0185
-12 4 13 3.3352 0.0240
-12 4 14 -0.3786 0.0339
-12 4 15 1.6110 0.0339
-12 4 16 2.2067 0.0003
-12 4 17 0.7363 -0.0354
-12 4 18 1.1685 -0.0647
-12 5 1 -0.5410 0.0599
-12 5 2 0.2596 0.1987
-12 5 3 2.2844 0.0755
-12 5 4 1.9859 -0.0620
-12 5 5 0.6952 -0.0527
-12 5 6 -0.4181 -0.0098
-12 5 7 1.1960 -0.0242
-12 5 8 0.9139 -0.0220
-12 5 9 1.2484 0.0131
-12 5 10 -0.9659 0.0166
-12 5 11 2.8970 0.0240
-12 5 12 0.3064 0.0180
-12 5 13 2.6464 0.0059
-12 5 14 3.4473 0.0068
-12 5 15 -3.8294 0.0073
-12 5 16 -0.4283 0.0265
-12 5 17 2.2048 0.0722
-12 5 18 0.1738 0.0518
-12 6 1 -1.9565 -0.1884
-12 6 2 -0.3890 -0.0997
-12 6 3 1.9686 0.0409
-12 6 4 -0.2901 0.0021
-12 6 5 -1.7971 -0.0565
-12 6 6 -2.5086 -0.0107
-12 6 7 -3.0031 0.0120
-12 6 8 0.2711 -0.0140
-12 6 9 -0.8724 0.0120
-12 6 10 1.2642 0.0204
-12 6 11 1.4358 0.0112
-12 6 12 -0.4807 -0.0054
-12 6 13 -1.1223 -0.0584
-12 6 14 2.6240 -0.0338
-12 6 15 3.7170 0.0149
-12 6 16 -1.0579 -0.0232
-12 6 17 -1.4642 -0.0228
-12 7 1 -2.9069 -0.1276
-12 7 2 -1.0906 -0.1422
-12 7 3 -0.5925 -0.0960
-12 7 4 0.0023 0.0122
-12 7 5 -0.0918 -0.0068
-12 7 6 -3.3961 -0.0100
-12 7 7 -3.8538 0.0346
-12 7 8 1.7237 0.0266
-12 7 9 2.4779 -0.0148
-12 7 10 -0.9416 -0.0156
-12 7 11 -0.2876 -0.0059
-12 7 12 -1.1823 0.0179
-12 7 13 -1.0970 0.0044
-12 7 14 -0.3950 -0.0506
-12 7 15 1.9351 -0.0326
-12 7 16 3.9368 -0.0497
-12 8 1 -1.0324 -0.0497
-12 8 2 -2.6726 -0.0211
-12 8 3 0.6628 -0.0189
-12 8 4 -1.2292 -0.0022
-12 8 5 -0.5816 0.0363
-12 8 6 2.0273 0.0086
-12 8 7 1.0667 0.0232
-12 8 8 1.0443 0.0402
-12 8 9 3.9910 0.0167
-12 8 10 2.2420 -0.0003
-12 8 11 1.4468 0.0088
-12 8 12 0.5701 0.0150
-12 8 13 -2.3271 -0.0001
-12 8 14 -0.4182 -0.0119
-12 8 15 -1.3135 0.0160
-12 8 16 -0.1601 0.0592
-12 9 1 -2.4377 0.1124
-12 9 2 -0.5711 0.0307
-12 9 3 -2.4401 0.0465
-12 9 4 -1.7923 0.0572
-12 9 5 -0.4362 0.0547
-12 9 6 -0.6474 0.0263
-12 9 7 -0.6203 -0.0326
-12 9 8 1.3863 -0.0218
-12 9 9 -0.6913 0.0150
-12 9 10 -1.4032 -0.0180
-12 9 11 -1.2037 -0.0343
-12 9 12 -0.5170 0.0307
-12 9 13 2.3031 0.0586
-12 9 14 -0.4479 0.0312
-12 9 15 -0.5781 0.0240
-12 10 1 -1.8591 0.2116
-12 10 2 -2.7447 0.0977
-12 10 3 0.3720 -0.0220
-12 10 4 -2.2246 -0.0307
-12 10 5 -0.8141 -0.0119
-12 10 6 3.3233 -0.0241
-12 10 7 1.6892 -0.0199
-12 10 8 0.5227 -0.0398
-12 10 9 0.3895 -0.0664
-12 10 10 -0.8571 -0.0072
-12 10 11 -0.3095 0.0005
-12 10 12 0.9071 -0.0308
-12 10 13 0.2530 0.0124
-12 11 1 -0.5316 -0.0180
-12 11 2 -0.5271 0.0815
-12 11 3 -0.6062 0.0306
-12 11 4 0.7055 -0.0961
-12 11 5 3.0731 -0.0429
-12 11 6 3.4354 -0.0037
-12 11 7 3.7028 -0.0240
-12 11 8 0.5236 0.0205
-12 11 9 -0.1582 0.0414
-12 11 10 -1.2851 -0.0011
-12 11 11 -0.2185 -0.0279
-12 11 12 0.4071 -0.0490
-12 12 1 2.6469 -0.2007
-12 12 2 -1.8646 -0.0788
-12 12 3 -0.0602 0.0349
-12 12 4 0.1703 0.0144
-12 12 5 -1.4308 -0.0392
-12 12 6 2.6640 0.0056
-12 12 7 1.4047 0.0579
-12 12 8 1.1184 0.0820
-12 12 9 -1.9327 0.0495
-12 12 10 -1.1792 0.0256
-12 12 11 -1.2096 0.0339
-12 13 1 0.4292 -0.1265
-12 13 2 0.3716 -0.1501
-12 13 3 -0.0814 0.0005
-12 13 4 0.5481 0.0061
-12 13 5 1.6506 0.0359
-12 13 6 -1.1597 0.0694
-12 13 7 0.7958 0.0558
-12 13 8 -0.4859 0.0859
-12 13 9 1.0178 0.0890
-12 14 1 -1.0071 0.1075
-12 14 2 -0.1856 -0.0142
-12 14 3 1.8872 -0.0292
-12 14 4 3.9714 0.0459
-12 14 5 0.6062 0.0347
-12 14 6 0.0819 0.0392
-12 14 7 -2.6689 0.0641
-12 15 1 0.2637 0.0836
-12 15 2 -1.2009 0.0695
-12 15 3 -0.2193 0.0358
-12 15 4 1.0449 -0.0171
-11 -14 6 2.1358 0.0568
-11 -14 7 0.5692 0.0976
-11 -14 8 -0.4906 0.0270
-11 -14 9 2.3309 0.0231
-11 -14 10 0.2656 -0.0234
-11 -14 11 -2.3879 -0.0112
-11 -13 2 -1.0446 0.0384
-11 -13 3 -1.4234 0.0091
-11 -13 4 0.4203 0.0103
-11 -13 5 -1.8771 0.0036
-11 -13 6 -0.9517 0.0041
-11 -13 7 -0.9853 -0.0135
-11 -13 8 -2.2737 0.0090
-11 -13 9 -4.3429 -0.0151
-11 -13 10 -1.7146 -0.0160
-11 -13 11 -0.9828 -0.0076
-11 -13 12 -3.5118 -0.0258
-11 -13 13 -3.6466 -0.0311
-11 -13 14 -1.1451 0.0107
-11 -13 15 0.5668 -0.0109
-11 -12 1 -0.6278 0.0526
-11 -12 2 0.6186 0.0579
-11 -12 3 -1.6244 0.0610
-11 -12 4 -2.0123 0.0242
-11 -12 5 2.1607 -0.0121
-11 -12 6 -1.4473 -0.0158
-11 -12 7 -3.3141 -0.0731
-11 -12 8 -5.3579 -0.0445
-11 -12 9 -0.3565 -0.0412
-11 -12 10 -1.0893 -0.0358
-11 -12 11 -2.1068 -0.0136
-11 -12 12 1.1957 0.0117
-11 -12 13 1.4953 -0.0112
-11 -12 14 0.1640 0.0044
-11 -12 15 1.0276 -0.0023
-11 -12 16 1.4469 0.0108
-11 -12 17 2.8538 -0.0257
-11 -11 1 -0.3075 0.0907
-11 -11 2 0.1865 -0.0076
-11 -11 3 -0.6034 -0.0051
-11 -11 4 2.1530 -0.0184
-11 -11 5 -1.7454 0.0001
-11 -11 6 1.5119 -0.0283
-11 -11 7 1.1520 -0.0230
-11 -11 8 -0.9298 -0.0578
-11 -11 9 -4.1547 -0.0151
-11 -11 10 0.9462 -0.0177
-11 -11 11 0.8574 0.0272
-11 -11 12 -0.4199 0.0220
-11 -11 13 0.4358 0.0573
-11 -11 14 1.9987 0.0334
-11 -11 15 -0.1116 0.0232
-11 -11 16 -0.6471 -0.0121
-11 -11 17 -0.3450 -0.0029
-11 -11 18 1.8755 -0.0497
-11 -10 1 -1.8647 0.0491
-11 -10 2 -0.1210 0.0324
-11 -10 3 1.7187 -0.0378
-11 -10 4 -2.2763 -0.0453
-11 -10 5 2.8037 -0.0516
-11 -10 6 -0.5525 0.0012
-11 -10 7 0.3434 -0.0099
-11 -10 8 -0.4620 0.0417
-11 -10 9 0.5898 0.0072
-11 -10 10 -1.7262 0.0219
-11 -10 11 -1.6330 0.0315
-11 -10 12 -2.3752 0.0261
-11 -10 13 -1.8883 0.0114
-11 -10 14 -1.7409 0.0381
-11 -10 15 1.8568 -0.0349
-11 -10 16 -1.0008 0.0128
-11 -10 17 0.7518 0.0278
-11 -10 18 2.4437 0.0065
-11 -10 19 2.2077 0.0139
-11 -9 1 -0.0902 -0.2104
-11 -9 2 -0.2483 -0.0307
-11 -9 3 -2.8565 0.0390
-11 -9 4 2.9188 -0.0160
-11 -9 5 -1.3285 0.0022
-11 -9 6 -0.3346 0.0146
-11 -9 7 -0.3113 0.0049
-11 -9 8 0.8909 0.0191
-11 -9 9 -0.7823 0.0363
-11 -9 10 1.8672 -0.0100
-11 -9 11 2.3084 0.0120
-11 -9 12 1.8153 -0.0189
-11 -9 13 -1.2294 -0.0417
-11 -9 14 2.0038 -0.0038
-11 -9 15 1.4425 0.0035
-11 -9 16 0.9131 -0.0276
-11 -9 17 -2.0882 0.0039
-11 -9 18 -1.1494 -0.0114
-11 -9 19 0.0764 -0.0119
-11 -9 20 1.4929 0.0594
-11 -8 1 -1.7535 -0.1463
-11 -8 2 1.9044 -0.1657
-11 -8 3 0.0355 0.0112
-11 -8 4 -8.1630 0.0518
-11 -8 5 -2.2239 0.0083
-11 -8 6 -0.7099 0.0205
-11 -8 7 -0.9359 0.0217
-11 -8 8 -2.0632 0.0009
-11 -8 9 0.1489 0.0037
-11 -8 10 -0.1545 -0.0158
-11 -8 11 0.3399 -0.0143
-11 -8 12 0.3723 -0.0037
-11 -8 13 1.7611 0.0008
-11 -8 14 -1.7203 -0.0009
-11 -8 15 1.6579 -0.0063
-11 -8 16 1.3966 -0.0106
-11 -8 17 -1.6912 0.0115
-11 -8 18 -2.9904 -0.0049
-11 -8 19 -1.6686 -0.0200
-11 -8 20 0.4296 0.0052
-11 -7 1 -0.6579 0.2020
-11 -7 2 0.2544 -0.0036
-11 -7 3 0.2929 -0.0644
-11 -7 4 -0.9822 0.0455
-11 -7 5 -5.2434 0.0443
-11 -7 6 -2.8048 0.0122
-11 -7 7 0.1926 -0.0008
-11 -7 8 -0.1885 0.0032
-11 -7 9 -3.8973 -0.0272
-11 -7 10 -2.7206 -0.0156
-11 -7 11 -0.7167 -0.0011
-11 -7 12 0.4051 0.0021
-11 -7 13 -1.3958 -0.0056
-11 -7 14 0.8133 0.0240
-11 -7 15 -0.0332 0.0055
-11 -7 16 0.9371 0.0080
-11 -7 17 1.7421 0.0093
-11 -7 18 -0.8185 -0.0000
-11 -7 19 -1.7735 -0.0011
-11 -7 20 -2.1356 0.0310
-11 -7 21 -0.7189 0.0517
-11 -6 1 -6.2004 0.1720
-11 -6 2 -1.7638 0.2076
-11 -6 3 1.6467 0.0526
-11 -6 4 0.4718 -0.0391
-11 -6 5 -1.6710 0.0160
-11 -6 6 -2.3585 -0.0159
-11 -6 7 -3.1000 -0.0491
-11 -6 8 -3.1561 -0.0196
-11 -6 9 -1.8452 -0.0025
-11 -6 10 -2.5949 -0.0245
-11 -6 11 0.0403 0.0011
-11 -6 12 3.7137 0.0031
-11 -6 13 4.3560 -0.0032
-11 -6 14 0.8959 0.0086
-11 -6 15 -0.8800 0.0024
-11 -6 16 -0.6907 -0.0334
-11 -6 17 0.6655 -0.0015
-11 -6 18 0.8869 0.0163
-11 -6 19 -1.3901 -0.0157
-11 -6 20 -0.2794 0.0034
-11 -6 21 -0.4691 0.0435
-11 -5 1 0.9615 -0.0050
-11 -5 2 -6.3108 0.0368
-11 -5 3 -1.8368 0.0850
-11 -5 4 0.5430 -0.0039
-11 -5 5 3.0730 -0.0471
-11 -5 6 0.8018 0.0033
-11 -5 7 -0.6940 -0.0121
-11 -5 8 -1.4062 -0.0353
-11 -5 9 -0.7482 0.0063
-11 -5 10 0.6263 0.0137
-11 -5 11 0.2367 0.0027
-11 -5 12 1.2470 0.0171
-11 -5 13 1.3642 0.0174
-11 -5 14 0.8363 -0.0073
-11 -5 15 1.4634 0.0112
-11 -5 16 -1.4907 0.0085
-11 -5 17 -1.8747 0.0095
-11 -5 18 1.8687 0.0258
-11 -5 19 3.0301 0.0012
-11 -5 20 0.1642 -0.0253
-11 -5 21 -2.4243 -0.0036
-11 -4 1 -1.0417 -0.0362
-11 -4 2 -1.1198 -0.0821
-11 -4 3 -3.8141 -0.0747
-11 -4 4 2.0961 0.0001
-11 -4 5 0.3338 -0.0213
-11 -4 6 1.3304 -0.0149
-11 -4 7 0.4378 0.0351
-11 -4 8 -2.1067 0.0171
-11 -4 9 -1.4924 -0.0173
-11 -4 10 0.0591 0.0233
-11 -4 11 1.2643 0.0012
-11 -4 12 2.8523 -0.0014
-11 -4 13 0.5715 0.0029
-11 -4 14 -1.6330 0.0131
-11 -4 15 -2.5216 0.0045
-11 -4 16 -0.8264 0.0081
-11 -4 17 1.1619 -0.0038
-11 -4 18 -0.2334 0.0334
-11 -4 19 -0.3316 0.0448
-11 -4 20 1.6058 0.0050
-11 -4 21 0.9190 0.0001
-11 -4 22 -2.5276 0.0261
-11 -3 1 -0.2502 -0.1749
-11 -3 2 -1.1462 -0.0265
-11 -3 3 -0.3403 -0.0550
-11 -3 4 -3.9078 -0.0597
-11 -3 5 -0.6614 0.0016
-11 -3 6 -1.5617 -0.0155
-11 -3 7 -1.6241 0.0187
-11 -3 8 -2.6687 0.0530
-11 -3 9 -1.5398 0.0186
-11 -3 10 1.7718 -0.0111
-11 -3 11 0.6966 0.0014
-11 -3 12 -1.0846 -0.0363
-11 -3 13 -0.2110 -0.0084
-11 -3 14 -1.2209 -0.0069
-11 -3 15 -1.5912 -0.0120
-11 -3 16 -1.5665 -0.0073
-11 -3 17 0.1613 0.0054
-11 -3 18 2.0325 -0.0037
-11 -3 19 -0.2984 0.0070
-11 -3 20 0.1393 0.0128
-11 -3 21 0.6170 0.0132
-11 -3 22 1.1245 0.0468
-11 -2 1 -4.4883 -0.1978
-11 -2 2 -0.9901 -0.1189
-11 -2 3 -0.0354 0.0631
-11 -2 4 2.9169 0.0522
-11 -2 5 0.4163 0.0231
-11 -2 6 1.3180 0.0217
-11 -2 7 2.2037 -0.0044
-11 -2 8 3.6495 0.0151
-11 -2 9 3.5630 0.0230
-11 -2 10 0.2562 0.0002
-11 -2 11 -0.2460 -0.0066
-11 -2 12 -1.6587 0.0126
-11 -2 13 -3.9654 -0.0063
-11 -2 14 -1.4080 0.0009
-11 -2 15 1.0179 0.0043
-11 -2 16 -0.1161 -0.0134
-11 -2 17 0.4182 -0.0217
-11 -2 18 1.6835 -0.0052
-11 -2 19 -0.2367 0.0027
-11 -2 20 -2.3141 -0.0011
-11 -2 21 -1.0409 -0.0265
-11 -2 22 -1.2538 -0.0417
-11 -1 1 -0.3039 0.2581
-11 -1 2 -0.7324 -0.0304
-11 -1 3 2.1811 -0.0438
-11 -1 4 1.6021 0.0912
-11 -1 5 1.2416 0.0738
-11 -1 6 1.1374 0.0176
-11 -1 7 1.1664 -0.0092
-11 -1 8 -0.5284 -0.0356
-11 -1 9 -0.1017 -0.0274
-11 -1 10 2.0780 0.0032
-11 -1 11 -1.3173 -0.0070
-11 -1 12 -1.6173 -0.0029
-11 -1 13 -2.4278 0.0136
-11 -1 14 -2.3081 0.0160
-11 -1 15 0.4034 0.0017
-11 -1 16 0.4931 -0.0111
-11 -1 17 0.0081 -0.0106
-11 -1 18 -1.6436 -0.0029
-11 -1 19 -0.1523 0.0275
-11 -1 20 0.8447 0.0344
-11 -1 21 -0.2943 -0.0300
-11 -1 22 -1.4406 -0.0522
-11 0 1 3.2514 0.3290
-11 0 2 1.0239 0.2593
-11 0 3 -0.2579 -0.0103
-11 0 4 0.7219 -0.0733
-11 0 5 -1.2160 0.0091
-11 0 6 -1.8354 -0.0015
-11 0 7 -1.3116 -0.0225
-11 0 8 0.0897 -0.0232
-11 0 9 1.9039 -0.0253
-11 0 10 -3.0909 -0.0338
-11 0 11 -2.3941 -0.0073
-11 0 12 -0.5368 -0.0066
-11 0 13 -0.4592 -0.0050
-11 0 14 -0.6039 0.0025
-11 0 15 0.3476 0.0130
-11 0 16 -0.2051 0.0219
-11 0 17 -3.2491 0.0336
-11 0 18 -0.4455 0.0013
-11 0 19 -2.9499 -0.0325
-11 0 20 -0.4726 0.0095
-11 0 21 0.9541 0.0431
-11 1 1 0.9788 -0.1567
-11 1 2 3.4718 0.1133
-11 1 3 1.0886 0.1131
-11 1 4 -0.8904 -0.0724
-11 1 5 -1.9452 -0.0973
-11 1 6 0.2458 -0.0239
-11 1 7 2.8906 -0.0245
-11 1 8 0.9006 -0.0182
-11 1 9 0.0134 0.0129
-11 1 10 3.1218 0.0166
-11 1 11 -2.6010 0.0013
-11 1 12 -3.8259 0.0114
-11 1 13 -0.7759 -0.0206
-11 1 14 -0.2505 -0.0199
-11 1 15 0.4323 0.0114
-11 1 16 -0.6581 -0.0062
-11 1 17 0.6691 0.0063
-11 1 18 -3.1831 0.0166
-11 1 19 -0.2629 -0.0227
-11 1 20 -0.7409 -0.0208
-11 1 21 1.7574 -0.0173
-11 2 1 0.1339 -0.2571
-11 2 2 -0.8755 -0.2327
-11 2 3 -0.5105 -0.0330
-11 2 4 -0.8065 0.0319
-11 2 5 -1.6275 -0.0546
-11 2 6 0.3761 -0.0196
-11 2 7 1.6492 0.0444
-11 2 8 0.6089 0.0072
-11 2 9 0.2341 0.0161
-11 2 10 -1.7007 0.0426
-11 2 11 -0.6613 0.0030
-11 2 12 0.1039 0.0116
-11 2 13 -2.4951 0.0162
-11 2 14 -1.1219 -0.0188
-11 2 15 -0.3239 -0.0160
-11 2 16 0.7899 -0.0029
-11 2 17 -0.1033 -0.0065
-11 2 18 2.9373 0.0150
-11 2 19 -0.3927 -0.0160
-11 2 20 1.1405 -0.0829
-11 2 21 -0.8670 -0.0460
-11 3 1 -2.9071 -0.0569
-11 3 2 -3.3431 -0.1218
-11 3 3 -3.3264 -0.1199
-11 3 4 -1.7007 -0.0025
-11 3 5 -0.0131 0.0481
-11 3 6 0.2901 0.0102
-11 3 7 1.8716 0.0582
-11 3 8 0.9135 0.0631
-11 3 9 -2.8371 -0.0045
-11 3 10 -3.1877 -0.0144
-11 3 11 1.6998 0.0102
-11 3 12 0.9998 -0.0117
-11 3 13 3.2823 0.0067
-11 3 14 1.1902 0.0000
-11 3 15 -2.4514 -0.0022
-11 3 16 -1.3927 0.0262
-11 3 17 1.0382 0.0164
-11 3 18 -2.3897 -0.0091
-11 3 19 0.0313 0.0080
-11 3 20 -0.7824 0.0292
-11 4 1 -1.2099 -0.0019
-11 4 2 -1.3316 0.0622
-11 4 3 -0.9319 0.0592
-11 4 4 -0.8922 0.0321
-11 4 5 -0.6942 0.0396
-11 4 6 0.4965 0.0070
-11 4 7 -1.8141 -0.0335
-11 4 8 -1.3770 0.0105
-11 4 9 -1.6211 0.0082
-11 4 10 -1.9571 -0.0344
-11 4 11 -2.6218 -0.0418
-11 4 12 2.0268 -0.0145
-11 4 13 -0.0521 -0.0051
-11 4 14 2.9599 0.0260
-11 4 15 2.2228 0.0018
-11 4 16 -1.2391 -0.0494
-11 4 17 0.8386 -0.0267
-11 4 18 0.7377 0.0190
-11 4 19 -0.5787 0.0585
-11 4 20 2.1011 0.0385
-11 5 1 -1.5059 0.2106
-11 5 2 -0.5536 0.0443
-11 5 3 3.1290 0.0487
-11 5 4 1.8779 0.0627
-11 5 5 -0.3964 0.0234
-11 5 6 -1.2961 0.0016
-11 5 7 -2.7662 -0.0443
-11 5 8 -2.3721 -0.0715
-11 5 9 1.7117 -0.0130
-11 5 10 0.3965 0.0065
-11 5 11 5.0335 -0.0059
-11 5 12 2.3322 0.0148
-11 5 13 0.4314 0.0140
-11 5 14 0.4622 -0.0166
-11 5 15 1.0312 -0.0079
-11 5 16 2.4915 -0.0037
-11 5 17 3.9802 -0.0419
-11 5 18 3.8260 -0.0316
-11 5 19 -0.1175 -0.0090
-11 6 1 -2.1551 0.2494
-11 6 2 -3.0469 0.1256
-11 6 3 2.1482 -0.0457
-11 6 4 4.1948 -0.0488
-11 6 5 0.3591 0.0014
-11 6 6 -0.6266 0.0059
-11 6 7 -4.0253 0.0089
-11 6 8 -4.6534 -0.0166
-11 6 9 0.9542 -0.0120
-11 6 10 3.7241 0.0214
-11 6 11 3.5759 0.0219
-11 6 12 6.2714 -0.0070
-11 6 13 -0.0085 0.0015
-11 6 14 -0.5797 0.0051
-11 6 15 0.0753 0.0136
-11 6 16 -2.1780 0.0369
-11 6 17 1.1003 0.0060
-11 6 18 0.6567 -0.0245
-11 6 19 0.2492 0.0561
-11 7 1 0.1477 -0.1653
-11 7 2 -1.7770 0.0958
-11 7 3 -0.8655 0.0298
-11 7 4 0.6039 -0.0791
-11 7 5 -1.1443 -0.0849
-11 7 6 -1.7944 -0.0181
-11 7 7 -3.6448 0.0207
-11 7 8 -4.1104 0.0300
-11 7 9 -2.4603 0.0099
-11 7 10 -1.1302 0.0114
-11 7 11 -1.9542 0.0005
-11 7 12 1.0355 -0.0001
-11 7 13 3.7956 0.0116
-11 7 14 0.4424 0.0177
-11 7 15 0.1612 -0.0091
-11 7 16 -0.6263 0.0032
-11 7 17 -2.3455 0.0436
-11 7 18 -0.4942 0.0098
-11 8 1 2.3068 -0.3193
-11 8 2 -0.7086 -0.1903
-11 8 3 -0.1138 0.0269
-11 8 4 -0.4642 0.0214
-11 8 5 -3.1702 -0.0263
-11 8 6 -2.2752 -0.0309
-11 8 7 1.6377 0.0151
-11 8 8 -0.6259 0.0189
-11 8 9 1.0455 0.0101
-11 8 10 -0.1809 0.0203
-11 8 11 0.8611 0.0216
-11 8 12 -1.3248 -0.0161
-11 8 13 -0.4483 -0.0357
-11 8 14 4.5523 -0.0337
-11 8 15 0.4660 0.0177
-11 8 16 -0.4265 0.0611
-11 8 17 0.8241 -0.0140
-11 9 1 0.5476 0.0065
-11 9 2 2.2577 -0.1547
-11 9 3 -0.2475 -0.0834
-11 9 4 0.7076 0.0714
-11 9 5 -0.5159 0.0698
-11 9 6 -1.2414 0.0184
-11 9 7 -1.6883 0.0058
-11 9 8 2.6631 0.0231
-11 9 9 -0.1159 -0.0049
-11 9 10 -0.0671 -0.0310
-11 9 11 -2.0567 -0.0079
-11 9 12 -1.2348 -0.0029
-11 9 13 -1.0370 0.0125
-11 9 14 -0.7338 0.0198
-11 9 15 2.4602 -0.0310
-11 9 16 -1.4072 -0.0007
-11 10 1 -0.0502 0.1877
-11 10 2 -0.7080 0.1173
-11 10 3 0.6864 -0.0062
-11 10 4 -2.4623 -0.0054
-11 10 5 -2.8236 0.0506
-11 10 6 -1.1089 0.0205
-11 10 7 -0.5020 -0.0257
-11 10 8 -2.5916 -0.0100
-11 10 9 -0.1536 -0.0214
-11 10 10 -2.7667 -0.0171
-11 10 11 -0.1184 0.0154
-11 10 12 1.7179 0.0300
-11 10 13 -0.0972 0.0095
-11 10 14 1.4573 -0.0156
-11 10 15 0.0866 -0.0126
-11 10 16 -0.0844 0.0068
-11 11 1 1.4016 0.1444
-11 11 2 -0.6590 0.1256
-11 11 3 -2.3926 0.0840
-11 11 4 0.1408 -0.0080
-11 11 5 -1.0701 -0.0047
-11 11 6 0.5409 -0.0023
-11 11 7 1.2208 -0.0580
-11 11 8 0.4198 -0.0387
-11 11 9 -0.1536 0.0218
-11 11 10 -0.5763 -0.0094
-11 11 11 -0.1003 -0.0164
-11 11 12 1.9720 -0.0003
-11 11 13 2.3385 0.0279
-11 11 14 -0.0223 0.0267
-11 12 1 0.5909 0.0360
-11 12 2 0.9139 0.0154
-11 12 3 0.2804 0.0103
-11 12 4 0.8724 -0.0162
-11 12 5 1.4556 -0.0706
-11 12 6 0.8732 -0.0039
-11 12 7 -0.5143 -0.0035
-11 12 8 0.0961 -0.0351
-11 12 9 -0.6691 -0.0159
-11 12 10 -0.3428 -0.0083
-11 12 11 -2.1693 -0.0053
-11 12 12 -0.4926 0.0181
-11 12 13 1.0976 0.0307
-11 13 1 0.8681 -0.1357
-11 13 2 0.4506 -0.0546
-11 13 3 -0.7062 -0.0310
-11 13 4 -0.1951 -0.0425
-11 13 5 0.8089 -0.0541
-11 13 6 -0.5630 -0.0213
-11 13 7 -0.5893 0.0267
-11 13 8 -3.5001 0.0346
-11 13 9 -0.5244 0.0235
-11 13 10 0.6359 0.0088
-11 13 11 2.5559 -0.0456
-11 13 12 0.9048 -0.0818
-11 14 1 -1.2243 -0.1554
-11 14 2 -1.1578 -0.1107
-11 14 3 -1.1505 -0.0072
-11 14 4 1.6915 0.0339
-11 14 5 0.7151 0.0083
-11 14 6 -0.7070 0.0187
-11 14 7 -2.9462 0.0474
-11 14 8 -1.0301 0.0321
-11 14 9 -1.6576 0.0039
-11 14 10 0.6207 -0.0483
-11 15 1 -2.1657 0.0481
-11 15 2 0.1874 -0.0428
-11 15 3 0.1912 0.0010
-11 15 4 -1.5714 0.0674
-11 15 5 0.2852 0.0382
-11 15 6 -0.4053 0.0451
-11 15 7 -0.6541 0.0233
-11 15 8 -2.1825 0.0022
-11 16 1 -0.6849 0.2438
-11 16 2 -0.5351 0.1128
-11 16 3 0.2846 0.0040
-11 16 4 1.3722 0.0167
-11 16 5 1.0990 0.0460
-11 17 1 -2.6019 0.0807
-10 -15 3 -0.6350 -0.0243
-10 -15 4 -2.3065 0.0472
-10 -15 5 -3.5314 0.0015
-10 -15 6 -2.1874 0.0230
-10 -15 7 -0.3699 -0.0059
-10 -15 8 -2.2431 0.0457
-10 -15 9 -0.1266 -0.0246
-10 -15 10 2.7190 0.0264
-10 -15 11 1.5157 -0.0477
-10 -15 12 -2.9459 -0.0018
-10 -15 13 0.9670 -0.0255
-10 -15 14 1.6494 -0.0221
-10 -14 1 -4.1664 -0.0500
-10 -14 2 0.8828 0.0561
-10 -14 3 -1.7072 -0.0154
-10 -14 4 0.6649 -0.0321
-10 -14 5 3.8070 0.0326
-10 -14 6 1.2395 -0.0067
-10 -14 7 0.0252 0.0460
-10 -14 8 0.6286 -0.0017
-10 -14 9 1.0140 0.0515
-10 -14 10 1.6890 -0.0210
-10 -14 11 -0.3946 0.0219
-10 -14 12 0.9551 -0.0462
-10 -14 13 -2.0744 -0.0083
-10 -14 14 -0.5774 -0.0114
-10 -14 15 2.0857 0.0313
-10 -14 16 1.9283 -0.0272
-10 -13 1 1.4871 -0.1433
-10 -13 2 -0.3935 -0.0772
-10 -13 3 1.4515 0.0204
-10 -13 4 -0.2368 0.0199
-10 -13 5 0.6772 -0.0012
-10 -13 6 2.8822 0.0502
-10 -13 7 2.1020 -0.0010
-10 -13 8 -1.7663 0.0040
-10 -13 9 -4.8651 -0.0120
-10 -13 10 0.0114 0.0181
-10 -13 11 1.7287 -0.0422
-10 -13 12 -2.1755 0.0114
-10 -13 13 -1.4077 -0.0342
-10 -13 14 -3.0773 0.0087
-10 -13 15 -1.6671 -0.0047
-10 -13 16 -1.7309 0.0155
-10 -13 17 -0.4499 -0.0272
-10 -13 18 -0.1931 0.0100
-10 -12 1 -3.0881 -0.0136
-10 -12 2 3.8593 -0.0900
-10 -12 3 1.3063 -0.0332
-10 -12 4 -2.3204 0.0619
-10 -12 5 -0.6847 0.0218
-10 -12 6 -3.0501 0.0069
-10 -12 7 -2.5203 0.0343
-10 -12 8 -3.0608 -0.0133
-10 -12 9 -4.4677 -0.0088
-10 -12 10 -5.2332 -0.0097
-10 -12 11 -1.2915 0.0047
-10 -12 12 0.4261 -0.0014
-10 -12 13 -1.2403 0.0100
-10 -12 14 -2.0717 -0.0135
-10 -12 15 -2.8138 0.0133
-10 -12 16 -1.1767 -0.0044
-10 -12 17 0.0218 0.0004
-10 -12 18 1.5056 0.0072
-10 -12 19 0.7906 -0.0187
-10 -11 1 -2.2864 0.2137
-10 -11 2 -3.8530 0.0730
-10 -11 3 2.8073 -0.0407
-10 -11 4 3.7192 0.0105
-10 -11 5 -2.6247 0.0602
-10 -11 6 -1.8232 -0.0020
-10 -11 7 -2.0620 0.0021
-10 -11 8 -0.0164 -0.0067
-10 -11 9 -3.7680 -0.0105
-10 -11 10 -1.5902 -0.0212
-10 -11 11 0.3560 -0.0160
-10 -11 12 1.4943 -0.0075
-10 -11 13 0.6921 0.0004
-10 -11 14 1.6171 0.0069
-10 -11 15 1.6812 0.0107
-10 -11 16 -1.7449 -0.0201
-10 -11 17 -2.4714 -0.0037
-10 -11 18 -0.2322 -0.0289
-10 -11 19 -0.3877 0.0077
-10 -11 20 -0.2440 0.0043
-10 -10 1 -3.1649 0.0872
-10 -10 2 -0.5508 0.1612
-10 -10 3 -0.1970 0.0630
-10 -10 4 -1.0334 -0.0300
-10 -10 5 4.3322 -0.0280
-10 -10 6 -2.1842 0.0121
-10 -10 7 -3.1915 -0.0352
-10 -10 8 -1.3120 -0.0167
-10 -10 9 2.8776 -0.0035
-10 -10 10 -1.3356 -0.0104
-10 -10 11 0.6703 -0.0140
-10 -10 12 1.7752 0.0312
-10 -10 13 0.8542 -0.0181
-10 -10 14 -2.0742 -0.0043
-10 -10 15 1.3392 -0.0089
-10 -10 16 1.7848 0.0023
-10 -10 17 -1.2501 0.0075
-10 -10 18 -0.6501 0.0209
-10 -10 19 -0.1318 -0.0289
-10 -10 20 -0.7263 -0.0100
-10 -10 21 2.4243 0.0360
-10 -9 1 0.4450 -0.0783
-10 -9 2 -0.7827 -0.0428
-10 -9 3 3.1599 0.0297
-10 -9 4 4.8837 0.0093
-10 -9 5 -1.4299 -0.0400
-10 -9 6 2.9441 -0.0009
-10 -9 7 -1.6826 0.0205
-10 -9 8 -1.8820 -0.0230
-10 -9 9 -1.7743 0.0262
-10 -9 10 1.1301 0.0213
-10 -9 11 -1.2605 0.0001
-10 -9 12 0.9826 0.0052
-10 -9 13 0.0571 0.0225
-10 -9 14 -0.1334 -0.0120
-10 -9 15 -0.2268 0.0241
-10 -9 16 3.2799 0.0025
-10 -9 17 3.0596 0.0086
-10 -9 18 0.8371 0.0282
-10 -9 19 0.0794 0.0029
-10 -9 20 -0.8049 -0.0062
-10 -9 21 -0.9683 -0.0111
-10 -9 22 2.6058 0.0082
-10 -8 1 0.2198 -0.0684
-10 -8 2 2.1110 -0.0845
-10 -8 3 1.4470 -0.0812
-10 -8 4 -1.1783 -0.0139
-10 -8 5 3.7361 -0.0103
-10 -8 6 0.2358 -0.0231
-10 -8 7 1.7408 0.0418
-10 -8 8 -1.0299 0.0312
-10 -8 9 -0.3580 -0.0085
-10 -8 10 -1.4831 0.0036
-10 -8 11 -0.3410 -0.0189
-10 -8 12 -0.0205 -0.0171
-10 -8 13 2.8301 -0.0022
-10 -8 14 -0.0034 0.0028
-10 -8 15 1.2326 -0.0086
-10 -8 16 1.1126 -0.0085
-10 -8 17 0.3679 -0.0080
-10 -8 18 1.0563 -0.0121
-10 -8 19 0.6773 0.0008
-10 -8 20 0.5386 -0.0315
-10 -8 21 1.4791 0.0167
-10 -8 22 0.8745 0.0662
-10 -7 1 1.5516 -0.1866
-10 -7 2 -2.4520 -0.0308
-10 -7 3 -1.9039 -0.0100
-10 -7 4 -1.2788 -0.0294
-10 -7 5 -4.2869 -0.0039
-10 -7 6 1.1863 0.0204
-10 -7 7 3.0024 -0.0030
-10 -7 8 3.0075 0.0342
-10 -7 9 -0.0490 0.0232
-10 -7 10 0.0587 -0.0081
-10 -7 11 -0.8945 -0.0001
-10 -7 12 -0.2203 -0.0080
-10 -7 13 -0.5232 -0.0227
-10 -7 14 1.3210 0.0054
-10 -7 15 -0.1530 0.0061
-10 -7 16 0.2845 0.0082
-10 -7 17 0.8616 -0.0151
-10 -7 18 1.7854 -0.0070
-10 -7 19 2.9901 0.0005
-10 -7 20 1.9872 0.0128
-10 -7 21 0.4933 -0.0097
-10 -7 22 -0.3153 0.0081
-10 -6 1 0.6195 -0.0362
-10 -6 2 -0.5043 -0.1054
-10 -6 3 -1.2776 0.0586
-10 -6 4 -2.1047 0.0961
-10 -6 5 -2.4111 0.0386
-10 -6 6 -2.0227 0.0137
-10 -6 7 -0.5245 0.0053
-10 -6 8 0.1587 -0.0216
-10 -6 9 -1.0192 0.0058
-10 -6 10 -2.1519 -0.0013
-10 -6 11 -0.1337 -0.0065
-10 -6 12 2.5519 0.0070
-10 -6 13 3.4756 0.0132
-10 -6 14 0.4570 -0.0065
-10 -6 15 0.2505 -0.0001
-10 -6 16 -0.1966 -0.0153
-10 -6 17 -0.4917 -0.0035
-10 -6 18 -0.3007 0.0160
-10 -6 19 1.6380 0.0273
-10 -6 20 2.8126 0.0126
-10 -6 21 1.4313 0.0250
-10 -6 22 1.0092 0.0248
-10 -6 23 0.6869 -0.0135
-10 -5 1 2.0752 0.4004
-10 -5 2 -2.0896 0.0740
-10 -5 3 -2.3429 -0.0598
-10 -5 4 -0.3567 0.0431
-10 -5 5 1.2381 0.0588
-10 -5 6 -2.2629 0.0023
-10 -5 7 -1.1943 -0.0167
-10 -5 8 -1.0704 -0.0287
-10 -5 9 0.2155 -0.0440
-10 -5 10 0.2122 -0.0139
-10 -5 11 -0.1767 -0.0077
-10 -5 12 1.9533 -0.0131
-10 -5 13 4.1615 0.0061
-10 -5 14 2.4708 -0.0036
-10 -5 15 0.1186 -0.0180
-10 -5 16 -0.3809 0.0065
-10 -5 17 -1.3339 -0.0032
-10 -5 18 0.3247 -0.0041
-10 -5 19 0.9888 0.0440
-10 -5 20 2.4594 0.0335
-10 -5 21 1.7780 0.0008
-10 -5 22 -1.0599 0.0017
-10 -5 23 -1.3549 -0.0000
-10 -4 1 -0.4046 0.1575
-10 -4 2 -0.6836 0.2836
-10 -4 3 -3.5059 0.0072
-10 -4 4 -1.0331 -0.1115
-10 -4 5 0.0038 -0.0283
-10 -4 6 2.7347 -0.0111
-10 -4 7 -1.0082 -0.0329
-10 -4 8 -1.4283 0.0004
-10 -4 9 -1.2843 -0.0084
-10 -4 10 2.5597 -0.0163
-10 -4 11 2.0836 0.0070
-10 -4 12 -0.7317 -0.0049
-10 -4 13 -0.0678 -0.0136
-10 -4 14 1.0262 0.0305
-10 -4 15 -0.3338 0.0088
-10 -4 16 0.5723 0.0085
-10 -4 17 2.7655 0.0141
-10 -4 18 0.3898 -0.0016
-10 -4 19 -0.2219 -0.0011
-10 -4 20 -0.9523 0.0073
-10 -4 21 -0.8642 -0.0322
-10 -4 22 -4.0076 -0.0471
-10 -4 23 -5.0858 -0.0132
-10 -3 1 -3.2052 -0.3228
-10 -3 2 -1.6886 -0.0424
-10 -3 3 -0.4040 0.1172
-10 -3 4 -2.1274 -0.0404
-10 -3 5 -0.6126 -0.0843
-10 -3 6 -3.0061 -0.0129
-10 -3 7 -2.1973 -0.0047
-10 -3 8 -4.9175 0.0018
-10 -3 9 -3.5970 0.0399
-10 -3 10 -0.9766 0.0211
-10 -3 11 1.2507 0.0149
-10 -3 12 1.3818 0.0070
-10 -3 13 -1.4535 0.0072
-10 -3 14 -2.6227 -0.0071
-10 -3 15 0.2322 0.0009
-10 -3 16 -0.3301 -0.0109
-10 -3 17 -0.6240 0.0077
-10 -3 18 3.1388 0.0004
-10 -3 19 -1.0508 -0.0228
-10 -3 20 -2.5154 -0.0018
-10 -3 21 -0.6123 0.0190
-10 -3 22 0.8297 -0.0228
-10 -3 23 -0.6865 -0.0559
-10 -2 1 -4.2452 -0.2009
-10 -2 2 -2.9069 -0.2917
-10 -2 3 -1.4510 -0.0893
-10 -2 4 1.2168 0.0535
-10 -2 5 0.0159 0.0009
-10 -2 6 -0.7796 0.0059
-10 -2 7 -0.6002 0.0526
-10 -2 8 1.7874 0.0361
-10 -2 9 -0.4579 0.0072
-10 -2 10 -1.9247 0.0267
-10 -2 11 -0.9563 0.0173
-10 -2 12 -0.5749 0.0071
-10 -2 13 -0.3712 -0.0028
-10 -2 14 -2.3709 0.0017
-10 -2 15 0.3671 -0.0072
-10 -2 16 3.9460 -0.0203
-10 -2 17 2.0535 -0.0308
-10 -2 18 1.1516 -0.0118
-10 -2 19 1.4844 0.0020
-10 -2 20 -2.5095 0.0064
-10 -2 21 -1.9940 0.0328
-10 -2 22 -1.0836 0.0257
-10 -2 23 -0.7012 0.0059
-10 -1 1 -2.4620 0.0275
-10 -1 2 -0.2768 -0.0068
-10 -1 3 0.4223 -0.0892
-10 -1 4 1.9909 0.0038
-10 -1 5 3.1763 0.0693
-10 -1 6 1.5603 0.0196
-10 -1 7 0.3486 0.0199
-10 -1 8 -0.2398 0.0374
-10 -1 9 2.4569 -0.0075
-10 -1 10 2.5318 -0.0393
-10 -1 11 -5.8754 -0.0237
-10 -1 12 -3.9213 -0.0139
-10 -1 13 -0.0896 -0.0041
-10 -1 14 0.3424 0.0113
-10 -1 15 1.0112 -0.0024
-10 -1 16 2.6800 -0.0288
-10 -1 17 3.7614 -0.0275
-10 -1 18 2.9771 -0.0007
-10 -1 19 0.9737 -0.0063
-10 -1 20 -1.8826 -0.0055
-10 -1 21 -2.3021 0.0076
-10 -1 22 -1.1068 0.0435
-10 -1 23 -0.0944 0.0443
-10 0 1 -1.6982 0.0721
-10 0 2 3.4683 0.1020
-10 0 3 4.3891 0.1304
-10 0 4 0.9764 0.0457
-10 0 5 -0.6518 0.0303
-10 0 6 -0.8248 0.0098
-10 0 7 0.0797 -0.0447
-10 0 8 -0.4996 -0.0326
-10 0 9 -1.0807 -0.0026
-10 0 10 -0.5205 -0.0260
-10 0 11 1.7821 -0.0266
-10 0 12 -3.7330 0.0031
-10 0 13 -0.1856 0.0082
-10 0 14 1.8817 -0.0131
-10 0 15 1.4118 0.0218
-10 0 16 1.9854 0.0166
-10 0 17 -0.5765 -0.0027
-10 0 18 0.0598 0.0102
-10 0 19 0.2283 -0.0039
-10 0 20 1.3485 -0.0197
-10 0 21 0.6929 -0.0070
-10 0 22 0.7250 -0.0378
-10 0 23 -0.8782 0.0011
-10 1 1 0.7087 0.2949
-10 1 2 0.3976 0.0497
-10 1 3 2.1421 0.0079
-10 1 4 3.3034 0.0543
-10 1 5 -0.0816 0.0223
-10 1 6 -1.6126 -0.0054
-10 1 7 2.0886 -0.0248
-10 1 8 2.2502 -0.0596
-10 1 9 0.1770 -0.0272
-10 1 10 3.6544 0.0444
-10 1 11 -0.4321 0.0135
-10 1 12 -0.3572 0.0043
-10 1 13 -0.2074 0.0260
-10 1 14 2.9592 -0.0016
-10 1 15 2.5976 -0.0043
-10 1 16 -0.2599 0.0227
-10 1 17 0.0584 0.0008
-10 1 18 -1.7112 0.0204
-10 1 19 -0.5392 0.0500
-10 1 20 -1.5604 0.0188
-10 1 21 1.1021 -0.0243
-10 1 22 0.0429 -0.0493
-10 2 1 2.9216 0.1632
-10 2 2 1.7249 0.1733
-10 2 3 0.5328 -0.0704
-10 2 4 1.4649 -0.1067
-10 2 5 1.4258 -0.0381
-10 2 6 1.5420 -0.0177
-10 2 7 1.9988 0.0204
-10 2 8 3.2388 0.0186
-10 2 9 0.7724 -0.0258
-10 2 10 -3.3495 -0.0006
-10 2 11 1.4825 0.0222
-10 2 12 0.4028 -0.0173
-10 2 13 -0.7665 -0.0058
-10 2 14 -0.2737 0.0053
-10 2 15 1.9808 -0.0282
-10 2 16 2.2382 -0.0006
-10 2 17 0.4791 0.0271
-10 2 18 1.4088 0.0015
-10 2 19 -0.2902 -0.0133
-10 2 20 0.7334 0.0155
-10 2 21 -1.1639 0.0414
-10 2 22 0.8505 0.0340
-10 3 1 3.6508 -0.3963
-10 3 2 2.9318 -0.0061
-10 3 3 -1.4614 0.0784
-10 3 4 -1.4065 -0.0928
-10 3 5 3.4428 -0.0828
-10 3 6 3.2222 -0.0189
-10 3 7 2.5356 0.0026
-10 3 8 -0.2613 0.0487
-10 3 9 -1.6732 0.0341
-10 3 10 -1.0381 -0.0090
-10 3 11 -0.6136 0.0093
-10 3 12 4.1561 -0.0133
-10 3 13 3.7900 -0.0373
-10 3 14 1.5507 -0.0029
-10 3 15 0.4984 0.0276
-10 3 16 -0.8874 -0.0004
-10 3 17 0.3487 -0.0112
-10 3 18 0.7102 -0.0409
-10 3 19 -0.3231 -0.0719
-10 3 20 -0.4127 -0.0335
-10 3 21 0.5312 0.0096
-10 3 22 -1.4977 0.0034
-10 4 1 -4.1796 -0.3005
-10 4 2 -0.9210 -0.3259
-10 4 3 3.0462 0.0047
-10 4 4 2.9680 0.1151
-10 4 5 -0.8515 0.0013
-10 4 6 3.5585 0.0022
-10 4 7 3.8597 0.0210
-10 4 8 -0.3443 0.0088
-10 4 9 -0.7316 0.0227
-10 4 10 -1.6657 0.0148
-10 4 11 -1.5140 -0.0080
-10 4 12 3.8349 0.0162
-10 4 13 2.9525 -0.0006
-10 4 14 1.2453 -0.0068
-10 4 15 1.2960 0.0071
-10 4 16 -3.1312 -0.0024
-10 4 17 -2.2458 -0.0144
-10 4 18 -0.6567 -0.0015
-10 4 19 -1.4288 -0.0201
-10 4 20 -1.0421 -0.0615
-10 4 21 1.3314 -0.0423
-10 5 1 -0.7349 0.2432
-10 5 2 -2.6620 -0.0417
-10 5 3 -1.3217 -0.1346
-10 5 4 4.5621 0.0558
-10 5 5 4.8559 0.1049
-10 5 6 -0.7673 0.0243
-10 5 7 -0.1250 0.0221
-10 5 8 0.0863 -0.0009
-10 5 9 0.1122 -0.0251
-10 5 10 0.7239 -0.0222
-10 5 11 0.8222 -0.0062
-10 5 12 2.1612 0.0189
-10 5 13 2.9531 0.0274
-10 5 14 0.7416 0.0050
-10 5 15 2.2857 -0.0074
-10 5 16 1.9934 0.0075
-10 5 17 -0.8829 0.0290
-10 5 18 3.3670 0.0080
-10 5 19 0.3809 -0.0127
-10 5 20 -0.4010 0.0565
-10 5 21 -0.6090 0.0383
-10 6 1 1.4613 0.2536
-10 6 2 -2.5568 0.2585
-10 6 3 -1.2180 0.0519
-10 6 4 2.8821 -0.0479
-10 6 5 1.5591 0.0244
-10 6 6 -0.4245 0.0104
-10 6 7 -1.1256 -0.0359
-10 6 8 -3.2772 -0.0069
-10 6 9 1.9300 -0.0048
-10 6 10 6.5638 -0.0237
-10 6 11 3.6872 -0.0250
-10 6 12 4.0580 -0.0255
-10 6 13 3.5341 -0.0108
-10 6 14 -0.2513 0.0078
-10 6 15 0.3684 0.0151
-10 6 16 1.1740 -0.0065
-10 6 17 1.1763 0.0090
-10 6 18 0.2310 0.0611
-10 6 19 2.5844 0.0997
-10 6 20 -1.5454 0.0324
-10 7 1 0.0391 0.0623
-10 7 2 2.9592 0.0946
-10 7 3 -2.3092 0.0923
-10 7 4 0.1344 -0.0105
-10 7 5 1.3669 -0.0529
-10 7 6 -2.1184 -0.0091
-10 7 7 -1.5776 -0.0235
-10 7 8 0.4735 -0.0436
-10 7 9 -0.7331 -0.0022
-10 7 10 3.7418 0.0162
-10 7 11 2.1867 -0.0057
-10 7 12 -0.0271 -0.0029
-10 7 13 -0.2308 -0.0168
-10 7 14 -0.7609 -0.0160
-10 7 15 -0.6612 -0.0228
-10 7 16 -2.2524 0.0053
-10 7 17 -2.7372 0.0495
-10 7 18 -0.6503 0.0281
-10 7 19 -1.6657 -0.0204
-10 8 1 -0.8435 -0.0347
-10 8 2 1.4955 -0.0314
-10 8 3 1.7992 -0.0574
-10 8 4 -2.1615 -0.0394
-10 8 5 -2.8775 -0.0260
-10 8 6 -3.1472 -0.0087
-10 8 7 -1.5415 0.0325
-10 8 8 -0.4000 0.0165
-10 8 9 2.9213 0.0012
-10 8 10 -0.3601 0.0198
-10 8 11 1.3852 0.0340
-10 8 12 0.2783 0.0125
-10 8 13 -0.4906 -0.0011
-10 8 14 0.6462 -0.0028
-10 8 15 -0.0596 0.0143
-10 8 16 0.0939 -0.0069
-10 8 17 -0.7145 -0.0338
-10 8 18 -0.6427 -0.0394
-10 8 19 -1.0550 -0.0072
-10 9 1 0.8702 -0.2535
-10 9 2 1.7707 -0.0545
-10 9 3 -0.9515 -0.0067
-10 9 4 -1.1055 -0.0485
-10 9 5 -2.0513 -0.0394
-10 9 6 -0.7759 0.0038
-10 9 7 -0.7555 0.0300
-10 9 8 2.0150 0.0591
-10 9 9 2.7559 0.0242
-10 9 10 4.3102 -0.0217
-10 9 11 -1.7134 -0.0127
-10 9 12 -1.3644 -0.0019
-10 9 13 -2.3925 0.0193
-10 9 14 -3.2537 0.0579
-10 9 15 1.9055 0.0068
-10 9 16 -0.5956 -0.0024
-10 9 17 -0.2042 0.0683
-10 9 18 0.7472 0.0152
-10 10 1 0.6384 -0.1991
-10 10 2 2.4295 -0.1638
-10 10 3 0.9857 0.0214
-10 10 4 -1.8014 0.0633
-10 10 5 -3.3473 0.0166
-10 10 6 -1.9646 -0.0074
-10 10 7 2.1426 -0.0218
-10 10 8 0.1869 -0.0073
-10 10 9 2.1371 0.0167
-10 10 10 -0.0334 -0.0146
-10 10 11 -1.0240 -0.0136
-10 10 12 -1.1102 0.0098
-10 10 13 -2.1715 -0.0190
-10 10 14 -3.1657 0.0197
-10 10 15 -3.2177 0.0724
-10 10 16 1.1887 0.0228
-10 10 17 -0.9665 -0.0184
-10 11 1 4.0585 0.2317
-10 11 2 1.8709 -0.0372
-10 11 3 -1.5983 -0.0440
-10 11 4 -2.4480 0.0859
-10 11 5 -3.1531 0.0741
-10 11 6 -1.4557 0.0236
-10 11 7 0.1547 -0.0074
-10 11 8 -0.1421 -0.0354
-10 11 9 -0.8910 0.0052
-10 11 10 1.9963 0.0100
-10 11 11 1.0949 -0.0261
-10 11 12 -0.1667 -0.0243
-10 11 13 2.2261 -0.0076
-10 11 14 -0.5285 -0.0262
-10 11 15 -1.4141 -0.0263
-10 11 16 -1.8751 -0.0144
-10 12 1 -4.0812 0.2818
-10 12 2 -1.0442 0.2343
-10 12 3 -0.5870 -0.0032
-10 12 4 0.1168 -0.0407
-10 12 5 0.5439 0.0202
-10 12 6 0.1669 0.0135
-10 12 7 1.9609 -0.0154
-10 12 8 1.2930 -0.0086
-10 12 9 -0.2029 -0.0122
-10 12 10 0.2440 -0.0038
-10 12 11 -1.8920 0.0208
-10 12 12 -0.8241 0.0045
-10 12 13 -0.5406 -0.0394
-10 12 14 1.1821 0.0055
-10 12 15 0.0714 0.0043
-10 13 1 0.6760 -0.0204
-10 13 2 -1.6366 0.1095
-10 13 3 -1.4101 0.0794
-10 13 4 -0.9177 -0.0618
-10 13 5 0.8252 -0.0907
-10 13 6 1.0991 -0.0279
-10 13 7 0.1924 -0.0161
-10 13 8 -1.8998 -0.0206
-10 13 9 -1.4537 0.0337
-10 13 10 -0.8717 0.0259
-10 13 11 1.2006 -0.0022
-10 13 12 -1.7406 0.0114
-10 13 13 -1.6493 0.0265
-10 14 1 0.6061 -0.1929
-10 14 2 -1.2627 -0.1135
-10 14 3 -0.9419 -0.0309
-10 14 4 0.5320 -0.0032
-10 14 5 0.2818 -0.0633
-10 14 6 -1.1527 -0.0339
-10 14 7 -1.5260 0.0401
-10 14 8 -0.5327 0.0095
-10 14 9 -1.5459 -0.0105
-10 14 10 0.9835 0.0098
-10 14 11 0.6023 -0.0080
-10 14 12 0.9223 -0.0279
-10 15 1 -2.0332 -0.1326
-10 15 2 -0.3660 -0.1134
-10 15 3 -0.7082 -0.0595
-10 15 4 -1.1941 0.0015
-10 15 6 -0.2258 -0.0249
-10 15 7 -0.1465 0.0064
-10 15 8 -0.3165 0.0386
-10 15 9 0.1342 -0.0257
-10 15 10 0.1129 -0.0837
-10 16 1 1.5360 0.0356
-10 16 2 -1.1510 -0.0096
-10 16 3 0.3111 -0.0234
-10 16 4 0.3267 0.0356
-10 16 5 0.7355 0.0486
-10 16 6 0.5687 -0.0132
-10 16 7 0.1512 -0.0394
-10 16 8 0.6359 -0.0396
-10 17 1 -1.9248 0.1413
-10 17 2 0.9478 0.0878
-10 17 3 1.8179 0.0072
-10 17 4 1.2019 0.0090
-10 17 5 -0.8928 0.0325
-10 17 6 0.9260 0.0244
-10 18 1 -1.1987 0.1847
-10 18 2 -2.6772 0.1316
-9 -17 7 -1.1768 0.0491
-9 -17 8 -2.2754 -0.0034
-9 -17 9 0.1050 0.0446
-9 -17 10 0.5641 0.0405
-9 -17 11 1.6845 0.0533
-9 -16 2 2.3282 -0.0201
-9 -16 3 1.0636 0.0440
-9 -16 4 1.8453 0.0526
-9 -16 5 0.7078 0.0468
-9 -16 6 1.3002 0.0036
-9 -16 7 1.3899 0.0210
-9 -16 8 1.5705 0.0156
-9 -16 9 -2.5492 -0.0168
-9 -16 10 -0.9529 -0.0003
-9 -16 11 0.5087 0.0040
-9 -16 12 1.3442 -0.0091
-9 -16 13 -0.6683 -0.0446
-9 -16 14 -1.0417 -0.0044
-9 -16 15 0.7180 -0.0816
-9 -15 1 2.1899 0.1398
-9 -15 2 -0.2765 0.1508
-9 -15 3 3.4757 0.0254
-9 -15 4 -2.2557 0.0477
-9 -15 5 -1.9154 0.0507
-9 -15 6 -2.3859 0.0184
-9 -15 7 -1.2772 -0.0378
-9 -15 8 0.2896 -0.0043
-9 -15 9 0.4706 -0.0486
-9 -15 10 -0.3930 -0.0330
-9 -15 11 1.4658 -0.0346
-9 -15 12 0.3072 -0.0271
-9 -15 13 2.2596 -0.0207
-9 -15 14 -0.4881 -0.0136
-9 -15 15 -1.4838 -0.0007
-9 -15 16 0.2456 -0.0020
-9 -15 17 -0.7877 0.0069
-9 -14 1 -2.4008 -0.0263
-9 -14 2 0.8100 0.0916
-9 -14 3 -1.8513 0.0688
-9 -14 4 0.3278 -0.0250
-9 -14 5 0.0937 -0.0089
-9 -14 6 -0.0509 -0.0194
-9 -14 7 -1.7659 0.0041
-9 -14 8 2.4323 -0.0356
-9 -14 9 2.0418 0.0057
-9 -14 10 -0.2802 -0.0206
-9 -14 11 -1.7629 0.0093
-9 -14 12 -1.0807 -0.0140
-9 -14 13 -2.0870 0.0136
-9 -14 14 0.0530 0.0108
-9 -14 15 -0.5094 0.0469
-9 -14 16 -0.8297 -0.0029
-9 -14 17 -1.6493 0.0493
-9 -14 18 -0.1496 -0.0089
-9 -14 19 0.4661 0.0314
-9 -13 1 -0.8666 -0.0674
-9 -13 2 -4.6724 -0.1084
-9 -13 3 2.9964 -0.0350
-9 -13 4 0.5864 -0.0121
-9 -13 5 2.6309 -0.0293
-9 -13 6 5.0819 -0.0139
-9 -13 7 4.0622 0.0015
-9 -13 8 0.5773 0.0297
-9 -13 9 -0.2088 -0.0134
-9 -13 10 -0.4688 0.0311
-9 -13 11 0.4380 -0.0236
-9 -13 12 -2.4023 0.0061
-9 -13 13 -1.0813 -0.0071
-9 -13 14 -0.5405 0.0180
-9 -13 15 1.3067 -0.0026
-9 -13 16 0.9125 0.0444
-9 -13 17 -0.3840 -0.0327
-9 -13 18 -1.1981 0.0315
-9 -13 19 0.3774 -0.0063
-9 -13 20 0.9762 -0.0275
-9 -12 1 0.3543 -0.1392
-9 -12 2 1.1779 -0.0359
-9 -12 3 -1.0665 -0.0820
-9 -12 4 1.5552 -0.0301
-9 -12 5 0.4969 0.0167
-9 -12 6 0.0310 -0.0162
-9 -12 7 -2.0928 0.0054
-9 -12 8 -0.2916 0.0263
-9 -12 9 -1.2556 0.0168
-9 -12 10 -3.3977 0.0036
-9 -12 11 -1.0646 0.0223
-9 -12 12 1.6994 -0.0359
-9 -12 13 -0.8035 0.0099
-9 -12 14 -1.5760 -0.0101
-9 -12 15 -0.7741 0.0104
-9 -12 16 1.3566 -0.0163
-9 -12 17 -0.1198 0.0064
-9 -12 18 1.0455 -0.0286
-9 -12 19 0.4072 -0.0192
-9 -12 20 0.7011 0.0163
-9 -12 21 4.3126 -0.0166
-9 -11 1 3.0335 -0.1554
-9 -11 2 -0.9013 -0.0553
-9 -11 3 3.4479 0.0430
-9 -11 4 1.3642 -0.0035
-9 -11 5 -0.7078 0.0315
-9 -11 6 0.2551 0.0225
-9 -11 7 -1.6148 -0.0031
-9 -11 8 -2.1453 0.0105
-9 -11 9 -0.4666 0.0149
-9 -11 10 -2.6519 0.0177
-9 -11 11 -3.4154 0.0044
-9 -11 12 0.2068 0.0182
-9 -11 13 -0.2992 -0.0016
-9 -11 14 -3.0982 0.0049
-9 -11 15 -1.0500 0.0088
-9 -11 16 0.8004 -0.0009
-9 -11 17 1.1104 -0.0094
-9 -11 18 0.0305 0.0057
-9 -11 19 0.2590 0.0139
-9 -11 20 -2.0043 -0.0115
-9 -11 21 -1.1643 -0.0065
-9 -11 22 2.9371 0.0052
-9 -10 1 0.6800 0.1377
-9 -10 2 2.3096 -0.0452
-9 -10 3 -0.2574 0.0306
-9 -10 4 1.4886 0.0866
-9 -10 5 1.2265 0.0284
-9 -10 6 -0.5059 0.0255
-9 -10 7 0.9746 0.0041
-9 -10 8 -1.0494 -0.0314
-9 -10 9 1.8106 -0.0289
-9 -10 10 3.1556 -0.0045
-9 -10 11 -0.2335 -0.0095
-9 -10 12 -1.5547 -0.0032
-9 -10 13 1.3063 0.0048
-9 -10 14 -1.7533 -0.0112
-9 -10 15 -2.7741 -0.0245
-9 -10 16 -0.1076 0.0059
-9 -10 17 -0.8440 -0.0120
-9 -10 18 1.0384 0.0113
-9 -10 19 -0.8572 0.0018
-9 -10 20 -2.9650 0.0161
-9 -10 21 -0.6503 0.0385
-9 -10 22 -0.1082 -0.0027
-9 -9 1 1.9536 0.3277
-9 -9 2 0.0418 0.1571
-9 -9 3 4.6873 -0.0600
-9 -9 4 3.3860 -0.0132
-9 -9 5 -2.6423 0.0219
-9 -9 6 -1.2973 -0.0278
-9 -9 7 -1.8541 -0.0075
-9 -9 8 0.9341 -0.0026
-9 -9 9 1.0346 -0.0318
-9 -9 10 2.9350 -0.0134
-9 -9 11 1.2845 -0.0010
-9 -9 12 -0.0212 -0.0238
-9 -9 13 -0.5496 0.0117
-9 -9 14 -1.0119 0.0053
-9 -9 15 -2.8741 0.0109
-9 -9 16 -0.4330 0.0041
-9 -9 17 0.8777 0.0112
-9 -9 18 -0.5936 -0.0018
-9 -9 19 2.9265 0.0129
-9 -9 20 -0.2831 0.0010
-9 -9 21 -3.4056 -0.0375
-9 -9 22 0.7852 0.0113
-9 -9 23 0.2610 0.0181
-9 -8 1 3.3817 -0.0748
-9 -8 2 6.0598 0.1713
-9 -8 3 2.8871 0.0577
-9 -8 4 3.7458 -0.1095
-9 -8 5 4.0007 -0.0583
-9 -8 6 -2.7411 -0.0233
-9 -8 7 -1.2745 -0.0181
-9 -8 8 -1.9810 0.0149
-9 -8 9 -0.6993 0.0204
-9 -8 10 -0.7600 -0.0020
-9 -8 11 -0.2557 0.0044
-9 -8 12 -1.0704 0.0097
-9 -8 13 1.2564 -0.0119
-9 -8 14 2.0324 0.0194
-9 -8 15 1.7125 0.0151
-9 -8 16 0.5617 0.0148
-9 -8 17 -0.6483 0.0260
-9 -8 18 -1.2529 -0.0146
-9 -8 19 -1.9306 -0.0289
-9 -8 20 0.8738 -0.0125
-9 -8 21 -0.2239 -0.0052
-9 -8 22 -1.4483 -0.0373
-9 -8 23 1.6855 -0.0231
-9 -7 1 2.3064 -0.3440
-9 -7 2 1.2760 -0.1921
-9 -7 3 1.4506 0.0388
-9 -7 4 0.3826 0.0126
-9 -7 5 -0.7565 -0.0737
-9 -7 6 2.5681 -0.0059
-9 -7 7 1.2689 0.0102
-9 -7 8 2.1554 0.0040
-9 -7 9 0.5297 0.0324
-9 -7 10 0.0231 0.0234
-9 -7 11 0.0271 0.0025
-9 -7 12 -0.2090 0.0063
-9 -7 13 0.3102 -0.0091
-9 -7 14 1.6404 -0.0045
-9 -7 15 1.8384 -0.0029
-9 -7 16 2.9262 -0.0141
-9 -7 17 0.3097 -0.0177
-9 -7 18 -2.6002 0.0096
-9 -7 19 -0.7680 -0.0102
-9 -7 20 -0.2183 -0.0011
-9 -7 21 0.4354 0.0012
-9 -7 22 -1.1846 0.0004
-9 -7 23 -3.0833 0.0073
-9 -7 24 -2.3071 -0.0018
-9 -6 1 2.1374 -0.0723
-9 -6 2 0.3360 -0.2174
-9 -6 3 -1.6756 -0.1342
-9 -6 4 -2.5146 0.0558
-9 -6 5 -0.1493 0.0439
-9 -6 6 1.4161 -0.0028
-9 -6 7 1.9062 0.0519
-9 -6 8 1.2738 0.0283
-9 -6 9 0.4303 -0.0037
-9 -6 10 -0.3679 -0.0022
-9 -6 11 -1.7909 -0.0037
-9 -6 12 -0.2656 -0.0007
-9 -6 13 1.7937 0.0161
-9 -6 14 0.8734 -0.0025
-9 -6 15 -0.7053 -0.0001
-9 -6 16 1.0030 -0.0211
-9 -6 17 3.4396 -0.0153
-9 -6 18 0.8891 -0.0206
-9 -6 19 -1.5704 0.0013
-9 -6 20 -0.7410 0.0104
-9 -6 21 -1.2022 0.0123
-9 -6 22 -1.8793 0.0200
-9 -6 23 -2.6331 -0.0142
-9 -6 24 -1.7467 -0.0119
-9 -5 1 -0.5421 0.1068
-9 -5 2 1.0956 0.1267
-9 -5 3 -0.1404 -0.0010
-9 -5 4 0.4000 -0.0061
-9 -5 5 0.9223 0.0784
-9 -5 6 1.1335 0.0261
-9 -5 7 1.6076 -0.0156
-9 -5 8 -1.4633 0.0182
-9 -5 9 -1.4450 0.0006
-9 -5 10 -1.8958 -0.0222
-9 -5 11 -0.3511 -0.0133
-9 -5 12 -0.0411 -0.0029
-9 -5 13 2.7239 -0.0163
-9 -5 14 3.1725 0.0180
-9 -5 15 -0.3833 0.0038
-9 -5 16 -2.9537 -0.0116
-9 -5 17 -0.8763 -0.0014
-9 -5 18 2.6190 -0.0056
-9 -5 19 0.6169 0.0084
-9 -5 20 0.4142 0.0391
-9 -5 21 1.5086 0.0287
-9 -5 22 0.1482 0.0054
-9 -5 23 -0.1434 0.0030
-9 -5 24 -2.2327 -0.0272
-9 -4 1 -0.2064 0.1245
-9 -4 2 -4.7359 0.0989
-9 -4 3 -2.6706 0.1336
-9 -4 4 -1.1353 0.0438
-9 -4 5 2.0866 -0.0065
-9 -4 6 4.3903 0.0137
-9 -4 7 1.3607 -0.0475
-9 -4 8 1.2685 -0.0534
-9 -4 9 -0.3859 0.0128
-9 -4 10 2.4122 -0.0011
-9 -4 11 2.1961 -0.0109
-9 -4 12 0.4608 0.0051
-9 -4 13 -1.7828 -0.0094
-9 -4 14 0.1360 -0.0127
-9 -4 15 1.4073 0.0149
-9 -4 16 -0.4964 0.0076
-9 -4 17 -0.9325 0.0090
-9 -4 18 2.2512 0.0383
-9 -4 19 4.6352 0.0110
-9 -4 20 0.2186 -0.0001
-9 -4 21 -1.0556 0.0191
-9 -4 22 -2.0890 0.0235
-9 -4 23 -3.4306 0.0002
-9 -4 24 -0.0863 -0.0088
-9 -3 1 -2.6843 0.2749
-9 -3 2 -1.8760 0.0421
-9 -3 3 -3.0242 -0.0504
-9 -3 4 -0.2021 -0.0010
-9 -3 5 1.2754 -0.0111
-9 -3 6 -0.3236 -0.0135
-9 -3 7 -0.9709 0.0055
-9 -3 8 -2.3784 -0.0344
-9 -3 9 -1.2781 -0.0257
-9 -3 10 -1.1028 0.0211
-9 -3 11 1.8124 0.0037
-9 -3 12 2.9531 -0.0088
-9 -3 13 0.4915 0.0089
-9 -3 14 -4.5412 -0.0067
-9 -3 15 -3.0504 -0.0013
-9 -3 16 0.5074 0.0116
-9 -3 17 -0.1663 0.0016
-9 -3 18 -0.0005 -0.0081
-9 -3 19 -0.0780 0.0052
-9 -3 20 -0.5250 -0.0198
-9 -3 21 -1.9777 -0.0187
-9 -3 22 -0.4230 0.0139
-9 -3 23 -1.0650 0.0098
-9 -3 24 -2.1606 0.0159
-9 -2 1 -4.7726 -0.0681
-9 -2 2 -2.9240 0.1407
-9 -2 3 0.4698 -0.0447
-9 -2 4 -0.7192 -0.1422
-9 -2 5 0.5862 -0.0620
-9 -2 6 0.6845 -0.0163
-9 -2 7 -2.4240 0.0202
-9 -2 8 -5.5635 0.0535
-9 -2 9 -3.9735 0.0103
-9 -2 10 1.0540 0.0045
-9 -2 11 1.5010 0.0224
-9 -2 12 -0.6068 -0.0098
-9 -2 13 1.9880 -0.0145
-9 -2 14 1.0646 0.0199
-9 -2 15 -3.7894 0.0024
-9 -2 16 -2.4369 -0.0054
-9 -2 17 -2.6376 -0.0154
-9 -2 18 -2.9542 -0.0369
-9 -2 19 0.9221 -0.0151
-9 -2 20 -0.4447 -0.0120
-9 -2 21 -0.7113 -0.0439
-9 -2 22 -0.5917 -0.0333
-9 -2 23 -0.1378 0.0108
-9 -2 24 0.1135 0.0143
-9 -1 1 -6.9301 -0.5151
-9 -1 2 -6.1768 -0.1697
-9 -1 3 0.1121 0.1022
-9 -1 4 3.7700 -0.0049
-9 -1 5 -0.0313 -0.0752
-9 -1 6 -0.3419 -0.0116
-9 -1 7 0.0672 0.0048
-9 -1 8 0.4365 0.0368
-9 -1 9 -2.8396 0.0543
-9 -1 10 -1.4397 -0.0055
-9 -1 11 -0.8877 0.0014
-9 -1 12 -2.6973 0.0131
-9 -1 13 -1.8655 -0.0165
-9 -1 14 2.6233 -0.0053
-9 -1 15 1.9604 0.0086
-9 -1 16 -0.1231 -0.0044
-9 -1 17 0.5270 -0.0105
-9 -1 18 -1.0562 -0.0028
-9 -1 19 -2.5679 -0.0281
-9 -1 20 -1.7398 -0.0164
-9 -1 21 -2.0193 0.0058
-9 -1 22 -0.1209 -0.0185
-9 -1 23 -0.2856 -0.0401
-9 -1 24 -1.0903 -0.0076
-9 0 1 0.8087 -0.1019
-9 0 2 2.2537 -0.3315
-9 0 3 2.3416 -0.0773
-9 0 4 0.8063 0.1464
-9 0 5 1.1570 0.0738
-9 0 6 -1.3613 0.0116
-9 0 7 -0.3486 0.0137
-9 0 8 -0.0819 -0.0176
-9 0 9 -2.3488 -0.0237
-9 0 10 -3.9937 -0.0054
-9 0 11 -0.1492 -0.0150
-9 0 12 -2.7512 0.0008
-9 0 13 -2.3707 0.0217
-9 0 14 -0.4810 -0.0159
-9 0 15 3.1374 -0.0110
-9 0 16 4.3114 0.0109
-9 0 17 -0.1730 -0.0016
-9 0 18 -2.6809 -0.0042
-9 0 19 -1.5000 0.0246
-9 0 20 -0.5726 0.0123
-9 0 21 0.4980 0.0404
-9 0 22 1.7524 0.0478
-9 0 23 2.0998 -0.0069
-9 0 24 0.6183 0.0053
-9 1 1 3.4577 0.4177
-9 1 2 3.0219 0.1405
-9 1 3 1.4702 -0.1205
-9 1 4 3.7702 -0.0177
-9 1 5 0.3017 0.1080
-9 1 6 -4.9789 0.0287
-9 1 7 -2.5255 -0.0166
-9 1 8 2.3591 0.0038
-9 1 9 2.2616 -0.0328
-9 1 10 -0.2485 -0.0338
-9 1 11 -2.6288 -0.0019
-9 1 12 1.9981 -0.0001
-9 1 13 0.8168 0.0143
-9 1 14 0.8234 0.0255
-9 1 15 0.0426 -0.0259
-9 1 16 0.0683 -0.0234
-9 1 17 0.7259 -0.0057
-9 1 18 0.0010 0.0036
-9 1 19 -0.9479 0.0170
-9 1 20 -1.6493 0.0072
-9 1 21 -0.0653 0.0023
-9 1 22 2.9818 0.0423
-9 1 23 3.3729 0.0813
-9 2 1 0.2566 0.1913
-9 2 2 5.3214 0.3188
-9 2 3 1.9020 0.1491
-9 2 4 -3.9471 -0.0680
-9 2 5 -2.3261 -0.0364
-9 2 6 1.5855 0.0224
-9 2 7 -0.1150 -0.0347
-9 2 8 1.7962 -0.0161
-9 2 9 2.4079 0.0403
-9 2 10 0.5787 0.0040
-9 2 11 0.1173 -0.0005
-9 2 12 -0.6666 -0.0024
-9 2 13 2.1787 -0.0233
-9 2 14 -0.8989 -0.0132
-9 2 15 0.3920 0.0055
-9 2 16 0.6186 0.0014
-9 2 17 -0.7367 0.0214
-9 2 18 -0.9144 0.0344
-9 2 19 -0.2865 0.0018
-9 2 20 -0.4925 -0.0153
-9 2 21 -1.0611 -0.0130
-9 2 22 -1.1643 -0.0152
-9 2 23 1.2213 -0.0407
-9 3 1 7.0060 -0.0278
-9 3 2 2.2925 -0.0147
-9 3 3 -0.5277 0.0664
-9 3 4 -1.4834 0.0125
-9 3 5 -0.0411 -0.0679
-9 3 6 -2.4466 -0.0110
-9 3 7 2.1729 0.0057
-9 3 8 0.6015 -0.0363
-9 3 9 -1.5976 0.0025
-9 3 10 -0.6369 0.0554
-9 3 11 -1.9177 0.0127
-9 3 12 0.3652 -0.0094
-9 3 13 4.1703 -0.0103
-9 3 14 5.1911 -0.0177
-9 3 15 -0.6509 0.0225
-9 3 16 -0.5952 0.0438
-9 3 17 -1.3346 0.0155
-9 3 18 0.7955 0.0135
-9 3 19 1.0361 0.0195
-9 3 20 0.7144 -0.0097
-9 3 21 -0.8386 -0.0129
-9 3 22 -1.3028 -0.0775
-9 3 23 -0.0114 -0.0313
-9 4 1 1.3796 -0.1187
-9 4 2 3.2514 -0.0830
-9 4 3 3.0393 -0.1118
-9 4 4 1.0255 -0.0600
-9 4 5 -0.6406 -0.0442
-9 4 6 1.4162 -0.0331
-9 4 7 -0.2439 0.0496
-9 4 8 0.0632 0.0321
-9 4 9 -1.9201 -0.0337
-9 4 10 -0.7659 -0.0034
-9 4 11 0.7073 0.0210
-9 4 12 1.0718 0.0064
-9 4 13 3.8959 0.0161
-9 4 14 1.2626 0.0092
-9 4 15 3.0142 -0.0070
-9 4 16 -0.6467 -0.0042
-9 4 17 -2.9848 -0.0169
-9 4 18 -2.3670 -0.0112
-9 4 19 1.4774 -0.0144
-9 4 20 0.0596 -0.0173
-9 4 21 2.4486 0.0276
-9 4 22 0.8467 0.0897
-9 5 1 0.8305 -0.3423
-9 5 2 -1.6200 -0.0730
-9 5 3 -2.8354 0.0161
-9 5 4 3.2704 -0.0241
-9 5 5 9.0252 -0.0200
-9 5 6 1.7490 -0.0194
-9 5 7 -1.1496 0.0088
-9 5 8 -0.0840 0.0579
-9 5 9 -0.5601 0.0275
-9 5 10 3.1750 -0.0221
-9 5 11 1.7348 0.0002
-9 5 12 -0.5573 0.0062
-9 5 13 1.7619 -0.0081
-9 5 14 2.2205 0.0018
-9 5 15 -1.0642 0.0085
-9 5 16 3.0538 -0.0100
-9 5 17 -1.3313 -0.0309
-9 5 18 -1.1758 -0.0464
-9 5 19 -0.3850 -0.0409
-9 5 20 2.9949 0.0078
-9 5 21 0.3770 0.0693
-9 5 22 0.2515 0.0494
-9 6 1 -3.0222 -0.0739
-9 6 2 -1.3965 -0.1869
-9 6 3 1.1939 0.0402
-9 6 4 -0.8528 0.1380
-9 6 5 2.8999 0.0718
-9 6 6 4.8906 0.0169
-9 6 7 0.9745 -0.0191
-9 6 8 -4.0050 -0.0072
-9 6 9 -2.2942 0.0126
-9 6 10 2.0374 0.0054
-9 6 11 6.7664 -0.0186
-9 6 12 3.9192 0.0106
-9 6 13 2.7839 0.0108
-9 6 14 0.3215 -0.0301
-9 6 15 0.6022 -0.0059
-9 6 16 1.0340 0.0031
-9 6 17 3.5466 -0.0275
-9 6 18 0.3564 -0.0032
-9 6 19 0.9625 0.0113
-9 6 20 -3.1970 -0.0554
-9 6 21 -0.1330 -0.0424
-9 7 1 -1.3569 0.4700
-9 7 2 -0.6703 0.0932
-9 7 3 -1.9024 -0.0984
-9 7 4 0.7097 0.0213
-9 7 5 0.6119 0.1009
-9 7 6 1.4284 0.0311
-9 7 7 0.2502 -0.0088
-9 7 8 2.2809 -0.0443
-9 7 9 0.0051 -0.0395
-9 7 10 4.2937 -0.0082
-9 7 11 3.8286 -0.0084
-9 7 12 1.3161 -0.0027
-9 7 13 -0.5057 0.0251
-9 7 14 -0.6790 -0.0042
-9 7 15 -3.2704 -0.0469
-9 7 16 -1.4903 0.0030
-9 7 17 -0.9575 0.0611
-9 7 18 1.0330 0.0412
-9 7 19 -1.5527 -0.0033
-9 7 20 0.5105 0.0185
-9 8 1 -4.6422 0.2270
-9 8 2 0.1413 0.3228
-9 8 3 4.7193 0.0406
-9 8 4 -1.1947 -0.1254
-9 8 5 -2.2548 -0.0574
-9 8 6 -3.0340 0.0068
-9 8 7 1.5946 -0.0192
-9 8 8 2.0284 -0.0056
-9 8 9 3.2205 0.0061
-9 8 10 0.8520 0.0019
-9 8 11 3.0065 -0.0008
-9 8 12 0.7507 -0.0215
-9 8 13 -0.8749 -0.0233
-9 8 14 -2.6518 0.0190
-9 8 15 -2.6174 0.0285
-9 8 16 -2.6344 -0.0240
-9 8 17 -2.7885 -0.0041
-9 8 18 0.4657 0.0514
-9 8 19 3.0173 0.0529
-9 8 20 -1.1558 -0.0221
-9 9 1 -0.2084 -0.2639
-9 9 2 -0.2488 -0.0115
-9 9 3 1.1511 0.1173
-9 9 4 3.6119 -0.0272
-9 9 5 -1.6964 -0.0971
-9 9 6 -1.9653 -0.0217
-9 9 7 -1.0911 0.0175
-9 9 8 1.0920 -0.0041
-9 9 9 0.0886 0.0174
-9 9 10 4.0446 0.0292
-9 9 11 1.0173 -0.0002
-9 9 12 -0.2689 0.0035
-9 9 13 0.6512 -0.0167
-9 9 14 -0.6113 -0.0289
-9 9 15 -0.4889 -0.0017
-9 9 16 -1.0970 -0.0027
-9 9 17 -1.0129 0.0055
-9 9 18 -2.3313 0.0259
-9 9 19 -0.6564 -0.0089
-9 10 1 -3.1296 -0.2336
-9 10 2 -0.7209 -0.2454
-9 10 3 -0.6649 -0.0801
-9 10 4 0.4821 0.0375
-9 10 5 2.4459 -0.0052
-9 10 6 -1.2159 -0.0210
-9 10 7 3.5227 0.0354
-9 10 8 5.4395 0.0139
-9 10 9 2.8397 -0.0215
-9 10 10 -1.0080 -0.0001
-9 10 11 -0.8341 0.0156
-9 10 12 -2.4856 0.0096
-9 10 13 -3.4162 0.0165
-9 10 14 -0.7624 0.0175
-9 10 15 -1.3254 0.0115
-9 10 16 2.1263 -0.0394
-9 10 17 -0.3958 -0.0793
-9 10 18 -0.1717 -0.0056
-9 11 1 5.2286 -0.0629
-9 11 2 -0.2598 -0.0767
-9 11 3 -2.3555 -0.0588
-9 11 4 -3.4396 0.0159
-9 11 5 -0.6896 0.0352
-9 11 6 1.7730 0.0098
-9 11 7 1.0748 0.0124
-9 11 8 2.9385 0.0352
-9 11 9 0.6666 0.0070
-9 11 10 0.2660 -0.0401
-9 11 11 -0.7774 -0.0267
-9 11 12 -3.5964 0.0219
-9 11 13 -1.1636 0.0103
-9 11 14 -1.7341 0.0083
-9 11 15 1.0258 0.0329
-9 11 16 0.2016 -0.0255
-9 11 17 3.1180 -0.0642
-9 12 1 0.9840 0.0691
-9 12 2 1.7056 0.0313
-9 12 3 -1.4804 0.0429
-9 12 4 -1.3832 0.0651
-9 12 5 -0.5430 0.0693
-9 12 6 -0.8238 0.0095
-9 12 7 2.5936 -0.0303
-9 12 8 2.9447 -0.0181
-9 12 9 1.0076 0.0203
-9 12 10 -1.0684 0.0065
-9 12 11 -1.8918 -0.0321
-9 12 12 -0.2114 -0.0057
-9 12 13 -2.0767 -0.0108
-9 12 14 0.7792 -0.0190
-9 12 15 -0.2490 0.0214
-9 12 16 1.1992 0.0701
-9 13 1 -0.1929 0.2821
-9 13 2 -1.9257 0.0864
-9 13 3 -1.4410 -0.0028
-9 13 4 -1.7793 0.0107
-9 13 5 1.0461 0.0313
-9 13 6 2.0062 0.0265
-9 13 7 0.2361 -0.0134
-9 13 8 1.6916 -0.0502
-9 13 9 -0.0071 -0.0112
-9 13 10 -0.7123 0.0092
-9 13 11 0.2201 -0.0072
-9 13 12 -3.4550 -0.0009
-9 13 13 -1.5674 0.0405
-9 13 14 -0.0858 -0.0089
-9 13 15 1.8837 -0.0120
-9 14 1 0.2316 0.1311
-9 14 2 -0.8969 0.1725
-9 14 3 -0.3520 -0.0123
-9 14 4 -0.2191 -0.0795
-9 14 5 0.1897 -0.0420
-9 14 6 -1.1838 0.0179
-9 14 7 -1.3765 0.0360
-9 14 8 -1.2360 -0.0050
-9 14 9 -1.2135 -0.0108
-9 14 10 -1.2483 0.0118
-9 14 11 -0.0843 -0.0413
-9 14 12 1.8710 -0.0169
-9 14 13 0.2227 -0.0206
-9 15 1 0.8484 -0.2587
-9 15 2 0.1130 0.0008
-9 15 3 -0.5752 0.0584
-9 15 4 -0.7594 -0.0477
-9 15 5 -0.8666 -0.0734
-9 15 6 0.3110 -0.0351
-9 15 7 -1.1333 0.0520
-9 15 8 -0.2075 0.0491
-9 15 9 -0.2716 0.0091
-9 15 10 -1.2824 -0.0143
-9 15 11 0.2417 -0.0069
-9 15 12 0.9559 -0.0659
-9 16 1 0.4724 -0.2259
-9 16 2 -0.2368 -0.1934
-9 16 3 0.0322 -0.0227
-9 16 4 -0.3321 0.0484
-9 16 5 0.6849 0.0094
-9 16 6 -0.0459 -0.0047
-9 16 7 0.1411 0.0047
-9 16 8 0.8393 0.0108
-9 16 9 1.9237 -0.0131
-9 16 10 0.5199 -0.0079
-9 17 1 0.3097 0.0606
-9 17 2 0.2570 -0.0413
-9 17 3 1.3707 -0.0560
-9 17 4 2.6836 0.0143
-9 17 5 0.3723 0.0514
-9 17 6 1.6826 0.0113
-9 17 7 2.2895 0.0048
-9 17 8 0.9064 -0.0156
-9 18 1 0.1700 0.1277
-9 18 2 1.3274 0.1328
-9 18 3 -0.0631 0.0258
-9 18 4 1.2328 -0.0183
-9 18 5 2.5904 0.0084
-9 19 1 -0.0830 0.0697
-9 19 2 -0.0777 0.0526
-8 -18 5 -1.6729 -0.0537
-8 -18 6 2.0895 0.0247
-8 -18 7 0.5516 -0.0073
-8 -18 8 0.5663 0.0584
-8 -18 9 -1.1248 0.0027
-8 -18 10 -0.6185 0.0571
-8 -18 11 -0.5847 0.0159
-8 -18 12 1.3673 0.0256
-8 -17 1 -0.1843 -0.0585
-8 -17 2 -2.1251 0.0349
-8 -17 3 -1.4106 -0.0515
-8 -17 4 -3.8633 0.0479
-8 -17 5 -3.2488 -0.0018
-8 -17 6 -4.2671 -0.0343
-8 -17 7 -1.3701 0.0506
-8 -17 8 1.2039 0.0065
-8 -17 9 2.2151 0.0498
-8 -17 10 -0.7347 -0.0007
-8 -17 11 1.0085 0.0236
-8 -17 12 0.0526 -0.0306
-8 -17 13 -0.9749 0.0129
-8 -17 14 -0.5118 -0.0897
-8 -17 15 -0.7288 0.0027
-8 -17 16 2.1668 -0.0627
-8 -16 1 -0.3629 -0.0403
-8 -16 2 -1.7328 -0.0210
-8 -16 3 -1.7331 0.0510
-8 -16 4 0.2592 -0.0147
-8 -16 5 -3.0806 0.0425
-8 -16 6 0.3914 0.0143
-8 -16 7 -1.5429 -0.0178
-8 -16 8 1.3304 0.0360
-8 -16 9 3.7463 -0.0055
-8 -16 10 2.1464 0.0076
-8 -16 11 -1.0250 -0.0076
-8 -16 12 -1.8468 0.0110
-8 -16 13 -2.3859 -0.0557
-8 -16 14 -2.6076 0.0348
-8 -16 15 -0.6209 -0.0620
-8 -16 16 0.7789 0.0103
-8 -16 17 2.8387 -0.0116
-8 -16 18 -1.1868 0.0677
-8 -15 1 1.7111 -0.0324
-8 -15 2 -1.3707 0.0134
-8 -15 3 0.5319 0.0409
-8 -15 4 -2.1466 0.0537
-8 -15 5 1.1606 0.0160
-8 -15 6 0.2643 0.0436
-8 -15 7 -0.4433 -0.0050
-8 -15 8 -1.9962 -0.0200
-8 -15 9 1.2746 0.0005
-8 -15 10 1.7930 -0.0316
-8 -15 11 1.9792 -0.0093
-8 -15 12 0.6119 -0.0269
-8 -15 13 -1.0642 -0.0158
-8 -15 14 -1.1119 -0.0342
-8 -15 15 -0.9132 0.0477
-8 -15 16 2.9429 -0.0220
-8 -15 17 1.2120 0.0084
-8 -15 18 1.6233 0.0284
-8 -15 19 0.8261 -0.0116
-8 -14 1 2.8602 0.2108
-8 -14 2 0.6000 0.0345
-8 -14 3 -1.8827 0.0158
-8 -14 4 0.1604 0.0354
-8 -14 5 -5.5195 0.0172
-8 -14 6 -0.0376 -0.0122
-8 -14 7 -0.1848 0.0054
-8 -14 8 0.0692 -0.0148
-8 -14 9 0.4548 -0.0147
-8 -14 10 -0.2030 -0.0180
-8 -14 11 -0.6481 -0.0323
-8 -14 12 0.3688 -0.0103
-8 -14 13 0.6711 -0.0134
-8 -14 14 -0.4613 -0.0033
-8 -14 15 -2.4161 0.0148
-8 -14 16 -1.5841 0.0300
-8 -14 17 1.7981 0.0014
-8 -14 18 -1.5297 -0.0232
-8 -14 19 -0.1843 0.0364
-8 -14 20 0.2257 -0.0168
-8 -14 21 0.6382 0.0367
-8 -13 1 0.0064 0.1994
-8 -13 2 -2.2903 0.1437
-8 -13 3 -0.8990 -0.0198
-8 -13 4 -0.8352 -0.0810
-8 -13 5 1.1564 -0.0272
-8 -13 6 0.0903 -0.0177
-8 -13 7 4.1737 -0.0308
-8 -13 8 2.1551 0.0173
-8 -13 9 2.0817 0.0071
-8 -13 10 -0.9202 0.0107
-8 -13 11 -1.7419 0.0200
-8 -13 12 -1.7712 -0.0194
-8 -13 13 -1.8070 -0.0128
-8 -13 14 0.2943 0.0187
-8 -13 15 0.5662 -0.0022
-8 -13 16 -0.4382 0.0361
-8 -13 17 -0.4146 0.0085
-8 -13 18 1.4634 0.0262
-8 -13 19 0.1692 -0.0125
-8 -13 20 -0.8934 0.0124
-8 -13 21 -2.1708 0.0242
-8 -13 22 -0.2050 0.0118
-8 -12 1 -1.0647 -0.2201
-8 -12 2 -0.5693 0.0376
-8 -12 3 -2.0826 0.0698
-8 -12 4 3.0799 -0.0523
-8 -12 5 1.9724 -0.0719
-8 -12 6 2.8828 -0.0070
-8 -12 7 -0.3596 -0.0208
-8 -12 8 -0.6508 0.0130
-8 -12 9 0.2399 0.0420
-8 -12 10 2.0248 0.0082
-8 -12 11 -1.2431 0.0221
-8 -12 12 0.6137 0.0094
-8 -12 13 2.6799 -0.0128
-8 -12 14 0.7788 -0.0162
-8 -12 15 -0.1243 0.0075
-8 -12 16 1.1596 -0.0108
-8 -12 17 0.9965 0.0136
-8 -12 18 0.7347 -0.0076
-8 -12 19 1.3097 0.0006
-8 -12 20 -0.5243 -0.0042
-8 -12 21 0.7314 -0.0171
-8 -12 22 0.6375 -0.0021
-8 -11 1 0.6080 -0.2566
-8 -11 2 0.6850 -0.2509
-8 -11 3 3.2596 -0.0103
-8 -11 4 1.5688 0.0509
-8 -11 5 1.4554 -0.0200
-8 -11 6 0.6552 -0.0089
-8 -11 7 1.3720 0.0255
-8 -11 8 -2.5715 0.0015
-8 -11 9 -2.1432 0.0104
-8 -11 10 -1.1701 0.0077
-8 -11 11 0.9735 -0.0037
-8 -11 12 0.2113 0.0118
-8 -11 13 1.3884 0.0062
-8 -11 14 0.2591 0.0016
-8 -11 15 -2.1090 -0.0078
-8 -11 16 -0.9373 -0.0085
-8 -11 17 -0.4350 -0.0202
-8 -11 18 -0.8195 -0.0061
-8 -11 19 3.7521 0.0054
-8 -11 20 1.9397 -0.0263
-8 -11 21 -2.2862 0.0044
-8 -11 22 1.8606 -0.0027
-8 -11 23 0.3123 -0.0443
-8 -10 1 1.3312 0.0711
-8 -10 2 1.1118 -0.0829
-8 -10 3 -0.7475 -0.1084
-8 -10 4 4.5271 0.0322
-8 -10 5 2.9535 0.0667
-8 -10 6 0.4004 0.0156
-8 -10 7 1.3847 0.0087
-8 -10 8 0.7652 0.0281
-8 -10 9 -1.1346 -0.0011
-8 -10 10 1.3774 -0.0089
-8 -10 11 -0.8757 0.0008
-8 -10 12 -2.0387 -0.0112
-8 -10 13 0.1291 0.0058
-8 -10 14 1.3420 0.0195
-8 -10 15 -1.5309 -0.0105
-8 -10 16 -0.8065 0.0070
-8 -10 17 -0.7083 -0.0084
-8 -10 18 -1.8891 -0.0111
-8 -10 19 -1.0714 -0.0016
-8 -10 20 1.1081 0.0232
-8 -10 21 -0.8518 0.0057
-8 -10 22 -1.2960 -0.0063
-8 -10 23 2.4291 0.0074
-8 -10 24 -1.6931 -0.0202
-8 -9 1 0.0275 0.1159
-8 -9 2 1.4204 0.1788
-8 -9 3 3.3310 0.0716
-8 -9 4 1.3291 0.0001
-8 -9 5 1.7675 0.0352
-8 -9 6 0.3701 0.0155
-8 -9 7 -0.3959 -0.0282
-8 -9 8 2.4904 -0.0017
-8 -9 9 2.0278 0.0142
-8 -9 10 1.7556 -0.0150
-8 -9 11 2.9177 -0.0080
-8 -9 12 -1.4553 -0.0063
-8 -9 13 -2.5642 -0.0239
-8 -9 14 -2.0539 -0.0161
-8 -9 15 -1.4956 0.0093
-8 -9 16 -0.2486 -0.0171
-8 -9 17 -0.6335 0.0265
-8 -9 18 -4.3809 0.0259
-8 -9 19 -1.5031 -0.0008
-8 -9 20 1.0611 0.0081
-8 -9 21 0.9279 0.0259
-8 -9 22 0.4174 0.0320
-8 -9 23 -0.8228 0.0154
-8 -9 24 1.9848 0.0004
-8 -8 1 1.6185 0.1383
-8 -8 2 5.3544 0.0552
-8 -8 3 3.6402 0.0861
-8 -8 4 3.6805 0.0281
-8 -8 5 1.4476 -0.0194
-8 -8 6 -0.7537 -0.0080
-8 -8 7 -0.4035 -0.0262
-8 -8 8 -1.8174 -0.0506
-8 -8 9 -0.2001 -0.0012
-8 -8 10 0.2654 0.0119
-8 -8 11 -1.3316 -0.0244
-8 -8 12 -1.6963 0.0003
-8 -8 13 -1.9965 -0.0123
-8 -8 14 0.3981 -0.0228
-8 -8 15 -0.9097 0.0135
-8 -8 16 0.1880 0.0184
-8 -8 17 2.3086 -0.0019
-8 -8 18 -0.4402 0.0300
-8 -8 19 -3.9348 0.0197
-8 -8 20 -0.2394 -0.0184
-8 -8 21 1.3978 -0.0010
-8 -8 22 1.7692 -0.0144
-8 -8 23 3.0739 -0.0096
-8 -8 24 0.3679 0.0194
-8 -7 1 4.0570 0.1808
-8 -7 2 2.9937 0.0440
-8 -7 3 2.4148 -0.0897
-8 -7 4 0.3892 -0.0539
-8 -7 5 -0.3630 -0.0348
-8 -7 6 0.7738 -0.0220
-8 -7 7 0.6981 0.0207
-8 -7 8 1.5082 -0.0007
-8 -7 9 0.2286 -0.0145
-8 -7 10 -1.2291 0.0271
-8 -7 11 -0.8954 0.0040
-8 -7 12 -0.7875 -0.0197
-8 -7 13 1.5725 0.0225
-8 -7 14 1.1708 0.0119
-8 -7 15 1.7349 -0.0058
-8 -7 16 0.5448 0.0159
-8 -7 17 -0.1173 -0.0081
-8 -7 18 -1.0110 -0.0039
-8 -7 19 -2.4207 0.0087
-8 -7 20 -2.6641 -0.0024
-8 -7 21 1.4877 -0.0234
-8 -7 22 3.0358 -0.0066
-8 -7 23 1.9586 -0.0172
-8 -7 24 1.5954 -0.0389
-8 -7 25 0.4600 0.0035
-8 -6 1 1.6639 -0.2781
-8 -6 2 1.3098 0.0687
-8 -6 3 -1.6874 0.0072
-8 -6 4 -4.1427 -0.1089
-8 -6 5 -2.0376 -0.0599
-8 -6 6 1.0460 -0.0223
-8 -6 7 4.2260 0.0205
-8 -6 8 3.9937 0.0596
-8 -6 9 1.8881 0.0130
-8 -6 10 2.5395 0.0037
-8 -6 11 0.2941 0.0265
-8 -6 12 -0.9460 0.0025
-8 -6 13 -0.8074 -0.0085
-8 -6 14 2.7053 0.0066
-8 -6 15 -1.1249 0.0224
-8 -6 16 -2.7259 -0.0118
-8 -6 17 -0.3232 -0.0029
-8 -6 18 -0.6883 -0.0196
-8 -6 19 -2.0193 -0.0298
-8 -6 20 -1.2613 0.0041
-8 -6 21 -1.8293 -0.0013
-8 -6 22 -0.6996 -0.0145
-8 -6 23 0.8767 0.0032
-8 -6 24 1.9340 -0.0143
-8 -6 25 -1.0976 -0.0282
-8 -5 1 2.6250 -0.4337
-8 -5 2 1.5675 -0.2555
-8 -5 3 1.1097 0.0868
-8 -5 4 2.1411 0.0814
-8 -5 5 -0.4980 -0.0104
-8 -5 6 0.7876 0.0004
-8 -5 7 3.0016 0.0055
-8 -5 8 -0.4868 0.0016
-8 -5 9 -3.1292 0.0223
-8 -5 10 -5.2461 0.0051
-8 -5 11 -0.9686 -0.0110
-8 -5 12 0.1975 0.0184
-8 -5 13 1.0716 -0.0035
-8 -5 14 0.4767 -0.0101
-8 -5 15 1.9948 0.0078
-8 -5 16 -2.5856 0.0001
-8 -5 17 -5.2912 -0.0276
-8 -5 18 -1.5229 -0.0004
-8 -5 19 0.0411 -0.0023
-8 -5 20 -2.3464 -0.0231
-8 -5 21 -0.8767 0.0031
-8 -5 22 0.0048 0.0021
-8 -5 23 -0.0669 0.0160
-8 -5 24 -0.4489 0.0325
-8 -5 25 2.0273 0.0061
-8 -4 1 2.7728 0.2361
-8 -4 2 -2.7597 -0.1912
-8 -4 3 -1.6052 -0.1284
-8 -4 4 1.0870 0.1171
-8 -4 5 4.9702 0.1019
-8 -4 6 4.0155 0.0130
-8 -4 7 0.3408 0.0054
-8 -4 8 -0.7289 -0.0177
-8 -4 9 -3.7438 -0.0374
-8 -4 10 -2.8878 -0.0151
-8 -4 11 -3.1275 -0.0071
-8 -4 12 -0.3270 -0.0020
-8 -4 13 0.6409 0.0245
-8 -4 14 1.7548 -0.0203
-8 -4 15 -0.7848 -0.0265
-8 -4 16 0.2902 0.0094
-8 -4 17 -1.9923 -0.0058
-8 -4 18 -2.4779 -0.0101
-8 -4 19 1.7973 0.0158
-8 -4 20 2.1903 0.0158
-8 -4 21 -0.7268 -0.0128
-8 -4 22 -1.1437 0.0043
-8 -4 23 -1.5147 -0.0011
-8 -4 24 1.1130 0.0034
-8 -4 25 0.0309 0.0599
-8 -3 1 -1.2656 0.4520
-8 -3 2 -1.7209 0.3451
-8 -3 3 -2.7355 -0.0396
-8 -3 4 0.7568 -0.0781
-8 -3 5 1.5647 0.0517
-8 -3 6 3.2681 0.0225
-8 -3 7 4.4078 -0.0200
-8 -3 8 0.1501 0.0141
-8 -3 9 -2.5812 -0.0037
-8 -3 10 -0.7644 -0.0185
-8 -3 11 0.8699 -0.0029
-8 -3 12 -2.0197 -0.0184
-8 -3 13 -0.4703 -0.0179
-8 -3 14 -1.5588 0.0128
-8 -3 15 -0.8516 -0.0130
-8 -3 16 0.9124 -0.0098
-8 -3 17 3.7441 0.0415
-8 -3 18 1.7695 0.0047
-8 -3 19 0.9069 -0.0099
-8 -3 20 1.1864 0.0309
-8 -3 21 -0.8095 0.0113
-8 -3 22 -1.2473 -0.0187
-8 -3 23 -0.7596 -0.0021
-8 -3 24 -1.0182 -0.0220
-8 -3 25 2.3702 -0.0155
-8 -2 1 0.1074 0.0185
-8 -2 2 -1.1800 0.2403
-8 -2 3 1.2782 0.1961
-8 -2 4 3.8600 -0.0625
-8 -2 5 5.2166 -0.0861
-8 -2 6 0.6394 -0.0001
-8 -2 7 -1.7304 -0.0331
-8 -2 8 -1.6101 -0.0254
-8 -2 9 -2.3849 0.0516
-8 -2 10 -2.5170 0.0191
-8 -2 11 2.4255 -0.0132
-8 -2 12 1.2288 0.0013
-8 -2 13 -3.6571 -0.0308
-8 -2 14 -1.3559 -0.0062
-8 -2 15 -2.8345 0.0275
-8 -2 16 -1.4141 -0.0034
-8 -2 17 0.1895 0.0150
-8 -2 18 0.9538 0.0500
-8 -2 19 2.4315 0.0100
-8 -2 20 2.3576 -0.0116
-8 -2 21 1.0671 0.0193
-8 -2 22 0.0164 0.0213
-8 -2 23 0.0125 0.0058
-8 -2 24 -1.2493 -0.0121
-8 -2 25 -3.3441 -0.0505
-8 -1 1 -6.5021 -0.1335
-8 -1 2 -3.5663 -0.1716
-8 -1 3 0.6534 -0.0074
-8 -1 4 6.7229 0.0159
-8 -1 5 3.8693 -0.0923
-8 -1 6 -0.7433 -0.0297
-8 -1 7 -3.9452 0.0219
-8 -1 8 -0.6674 -0.0430
-8 -1 9 -0.1913 -0.0212
-8 -1 10 -0.1248 0.0253
-8 -1 11 -1.1669 0.0103
-8 -1 12 -0.1383 0.0092
-8 -1 13 -2.2316 0.0187
-8 -1 14 -4.6852 0.0011
-8 -1 15 -2.7219 0.0117
-8 -1 16 -2.4626 0.0128
-8 -1 17 0.5865 -0.0216
-8 -1 18 1.0563 -0.0097
-8 -1 19 0.0682 0.0015
-8 -1 20 1.1621 -0.0231
-8 -1 21 0.5462 -0.0271
-8 -1 22 0.0726 0.0103
-8 -1 23 -2.0232 0.0126
-8 -1 24 -1.0043 0.0003
-8 -1 25 -0.0811 0.0222
-8 0 1 -2.4452 -0.2120
-8 0 2 1.9925 -0.0958
-8 0 3 2.1343 -0.1381
-8 0 4 0.0293 -0.0551
-8 0 5 4.9225 -0.0267
-8 0 6 1.0561 -0.0260
-8 0 7 -4.1364 0.0614
-8 0 8 -3.9968 0.0600
-8 0 9 0.9322 -0.0265
-8 0 10 -0.7452 -0.0207
-8 0 11 -0.9521 0.0087
-8 0 12 -2.9042 0.0117
-8 0 13 -3.4290 0.0243
-8 0 14 -1.7692 0.0331
-8 0 15 -1.2293 0.0142
-8 0 16 0.8966 -0.0056
-8 0 17 0.4742 -0.0176
-8 0 18 -1.0232 -0.0467
-8 0 19 -0.1900 -0.0158
-8 0 20 -0.8350 0.0015
-8 0 21 -1.3913 -0.0329
-8 0 22 -1.1832 -0.0281
-8 0 23 2.2312 0.0064
-8 0 24 0.7288 0.0392
-8 1 1 -0.8088 -0.3268
-8 1 2 5.3533 -0.1178
-8 1 3 7.9236 0.0781
-8 1 4 5.7099 0.0401
-8 1 5 -1.5821 0.0219
-8 1 6 -1.9927 -0.0018
-8 1 7 -2.3063 -0.0054
-8 1 8 -2.2168 0.0523
-8 1 9 -2.5287 0.0444
-8 1 10 -1.3524 -0.0269
-8 1 11 -1.5010 -0.0192
-8 1 12 -1.9518 0.0159
-8 1 13 -0.5378 0.0017
-8 1 14 0.9852 0.0049
-8 1 15 -1.1728 0.0031
-8 1 16 -0.5895 -0.0106
-8 1 17 0.9654 -0.0163
-8 1 18 1.1344 -0.0054
-8 1 19 0.7500 -0.0030
-8 1 20 1.0820 0.0050
-8 1 21 0.4488 0.0247
-8 1 22 1.1279 0.0043
-8 1 23 -1.2683 -0.0259
-8 1 24 0.0862 -0.0716
-8 2 1 -1.1427 0.2139
-8 2 2 1.6780 -0.1399
-8 2 3 4.2739 -0.0080
-8 2 4 -3.0256 0.1611
-8 2 5 -1.9655 0.0987
-8 2 6 -1.3597 0.0218
-8 2 7 -2.4028 -0.0326
-8 2 8 0.8316 -0.0587
-8 2 9 -0.2597 -0.0106
-8 2 10 0.0251 0.0058
-8 2 11 -0.1504 -0.0125
-8 2 12 -2.7338 -0.0084
-8 2 13 -0.9707 0.0039
-8 2 14 1.0479 -0.0335
-8 2 15 0.6667 -0.0385
-8 2 16 -0.8001 -0.0034
-8 2 17 1.2260 0.0037
-8 2 18 -0.6249 0.0042
-8 2 19 -0.2499 0.0301
-8 2 20 1.5894 0.0348
-8 2 21 0.6144 0.0311
-8 2 22 -2.5666 0.0421
-8 2 23 -0.3281 -0.0448
-8 2 24 -0.2033 -0.0016
-8 3 1 4.9964 0.5885
-8 3 2 -5.0291 0.2759
-8 3 3 -7.1150 -0.1201
-8 3 4 -4.0153 -0.0724
-8 3 5 -5.4621 0.0570
-8 3 6 -5.0527 0.0237
-8 3 7 0.3953 -0.0163
-8 3 8 1.7757 -0.0184
-8 3 9 0.0355 -0.0428
-8 3 10 -2.7133 -0.0066
-8 3 11 0.7087 0.0017
-8 3 12 -0.1547 -0.0275
-8 3 13 -0.9019 -0.0093
-8 3 14 2.5853 0.0092
-8 3 15 0.3212 -0.0269
-8 3 16 0.4318 -0.0049
-8 3 17 -2.4348 0.0239
-8 3 18 -1.5546 0.0069
-8 3 19 -0.4141 0.0157
-8 3 20 -0.5088 0.0022
-8 3 21 -0.4304 -0.0047
-8 3 22 1.2640 0.0238
-8 3 23 -1.7350 0.0762
-8 4 1 7.6012 -0.0384
-8 4 2 3.0290 0.3326
-8 4 3 -3.5135 0.1377
-8 4 4 -9.4325 -0.1664
-8 4 5 -5.2306 -0.1092
-8 4 6 1.6436 -0.0129
-8 4 7 -2.1025 -0.0111
-8 4 8 -0.8088 0.0193
-8 4 9 -1.4234 0.0401
-8 4 10 -3.1482 0.0002
-8 4 11 1.0943 0.0085
-8 4 12 3.7456 -0.0037
-8 4 13 2.1602 -0.0157
-8 4 14 1.9228 0.0297
-8 4 15 1.6178 0.0386
-8 4 16 -2.5759 0.0040
-8 4 17 0.3218 0.0028
-8 4 18 -2.3696 -0.0095
-8 4 19 -1.5711 -0.0305
-8 4 20 0.2800 -0.0338
-8 4 21 2.6834 -0.0318
-8 4 22 0.5529 0.0132
-8 4 23 0.3323 -0.0464
-8 5 1 2.8314 -0.4494
-8 5 2 -1.9999 -0.2293
-8 5 3 -2.4941 0.1150
-8 5 4 -2.9050 0.0457
-8 5 5 -1.6265 -0.1045
-8 5 6 -0.4944 -0.0230
-8 5 7 -0.4765 0.0127
-8 5 8 0.4134 -0.0181
-8 5 9 0.4077 0.0094
-8 5 10 0.7428 0.0387
-8 5 11 2.5150 0.0278
-8 5 12 3.3763 0.0165
-8 5 13 3.7275 0.0086
-8 5 14 3.9069 0.0110
-8 5 15 -0.9337 0.0350
-8 5 16 0.7536 0.0347
-8 5 17 -2.1981 -0.0026
-8 5 18 -0.5946 -0.0086
-8 5 19 -0.3672 0.0038
-8 5 20 1.5954 0.0028
-8 5 21 0.7181 -0.0177
-8 5 22 1.9099 -0.0413
-8 6 1 -1.4736 -0.1647
-8 6 2 -1.7518 -0.3014
-8 6 3 -0.7802 -0.1717
-8 6 4 -1.0364 0.0591
-8 6 5 -2.0253 0.0398
-8 6 6 -0.4256 -0.0158
-8 6 7 -0.4339 0.0414
-8 6 8 -3.7546 0.0286
-8 6 9 -1.9020 -0.0500
-8 6 10 -0.6391 -0.0311
-8 6 11 6.2405 0.0077
-8 6 12 6.3131 0.0166
-8 6 13 4.2258 0.0231
-8 6 14 4.1172 0.0085
-8 6 15 2.6469 -0.0091
-8 6 16 -3.7557 0.0008
-8 6 17 -0.2605 -0.0112
-8 6 18 -0.3210 -0.0189
-8 6 19 1.3995 0.0218
-8 6 20 -1.2735 0.0223
-8 6 21 0.6520 0.0256
-8 6 22 0.8987 0.0602
-8 7 1 0.1109 0.0561
-8 7 2 -2.4741 0.0473
-8 7 3 0.8478 -0.0357
-8 7 4 5.0216 -0.0076
-8 7 5 2.8768 0.0732
-8 7 6 -0.4741 0.0060
-8 7 7 -5.1256 0.0006
-8 7 8 -0.9092 0.0492
-8 7 9 -1.4633 0.0112
-8 7 10 1.3194 -0.0477
-8 7 11 2.4554 -0.0249
-8 7 12 4.9747 -0.0083
-8 7 13 2.9137 -0.0083
-8 7 14 2.6036 -0.0076
-8 7 15 0.7855 -0.0166
-8 7 16 0.3776 -0.0371
-8 7 17 -4.1955 -0.0275
-8 7 18 -3.7051 -0.0225
-8 7 19 -2.8365 -0.0100
-8 7 20 -0.4241 0.0798
-8 7 21 -1.7066 0.0591
-8 8 1 -5.9374 0.2091
-8 8 2 -2.6438 0.0920
-8 8 3 0.8655 0.1004
-8 8 4 3.0509 0.0593
-8 8 5 2.9677 0.0390
-8 8 6 -2.5839 0.0222
-8 8 7 1.1581 -0.0667
-8 8 8 1.0393 -0.0231
-8 8 9 3.4168 0.0483
-8 8 10 0.8702 0.0320
-8 8 11 3.1994 -0.0070
-8 8 12 -0.4368 -0.0087
-8 8 13 -3.8512 -0.0148
-8 8 14 -3.6548 -0.0375
-8 8 15 -1.3952 -0.0212
-8 8 16 -1.2272 0.0058
-8 8 17 -2.0468 -0.0167
-8 8 18 -3.2682 -0.0143
-8 8 19 -1.3588 -0.0346
-8 8 20 -3.0145 -0.0720
-8 9 1 -0.1756 0.3395
-8 9 2 -0.9777 0.1301
-8 9 3 0.2785 -0.0522
-8 9 4 1.0855 -0.0350
-8 9 5 0.9685 0.0063
-8 9 6 1.5155 0.0111
-8 9 7 -5.1153 -0.0080
-8 9 8 0.6883 -0.0550
-8 9 9 1.7652 -0.0172
-8 9 10 2.2148 0.0382
-8 9 11 0.7758 0.0131
-8 9 12 0.9757 -0.0067
-8 9 13 -2.2019 0.0078
-8 9 14 -6.5206 0.0022
-8 9 15 -6.2121 0.0009
-8 9 16 -2.7939 0.0211
-8 9 17 1.3642 0.0365
-8 9 18 -0.6366 -0.0035
-8 9 19 -2.1228 -0.0635
-8 9 20 -1.0528 -0.0576
-8 10 1 -0.0802 -0.0669
-8 10 2 2.4607 0.1589
-8 10 3 1.6287 0.0134
-8 10 4 0.2304 -0.1478
-8 10 5 1.6422 -0.0995
-8 10 6 -0.0896 -0.0107
-8 10 7 2.5237 0.0328
-8 10 8 1.6022 0.0228
-8 10 9 3.8982 -0.0090
-8 10 10 0.8562 0.0008
-8 10 11 0.6511 -0.0006
-8 10 12 0.0292 -0.0261
-8 10 13 -2.6704 0.0070
-8 10 14 -2.5224 0.0307
-8 10 15 -4.5024 0.0332
-8 10 16 -2.5437 0.0163
-8 10 17 -3.1935 0.0107
-8 10 18 0.0487 0.0996
-8 10 19 0.7038 0.0728
-8 11 1 -1.0654 -0.4446
-8 11 2 -1.2946 -0.1629
-8 11 3 -0.0309 0.1004
-8 11 4 -2.0704 0.0280
-8 11 5 -0.5788 -0.0845
-8 11 6 3.4534 -0.0353
-8 11 7 2.1367 0.0155
-8 11 8 5.7845 0.0310
-8 11 9 3.3188 0.0197
-8 11 10 2.1561 0.0086
-8 11 11 -0.8785 0.0056
-8 11 12 -3.6789 -0.0021
-8 11 13 -1.6857 -0.0277
-8 11 14 -2.7848 -0.0145
-8 11 15 -1.0931 0.0200
-8 11 16 -2.5301 0.0191
-8 11 17 1.4846 -0.0086
-8 11 18 -0.5076 -0.0341
-8 12 1 2.5430 -0.1317
-8 12 2 1.5131 -0.2800
-8 12 3 -1.3071 -0.0715
-8 12 4 -0.9889 0.1343
-8 12 5 -0.4442 0.0733
-8 12 6 0.3540 -0.0197
-8 12 7 2.4472 0.0051
-8 12 8 1.4845 -0.0125
-8 12 9 2.7972 -0.0185
-8 12 10 -1.2413 0.0039
-8 12 11 -1.0273 0.0012
-8 12 12 -0.0198 0.0146
-8 12 13 -2.3516 0.0023
-8 12 14 0.4997 -0.0342
-8 12 15 -0.1841 -0.0237
-8 12 16 1.7458 -0.0131
-8 12 17 -1.5799 -0.0511
-8 13 1 1.8392 0.2443
-8 13 2 -1.2524 0.0517
-8 13 3 -0.7079 -0.1017
-8 13 4 -2.1612 -0.0003
-8 13 5 0.8939 0.0808
-8 13 6 2.9002 0.0037
-8 13 7 -0.6224 -0.0071
-8 13 8 2.4784 0.0198
-8 13 9 1.4769 -0.0168
-8 13 10 0.3586 -0.0074
-8 13 11 -1.6146 0.0072
-8 13 12 -2.5370 0.0072
-8 13 13 -0.8246 0.0327
-8 13 14 -0.3737 -0.0504
-8 13 15 1.5720 -0.0529
-8 13 16 -1.1634 -0.0042
-8 14 1 0.0513 0.2011
-8 14 2 -0.3611 0.2043
-8 14 3 -0.8090 0.0727
-8 14 4 -0.3712 -0.0419
-8 14 5 -0.7553 0.0231
-8 14 6 1.1909 0.0175
-8 14 7 1.5477 -0.0567
-8 14 8 -1.6532 -0.0170
-8 14 9 1.0777 0.0465
-8 14 10 -0.9230 0.0425
-8 14 11 -0.7791 -0.0096
-8 14 12 0.7883 0.0105
-8 14 13 0.1072 -0.0031
-8 14 14 0.2562 0.0290
-8 15 1 1.6700 0.0530
-8 15 2 -1.1993 0.0813
-8 15 3 -0.1270 0.0542
-8 15 4 -0.7023 -0.0102
-8 15 5 -1.6350 -0.0467
-8 15 6 0.8955 -0.0029
-8 15 7 -0.1418 0.0084
-8 15 8 -0.9447 -0.0618
-8 15 9 -1.6149 -0.0317
-8 15 10 -0.5264 0.0619
-8 15 11 -0.7489 0.0734
-8 15 12 0.8865 -0.0099
-8 15 13 1.5768 0.0536
-8 16 1 0.2640 -0.1301
-8 16 2 0.1678 -0.0130
-8 16 3 -2.5769 -0.0079
-8 16 4 -1.1106 -0.0611
-8 16 5 -0.7684 -0.0368
-8 16 6 -1.8804 -0.0174
-8 16 7 0.2951 0.0233
-8 16 8 0.6279 0.0166
-8 16 9 -0.1751 -0.0801
-8 16 10 -1.7685 -0.0182
-8 16 11 -2.0148 0.0278
-8 17 1 0.8580 -0.2202
-8 17 2 -0.0271 -0.1127
-8 17 3 0.1651 0.0510
-8 17 4 -1.5480 0.0239
-8 17 5 -0.9387 -0.0138
-8 17 6 0.7695 0.0092
-8 17 7 0.5600 0.0176
-8 17 8 -0.4259 0.0156
-8 17 9 -1.1873 -0.0212
-8 17 10 -1.7269 -0.1000
-8 18 1 -1.3096 -0.0270
-8 18 2 2.5018 -0.0984
-8 18 3 0.5034 -0.0283
-8 18 4 -0.0499 0.1079
-8 18 5 1.0113 0.0498
-8 18 6 0.3300 -0.0265
-8 18 7 -0.4042 0.0166
-8 19 1 -1.4580 0.1940
-8 19 2 -0.0547 0.0598
-8 19 3 3.9431 0.0082
-8 19 4 1.0008 -0.0291
-8 19 5 -0.7494 0.0892
-7 -19 5 -3.0069 0.0615
-7 -19 6 -1.7114 -0.0021
-7 -19 7 0.6018 0.0550
-7 -19 8 -1.0086 -0.0033
-7 -19 9 -1.1272 0.0186
-7 -19 10 0.3943 0.0076
-7 -19 11 1.2131 0.0164
-7 -18 1 0.9844 0.1623
-7 -18 2 -1.6491 0.0064
-7 -18 3 0.1896 0.0266
-7 -18 4 1.3290 0.0070
-7 -18 5 -0.0701 0.0222
-7 -18 6 -0.4909 0.0158
-7 -18 7 -1.5604 -0.0175
-7 -18 8 0.0166 0.0559
-7 -18 9 0.7038 -0.0038
-7 -18 10 -1.0366 0.0185
-7 -18 11 -0.6478 -0.0086
-7 -18 12 3.1405 -0.0050
-7 -18 13 0.2019 -0.0099
-7 -18 14 -2.2204 0.0019
-7 -18 15 -2.1222 -0.0631
-7 -18 16 -0.5847 0.0168
-7 -17 1 -1.4861 -0.0166
-7 -17 2 -1.6759 0.1223
-7 -17 3 -3.5576 -0.0516
-7 -17 4 0.1906 -0.0209
-7 -17 5 1.4171 -0.0127
-7 -17 6 -0.5018 -0.0125
-7 -17 7 0.3349 0.0096
-7 -17 8 -1.6688 -0.0081
-7 -17 9 -0.1753 0.0535
-7 -17 10 0.6000 -0.0011
-7 -17 11 0.2130 -0.0026
-7 -17 12 -0.2045 -0.0318
-7 -17 13 2.0528 -0.0044
-7 -17 14 0.8877 -0.0291
-7 -17 15 -2.6754 0.0372
-7 -17 16 -1.9331 -0.0377
-7 -17 17 0.4367 0.0548
-7 -17 18 1.3462 -0.0521
-7 -16 1 -1.1129 -0.1740
-7 -16 2 -2.2782 -0.0761
-7 -16 3 -1.9466 0.0794
-7 -16 4 -2.5749 -0.0369
-7 -16 5 -3.3455 -0.0257
-7 -16 6 2.4451 0.0046
-7 -16 7 0.2129 -0.0020
-7 -16 8 -0.8561 -0.0012
-7 -16 9 2.0270 -0.0171
-7 -16 10 2.1851 0.0131
-7 -16 11 -0.5621 -0.0175
-7 -16 12 -1.2997 0.0131
-7 -16 13 -1.7225 -0.0331
-7 -16 14 0.3394 0.0086
-7 -16 15 1.0033 0.0016
-7 -16 16 -1.4540 0.0448
-7 -16 17 -0.8994 -0.0354
-7 -16 18 -3.3168 0.0535
-7 -16 19 0.3754 -0.0285
-7 -15 1 -1.1744 -0.1026
-7 -15 2 -1.9793 -0.1430
-7 -15 3 -4.6301 -0.0663
-7 -15 4 -1.2278 0.0590
-7 -15 5 -0.9883 -0.0092
-7 -15 6 -3.9054 -0.0052
-7 -15 7 3.1440 0.0173
-7 -15 8 -0.5229 -0.0118
-7 -15 9 -1.7077 0.0037
-7 -15 10 1.9000 0.0039
-7 -15 11 1.3539 -0.0034
-7 -15 12 -0.9876 -0.0136
-7 -15 13 -2.9645 0.0352
-7 -15 14 -0.4681 -0.0172
-7 -15 15 -0.0388 0.0166
-7 -15 16 0.8473 0.0168
-7 -15 17 1.7186 0.0196
-7 -15 18 1.5046 -0.0272
-7 -15 19 -3.3965 0.0057
-7 -15 20 1.1709 0.0055
-7 -15 21 -0.1579 -0.0449
-7 -14 1 -0.7226 0.1164
-7 -14 2 -0.8722 0.0331
-7 -14 3 -1.9145 -0.0531
-7 -14 4 -1.0840 0.0098
-7 -14 5 -2.1059 0.0489
-7 -14 6 -0.4193 -0.0053
-7 -14 7 -1.7932 0.0138
-7 -14 8 0.2723 0.0218
-7 -14 9 -1.4829 0.0018
-7 -14 10 -2.1915 0.0114
-7 -14 11 -0.3800 0.0088
-7 -14 12 0.8134 0.0007
-7 -14 13 0.9988 -0.0258
-7 -14 14 -0.4858 0.0176
-7 -14 15 0.7776 -0.0005
-7 -14 16 -1.0570 0.0007
-7 -14 17 1.2482 0.0089
-7 -14 18 -0.8919 -0.0096
-7 -14 19 -0.4793 -0.0069
-7 -14 20 -1.7140 -0.0331
-7 -14 21 1.3451 0.0128
-7 -14 22 0.1495 0.0190
-7 -13 1 0.2301 0.1309
-7 -13 2 -0.7528 0.1262
-7 -13 3 -5.1054 0.0746
-7 -13 4 -4.5819 -0.0084
-7 -13 5 -0.3368 0.0152
-7 -13 6 -1.7710 0.0232
-7 -13 7 2.6398 -0.0247
-7 -13 8 1.6125 -0.0085
-7 -13 9 1.1620 0.0180
-7 -13 10 -0.4407 -0.0069
-7 -13 11 -1.8150 0.0029
-7 -13 12 -0.8751 -0.0082
-7 -13 13 -0.3483 -0.0255
-7 -13 14 2.0779 -0.0257
-7 -13 15 0.1887 -0.0077
-7 -13 16 -0.9065 -0.0026
-7 -13 17 -2.0467 -0.0075
-7 -13 18 1.0413 0.0136
-7 -13 19 0.7556 0.0093
-7 -13 20 2.0744 0.0281
-7 -13 21 -0.8974 0.0169
-7 -13 22 1.1857 0.0092
-7 -13 23 1.7822 0.0228
-7 -12 1 -3.9644 0.1307
-7 -12 2 -3.9409 0.0223
-7 -12 3 -3.4617 0.0110
-7 -12 4 -2.4366 0.0165
-7 -12 5 -1.6967 -0.0273
-7 -12 6 0.9902 0.0024
-7 -12 7 0.6215 0.0012
-7 -12 8 1.4825 -0.0298
-7 -12 9 -0.0574 0.0124
-7 -12 10 1.6092 0.0140
-7 -12 11 0.2576 -0.0198
-7 -12 12 -0.0852 0.0204
-7 -12 13 1.0765 0.0076
-7 -12 14 0.3960 -0.0102
-7 -12 15 1.6876 0.0011
-7 -12 16 1.5937 0.0029
-7 -12 17 1.9408 0.0071
-7 -12 18 -1.0506 0.0106
-7 -12 19 -0.4706 0.0294
-7 -12 20 0.7955 0.0077
-7 -12 21 2.0736 -0.0089
-7 -12 22 0.3355 0.0356
-7 -12 23 1.1627 0.0065
-7 -11 1 -1.3696 -0.0057
-7 -11 2 -0.7568 0.0520
-7 -11 3 0.3406 -0.0823
-7 -11 4 2.0757 -0.0678
-7 -11 5 3.0173 -0.0366
-7 -11 6 -0.4746 -0.0132
-7 -11 7 0.5720 0.0370
-7 -11 8 -0.2777 0.0085
-7 -11 9 -2.1548 -0.0106
-7 -11 10 -2.3428 0.0152
-7 -11 11 1.9219 0.0090
-7 -11 12 1.1643 -0.0148
-7 -11 13 0.7984 0.0126
-7 -11 14 0.2986 0.0205
-7 -11 15 -2.2282 0.0064
-7 -11 16 -1.5431 0.0039
-7 -11 17 0.2675 0.0107
-7 -11 18 -1.0181 -0.0208
-7 -11 19 -0.9076 0.0074
-7 -11 20 1.7241 0.0101
-7 -11 21 -0.2278 -0.0045
-7 -11 22 1.3877 -0.0144
-7 -11 23 3.0780 -0.0012
-7 -11 24 2.1310 0.0073
-7 -10 1 0.0037 -0.3717
-7 -10 2 0.5888 -0.0522
-7 -10 3 -1.4430 0.0626
-7 -10 4 1.3008 -0.0480
-7 -10 5 3.4974 -0.0388
-7 -10 6 2.1422 -0.0106
-7 -10 7 -1.4119 0.0070
-7 -10 8 -1.3491 0.0358
-7 -10 9 -1.5031 0.0119
-7 -10 10 -1.3612 -0.0121
-7 -10 11 -2.7343 0.0014
-7 -10 12 -1.7378 0.0086
-7 -10 13 -1.0778 -0.0117
-7 -10 14 2.2927 0.0084
-7 -10 15 -0.8525 0.0003
-7 -10 16 -2.2488 -0.0108
-7 -10 17 2.7214 -0.0131
-7 -10 18 3.4751 0.0069
-7 -10 19 -0.3281 -0.0309
-7 -10 20 0.9538 -0.0141
-7 -10 21 1.1527 -0.0128
-7 -10 22 -1.6983 -0.0151
-7 -10 23 1.2483 0.0107
-7 -10 24 1.8019 0.0043
-7 -9 1 -2.4535 -0.2232
-7 -9 2 1.0903 -0.2633
-7 -9 3 1.6288 0.0328
-7 -9 4 -1.4342 0.1294
-7 -9 5 0.2200 0.0248
-7 -9 6 -0.6549 0.0061
-7 -9 7 -0.3468 0.0036
-7 -9 8 1.7230 -0.0115
-7 -9 9 1.1588 0.0044
-7 -9 10 0.2400 0.0001
-7 -9 11 1.8519 -0.0052
-7 -9 12 -1.5888 0.0178
-7 -9 13 -3.6027 0.0165
-7 -9 14 -2.4186 -0.0307
-7 -9 15 1.8260 -0.0095
-7 -9 16 -0.3016 -0.0153
-7 -9 17 0.8026 -0.0261
-7 -9 18 0.9277 -0.0104
-7 -9 19 -0.4561 0.0124
-7 -9 20 0.8001 -0.0165
-7 -9 21 0.9332 -0.0066
-7 -9 22 -1.5109 0.0014
-7 -9 23 -3.1442 -0.0243
-7 -9 24 1.3519 0.0147
-7 -9 25 -1.1705 0.0268
-7 -8 1 0.6220 0.3866
-7 -8 2 5.1805 -0.0039
-7 -8 3 5.0267 -0.1305
-7 -8 4 2.9332 0.0607
-7 -8 5 -0.7232 0.0958
-7 -8 6 -2.1576 0.0011
-7 -8 7 -1.1750 0.0035
-7 -8 8 0.5653 0.0020
-7 -8 9 1.5447 -0.0343
-7 -8 10 2.0032 -0.0026
-7 -8 11 0.7973 -0.0070
-7 -8 12 -2.0597 -0.0247
-7 -8 13 -5.2832 0.0067
-7 -8 14 -1.6501 0.0028
-7 -8 15 -2.1946 -0.0365
-7 -8 16 -0.3087 -0.0064
-7 -8 17 1.1466 -0.0108
-7 -8 18 1.8926 -0.0154
-7 -8 19 0.9667 0.0329
-7 -8 20 0.4952 0.0294
-7 -8 21 1.7833 -0.0022
-7 -8 22 1.5991 -0.0016
-7 -8 23 -0.0111 0.0007
-7 -8 24 -4.1593 -0.0178
-7 -8 25 0.3716 0.0079
-7 -7 1 4.5938 0.3228
-7 -7 2 5.3058 0.3572
-7 -7 3 6.4141 0.0472
-7 -7 4 2.8073 -0.1223
-7 -7 5 0.8295 0.0040
-7 -7 6 -1.3676 0.0074
-7 -7 7 -3.1747 -0.0404
-7 -7 8 -0.5661 0.0280
-7 -7 9 -0.8087 0.0244
-7 -7 10 -4.2362 -0.0292
-7 -7 11 -2.6651 -0.0018
-7 -7 12 -1.5564 -0.0226
-7 -7 13 -0.6305 -0.0199
-7 -7 14 0.1056 0.0202
-7 -7 15 3.2854 0.0088
-7 -7 16 0.7508 0.0072
-7 -7 17 2.2813 0.0240
-7 -7 18 2.6563 0.0146
-7 -7 19 0.4534 -0.0110
-7 -7 20 1.1257 0.0255
-7 -7 21 2.2948 0.0337
-7 -7 22 2.2479 -0.0028
-7 -7 23 1.3860 0.0046
-7 -7 24 2.2105 0.0034
-7 -7 25 -1.9358 -0.0151
-7 -6 1 0.9184 -0.1434
-7 -6 2 1.4901 0.0628
-7 -6 3 -2.2300 0.1562
-7 -6 4 -4.5004 -0.0189
-7 -6 5 -2.7584 -0.0990
-7 -6 6 -0.6976 -0.0040
-7 -6 7 2.4125 -0.0267
-7 -6 8 3.7478 -0.0305
-7 -6 9 1.7097 0.0296
-7 -6 10 1.6309 0.0206
-7 -6 11 -0.1636 -0.0114
-7 -6 12 -1.1632 0.0081
-7 -6 13 -1.4854 0.0027
-7 -6 14 2.1329 0.0016
-7 -6 15 1.4832 0.0414
-7 -6 16 1.0145 0.0183
-7 -6 17 -1.8215 -0.0022
-7 -6 18 -0.9644 0.0190
-7 -6 19 1.1249 0.0095
-7 -6 20 1.6005 -0.0154
-7 -6 21 1.5301 0.0065
-7 -6 22 2.0266 0.0031
-7 -6 23 1.7813 -0.0209
-7 -6 24 0.5119 0.0118
-7 -6 25 1.1963 0.0218
-7 -5 1 1.9480 -0.1671
-7 -5 2 -0.2313 -0.2058
-7 -5 3 -1.4844 -0.0974
-7 -5 4 -3.2410 0.0128
-7 -5 5 -4.1306 -0.0347
-7 -5 6 0.2285 -0.0189
-7 -5 7 3.9722 0.0429
-7 -5 8 4.3521 -0.0161
-7 -5 9 2.6046 -0.0286
-7 -5 10 -2.9828 0.0257
-7 -5 11 -1.8311 0.0120
-7 -5 12 0.1949 -0.0031
-7 -5 13 1.0485 0.0317
-7 -5 14 -1.0847 0.0219
-7 -5 15 0.7989 -0.0055
-7 -5 16 -1.5127 0.0160
-7 -5 17 -1.4683 -0.0101
-7 -5 18 -1.6238 -0.0197
-7 -5 19 -0.4679 0.0122
-7 -5 20 0.4060 -0.0136
-7 -5 21 2.0031 -0.0173
-7 -5 22 2.7412 -0.0004
-7 -5 23 1.6806 -0.0067
-7 -5 24 0.0235 -0.0311
-7 -5 25 0.4080 -0.0078
-7 -5 26 -2.0195 0.0436
-7 -4 1 0.3818 -0.2139
-7 -4 2 0.2018 -0.0660
-7 -4 3 -0.5956 -0.0809
-7 -4 4 2.5242 -0.0588
-7 -4 5 4.1424 0.0169
-7 -4 6 1.1175 -0.0043
-7 -4 7 -0.8725 0.0342
-7 -4 8 -2.0785 0.0727
-7 -4 9 -6.8062 -0.0141
-7 -4 10 -4.8680 -0.0369
-7 -4 11 -3.3452 0.0254
-7 -4 12 -1.8564 -0.0011
-7 -4 13 -0.3100 -0.0139
-7 -4 14 2.9421 0.0169
-7 -4 15 -1.8391 -0.0022
-7 -4 16 -1.5424 -0.0203
-7 -4 17 -1.7119 -0.0127
-7 -4 18 -2.2964 -0.0212
-7 -4 19 -1.5680 -0.0261
-7 -4 20 2.1105 0.0197
-7 -4 21 1.1683 0.0161
-7 -4 22 1.1472 0.0054
-7 -4 23 1.4770 0.0219
-7 -4 24 0.8397 -0.0015
-7 -4 25 -1.5045 -0.0358
-7 -4 26 0.9337 -0.0228
-7 -3 1 0.5128 -0.1803
-7 -3 2 -3.9327 -0.0830
-7 -3 3 -5.4519 0.1219
-7 -3 4 -1.8081 0.0990
-7 -3 5 5.0478 0.0282
-7 -3 6 2.8911 0.0169
-7 -3 7 -2.5738 -0.0332
-7 -3 8 -4.2739 0.0027
-7 -3 9 -2.5493 0.0389
-7 -3 10 -4.3421 -0.0191
-7 -3 11 -0.7468 -0.0245
-7 -3 12 1.7250 0.0226
-7 -3 13 0.5249 -0.0271
-7 -3 14 -0.5417 -0.0534
-7 -3 15 2.0947 -0.0049
-7 -3 16 -2.8543 -0.0259
-7 -3 17 -0.7164 -0.0300
-7 -3 18 1.0540 -0.0047
-7 -3 19 0.8200 -0.0161
-7 -3 20 -0.2215 -0.0144
-7 -3 21 0.0044 0.0191
-7 -3 22 -0.3351 0.0182
-7 -3 23 0.6316 0.0315
-7 -3 24 2.2498 0.0417
-7 -3 25 4.5322 -0.0271
-7 -2 1 2.1190 0.4886
-7 -2 2 1.4898 -0.0304
-7 -2 3 -1.6183 -0.0678
-7 -2 4 -0.6335 0.1148
-7 -2 5 3.7068 0.0913
-7 -2 6 4.3116 0.0103
-7 -2 7 -3.7021 -0.0124
-7 -2 8 -5.9020 -0.0617
-7 -2 9 -5.8696 -0.0053
-7 -2 10 -4.0634 0.0374
-7 -2 11 2.1485 -0.0236
-7 -2 12 4.9023 -0.0104
-7 -2 13 1.9103 0.0116
-7 -2 14 1.5674 -0.0402
-7 -2 15 -0.6691 -0.0413
-7 -2 16 1.7978 0.0068
-7 -2 17 0.4738 -0.0044
-7 -2 18 0.7968 0.0063
-7 -2 19 1.7038 0.0206
-7 -2 20 1.6132 -0.0114
-7 -2 21 0.5473 -0.0089
-7 -2 22 0.8219 0.0038
-7 -2 23 1.1978 0.0004
-7 -2 24 -0.1989 0.0052
-7 -2 25 0.2982 0.0276
-7 -1 1 -5.6090 0.4712
-7 -1 2 -0.6278 0.4000
-7 -1 3 8.1674 -0.0733
-7 -1 4 7.4072 -0.1593
-7 -1 5 4.0761 -0.0122
-7 -1 6 1.8347 0.0002
-7 -1 7 -3.2801 0.0111
-7 -1 8 -8.0659 0.0205
-7 -1 9 -4.5681 -0.0288
-7 -1 10 -1.2187 -0.0041
-7 -1 11 -2.0453 0.0114
-7 -1 12 -0.0039 -0.0312
-7 -1 13 0.3662 0.0082
-7 -1 14 -1.0065 0.0336
-7 -1 15 0.7571 0.0135
-7 -1 16 -1.1850 0.0216
-7 -1 17 2.1370 0.0339
-7 -1 18 3.2677 0.0112
-7 -1 19 1.4595 0.0048
-7 -1 20 2.4524 0.0284
-7 -1 21 0.9453 0.0012
-7 -1 22 -0.4069 -0.0221
-7 -1 23 -2.1266 -0.0279
-7 -1 24 -0.9127 -0.0298
-7 -1 25 0.1013 -0.0146
-7 0 1 -6.7195 -0.3354
-7 0 2 -2.9678 0.1834
-7 0 3 5.2984 0.2040
-7 0 4 8.0045 -0.1160
-7 0 5 5.4180 -0.1521
-7 0 6 -0.9318 -0.0350
-7 0 7 -4.1914 -0.0142
-7 0 8 -3.9033 0.0225
-7 0 9 -3.3474 0.0369
-7 0 10 -2.7842 0.0001
-7 0 11 0.1353 -0.0039
-7 0 12 -1.9670 0.0092
-7 0 13 -4.7835 -0.0024
-7 0 14 -2.7126 0.0393
-7 0 15 -0.1717 0.0620
-7 0 16 3.3799 0.0214
-7 0 17 3.8158 0.0144
-7 0 18 0.5653 0.0164
-7 0 19 0.4186 -0.0083
-7 0 20 -0.2104 -0.0095
-7 0 21 -2.4113 0.0155
-7 0 22 -2.8913 0.0229
-7 0 23 1.7159 0.0168
-7 0 24 -0.2113 -0.0274
-7 0 25 1.0143 -0.0852
-7 1 1 7.2315 -0.4748
-7 1 2 5.1183 -0.4156
-7 1 3 8.1543 0.0166
-7 1 4 9.1939 0.1200
-7 1 5 -0.0924 -0.0375
-7 1 6 -1.0571 -0.0307
-7 1 7 -5.5981 0.0223
-7 1 8 -7.2922 -0.0167
-7 1 9 -3.2850 0.0023
-7 1 10 -1.5663 0.0251
-7 1 11 -2.1043 0.0118
-7 1 12 -1.0320 0.0230
-7 1 13 -2.0239 0.0180
-7 1 14 -0.6850 -0.0091
-7 1 15 1.1268 -0.0009
-7 1 16 0.5407 0.0021
-7 1 17 1.8500 -0.0249
-7 1 18 3.1064 -0.0207
-7 1 19 -1.1962 -0.0021
-7 1 20 -0.6687 -0.0177
-7 1 21 1.6112 0.0016
-7 1 22 0.8846 0.0329
-7 1 23 -2.9140 0.0123
-7 1 24 0.4703 -0.0254
-7 1 25 0.3124 0.0087
-7 2 1 9.5162 0.0468
-7 2 2 10.2998 -0.1855
-7 2 3 8.9577 -0.2010
-7 2 4 2.9903 0.0487
-7 2 5 0.1744 0.1110
-7 2 6 -5.8371 0.0250
-7 2 7 -3.2313 0.0513
-7 2 8 -1.0373 0.0481
-7 2 9 0.1616 -0.0426
-7 2 10 -3.4933 -0.0448
-7 2 11 -2.7354 0.0074
-7 2 12 0.8836 0.0043
-7 2 13 -0.4373 0.0090
-7 2 14 1.6463 0.0055
-7 2 15 3.5640 -0.0344
-7 2 16 0.9521 -0.0352
-7 2 17 2.7787 -0.0238
-7 2 18 0.5046 -0.0432
-7 2 19 -0.3221 -0.0157
-7 2 20 1.2527 0.0217
-7 2 21 0.2673 -0.0361
-7 2 22 -0.8783 -0.0341
-7 2 23 1.2072 0.0022
-7 2 24 -1.8974 0.0177
-7 3 1 4.0429 0.1664
-7 3 2 4.1060 0.1952
-7 3 3 -3.5603 0.0668
-7 3 4 -3.1986 -0.0170
-7 3 5 -8.5372 0.0503
-7 3 6 -4.0249 0.0315
-7 3 7 -4.4989 -0.0448
-7 3 8 -0.5164 0.0263
-7 3 9 2.1484 0.0507
-7 3 10 -1.3521 -0.0370
-7 3 11 -2.2458 -0.0412
-7 3 12 -0.3563 0.0005
-7 3 13 -0.4333 -0.0296
-7 3 14 1.6415 -0.0147
-7 3 15 5.6393 0.0056
-7 3 16 4.0529 -0.0211
-7 3 17 -1.3856 0.0098
-7 3 18 0.6851 0.0180
-7 3 19 -1.9504 -0.0209
-7 3 20 -4.4390 -0.0121
-7 3 21 -0.7080 0.0066
-7 3 22 1.4042 -0.0251
-7 3 23 -0.0221 -0.0259
-7 3 24 1.3409 -0.0739
-7 4 1 4.5798 0.2961
-7 4 2 -0.9580 0.0988
-7 4 3 -4.2036 0.0973
-7 4 4 -10.8439 0.0603
-7 4 5 -7.2119 -0.0193
-7 4 6 -3.0037 -0.0166
-7 4 7 -0.5532 -0.0534
-7 4 8 -3.8171 -0.0861
-7 4 9 0.4267 0.0341
-7 4 10 -0.4579 0.0609
-7 4 11 -2.3118 -0.0157
-7 4 12 2.0618 -0.0170
-7 4 13 1.9680 -0.0206
-7 4 14 0.1988 -0.0468
-7 4 15 0.3188 -0.0063
-7 4 16 -1.1069 0.0288
-7 4 17 1.2773 0.0154
-7 4 18 -1.8260 0.0233
-7 4 19 -1.9134 0.0264
-7 4 20 -0.3310 0.0057
-7 4 21 -0.9785 0.0035
-7 4 22 0.6965 -0.0137
-7 4 23 1.2615 -0.0776
-7 5 1 -0.7614 0.3090
-7 5 2 -3.4371 0.1595
-7 5 3 -8.3022 -0.0809
-7 5 4 -4.8364 -0.0831
-7 5 5 -4.4121 -0.0220
-7 5 6 1.7990 0.0017
-7 5 7 5.7920 0.0297
-7 5 8 3.0584 -0.0197
-7 5 9 -1.0369 -0.0598
-7 5 10 0.9752 0.0164
-7 5 11 0.8960 0.0255
-7 5 12 4.4065 -0.0197
-7 5 13 3.7243 0.0136
-7 5 14 0.5029 0.0189
-7 5 15 1.1353 -0.0113
-7 5 16 1.3488 0.0021
-7 5 17 -2.7653 0.0214
-7 5 18 -0.2608 0.0209
-7 5 19 0.2543 0.0248
-7 5 20 -0.1331 0.0303
-7 5 21 0.5848 0.0018
-7 5 22 0.7304 0.0269
-7 5 23 1.0117 0.0569
-7 6 1 -3.4444 -0.3384
-7 6 2 -10.6822 0.1163
-7 6 3 -10.3046 0.0682
-7 6 4 -6.5817 -0.1227
-7 6 5 -4.3793 -0.0973
-7 6 6 -1.2168 -0.0135
-7 6 7 2.6580 0.0229
-7 6 8 1.5415 0.0577
-7 6 9 4.0102 0.0001
-7 6 10 1.0493 -0.0436
-7 6 11 2.6879 0.0069
-7 6 12 4.1405 0.0095
-7 6 13 5.0606 -0.0004
-7 6 14 3.3886 0.0459
-7 6 15 -0.2672 0.0461
-7 6 16 -2.8028 0.0149
-7 6 17 0.7876 -0.0122
-7 6 18 0.4918 -0.0313
-7 6 19 1.8851 -0.0256
-7 6 20 0.8896 -0.0036
-7 6 21 -0.3594 0.0545
-7 6 22 1.4457 0.0446
-7 7 1 -1.7459 -0.5297
-7 7 2 -4.2583 -0.3297
-7 7 3 -5.7761 0.1081
-7 7 4 -4.4318 0.1188
-7 7 5 -0.6141 -0.0371
-7 7 6 -3.0170 -0.0408
-7 7 7 -5.8169 -0.0151
-7 7 8 -1.3496 -0.0085
-7 7 9 -0.1552 0.0219
-7 7 10 4.8164 0.0028
-7 7 11 4.7044 0.0026
-7 7 12 7.4628 0.0279
-7 7 13 5.4737 0.0069
-7 7 14 1.2587 -0.0011
-7 7 15 -1.1891 0.0245
-7 7 16 -1.5626 0.0126
-7 7 17 -2.8776 -0.0051
-7 7 18 0.1822 -0.0116
-7 7 19 2.2511 -0.0254
-7 7 20 3.0982 -0.0161
-7 7 21 0.6312 -0.0247
-7 7 22 -0.8635 0.0116
-7 8 1 -1.7402 0.1570
-7 8 2 -3.5428 -0.2561
-7 8 3 -1.9508 -0.1633
-7 8 4 2.5844 0.1280
-7 8 5 0.2873 0.1433
-7 8 6 -1.8512 0.0286
-7 8 7 -2.1652 -0.0082
-7 8 8 -4.3359 -0.0174
-7 8 9 2.7328 -0.0274
-7 8 10 3.5066 0.0003
-7 8 11 5.1811 0.0220
-7 8 12 3.9679 0.0213
-7 8 13 2.8849 0.0182
-7 8 14 1.3565 -0.0355
-7 8 15 -0.5061 -0.0610
-7 8 16 -3.3573 -0.0102
-7 8 17 -3.2237 0.0110
-7 8 18 -2.4242 0.0445
-7 8 19 0.1802 0.0271
-7 8 20 1.8585 -0.0498
-7 8 21 0.2085 -0.0129
-7 9 1 -3.3803 0.4371
-7 9 2 -1.3054 0.2677
-7 9 3 -0.3114 -0.0687
-7 9 4 -1.2590 -0.0667
-7 9 5 0.9112 0.0586
-7 9 6 0.2645 0.0459
-7 9 7 -4.0452 -0.0124
-7 9 8 0.0402 0.0147
-7 9 9 0.1589 0.0145
-7 9 10 1.9973 -0.0164
-7 9 11 -0.4182 -0.0107
-7 9 12 0.3339 -0.0144
-7 9 13 -0.6577 -0.0168
-7 9 14 -3.8862 0.0048
-7 9 15 -5.4226 -0.0160
-7 9 16 -4.1716 -0.0308
-7 9 17 -1.8502 -0.0258
-7 9 18 -2.5363 -0.0159
-7 9 19 -1.1148 0.0593
-7 9 20 -0.0997 0.0446
-7 10 1 2.9903 0.1492
-7 10 2 3.5898 0.2602
-7 10 3 2.3062 0.1550
-7 10 4 2.3100 -0.0583
-7 10 5 -0.3906 -0.0714
-7 10 6 -1.1983 -0.0146
-7 10 7 -0.0022 -0.0301
-7 10 8 -3.6418 -0.0345
-7 10 9 1.4099 0.0359
-7 10 10 0.9723 0.0298
-7 10 11 0.2482 -0.0236
-7 10 12 -2.7307 -0.0226
-7 10 13 -3.8119 -0.0080
-7 10 14 -2.4612 -0.0112
-7 10 15 -2.3578 0.0119
-7 10 16 -1.7233 0.0100
-7 10 17 -3.5526 -0.0019
-7 10 18 -0.9830 0.0248
-7 10 19 -1.1594 0.0032
-7 11 1 -0.6720 -0.0709
-7 11 2 2.8991 -0.0365
-7 11 3 3.6225 0.0112
-7 11 4 0.7160 -0.0069
-7 11 5 -0.3899 -0.0512
-7 11 6 0.9033 -0.0119
-7 11 7 0.4224 0.0183
-7 11 8 3.8409 -0.0281
-7 11 9 1.0961 -0.0402
-7 11 10 2.3647 0.0370
-7 11 11 -0.5621 0.0358
-7 11 12 -2.6902 -0.0117
-7 11 13 -3.8328 0.0056
-7 11 14 -3.4839 0.0154
-7 11 15 -0.4779 0.0090
-7 11 16 -0.2921 0.0313
-7 11 17 2.2008 -0.0103
-7 11 18 -1.7085 -0.0466
-7 11 19 -1.4494 0.0411
-7 12 1 0.5452 -0.2434
-7 12 2 1.6906 -0.0866
-7 12 3 0.8298 -0.0427
-7 12 4 -0.1482 -0.0401
-7 12 5 1.3467 -0.0326
-7 12 6 4.3808 -0.0000
-7 12 7 3.6227 0.0559
-7 12 8 0.0733 0.0536
-7 12 9 3.3684 -0.0420
-7 12 10 -1.8015 -0.0610
-7 12 11 -0.6107 0.0183
-7 12 12 -0.3707 0.0363
-7 12 13 -2.9009 0.0328
-7 12 14 -2.5452 0.0496
-7 12 15 -0.3458 0.0276
-7 12 16 2.6565 -0.0008
-7 12 17 -0.2407 -0.0012
-7 12 18 1.2613 -0.0033
-7 13 1 1.9471 -0.2597
-7 13 2 -0.3542 -0.1529
-7 13 3 1.1765 0.0348
-7 13 4 1.3756 0.0562
-7 13 5 -0.5235 -0.0004
-7 13 6 2.2740 -0.0335
-7 13 7 3.7081 -0.0006
-7 13 8 2.5573 0.0348
-7 13 9 -0.7947 0.0180
-7 13 10 0.3783 -0.0198
-7 13 11 -4.1452 -0.0279
-7 13 12 -1.8868 0.0193
-7 13 13 0.7485 0.0291
-7 13 14 0.0252 -0.0303
-7 13 15 -0.4187 0.0194
-7 13 16 0.1046 0.0524
-7 14 1 2.2774 0.1298
-7 14 2 2.9456 -0.1205
-7 14 3 -1.0933 -0.0561
-7 14 4 0.4490 0.0839
-7 14 5 -0.5957 0.1008
-7 14 6 0.2143 -0.0034
-7 14 7 3.2295 -0.0512
-7 14 8 1.3368 -0.0010
-7 14 9 2.4165 0.0083
-7 14 10 -0.2425 -0.0014
-7 14 11 -0.5171 -0.0161
-7 14 12 -1.9528 -0.0291
-7 14 13 -0.7679 0.0106
-7 14 14 -0.1009 0.0113
-7 14 15 0.5044 -0.0914
-7 15 1 0.0570 0.3672
-7 15 2 0.0945 0.1698
-7 15 3 2.2251 -0.0527
-7 15 4 0.5722 -0.0527
-7 15 5 0.0196 0.0322
-7 15 6 -0.0767 0.0650
-7 15 7 0.0688 -0.0115
-7 15 8 0.1730 -0.0119
-7 15 9 0.0794 0.0050
-7 15 10 1.0570 0.0018
-7 15 11 -1.1138 -0.0076
-7 15 12 1.7982 -0.0572
-7 15 13 3.5468 -0.0243
-7 15 14 3.3417 -0.0160
-7 16 1 -0.3040 0.0603
-7 16 2 0.0950 0.2024
-7 16 3 -2.6763 0.0733
-7 16 4 1.0525 -0.0997
-7 16 5 -1.0837 -0.0854
-7 16 6 -2.7420 -0.0284
-7 16 7 0.5030 0.0216
-7 16 8 1.3237 0.0139
-7 16 9 -0.6648 0.0462
-7 16 10 -0.5336 0.0718
-7 16 11 0.1038 0.0022
-7 16 12 -1.1428 -0.0380
-7 17 1 -0.2573 -0.2126
-7 17 2 -2.2506 -0.0809
-7 17 3 0.1015 0.0572
-7 17 4 -2.6296 -0.0188
-7 17 5 -0.4168 -0.0554
-7 17 6 -0.7013 -0.0089
-7 17 7 -3.3158 -0.0191
-7 17 8 -2.8641 0.0376
-7 17 9 1.2022 -0.0117
-7 17 10 -0.3787 0.0040
-7 17 11 -2.4554 0.1256
-7 18 1 0.2114 -0.1272
-7 18 2 -1.2594 -0.1794
-7 18 3 -3.4972 -0.0457
-7 18 4 -0.7238 0.0313
-7 18 5 -0.6068 -0.0567
-7 18 6 0.4622 0.0122
-7 18 7 -1.3535 0.0606
-7 18 8 -3.4487 -0.0101
-7 18 9 -4.1907 0.0252
-7 19 1 -1.8121 -0.0022
-7 19 2 -2.1680 0.0090
-7 19 3 -1.0203 -0.0172
-7 19 4 -2.4909 0.0258
-7 19 5 -1.8761 0.0607
-7 19 6 0.7031 -0.0560
-7 20 1 2.1634 0.1316
-7 20 2 0.6231 0.0076
-7 20 3 -0.8828 0.0942
-6 -20 7 3.2050 0.0016
-6 -20 8 2.4293 0.0231
-6 -20 9 -0.6846 0.0401
-6 -20 10 -0.6616 -0.0045
-6 -19 1 -0.4994 -0.0299
-6 -19 2 -0.9923 -0.0240
-6 -19 3 -1.2121 0.0128
-6 -19 4 0.4246 0.0485
-6 -19 5 1.3166 0.0552
-6 -19 6 1.0221 -0.0032
-6 -19 7 1.4021 0.0574
-6 -19 8 1.0019 0.0008
-6 -19 9 -0.3426 0.0118
-6 -19 10 -0.4903 0.0195
-6 -19 11 -0.6055 -0.0127
-6 -19 12 2.1611 0.0359
-6 -19 13 3.7744 0.0028
-6 -19 14 0.4332 -0.0309
-6 -19 15 -0.4679 -0.0311
-6 -18 1 1.9902 0.1669
-6 -18 2 2.1822 0.0711
-6 -18 3 -0.4891 0.0428
-6 -18 4 0.0369 0.0198
-6 -18 5 0.4728 0.0394
-6 -18 6 -1.6073 0.0236
-6 -18 7 -1.9951 -0.0183
-6 -18 8 -0.1532 0.0293
-6 -18 9 0.4124 -0.0110
-6 -18 10 -0.5495 -0.0057
-6 -18 11 1.2096 0.0006
-6 -18 12 1.2175 -0.0349
-6 -18 13 -0.0553 -0.0252
-6 -18 14 3.2842 -0.0059
-6 -18 15 0.4671 -0.0498
-6 -18 16 -2.0139 -0.0063
-6 -18 17 -1.7668 -0.0292
-6 -18 18 0.3395 0.0622
-6 -17 1 1.3721 0.0952
-6 -17 2 0.9490 0.1383
-6 -17 3 -0.8062 0.0320
-6 -17 4 -0.2998 0.0038
-6 -17 5 0.1812 -0.0310
-6 -17 6 0.7352 -0.0130
-6 -17 7 1.8200 -0.0071
-6 -17 8 -2.0792 -0.0112
-6 -17 9 -1.6125 0.0187
-6 -17 10 2.0003 -0.0164
-6 -17 11 0.6096 -0.0100
-6 -17 12 1.3883 -0.0044
-6 -17 13 1.1599 -0.0172
-6 -17 14 -2.7214 -0.0233
-6 -17 15 -0.2497 0.0210
-6 -17 16 -1.2656 -0.0131
-6 -17 17 0.0531 0.0216
-6 -17 18 -0.7933 -0.0129
-6 -17 19 -0.8849 0.0485
-6 -16 1 0.3421 0.0622
-6 -16 2 2.4885 0.0045
-6 -16 3 1.2119 0.0181
-6 -16 4 0.2965 -0.0367
-6 -16 5 2.6277 -0.0299
-6 -16 6 2.5784 -0.0430
-6 -16 7 2.5355 -0.0087
-6 -16 8 3.2789 -0.0043
-6 -16 9 -0.7129 -0.0148
-6 -16 10 -1.2458 0.0227
-6 -16 11 1.4912 -0.0061
-6 -16 12 0.9575 -0.0008
-6 -16 13 0.0984 0.0269
-6 -16 14 1.5511 0.0167
-6 -16 15 0.7220 0.0057
-6 -16 16 -0.1248 0.0325
-6 -16 17 -1.3303 0.0023
-6 -16 18 1.1719 0.0241
-6 -16 19 -0.0418 -0.0035
-6 -16 20 -0.9015 0.0073
-6 -16 21 2.1417 0.0170
-6 -15 1 0.1853 -0.1150
-6 -15 2 1.1877 0.0196
-6 -15 3 -1.2528 -0.0305
-6 -15 4 -0.7498 -0.0387
-6 -15 5 -0.6372 -0.0140
-6 -15 6 -2.8439 -0.0278
-6 -15 7 1.1809 -0.0195
-6 -15 8 2.0254 0.0160
-6 -15 9 1.6354 -0.0063
-6 -15 10 0.6406 0.0009
-6 -15 11 -2.0131 0.0257
-6 -15 12 0.2076 -0.0072
-6 -15 13 0.4460 0.0028
-6 -15 14 -0.9244 0.0305
-6 -15 15 1.4036 0.0067
-6 -15 16 0.9514 0.0036
-6 -15 17 0.7365 -0.0081
-6 -15 18 1.9753 -0.0250
-6 -15 19 0.9083 0.0038
-6 -15 20 2.6147 0.0213
-6 -15 21 1.3791 -0.0247
-6 -15 22 0.9568 0.0247
-6 -14 1 -1.9081 -0.3009
-6 -14 2 -0.7233 -0.1011
-6 -14 3 -0.3739 0.0436
-6 -14 4 -3.9198 0.0125
-6 -14 5 -1.0179 -0.0052
-6 -14 6 -0.0071 0.0080
-6 -14 7 -3.5806 -0.0137
-6 -14 8 -0.1598 0.0030
-6 -14 9 0.4988 0.0183
-6 -14 10 -0.0246 -0.0029
-6 -14 11 -0.1299 0.0181
-6 -14 12 -1.7341 0.0340
-6 -14 13 -0.7690 -0.0055
-6 -14 14 -0.6075 -0.0064
-6 -14 15 1.7641 0.0213
-6 -14 16 0.4413 -0.0273
-6 -14 17 -0.8001 -0.0069
-6 -14 18 0.3224 -0.0221
-6 -14 19 0.6939 -0.0366
-6 -14 20 -1.5142 -0.0257
-6 -14 21 2.1774 0.0137
-6 -14 22 -0.0891 -0.0206
-6 -14 23 -0.7505 -0.0335
-6 -13 1 0.7086 0.0366
-6 -13 2 -0.3307 -0.1719
-6 -13 3 -1.1331 -0.0158
-6 -13 4 -2.0224 0.0839
-6 -13 5 -2.1722 0.0559
-6 -13 6 -0.6690 0.0182
-6 -13 7 3.1493 0.0195
-6 -13 8 2.1540 -0.0095
-6 -13 9 1.0721 0.0030
-6 -13 10 -0.0885 0.0261
-6 -13 11 -0.9388 -0.0187
-6 -13 12 1.2829 -0.0049
-6 -13 13 0.7157 0.0071
-6 -13 14 -0.2044 -0.0305
-6 -13 15 -0.7618 -0.0246
-6 -13 16 0.3562 -0.0023
-6 -13 17 -2.0957 -0.0483
-6 -13 18 -1.2687 -0.0138
-6 -13 19 -1.5839 0.0058
-6 -13 20 0.5847 0.0064
-6 -13 21 0.5155 -0.0115
-6 -13 22 2.5347 -0.0091
-6 -13 23 1.1496 -0.0081
-6 -13 24 0.0548 -0.0476
-6 -12 1 -4.2791 0.3917
-6 -12 2 -4.8311 0.1473
-6 -12 3 -4.3208 -0.0776
-6 -12 4 -4.4061 -0.0021
-6 -12 5 -2.9555 0.0576
-6 -12 6 -1.5539 0.0021
-6 -12 7 -1.5003 0.0069
-6 -12 8 3.1384 0.0178
-6 -12 9 4.4636 -0.0162
-6 -12 10 2.5266 -0.0079
-6 -12 11 0.3177 -0.0054
-6 -12 12 -0.8240 -0.0361
-6 -12 13 0.6837 -0.0164
-6 -12 14 0.5111 -0.0050
-6 -12 15 0.1370 -0.0183
-6 -12 16 -0.8414 -0.0103
-6 -12 17 2.8507 0.0117
-6 -12 18 2.3316 -0.0172
-6 -12 19 0.2303 -0.0071
-6 -12 20 -0.2091 0.0312
-6 -12 21 1.9134 0.0069
-6 -12 22 -0.0782 0.0152
-6 -12 23 -0.2376 -0.0037
-6 -12 24 0.9823 -0.0353
-6 -11 1 -5.1200 0.0899
-6 -11 2 -4.4556 0.2695
-6 -11 3 -2.5760 0.0830
-6 -11 4 -0.6121 -0.0861
-6 -11 5 1.6467 -0.0408
-6 -11 6 -1.1600 -0.0077
-6 -11 7 -2.8440 -0.0417
-6 -11 8 -1.4993 0.0045
-6 -11 9 1.2868 0.0134
-6 -11 10 1.9469 -0.0094
-6 -11 11 2.6346 -0.0014
-6 -11 12 2.0071 0.0005
-6 -11 13 -1.1858 -0.0189
-6 -11 14 -2.5165 0.0049
-6 -11 15 -1.7663 0.0304
-6 -11 16 -2.5963 0.0091
-6 -11 17 -2.8288 0.0238
-6 -11 18 0.5336 0.0236
-6 -11 19 -0.0421 0.0059
-6 -11 20 -1.7588 0.0051
-6 -11 21 -1.1076 0.0197
-6 -11 22 -0.4520 -0.0210
-6 -11 23 -1.2114 -0.0032
-6 -11 24 -2.3060 -0.0023
-6 -11 25 -2.3709 -0.0342
-6 -10 1 -2.3096 -0.2230
-6 -10 2 -1.3603 -0.1006
-6 -10 3 -0.5695 0.0903
-6 -10 4 -1.0618 -0.0076
-6 -10 5 2.1309 -0.0708
-6 -10 6 4.6561 -0.0189
-6 -10 7 -3.0187 -0.0085
-6 -10 8 -6.8292 -0.0397
-6 -10 9 -4.0440 0.0137
-6 -10 10 0.6672 0.0210
-6 -10 11 1.7212 -0.0053
-6 -10 12 0.0587 0.0206
-6 -10 13 -0.7835 0.0300
-6 -10 14 0.5852 -0.0023
-6 -10 15 -2.0635 -0.0004
-6 -10 16 -4.4963 0.0201
-6 -10 17 -2.5400 0.0023
-6 -10 18 2.2124 0.0263
-6 -10 19 0.6403 0.0130
-6 -10 20 -0.1582 -0.0011
-6 -10 21 1.7506 0.0022
-6 -10 22 -0.2532 0.0067
-6 -10 23 -2.4736 -0.0187
-6 -10 24 -0.4165 -0.0093
-6 -10 25 1.9807 0.0028
-6 -9 1 -3.2705 -0.1735
-6 -9 2 -3.3559 -0.2021
-6 -9 3 0.9532 -0.1225
-6 -9 4 -1.9217 0.0242
-6 -9 5 -2.9489 -0.0032
-6 -9 6 -1.6074 -0.0127
-6 -9 7 -0.9391 0.0260
-6 -9 8 -2.7209 0.0059
-6 -9 9 -2.8637 -0.0393
-6 -9 10 -3.5529 0.0043
-6 -9 11 1.3739 0.0270
-6 -9 12 4.6690 0.0023
-6 -9 13 0.7089 0.0269
-6 -9 14 -1.9566 0.0320
-6 -9 15 4.5595 -0.0040
-6 -9 16 3.8675 -0.0082
-6 -9 17 0.2883 -0.0039
-6 -9 18 -0.6094 -0.0328
-6 -9 19 2.0082 -0.0039
-6 -9 20 -0.1398 0.0065
-6 -9 21 -1.8159 -0.0104
-6 -9 22 -0.1757 0.0214
-6 -9 23 -0.3009 0.0151
-6 -9 24 -1.0177 -0.0179
-6 -9 25 -1.9850 -0.0045
-6 -8 1 -5.0127 -0.1916
-6 -8 2 -0.8306 -0.0408
-6 -8 3 2.4595 -0.0136
-6 -8 4 0.9942 -0.0021
-6 -8 5 -4.1570 0.0315
-6 -8 6 -4.0753 0.0102
-6 -8 7 -3.4832 -0.0054
-6 -8 8 0.6697 0.0320
-6 -8 9 3.4054 0.0102
-6 -8 10 4.7252 -0.0362
-6 -8 11 2.2107 0.0060
-6 -8 12 1.0825 0.0167
-6 -8 13 0.4810 -0.0204
-6 -8 14 0.9602 0.0124
-6 -8 15 0.7902 0.0010
-6 -8 16 2.7840 -0.0416
-6 -8 17 1.3117 -0.0165
-6 -8 18 1.6564 -0.0134
-6 -8 19 -1.7922 -0.0286
-6 -8 20 -1.7135 -0.0134
-6 -8 21 0.3469 0.0085
-6 -8 22 -1.0014 0.0010
-6 -8 23 -1.7570 0.0274
-6 -8 24 -2.6103 0.0205
-6 -8 25 1.4114 -0.0281
-6 -8 26 -1.7742 -0.0403
-6 -7 1 1.0967 0.0680
-6 -7 2 -0.5245 -0.0719
-6 -7 3 5.8183 0.0875
-6 -7 4 4.9930 0.0954
-6 -7 5 0.1702 0.0412
-6 -7 6 -2.4586 0.0153
-6 -7 7 -3.5988 -0.0285
-6 -7 8 -1.9940 -0.0266
-6 -7 9 2.2884 0.0484
-6 -7 10 -1.9467 0.0131
-6 -7 11 -1.7514 -0.0224
-6 -7 12 0.8293 0.0106
-6 -7 13 -0.1923 -0.0194
-6 -7 14 0.1224 -0.0546
-6 -7 15 3.8709 -0.0127
-6 -7 16 3.0465 -0.0001
-6 -7 17 4.5045 -0.0300
-6 -7 18 3.0228 0.0068
-6 -7 19 1.5952 0.0106
-6 -7 20 -0.7756 -0.0125
-6 -7 21 -1.1086 -0.0130
-6 -7 22 0.7108 -0.0113
-6 -7 23 0.4391 -0.0147
-6 -7 24 1.2082 0.0241
-6 -7 25 -2.8631 0.0198
-6 -7 26 0.4496 -0.0243
-6 -6 1 5.8413 0.5460
-6 -6 2 3.7547 0.1210
-6 -6 3 -1.8524 -0.0950
-6 -6 4 -2.2813 0.0345
-6 -6 5 -1.9485 0.0422
-6 -6 6 1.6436 0.0153
-6 -6 7 1.2288 0.0134
-6 -6 8 -2.4652 -0.0238
-6 -6 9 -1.6402 -0.0151
-6 -6 10 0.8388 0.0381
-6 -6 11 -3.3234 -0.0101
-6 -6 12 -2.5933 -0.0339
-6 -6 13 -0.5858 0.0165
-6 -6 14 1.6337 -0.0059
-6 -6 15 4.3916 -0.0246
-6 -6 16 4.3620 0.0211
-6 -6 17 0.1586 0.0202
-6 -6 18 0.9059 -0.0055
-6 -6 19 0.1340 0.0379
-6 -6 20 0.0795 0.0226
-6 -6 21 -1.3690 -0.0102
-6 -6 22 -1.9339 0.0030
-6 -6 23 0.7789 -0.0228
-6 -6 24 -0.6278 -0.0172
-6 -6 25 1.2964 0.0319
-6 -6 26 -0.1036 0.0326
-6 -5 1 0.6132 0.1635
-6 -5 2 0.0633 0.3837
-6 -5 3 -3.4486 0.0149
-6 -5 4 -7.8531 -0.1831
-6 -5 5 -5.6924 -0.0592
-6 -5 6 -0.2741 -0.0129
-6 -5 7 6.1170 -0.0046
-6 -5 8 9.6757 0.0213
-6 -5 9 5.5266 -0.0190
-6 -5 10 -2.6185 -0.0257
-6 -5 11 -1.7235 0.0208
-6 -5 12 -0.8420 -0.0065
-6 -5 13 0.1492 -0.0105
-6 -5 14 1.0905 0.0526
-6 -5 15 0.6750 0.0198
-6 -5 16 -1.7006 0.0014
-6 -5 17 -1.0428 0.0358
-6 -5 18 -2.0398 0.0054
-6 -5 19 -1.4656 -0.0074
-6 -5 20 -0.6053 0.0184
-6 -5 21 1.8800 0.0176
-6 -5 22 -0.2981 0.0038
-6 -5 23 -1.8859 0.0182
-6 -5 24 1.0525 -0.0073
-6 -5 25 -0.6358 -0.0108
-6 -5 26 -1.7390 0.0426
-6 -4 1 -2.2275 -0.6011
-6 -4 2 0.1786 -0.1102
-6 -4 3 -0.8225 0.1994
-6 -4 4 2.2471 -0.0351
-6 -4 5 4.8022 -0.1340
-6 -4 6 7.3847 -0.0323
-6 -4 7 5.9931 -0.0252
-6 -4 8 3.6966 -0.0163
-6 -4 9 -0.2915 0.0316
-6 -4 10 -3.3687 -0.0066
-6 -4 11 -5.1874 -0.0009
-6 -4 12 -1.0481 0.0381
-6 -4 13 -0.0668 0.0126
-6 -4 14 0.4823 -0.0002
-6 -4 15 0.4792 0.0317
-6 -4 16 -0.8619 0.0145
-6 -4 17 -4.3592 -0.0109
-6 -4 18 -2.4313 0.0166
-6 -4 19 -2.1641 -0.0091
-6 -4 20 0.6946 -0.0277
-6 -4 21 2.6958 -0.0102
-6 -4 22 3.1554 -0.0065
-6 -4 23 0.4764 0.0019
-6 -4 24 -2.8347 0.0433
-6 -4 25 -1.4994 0.0093
-6 -4 26 -0.7005 -0.0234
-6 -3 1 1.2559 -0.2996
-6 -3 2 -3.7565 -0.4918
-6 -3 3 -0.7846 -0.1125
-6 -3 4 0.5443 0.1702
-6 -3 5 8.4089 0.0384
-6 -3 6 10.7507 0.0063
-6 -3 7 4.5699 0.0522
-6 -3 8 -1.7424 -0.0133
-6 -3 9 0.3420 -0.0367
-6 -3 10 -3.3323 0.0233
-6 -3 11 -3.0926 0.0094
-6 -3 12 -0.3495 0.0158
-6 -3 13 0.6583 0.0385
-6 -3 14 -1.1047 -0.0102
-6 -3 15 0.2694 -0.0273
-6 -3 16 -2.4189 -0.0039
-6 -3 17 -2.3804 -0.0101
-6 -3 18 -1.9046 -0.0177
-6 -3 19 -0.9427 0.0178
-6 -3 20 -1.7512 -0.0079
-6 -3 21 0.3282 -0.0275
-6 -3 22 2.4204 -0.0062
-6 -3 23 2.0187 -0.0153
-6 -3 24 -0.0500 -0.0147
-6 -3 25 -0.7127 0.0025
-6 -3 26 0.8001 -0.0096
-6 -2 1 3.1982 0.2570
-6 -2 2 -0.9242 0.0291
-6 -2 3 -4.4640 -0.1901
-6 -2 4 -1.3779 -0.0049
-6 -2 5 -0.5310 0.1433
-6 -2 6 7.8519 0.0247
-6 -2 7 5.0974 0.0128
-6 -2 8 -2.6108 0.0552
-6 -2 9 -7.0508 -0.0171
-6 -2 10 1.1086 -0.0380
-6 -2 11 4.4494 0.0132
-6 -2 12 5.1634 -0.0035
-6 -2 13 2.1982 -0.0077
-6 -2 14 -0.8152 0.0142
-6 -2 15 -3.6195 -0.0359
-6 -2 16 -1.7494 -0.0380
-6 -2 17 -1.8201 -0.0081
-6 -2 18 -0.8448 -0.0130
-6 -2 19 0.0417 -0.0057
-6 -2 20 0.4923 0.0268
-6 -2 21 -0.4645 0.0195
-6 -2 22 0.3990 -0.0122
-6 -2 23 4.7323 -0.0112
-6 -2 24 1.9548 -0.0316
-6 -2 25 -0.7724 -0.0218
-6 -2 26 0.2951 -0.0103
-6 -1 1 -0.4500 0.1825
-6 -1 2 -3.3780 0.2853
-6 -1 3 6.0431 0.1777
-6 -1 4 8.0155 -0.0477
-6 -1 5 5.1504 -0.0159
-6 -1 6 -0.8164 0.0117
-6 -1 7 -1.8781 -0.0681
-6 -1 8 -7.5521 -0.0063
-6 -1 9 -1.9741 0.0712
-6 -1 10 -1.0858 -0.0004
-6 -1 11 2.3924 -0.0261
-6 -1 12 6.8165 -0.0042
-6 -1 13 3.6088 -0.0372
-6 -1 14 -3.2348 -0.0441
-6 -1 15 -3.8120 0.0066
-6 -1 16 -5.4530 -0.0102
-6 -1 17 -2.3978 -0.0183
-6 -1 18 1.7674 0.0123
-6 -1 19 1.1964 -0.0031
-6 -1 20 3.3444 -0.0059
-6 -1 21 2.6145 0.0169
-6 -1 22 -0.3508 0.0139
-6 -1 23 -0.5764 0.0006
-6 -1 24 2.9619 0.0119
-6 -1 25 -1.9671 -0.0560
-6 -1 26 -2.0911 -0.0386
-6 0 1 -7.4368 0.3200
-6 0 2 -0.3925 0.0485
-6 0 3 3.0617 0.0659
-6 0 4 13.1079 0.0516
-6 0 5 5.1829 -0.0401
-6 0 6 -1.1238 -0.0002
-6 0 7 -2.2440 -0.0176
-6 0 8 -2.5829 -0.0808
-6 0 9 -3.7596 -0.0023
-6 0 10 0.9420 0.0699
-6 0 11 0.4757 -0.0153
-6 0 12 1.6320 -0.0287
-6 0 13 0.2720 0.0089
-6 0 14 -2.9916 -0.0191
-6 0 15 -2.7041 -0.0064
-6 0 16 -0.7656 0.0374
-6 0 17 0.0964 0.0134
-6 0 18 -0.1164 -0.0013
-6 0 19 0.7285 0.0099
-6 0 20 -0.1102 -0.0201
-6 0 21 0.9692 -0.0194
-6 0 22 -1.7688 0.0180
-6 0 23 0.3889 0.0202
-6 0 24 0.5419 -0.0171
-6 0 25 3.7311 -0.0008
-6 1 1 9.9515 0.1197
-6 1 2 5.8678 0.1526
-6 1 3 6.8515 -0.1084
-6 1 4 8.7609 -0.1105
-6 1 5 5.5729 -0.0441
-6 1 6 -4.4635 -0.0051
-6 1 7 -10.2720 0.0637
-6 1 8 -8.0934 0.0101
-6 1 9 -3.1194 -0.0757
-6 1 10 -1.0221 -0.0264
-6 1 11 -2.3793 0.0302
-6 1 12 -2.8220 -0.0024
-6 1 13 -1.7494 0.0202
-6 1 14 -2.1299 0.0579
-6 1 15 -0.1658 0.0194
-6 1 16 0.6767 0.0126
-6 1 17 -0.0175 0.0274
-6 1 18 3.5489 -0.0063
-6 1 19 -2.8809 -0.0048
-6 1 20 -4.1457 0.0199
-6 1 21 1.0852 -0.0032
-6 1 22 2.6638 -0.0176
-6 1 23 -0.9432 -0.0081
-6 1 24 3.0478 0.0047
-6 1 25 1.3778 -0.0086
-6 2 1 5.4510 -0.5759
-6 2 2 22.6052 -0.0364
-6 2 3 15.4292 0.1143
-6 2 4 5.1938 -0.0835
-6 2 5 -1.8765 -0.1027
-6 2 6 -12.9842 -0.0384
-6 2 7 -8.5553 0.0174
-6 2 8 -6.2120 0.0596
-6 2 9 -1.2624 0.0106
-6 2 10 -0.0719 -0.0514
-6 2 11 -2.2658 -0.0132
-6 2 12 -1.3841 0.0269
-6 2 13 -0.0369 0.0069
-6 2 14 -1.7939 0.0190
-6 2 15 -0.0632 0.0459
-6 2 16 0.6708 0.0064
-6 2 17 1.5048 -0.0060
-6 2 18 -0.4853 0.0154
-6 2 19 1.6709 -0.0102
-6 2 20 -0.1997 0.0034
-6 2 21 -1.8659 0.0141
-6 2 22 0.0520 -0.0006
-6 2 23 1.8855 -0.0043
-6 2 24 -2.1497 -0.0515
-6 2 25 -0.0009 -0.0604
-6 3 1 8.4330 -0.3931
-6 3 2 10.1874 -0.4678
-6 3 3 4.5019 -0.0010
-6 3 4 -0.9597 0.1963
-6 3 5 -8.3846 0.0380
-6 3 6 -4.4922 -0.0198
-6 3 7 -8.3271 -0.0090
-6 3 8 -4.2088 -0.0004
-6 3 9 -0.0471 0.0277
-6 3 10 6.4125 0.0225
-6 3 11 -1.4886 -0.0116
-6 3 12 -3.0666 0.0150
-6 3 13 1.4636 0.0147
-6 3 14 4.2176 -0.0399
-6 3 15 5.9646 -0.0291
-6 3 16 4.0341 -0.0023
-6 3 17 -2.3050 -0.0114
-6 3 18 0.9328 -0.0047
-6 3 19 -0.2331 0.0078
-6 3 20 -2.5063 -0.0150
-6 3 21 -0.9864 0.0021
-6 3 22 -0.8352 0.0185
-6 3 23 -0.3956 -0.0167
-6 3 24 1.3609 -0.0501
-6 4 1 7.9603 0.5334
-6 4 2 2.8097 -0.0300
-6 4 3 0.8331 -0.2440
-6 4 4 -8.0361 0.0514
-6 4 5 -9.0655 0.1731
-6 4 6 -12.3967 0.0420
-6 4 7 -0.8312 0.0096
-6 4 8 -5.0450 0.0124
-6 4 9 -3.6736 -0.0071
-6 4 10 -2.2441 0.0156
-6 4 11 1.3295 0.0263
-6 4 12 -1.0520 0.0091
-6 4 13 1.3305 0.0142
-6 4 14 1.3465 -0.0117
-6 4 15 2.0167 -0.0706
-6 4 16 3.4001 -0.0459
-6 4 17 1.0865 -0.0235
-6 4 18 -4.1266 -0.0227
-6 4 19 -0.9744 0.0095
-6 4 20 1.3620 0.0174
-6 4 21 0.3168 -0.0298
-6 4 22 1.1155 -0.0253
-6 4 23 0.1933 0.0363
-6 4 24 -0.2647 0.0080
-6 5 1 7.6818 0.4471
-6 5 2 4.5010 0.5222
-6 5 3 -8.4159 0.0786
-6 5 4 -4.2549 -0.1822
-6 5 5 -6.0091 -0.0226
-6 5 6 -1.9028 0.0291
-6 5 7 -0.0729 -0.0278
-6 5 8 4.3061 0.0255
-6 5 9 -4.4399 0.0464
-6 5 10 -1.5877 -0.0157
-6 5 11 -0.8752 -0.0222
-6 5 12 3.6646 -0.0248
-6 5 13 3.1963 -0.0125
-6 5 14 0.6957 0.0273
-6 5 15 0.2929 0.0191
-6 5 16 0.5635 -0.0205
-6 5 17 -0.9216 0.0004
-6 5 18 0.4327 0.0025
-6 5 19 -0.7884 -0.0094
-6 5 20 1.1490 0.0050
-6 5 21 2.6121 -0.0023
-6 5 22 0.5528 -0.0199
-6 5 23 1.5466 -0.0033
-6 6 1 -7.9271 -0.0748
-6 6 2 -14.1861 0.1130
-6 6 3 -8.7624 0.2282
-6 6 4 -6.0242 -0.0145
-6 6 5 3.9041 -0.1439
-6 6 6 2.1404 -0.0064
-6 6 7 3.1921 -0.0195
-6 6 8 2.5238 -0.0568
-6 6 9 3.2433 0.0152
-6 6 10 -2.3298 0.0211
-6 6 11 -1.7570 -0.0366
-6 6 12 -1.1233 -0.0388
-6 6 13 6.1314 -0.0325
-6 6 14 6.1932 0.0045
-6 6 15 0.8848 0.0486
-6 6 16 -1.7695 0.0540
-6 6 17 -0.3294 0.0193
-6 6 18 -1.1503 0.0116
-6 6 19 0.8058 0.0182
-6 6 20 0.1756 0.0083
-6 6 21 -0.8525 0.0076
-6 6 22 2.7747 -0.0525
-6 6 23 1.3310 -0.0512
-6 7 1 -8.3953 -0.1471
-6 7 2 -9.1941 -0.1996
-6 7 3 -14.4567 -0.0842
-6 7 4 -8.5496 0.0459
-6 7 5 0.5616 -0.0266
-6 7 6 4.6497 -0.0182
-6 7 7 0.9698 0.0595
-6 7 8 -1.1454 -0.0300
-6 7 9 -2.1608 -0.0788
-6 7 10 2.7709 -0.0147
-6 7 11 2.4330 0.0200
-6 7 12 3.1820 0.0062
-6 7 13 0.8251 0.0037
-6 7 14 1.4277 0.0113
-6 7 15 0.6500 0.0047
-6 7 16 -1.0575 0.0067
-6 7 17 -2.5132 0.0063
-6 7 18 -0.0949 0.0000
-6 7 19 1.1337 0.0308
-6 7 20 3.0348 0.0334
-6 7 21 1.7265 0.0321
-6 7 22 -2.8590 0.0490
-6 8 1 -4.7884 -0.2824
-6 8 2 -8.7037 -0.0662
-6 8 3 -7.2202 -0.0669
-6 8 4 -4.2201 -0.0355
-6 8 5 -2.7865 0.0126
-6 8 6 -0.1702 -0.0146
-6 8 7 -0.5441 0.0433
-6 8 8 -1.8764 0.0713
-6 8 9 1.6047 -0.0158
-6 8 10 3.8596 -0.0599
-6 8 11 7.7330 0.0081
-6 8 12 5.6982 0.0375
-6 8 13 3.8173 0.0190
-6 8 14 2.0278 0.0126
-6 8 15 2.5106 -0.0004
-6 8 16 0.5797 -0.0223
-6 8 17 0.0562 -0.0345
-6 8 18 -0.1837 -0.0387
-6 8 19 1.2226 -0.0092
-6 8 20 3.3991 0.0405
-6 8 21 1.0502 0.0852
-6 9 1 -9.0189 -0.2186
-6 9 2 -2.6137 -0.1764
-6 9 3 -1.0425 0.0595
-6 9 4 -4.0703 0.0991
-6 9 5 -2.1790 0.0365
-6 9 6 -2.2925 -0.0166
-6 9 7 -1.0603 -0.0589
-6 9 8 1.2367 0.0352
-6 9 9 1.6726 0.0771
-6 9 10 4.8578 0.0192
-6 9 11 4.2111 -0.0178
-6 9 12 5.8459 0.0085
-6 9 13 3.6713 -0.0009
-6 9 14 -0.1448 -0.0195
-6 9 15 -1.8742 -0.0072
-6 9 16 0.4498 0.0121
-6 9 17 0.7720 -0.0268
-6 9 18 -1.0656 -0.0496
-6 9 19 -0.8942 -0.0284
-6 9 20 0.1927 -0.0632
-6 9 21 2.6118 -0.0315
-6 10 1 -4.4125 0.4277
-6 10 2 -1.2557 -0.0204
-6 10 3 0.6498 -0.0966
-6 10 4 3.5230 0.0677
-6 10 5 0.4706 0.1085
-6 10 6 -1.5410 0.0265
-6 10 7 -2.1718 -0.0384
-6 10 8 -2.3594 -0.0642
-6 10 9 2.5788 0.0243
-6 10 10 2.8092 0.0489
-6 10 11 3.4985 0.0029
-6 10 12 0.9426 -0.0189
-6 10 13 -0.0405 -0.0056
-6 10 14 -1.9164 -0.0158
-6 10 15 -2.8412 -0.0281
-6 10 16 -1.7810 0.0096
-6 10 17 0.4398 0.0477
-6 10 18 1.4523 0.0013
-6 10 19 -1.6842 -0.0400
-6 10 20 -0.1713 -0.0285
-6 11 1 -2.5094 0.4506
-6 11 2 1.4101 0.3896
-6 11 3 4.6676 -0.0131
-6 11 4 0.6868 -0.1377
-6 11 5 -1.9040 -0.0201
-6 11 6 -0.9319 0.0324
-6 11 7 -1.7149 0.0120
-6 11 8 -1.0221 -0.0082
-6 11 9 -0.0682 -0.0245
-6 11 10 3.6104 -0.0021
-6 11 11 -0.1590 -0.0133
-6 11 12 -0.0750 -0.0401
-6 11 13 -0.2769 -0.0075
-6 11 14 -0.2602 0.0216
-6 11 15 -0.6421 0.0105
-6 11 16 0.3189 0.0028
-6 11 17 2.1401 -0.0074
-6 11 18 0.3364 0.0395
-6 11 19 0.6159 0.0718
-6 12 1 1.0103 -0.1962
-6 12 2 -0.6494 0.1336
-6 12 3 -0.9268 0.1777
-6 12 4 0.6922 -0.0783
-6 12 5 -0.3825 -0.1411
-6 12 6 -0.3440 -0.0207
-6 12 7 3.5550 0.0052
-6 12 8 0.5417 0.0081
-6 12 9 1.2225 -0.0132
-6 12 10 1.5597 -0.0161
-6 12 11 2.7387 -0.0130
-6 12 12 -1.0127 -0.0372
-6 12 13 -0.4693 -0.0146
-6 12 14 -0.1570 0.0191
-6 12 15 -0.3297 0.0195
-6 12 16 0.0055 0.0394
-6 12 17 0.9417 0.0211
-6 12 18 1.9347 -0.0216
-6 13 1 -0.5465 -0.3410
-6 13 2 0.2806 -0.2731
-6 13 3 0.4928 -0.0022
-6 13 4 1.9665 0.0942
-6 13 5 0.3704 -0.0194
-6 13 6 0.3541 -0.0290
-6 13 7 2.4182 0.0350
-6 13 8 3.2625 -0.0122
-6 13 9 -0.9076 -0.0229
-6 13 10 -0.8221 -0.0028
-6 13 11 -1.9587 0.0281
-6 13 12 1.0797 0.0110
-6 13 13 0.6880 -0.0243
-6 13 14 0.9833 -0.0102
-6 13 15 0.5473 0.0085
-6 13 16 0.3883 -0.0007
-6 13 17 0.1015 -0.0026
-6 14 1 5.5981 -0.0826
-6 14 2 4.5888 -0.1479
-6 14 3 -1.9282 -0.1193
-6 14 4 -1.0887 0.0428
-6 14 5 1.3117 0.0670
-6 14 6 -0.5120 -0.0048
-6 14 7 0.9715 0.0243
-6 14 8 0.8987 0.0669
-6 14 9 1.2743 -0.0199
-6 14 10 0.3221 -0.0328
-6 14 11 -1.2867 0.0318
-6 14 12 -3.3928 0.0462
-6 14 13 0.0936 0.0498
-6 14 14 1.2026 -0.0145
-6 14 15 0.8038 -0.0732
-6 14 16 -1.5109 0.0003
-6 15 1 -0.4402 0.0717
-6 15 2 3.6029 0.0244
-6 15 3 4.7017 0.0213
-6 15 4 -0.3896 0.0116
-6 15 5 0.4798 0.0549
-6 15 6 0.2260 0.0083
-6 15 7 -0.2629 -0.0789
-6 15 8 0.6034 0.0128
-6 15 9 -0.3459 0.0465
-6 15 10 0.3004 -0.0052
-6 15 11 0.0557 0.0043
-6 15 12 0.5917 -0.0208
-6 15 13 0.8037 -0.0281
-6 15 14 1.6392 0.0398
-6 16 1 1.2101 0.2262
-6 16 2 0.8808 0.0714
-6 16 3 -1.3149 0.0106
-6 16 4 2.3799 0.0287
-6 16 5 0.5212 0.0018
-6 16 6 -0.0299 0.0092
-6 16 7 2.3742 -0.0468
-6 16 8 0.6009 -0.0875
-6 16 9 -3.3096 0.0487
-6 16 10 -0.7865 0.0177
-6 16 11 1.6372 -0.0149
-6 16 12 0.2373 0.0006
-6 16 13 0.6813 -0.0406
-6 17 1 -1.0704 0.1819
-6 17 2 -1.2819 0.1583
-6 17 3 0.3764 -0.0057
-6 17 4 -3.2528 -0.0475
-6 17 5 1.0662 -0.0064
-6 17 6 1.3306 0.0214
-6 17 7 0.0672 0.0221
-6 17 8 2.2220 -0.0199
-6 17 9 3.2789 -0.1011
-6 17 10 -0.8556 0.0039
-6 17 11 -1.6125 0.0500
-6 18 1 2.9297 -0.1618
-6 18 2 0.6674 0.0047
-6 18 3 -1.3940 0.0983
-6 18 4 0.8617 -0.0210
-6 18 5 -2.6848 -0.0682
-6 18 6 -1.4541 0.0535
-6 18 7 1.5312 0.0465
-6 18 8 -0.0975 -0.0035
-6 18 9 -3.1672 0.0398
-6 19 1 -2.5349 -0.2573
-6 19 2 -0.9229 -0.1953
-6 19 3 -0.5114 -0.0881
-6 19 4 -1.1264 0.1337
-6 19 5 0.3463 0.0286
-6 19 6 -1.2203 -0.0681
-6 19 7 -1.6299 0.0925
-6 20 1 -1.0107 0.0014
-6 20 2 -0.5769 -0.0858
-6 20 3 -0.5984 -0.0151
-6 20 4 0.1526 0.0104
-6 20 5 -0.4895 0.1516
-6 21 1 -0.1147 0.2137
-5 -20 2 0.6263 0.0804
-5 -20 3 -0.5528 -0.0374
-5 -20 4 0.1427 0.0829
-5 -20 5 -1.2710 -0.0265
-5 -20 6 1.0259 0.0427
-5 -20 7 3.5818 -0.0213
-5 -20 8 2.2354 0.0255
-5 -20 9 0.4598 0.0067
-5 -20 10 0.3693 -0.0137
-5 -20 11 2.9512 -0.0045
-5 -20 12 -0.1766 -0.0469
-5 -20 13 -0.3582 -0.0001
-5 -20 14 1.2970 -0.0398
-5 -19 1 -2.1323 -0.1271
-5 -19 2 0.6697 0.0472
-5 -19 3 0.6843 0.0201
-5 -19 4 -2.2006 -0.0379
-5 -19 5 2.1957 0.0548
-5 -19 6 2.1603 -0.0285
-5 -19 7 1.8466 0.0349
-5 -19 8 3.7300 -0.0180
-5 -19 9 2.8955 0.0034
-5 -19 10 -0.2358 0.0163
-5 -19 11 -0.3445 -0.0213
-5 -19 12 5.3216 0.0023
-5 -19 13 2.4024 -0.0151
-5 -19 14 -1.2196 -0.0123
-5 -19 15 1.2359 -0.0029
-5 -19 16 1.2332 -0.0468
-5 -19 17 1.9309 0.0440
-5 -18 1 -2.0977 -0.1177
-5 -18 2 0.2947 -0.0810
-5 -18 3 1.8143 0.0345
-5 -18 4 4.1510 0.0201
-5 -18 5 0.0607 0.0044
-5 -18 6 -0.8027 0.0316
-5 -18 7 -0.8611 -0.0213
-5 -18 8 -0.7040 0.0133
-5 -18 9 -0.2554 0.0034
-5 -18 10 0.4804 -0.0137
-5 -18 11 1.0942 0.0042
-5 -18 12 1.1999 0.0049
-5 -18 13 4.6618 -0.0138
-5 -18 14 4.2591 -0.0196
-5 -18 15 0.8124 -0.0178
-5 -18 16 1.4298 0.0104
-5 -18 17 -0.0456 -0.0486
-5 -18 18 2.1110 0.0405
-5 -18 19 -0.9342 -0.0274
-5 -17 1 2.9818 0.1771
-5 -17 2 -0.1280 0.0013
-5 -17 3 0.0104 -0.0193
-5 -17 4 -1.5887 0.0374
-5 -17 5 2.0000 0.0033
-5 -17 6 -0.6504 0.0088
-5 -17 7 -2.1732 0.0091
-5 -17 8 -1.8218 0.0011
-5 -17 9 -0.3053 0.0136
-5 -17 10 0.7817 0.0132
-5 -17 11 -0.5945 -0.0220
-5 -17 12 1.4388 -0.0300
-5 -17 13 0.0978 -0.0030
-5 -17 14 -2.6529 -0.0118
-5 -17 15 0.6832 -0.0140
-5 -17 16 -0.7112 -0.0064
-5 -17 17 -0.5528 0.0056
-5 -17 18 -2.1780 -0.0382
-5 -17 19 0.8348 0.0211
-5 -17 20 -1.0602 -0.0220
-5 -16 1 0.2225 0.2842
-5 -16 2 3.0711 0.1752
-5 -16 3 0.5722 0.0027
-5 -16 4 0.4596 -0.0520
-5 -16 5 2.7939 -0.0013
-5 -16 6 4.5809 -0.0176
-5 -16 7 1.3931 -0.0163
-5 -16 8 1.3836 -0.0031
-5 -16 9 0.4583 -0.0037
-5 -16 10 1.3536 -0.0087
-5 -16 11 1.9372 0.0122
-5 -16 12 -1.2234 -0.0054
-5 -16 13 1.2479 -0.0137
-5 -16 14 0.1240 0.0084
-5 -16 15 -4.3902 0.0165
-5 -16 16 -0.6154 0.0012
-5 -16 17 -2.0343 0.0149
-5 -16 18 0.0562 -0.0006
-5 -16 19 -2.6442 -0.0201
-5 -16 20 -2.3695 0.0063
-5 -16 21 -1.9454 -0.0048
-5 -16 22 -1.9670 -0.0441
-5 -15 1 2.6211 -0.0421
-5 -15 2 2.0190 0.1161
-5 -15 3 5.8118 0.0972
-5 -15 4 2.3927 -0.0488
-5 -15 5 0.8426 -0.0544
-5 -15 6 0.9296 0.0038
-5 -15 7 1.2316 -0.0290
-5 -15 8 -0.4701 -0.0127
-5 -15 9 -0.2118 0.0112
-5 -15 10 0.6625 -0.0068
-5 -15 11 0.3255 0.0027
-5 -15 12 2.1787 0.0249
-5 -15 13 1.7886 -0.0015
-5 -15 14 0.4236 0.0009
-5 -15 15 1.1059 0.0113
-5 -15 16 -0.6701 0.0251
-5 -15 17 0.1463 -0.0097
-5 -15 18 -1.1213 0.0252
-5 -15 19 1.5458 0.0003
-5 -15 20 -0.0942 0.0016
-5 -15 21 -1.1671 0.0044
-5 -15 22 -0.5245 0.0091
-5 -15 23 -1.0814 -0.0017
-5 -14 1 2.2108 -0.2015
-5 -14 2 0.5438 -0.1629
-5 -14 3 0.6031 0.0044
-5 -14 4 1.2120 0.0520
-5 -14 5 -0.6708 -0.0432
-5 -14 6 -1.7108 0.0036
-5 -14 7 -4.6916 0.0177
-5 -14 8 -3.2676 -0.0183
-5 -14 9 -2.0314 -0.0116
-5 -14 10 -0.6622 0.0041
-5 -14 11 -0.1755 -0.0178
-5 -14 12 -3.0263 -0.0041
-5 -14 13 1.0565 0.0380
-5 -14 14 2.9773 -0.0071
-5 -14 15 -0.3698 0.0018
-5 -14 16 0.6954 0.0088
-5 -14 17 0.5185 0.0134
-5 -14 18 2.4753 -0.0152
-5 -14 19 2.4095 0.0140
-5 -14 20 0.1342 -0.0137
-5 -14 21 0.2683 0.0109
-5 -14 22 0.0152 0.0179
-5 -14 23 -0.7470 0.0012
-5 -13 1 1.8190 -0.1001
-5 -13 2 0.8264 -0.1181
-5 -13 3 1.0191 -0.0957
-5 -13 4 0.6166 0.0095
-5 -13 5 1.4160 0.0532
-5 -13 6 1.5316 -0.0164
-5 -13 7 2.0760 0.0223
-5 -13 8 -1.3803 0.0247
-5 -13 9 -2.9686 -0.0212
-5 -13 10 -1.6125 -0.0060
-5 -13 11 -0.5947 0.0127
-5 -13 12 1.0217 -0.0215
-5 -13 13 0.0341 -0.0082
-5 -13 14 0.0735 0.0285
-5 -13 15 1.7794 -0.0163
-5 -13 16 0.0781 -0.0012
-5 -13 17 -3.2037 -0.0026
-5 -13 18 -1.7603 0.0060
-5 -13 19 0.8451 -0.0047
-5 -13 20 1.1577 0.0124
-5 -13 21 -0.2696 -0.0143
-5 -13 22 0.7947 -0.0183
-5 -13 23 0.4938 0.0183
-5 -13 24 -0.6020 -0.0070
-5 -12 1 1.7029 -0.0632
-5 -12 2 -1.4942 0.0159
-5 -12 3 -2.8499 0.0337
-5 -12 4 -1.8930 -0.0019
-5 -12 5 0.0895 0.0290
-5 -12 6 5.1621 0.0237
-5 -12 7 2.5894 -0.0384
-5 -12 8 0.8647 0.0303
-5 -12 9 0.7238 0.0437
-5 -12 10 0.4121 -0.0116
-5 -12 11 -0.9511 0.0087
-5 -12 12 -2.4757 0.0057
-5 -12 13 1.1567 -0.0230
-5 -12 14 0.8898 -0.0207
-5 -12 15 -2.1004 0.0031
-5 -12 16 -0.2059 -0.0266
-5 -12 17 1.1291 -0.0145
-5 -12 18 -0.8688 0.0039
-5 -12 19 1.6002 -0.0021
-5 -12 20 2.6187 -0.0049
-5 -12 21 2.9319 -0.0026
-5 -12 22 2.1791 -0.0153
-5 -12 23 1.4890 -0.0124
-5 -12 24 1.1042 0.0169
-5 -12 25 -0.1750 0.0082
-5 -11 1 -4.8317 0.2305
-5 -11 2 -5.5150 -0.0158
-5 -11 3 -1.2365 0.0446
-5 -11 4 -2.4542 0.0644
-5 -11 5 -2.4860 -0.0007
-5 -11 6 1.4807 0.0177
-5 -11 7 6.5793 -0.0165
-5 -11 8 1.6120 -0.0404
-5 -11 9 -0.9665 0.0248
-5 -11 10 -0.6935 0.0287
-5 -11 11 0.6443 -0.0263
-5 -11 12 0.8768 -0.0023
-5 -11 13 -3.8248 -0.0026
-5 -11 14 -4.9930 -0.0209
-5 -11 15 -0.8904 -0.0098
-5 -11 16 -0.6222 0.0018
-5 -11 17 -2.5243 -0.0254
-5 -11 18 0.7926 -0.0091
-5 -11 19 0.8248 0.0153
-5 -11 20 -0.7501 -0.0022
-5 -11 21 0.9908 0.0010
-5 -11 22 2.7278 -0.0133
-5 -11 23 0.4281 -0.0266
-5 -11 24 -2.7357 -0.0046
-5 -11 25 -0.3076 0.0269
-5 -10 1 -0.0674 0.4416
-5 -10 2 -5.4294 0.1952
-5 -10 3 -4.3055 -0.0754
-5 -10 4 1.9250 -0.0405
-5 -10 5 -0.4642 0.0041
-5 -10 6 1.1542 -0.0133
-5 -10 7 0.9439 0.0233
-5 -10 8 0.5222 -0.0218
-5 -10 9 -1.6459 -0.0330
-5 -10 10 1.3691 0.0098
-5 -10 11 -0.3697 0.0038
-5 -10 12 -1.3347 -0.0299
-5 -10 13 0.5668 0.0134
-5 -10 14 -3.4421 0.0139
-5 -10 15 -7.3855 -0.0049
-5 -10 16 -4.0044 0.0119
-5 -10 17 -1.9423 0.0127
-5 -10 18 -2.9274 -0.0167
-5 -10 19 -0.4365 -0.0038
-5 -10 20 1.1342 0.0267
-5 -10 21 -0.8823 0.0019
-5 -10 22 0.1879 -0.0082
-5 -10 23 0.1426 -0.0016
-5 -10 24 -0.0094 -0.0252
-5 -10 25 -1.1540 0.0022
-5 -10 26 -0.6637 0.0472
-5 -9 1 -0.4298 -0.1670
-5 -9 2 -6.2881 0.2216
-5 -9 3 -2.4655 0.0795
-5 -9 4 1.0853 -0.1185
-5 -9 5 -1.2247 -0.0749
-5 -9 6 -4.2459 -0.0207
-5 -9 7 0.3775 -0.0196
-5 -9 8 -1.3602 0.0124
-5 -9 9 0.8894 -0.0166
-5 -9 10 -1.4953 -0.0217
-5 -9 11 3.2055 0.0107
-5 -9 12 4.9893 0.0116
-5 -9 13 0.5312 -0.0131
-5 -9 14 -1.2711 0.0267
-5 -9 15 -0.6888 0.0355
-5 -9 16 -1.4421 0.0072
-5 -9 17 -1.5873 0.0218
-5 -9 18 -1.1693 0.0221
-5 -9 19 0.8416 -0.0252
-5 -9 20 -1.4161 -0.0182
-5 -9 21 -1.3554 -0.0029
-5 -9 22 0.1206 -0.0031
-5 -9 23 1.6348 0.0020
-5 -9 24 0.0390 0.0028
-5 -9 25 0.4866 -0.0076
-5 -9 26 2.7806 0.0232
-5 -8 1 -2.0018 -0.5954
-5 -8 2 -0.2011 -0.3126
-5 -8 3 -4.4156 0.1012
-5 -8 4 -0.3476 0.0791
-5 -8 5 -1.2697 -0.0608
-5 -8 6 -2.8301 -0.0083
-5 -8 7 -5.4883 0.0181
-5 -8 8 0.7151 -0.0192
-5 -8 9 4.8293 0.0086
-5 -8 10 11.5051 0.0102
-5 -8 11 5.7464 -0.0049
-5 -8 12 3.8820 0.0320
-5 -8 13 3.4231 0.0272
-5 -8 14 1.2180 -0.0084
-5 -8 15 0.2301 0.0229
-5 -8 16 0.1373 0.0247
-5 -8 17 -0.2757 0.0020
-5 -8 18 -0.5985 0.0118
-5 -8 19 -3.7473 0.0124
-5 -8 20 -0.9905 -0.0195
-5 -8 21 -1.6777 0.0011
-5 -8 22 -2.0213 -0.0020
-5 -8 23 -1.0696 -0.0086
-5 -8 24 0.2176 -0.0002
-5 -8 25 2.1368 -0.0104
-5 -8 26 0.3830 -0.0398
-5 -7 1 -5.5053 -0.0275
-5 -7 2 -0.5478 -0.3428
-5 -7 3 2.8141 -0.1907
-5 -7 4 1.4311 0.1306
-5 -7 5 -1.1535 0.1086
-5 -7 6 -3.7938 -0.0156
-5 -7 7 0.9071 0.0458
-5 -7 8 0.7513 0.0243
-5 -7 9 8.0206 -0.0250
-5 -7 10 6.3281 0.0245
-5 -7 11 6.1894 0.0300
-5 -7 12 3.7455 0.0028
-5 -7 13 3.1284 0.0310
-5 -7 14 0.8464 0.0113
-5 -7 15 0.7839 -0.0342
-5 -7 16 2.0008 -0.0084
-5 -7 17 0.1555 -0.0093
-5 -7 18 -0.7995 -0.0175
-5 -7 19 1.7207 0.0174
-5 -7 20 -1.5010 0.0297
-5 -7 21 0.2317 -0.0087
-5 -7 22 0.2866 0.0153
-5 -7 23 0.7763 0.0073
-5 -7 24 1.4932 -0.0292
-5 -7 25 -1.8077 -0.0209
-5 -7 26 1.3893 -0.0172
-5 -6 1 2.1017 0.3435
-5 -6 2 3.4930 0.2472
-5 -6 3 0.2365 -0.0630
-5 -6 4 0.9032 -0.0648
-5 -6 5 -3.8297 0.0938
-5 -6 6 -1.4403 0.0170
-5 -6 7 1.3133 -0.0507
-5 -6 8 2.2289 0.0572
-5 -6 9 0.1567 0.0329
-5 -6 10 5.1958 -0.0249
-5 -6 11 1.2290 0.0108
-5 -6 12 1.6702 -0.0046
-5 -6 13 1.9539 -0.0394
-5 -6 14 3.3419 -0.0088
-5 -6 15 5.9638 -0.0150
-5 -6 16 4.6341 -0.0404
-5 -6 17 1.7318 0.0040
-5 -6 18 0.9519 -0.0023
-5 -6 19 -1.7765 -0.0193
-5 -6 20 -0.2646 0.0060
-5 -6 21 -0.2810 0.0041
-5 -6 22 1.4602 -0.0091
-5 -6 23 0.8943 0.0141
-5 -6 24 0.6124 0.0052
-5 -6 25 2.8119 -0.0229
-5 -6 26 -1.7082 -0.0122
-5 -5 1 2.0836 0.2067
-5 -5 2 2.6570 0.2256
-5 -5 3 -2.0886 0.2150
-5 -5 4 -10.0310 -0.0237
-5 -5 5 -9.2254 -0.0673
-5 -5 6 -6.4822 0.0357
-5 -5 7 2.7030 -0.0432
-5 -5 8 6.4254 -0.0584
-5 -5 9 7.0821 0.0549
-5 -5 10 3.2912 0.0134
-5 -5 11 0.5655 -0.0517
-5 -5 12 -2.2630 -0.0166
-5 -5 13 1.7256 -0.0381
-5 -5 14 2.8990 -0.0396
-5 -5 15 4.3494 0.0012
-5 -5 16 4.7953 0.0038
-5 -5 17 0.4366 -0.0007
-5 -5 18 -1.4055 0.0139
-5 -5 19 -1.3070 0.0024
-5 -5 20 -5.2468 -0.0127
-5 -5 21 -1.1589 -0.0046
-5 -5 22 0.0883 -0.0090
-5 -5 23 -1.3215 -0.0071
-5 -5 24 -0.0877 0.0289
-5 -5 25 -0.8492 0.0322
-5 -5 26 0.8386 -0.0114
-5 -4 1 2.8149 0.2567
-5 -4 2 0.8522 0.0160
-5 -4 3 -0.6314 -0.0358
-5 -4 4 2.1616 0.0284
-5 -4 5 0.0483 -0.0490
-5 -4 6 5.4213 -0.0205
-5 -4 7 8.6166 0.0408
-5 -4 8 5.8259 -0.0729
-5 -4 9 1.5999 -0.0735
-5 -4 10 -1.5225 0.0099
-5 -4 11 -4.6641 -0.0167
-5 -4 12 0.5719 -0.0304
-5 -4 13 0.6235 0.0263
-5 -4 14 -1.0311 0.0055
-5 -4 15 -0.5671 -0.0114
-5 -4 16 0.4859 0.0119
-5 -4 17 -2.1749 0.0111
-5 -4 18 -3.8238 0.0066
-5 -4 19 -0.5970 0.0218
-5 -4 20 0.3311 0.0112
-5 -4 21 -2.7666 -0.0171
-5 -4 22 1.1672 -0.0042
-5 -4 23 1.7089 -0.0043
-5 -4 24 -2.8720 0.0042
-5 -4 25 -3.1234 0.0373
-5 -4 26 -2.6081 0.0485
-5 -3 1 9.2555 -0.1663
-5 -3 2 5.9302 0.1106
-5 -3 3 6.4730 -0.0754
-5 -3 4 10.6662 -0.1318
-5 -3 5 14.1983 -0.0451
-5 -3 6 13.2111 -0.0110
-5 -3 7 11.5977 0.0530
-5 -3 8 1.4276 0.0538
-5 -3 9 -3.9016 -0.0715
-5 -3 10 -5.5104 -0.0559
-5 -3 11 -5.0611 0.0229
-5 -3 12 -3.2254 0.0160
-5 -3 13 2.9403 0.0107
-5 -3 14 1.2630 0.0505
-5 -3 15 -2.3908 0.0183
-5 -3 16 -3.3044 -0.0201
-5 -3 17 -2.1739 0.0060
-5 -3 18 -1.5633 -0.0013
-5 -3 19 -1.0529 -0.0155
-5 -3 20 0.4795 0.0104
-5 -3 21 1.1334 0.0161
-5 -3 22 -0.4974 0.0067
-5 -3 23 -0.0130 0.0110
-5 -3 24 0.6030 -0.0104
-5 -3 25 -3.9876 -0.0152
-5 -3 26 -2.9022 0.0153
-5 -2 1 14.2883 -0.7414
-5 -2 2 10.2316 -0.2316
-5 -2 3 0.1337 0.1527
-5 -2 4 4.8165 0.0338
-5 -2 5 7.4362 -0.0634
-5 -2 6 12.2618 -0.0216
-5 -2 7 12.0743 0.0025
-5 -2 8 3.7093 0.0589
-5 -2 9 -5.7083 0.0660
-5 -2 10 -2.9462 -0.0159
-5 -2 11 -3.2407 -0.0038
-5 -2 12 1.4187 0.0498
-5 -2 13 3.4128 0.0179
-5 -2 14 2.1039 0.0049
-5 -2 15 -1.3077 0.0343
-5 -2 16 -2.2223 0.0043
-5 -2 17 -1.9525 -0.0300
-5 -2 18 -0.4935 -0.0087
-5 -2 19 0.7357 -0.0123
-5 -2 20 -0.0266 -0.0233
-5 -2 21 0.5745 -0.0003
-5 -2 22 -1.4627 0.0053
-5 -2 23 -0.4036 0.0101
-5 -2 24 1.2630 0.0305
-5 -2 25 1.3003 -0.0180
-5 -2 26 -3.1128 -0.0733
-5 -1 1 -0.5876 -0.0156
-5 -1 2 -1.2209 -0.4565
-5 -1 3 6.8494 -0.0882
-5 -1 4 13.3901 0.2406
-5 -1 5 16.3438 0.1100
-5 -1 6 5.0471 -0.0179
-5 -1 7 3.4314 -0.0051
-5 -1 8 -0.6102 -0.0225
-5 -1 9 -3.2194 0.0306
-5 -1 10 -2.4730 0.0663
-5 -1 11 3.8602 0.0176
-5 -1 12 1.8499 0.0183
-5 -1 13 1.1443 0.0443
-5 -1 14 -4.0114 -0.0177
-5 -1 15 -4.4621 -0.0221
-5 -1 16 -4.4639 0.0205
-5 -1 17 -4.2727 -0.0083
-5 -1 18 2.0708 -0.0145
-5 -1 19 2.4950 0.0126
-5 -1 20 1.2020 -0.0110
-5 -1 21 1.8893 -0.0301
-5 -1 22 1.7304 -0.0107
-5 -1 23 -3.2855 -0.0040
-5 -1 24 0.5865 0.0149
-5 -1 25 -0.6444 0.0176
-5 -1 26 -0.9264 -0.0223
-5 0 1 -5.7026 0.7938
-5 0 2 5.7254 0.2645
-5 0 3 1.4059 -0.2357
-5 0 4 16.7723 -0.0603
-5 0 5 20.3585 0.1392
-5 0 6 6.4245 0.0217
-5 0 7 -2.0069 -0.0319
-5 0 8 2.4085 0.0218
-5 0 9 -0.1891 -0.0211
-5 0 10 6.1371 0.0090
-5 0 11 4.2099 0.0197
-5 0 12 1.1797 -0.0300
-5 0 13 -2.1241 -0.0121
-5 0 14 -5.5423 0.0043
-5 0 15 -7.7957 -0.0366
-5 0 16 -3.5721 -0.0113
-5 0 17 -1.9136 0.0305
-5 0 18 -2.2212 -0.0041
-5 0 19 4.0437 -0.0081
-5 0 20 1.1391 0.0264
-5 0 21 -0.5817 0.0113
-5 0 22 -0.9235 -0.0115
-5 0 23 -2.3854 -0.0114
-5 0 24 -5.9014 -0.0256
-5 0 25 1.0803 0.0305
-5 0 26 0.5041 0.0156
-5 1 1 -0.8847 0.2328
-5 1 2 4.7050 0.5478
-5 1 3 10.8639 0.1998
-5 1 4 4.4414 -0.2098
-5 1 5 17.0716 -0.1070
-5 1 6 10.4481 0.0260
-5 1 7 -3.1874 -0.0437
-5 1 8 -3.2378 -0.0154
-5 1 9 1.7897 0.0398
-5 1 10 2.1994 -0.0363
-5 1 11 2.2966 -0.0545
-5 1 12 -2.5163 -0.0566
-5 1 13 -2.5352 -0.0627
-5 1 14 -4.7276 -0.0044
-5 1 15 -4.4158 0.0133
-5 1 16 0.0756 -0.0115
-5 1 17 -0.4140 -0.0006
-5 1 18 0.9586 0.0190
-5 1 19 -1.6373 -0.0040
-5 1 20 -1.8786 -0.0046
-5 1 21 -0.3804 0.0193
-5 1 22 1.5028 0.0181
-5 1 23 -0.3358 0.0148
-5 1 24 1.5734 -0.0052
-5 1 25 -2.3749 -0.0744
-5 2 1 -3.3832 -0.2736
-5 2 2 21.0821 -0.1160
-5 2 3 23.5942 0.1677
-5 2 4 11.5066 0.0622
-5 2 5 -2.9929 -0.1139
-5 2 6 -3.1189 -0.0144
-5 2 7 -3.6199 0.0177
-5 2 8 -8.2736 -0.0885
-5 2 9 -4.1847 -0.0441
-5 2 10 0.4337 0.0205
-5 2 11 0.7403 -0.0183
-5 2 12 -4.7240 -0.0257
-5 2 13 -5.5624 -0.0119
-5 2 14 -4.2169 -0.0181
-5 2 15 -4.4090 0.0196
-5 2 16 -1.3527 0.0211
-5 2 17 1.5423 -0.0065
-5 2 18 -1.6354 -0.0037
-5 2 19 0.9405 -0.0008
-5 2 20 -0.3948 -0.0082
-5 2 21 -1.2447 -0.0009
-5 2 22 1.2807 0.0088
-5 2 23 3.8144 0.0318
-5 2 24 -0.5537 -0.0036
-5 2 25 -0.4181 -0.0431
-5 3 1 10.3254 -0.2494
-5 3 2 3.8756 -0.2553
-5 3 3 13.7232 -0.1910
-5 3 4 3.2989 0.0128
-5 3 5 -8.5046 0.0068
-5 3 6 -10.2012 -0.0239
-5 3 7 -7.9097 0.0618
-5 3 8 4.9247 0.0218
-5 3 9 0.8518 -0.0996
-5 3 10 2.4109 -0.0327
-5 3 11 1.9997 0.0522
-5 3 12 -0.4919 0.0452
-5 3 13 -2.9461 0.0418
-5 3 14 0.0363 0.0367
-5 3 15 0.8589 0.0040
-5 3 16 0.1726 0.0092
-5 3 17 -2.7632 0.0059
-5 3 18 -1.2300 -0.0169
-5 3 19 -2.2220 -0.0072
-5 3 20 -2.1692 0.0101
-5 3 21 -1.5675 -0.0070
-5 3 22 -1.8982 -0.0296
-5 3 23 -2.7006 -0.0096
-5 3 24 1.3529 0.0612
-5 3 25 0.5459 0.0135
-5 4 1 6.8509 -0.3435
-5 4 2 6.5900 -0.0802
-5 4 3 -3.0731 -0.0103
-5 4 4 -4.3812 -0.0531
-5 4 5 -3.9167 0.0087
-5 4 6 -14.0967 -0.0055
-5 4 7 -2.9878 0.0100
-5 4 8 2.2530 0.0987
-5 4 9 6.4007 0.0615
-5 4 10 -0.7211 -0.0471
-5 4 11 -0.0135 0.0040
-5 4 12 -2.4068 0.0626
-5 4 13 2.3144 0.0260
-5 4 14 2.4270 0.0278
-5 4 15 2.4736 0.0182
-5 4 16 2.0393 -0.0172
-5 4 17 -0.9548 -0.0014
-5 4 18 -5.8471 -0.0004
-5 4 19 -4.2103 -0.0101
-5 4 20 -3.2101 0.0130
-5 4 21 -0.6639 0.0136
-5 4 22 0.3324 -0.0219
-5 4 23 0.6454 -0.0561
-5 4 24 0.3075 -0.0462
-5 5 1 23.8356 0.0135
-5 5 2 11.4337 -0.1830
-5 5 3 -4.5463 0.0807
-5 5 4 -10.9212 0.1759
-5 5 5 -8.8803 0.0363
-5 5 6 0.3857 -0.0161
-5 5 7 -9.2856 -0.0393
-5 5 8 -0.5652 -0.0084
-5 5 9 1.6216 0.1069
-5 5 10 3.9324 0.0686
-5 5 11 -0.5193 -0.0290
-5 5 12 -0.0071 -0.0050
-5 5 13 -2.4753 -0.0055
-5 5 14 1.5726 -0.0449
-5 5 15 0.4020 0.0006
-5 5 16 -0.1651 0.0135
-5 5 17 -1.5081 0.0020
-5 5 18 -2.0165 0.0072
-5 5 19 -1.5444 -0.0006
-5 5 20 0.7665 0.0049
-5 5 21 -0.9931 0.0303
-5 5 22 0.1688 0.0154
-5 5 23 0.4442 -0.0486
-5 5 24 -1.7920 -0.0550
-5 6 1 0.5683 0.7717
-5 6 2 1.4102 0.1565
-5 6 3 -2.7928 -0.1729
-5 6 4 -12.0361 -0.0003
-5 6 5 -3.3074 0.0978
-5 6 6 -0.9057 0.0198
-5 6 7 4.7193 -0.0174
-5 6 8 -2.4268 -0.0434
-5 6 9 -1.1074 -0.0276
-5 6 10 -0.5802 0.0457
-5 6 11 2.8473 -0.0095
-5 6 12 -0.4807 -0.0438
-5 6 13 2.7882 -0.0117
-5 6 14 1.6334 -0.0208
-5 6 15 0.9885 -0.0476
-5 6 16 -0.7047 -0.0042
-5 6 17 -0.9122 0.0254
-5 6 18 -2.0992 0.0006
-5 6 19 -0.2990 0.0022
-5 6 20 -0.1405 -0.0003
-5 6 21 1.1863 -0.0204
-5 6 22 -1.1767 0.0539
-5 6 23 -1.7020 0.0459
-5 7 1 -6.4784 0.2663
-5 7 2 -5.8712 0.5021
-5 7 3 -5.0830 0.0269
-5 7 4 -1.9085 -0.2418
-5 7 5 -1.0456 -0.0665
-5 7 6 7.1131 0.0448
-5 7 7 2.7661 0.0222
-5 7 8 0.8557 -0.0045
-5 7 9 -5.5988 -0.0324
-5 7 10 -5.2340 -0.0476
-5 7 11 -1.2379 -0.0184
-5 7 12 4.1498 -0.0315
-5 7 13 0.8087 -0.0238
-5 7 14 -0.1645 0.0263
-5 7 15 -2.1858 0.0123
-5 7 16 -2.7128 -0.0336
-5 7 17 -3.2717 -0.0038
-5 7 18 -1.4270 -0.0017
-5 7 19 -3.0732 -0.0185
-5 7 20 1.3105 0.0013
-5 7 21 2.2586 -0.0031
-5 7 22 -0.8688 0.0068
-5 8 1 -11.6725 -0.5982
-5 8 2 -11.6214 -0.0654
-5 8 3 -2.8269 0.2441
-5 8 4 1.0102 0.0083
-5 8 5 2.4974 -0.1462
-5 8 6 2.3383 -0.0067
-5 8 7 2.4582 0.0358
-5 8 8 -3.3144 -0.0232
-5 8 9 -1.6997 -0.0105
-5 8 10 -0.4617 -0.0072
-5 8 11 0.1085 -0.0151
-5 8 12 0.5483 -0.0027
-5 8 13 2.0596 -0.0100
-5 8 14 -1.9152 0.0126
-5 8 15 -2.6631 0.0420
-5 8 16 -3.0599 0.0129
-5 8 17 -0.3185 -0.0078
-5 8 18 0.2221 -0.0098
-5 8 19 1.2360 -0.0003
-5 8 20 -0.5800 -0.0125
-5 8 21 0.5170 -0.0381
-5 8 22 1.9709 0.0430
-5 9 1 -13.1312 -0.3499
-5 9 2 -9.8360 -0.4757
-5 9 3 -5.0451 -0.0938
-5 9 4 -2.8551 0.1596
-5 9 5 0.6213 0.0522
-5 9 6 0.2245 -0.0297
-5 9 7 0.7962 0.0250
-5 9 8 3.5390 0.0021
-5 9 9 0.1513 -0.0553
-5 9 10 1.7360 0.0091
-5 9 11 2.6983 0.0467
-5 9 12 2.2575 0.0458
-5 9 13 1.0229 0.0178
-5 9 14 0.4795 -0.0103
-5 9 15 -2.7263 -0.0005
-5 9 16 -0.7511 0.0164
-5 9 17 0.1822 0.0047
-5 9 18 1.8847 0.0024
-5 9 19 -0.3274 0.0180
-5 9 20 -0.7642 -0.0054
-5 9 21 1.9147 -0.0659
-5 10 1 -7.8798 0.0994
-5 10 2 -7.4050 -0.0787
-5 10 3 -3.7316 -0.1782
-5 10 4 2.6787 -0.0032
-5 10 5 1.0377 0.0836
-5 10 6 0.6019 -0.0038
-5 10 7 2.7868 -0.0096
-5 10 8 2.7759 0.0492
-5 10 9 5.8285 0.0262
-5 10 10 5.5509 -0.0360
-5 10 11 4.8654 0.0176
-5 10 12 1.2625 0.0388
-5 10 13 0.2019 0.0152
-5 10 14 -2.2086 0.0033
-5 10 15 -3.1012 -0.0224
-5 10 16 -4.7771 -0.0124
-5 10 17 -0.7888 0.0006
-5 10 18 2.7743 -0.0354
-5 10 19 1.8699 0.0403
-5 10 20 0.1873 0.0646
-5 11 1 -2.3339 0.2196
-5 11 2 0.3969 0.1698
-5 11 3 3.1680 0.0676
-5 11 4 0.0775 -0.0005
-5 11 5 0.4967 0.0122
-5 11 6 -1.0381 0.0016
-5 11 7 -1.8631 -0.0426
-5 11 8 2.5999 0.0199
-5 11 9 1.9518 0.0953
-5 11 10 4.6254 0.0303
-5 11 11 3.9856 -0.0451
-5 11 12 0.8222 -0.0244
-5 11 13 -2.8501 -0.0048
-5 11 14 0.4696 -0.0080
-5 11 15 0.4696 -0.0167
-5 11 16 -0.7963 -0.0069
-5 11 17 -1.0953 0.0012
-5 11 18 0.8071 -0.0277
-5 11 19 2.5695 -0.0142
-5 12 1 -0.0031 0.3390
-5 12 2 0.0835 0.1259
-5 12 3 -1.1498 0.0187
-5 12 4 0.3431 -0.0143
-5 12 5 -0.8730 0.0239
-5 12 6 -3.3602 0.0312
-5 12 7 0.3054 -0.0229
-5 12 8 0.7883 -0.0509
-5 12 9 2.0318 -0.0094
-5 12 10 1.0125 0.0552
-5 12 11 2.4669 0.0064
-5 12 12 0.9104 -0.0413
-5 12 13 -0.3370 -0.0146
-5 12 14 -0.7404 -0.0016
-5 12 15 2.3658 -0.0169
-5 12 16 1.1211 0.0195
-5 12 17 -0.5700 0.0130
-5 12 18 -0.3672 -0.0511
-5 13 1 -6.7763 0.0630
-5 13 2 0.5022 0.1626
-5 13 3 1.0820 -0.0298
-5 13 4 -1.0585 -0.1134
-5 13 5 1.0333 -0.0622
-5 13 6 2.1633 0.0358
-5 13 7 0.1659 0.0505
-5 13 8 3.5156 -0.0187
-5 13 9 0.6247 -0.0620
-5 13 10 -1.0790 -0.0689
-5 13 11 -0.6603 0.0210
-5 13 12 1.4192 -0.0006
-5 13 13 -0.2321 -0.0077
-5 13 14 -1.3714 0.0506
-5 13 15 0.4557 -0.0269
-5 13 16 1.7048 -0.0395
-5 13 17 -0.1546 0.0479
-5 14 1 -0.7511 -0.4254
-5 14 2 -3.7099 -0.0609
-5 14 3 0.5659 0.0919
-5 14 4 0.7390 -0.0189
-5 14 5 -0.2347 -0.0869
-5 14 6 0.2367 -0.0088
-5 14 7 2.3947 0.0426
-5 14 8 0.0090 0.0265
-5 14 9 0.4114 -0.0198
-5 14 10 -0.5141 -0.0474
-5 14 11 -3.2142 -0.0196
-5 14 12 -3.2223 0.0370
-5 14 13 0.8418 0.0027
-5 14 14 2.0071 0.0159
-5 14 15 0.0991 0.0465
-5 14 16 -0.2305 -0.0019
-5 15 1 -1.4336 -0.2719
-5 15 2 1.6413 -0.3007
-5 15 3 -0.1750 0.0048
-5 15 4 -1.5934 0.1402
-5 15 5 1.1278 0.0592
-5 15 6 -1.6744 -0.0386
-5 15 7 -2.5327 -0.0212
-5 15 8 3.6638 0.0097
-5 15 9 0.3138 0.0106
-5 15 10 -2.0797 0.0055
-5 15 11 0.0179 0.0220
-5 15 12 -0.1219 0.0180
-5 15 13 -0.3069 0.0017
-5 15 14 0.1480 0.0187
-5 15 15 1.5626 -0.0112
-5 16 1 1.3357 0.2190
-5 16 2 -0.2377 -0.0460
-5 16 3 0.7472 -0.1264
-5 16 4 -0.7138 0.0493
-5 16 5 -1.7544 0.0680
-5 16 6 1.2515 0.0146
-5 16 7 -1.5815 -0.0221
-5 16 8 -4.6230 0.0141
-5 16 9 -1.0933 0.0569
-5 16 10 -1.0169 -0.0327
-5 16 11 -1.3036 0.0024
-5 16 12 -0.2973 0.0575
-5 16 13 0.7873 -0.0338
-5 17 1 -2.1369 0.2735
-5 17 2 -1.2191 0.2051
-5 17 3 1.5629 -0.0274
-5 17 4 -0.8277 -0.0617
-5 17 5 0.5038 0.0029
-5 17 6 -0.2694 -0.0062
-5 17 7 -1.1150 -0.0045
-5 17 8 0.2743 -0.0269
-5 17 9 -2.0658 0.0599
-5 17 10 -2.0637 0.0983
-5 17 11 -0.6948 -0.0775
-5 17 12 0.5494 -0.0058
-5 18 1 1.7373 0.0797
-5 18 2 -0.6064 0.1556
-5 18 3 -0.0967 0.0645
-5 18 4 3.3156 -0.0704
-5 18 5 1.1032 -0.0050
-5 18 6 0.9844 -0.0018
-5 18 7 1.6084 -0.0257
-5 18 8 -0.4182 0.0030
-5 18 9 -1.1958 -0.0014
-5 18 10 -1.4539 0.0345
-5 19 1 2.1233 -0.0789
-5 19 2 0.0299 -0.0315
-5 19 3 -1.5241 -0.0152
-5 19 4 -0.2945 -0.0236
-5 19 5 3.4448 -0.1093
-5 19 6 1.7710 0.0242
-5 19 7 -1.1396 0.0817
-5 19 8 0.4460 -0.0465
-5 20 1 0.3255 -0.2177
-5 20 2 1.9693 -0.0472
-5 20 3 0.3169 -0.0065
-5 20 4 -1.9136 -0.0102
-5 20 5 -1.2538 0.0587
-5 20 6 0.1187 -0.0937
-5 21 1 0.3275 -0.0312
-5 21 2 1.4004 -0.0840
-4 -21 4 -0.1172 -0.0672
-4 -21 5 1.5269 0.1154
-4 -21 6 -2.0249 -0.0585
-4 -21 7 -4.2797 0.0553
-4 -21 8 -2.7249 -0.0192
-4 -21 9 -3.3393 -0.0134
-4 -21 10 -1.4731 -0.0038
-4 -21 11 1.4498 -0.0441
-4 -21 12 5.9418 0.0075
-4 -20 1 0.9392 0.0911
-4 -20 2 1.6559 0.1036
-4 -20 3 1.8455 0.0118
-4 -20 4 1.4030 -0.0044
-4 -20 5 0.2706 -0.0332
-4 -20 6 1.6039 0.0435
-4 -20 7 0.0164 -0.0737
-4 -20 8 -1.9784 0.0341
-4 -20 9 -0.8287 -0.0452
-4 -20 10 -1.9607 -0.0098
-4 -20 11 -0.6134 -0.0003
-4 -20 12 1.7234 -0.0455
-4 -20 13 5.0147 -0.0070
-4 -20 14 1.9280 0.0147
-4 -20 15 0.4890 -0.0357
-4 -20 16 0.4708 -0.0059
-4 -19 1 -0.2091 -0.1222
-4 -19 2 0.8001 0.0472
-4 -19 3 -0.5203 0.0748
-4 -19 4 -2.2779 -0.0447
-4 -19 5 2.5247 -0.0016
-4 -19 6 2.4311 -0.0241
-4 -19 7 2.8983 0.0118
-4 -19 8 3.9177 -0.0479
-4 -19 9 2.9616 0.0130
-4 -19 10 1.0841 -0.0106
-4 -19 11 -1.6190 -0.0243
-4 -19 12 0.0906 -0.0089
-4 -19 13 1.1778 -0.0013
-4 -19 14 1.4108 -0.0184
-4 -19 15 -0.3955 0.0260
-4 -19 16 -0.7674 -0.0234
-4 -19 17 0.9315 0.0033
-4 -19 18 1.1463 -0.0577
-4 -18 1 -0.0021 -0.1805
-4 -18 2 -0.2807 -0.1625
-4 -18 3 -0.2835 -0.0184
-4 -18 4 -0.1680 0.0271
-4 -18 5 -2.5014 -0.0215
-4 -18 6 1.2167 0.0105
-4 -18 7 -0.0414 0.0041
-4 -18 8 -0.5013 -0.0017
-4 -18 9 1.4669 -0.0239
-4 -18 10 4.5360 0.0102
-4 -18 11 3.6801 0.0138
-4 -18 12 1.4072 -0.0008
-4 -18 13 5.0179 0.0192
-4 -18 14 3.9630 0.0328
-4 -18 15 0.7769 -0.0040
-4 -18 16 0.1247 0.0286
-4 -18 17 -1.1967 -0.0228
-4 -18 18 0.6175 -0.0026
-4 -18 19 0.6056 -0.0348
-4 -18 20 1.0714 0.0066
-4 -17 1 -0.8910 -0.0353
-4 -17 2 0.2596 -0.0720
-4 -17 3 2.1532 -0.0698
-4 -17 4 -2.4155 0.0064
-4 -17 5 -1.3288 0.0123
-4 -17 6 -3.0911 -0.0026
-4 -17 7 -2.2567 0.0119
-4 -17 8 -3.1939 0.0373
-4 -17 9 -2.7072 0.0211
-4 -17 10 0.8359 0.0300
-4 -17 11 4.4988 0.0243
-4 -17 12 3.0162 0.0072
-4 -17 13 0.6217 0.0077
-4 -17 14 3.3232 0.0216
-4 -17 15 2.8431 0.0117
-4 -17 16 -0.0212 -0.0021
-4 -17 17 -0.8672 0.0193
-4 -17 18 -2.8558 -0.0159
-4 -17 19 0.2728 -0.0115
-4 -17 20 0.1962 -0.0027
-4 -17 21 1.6442 -0.0020
-4 -16 1 0.4369 0.0808
-4 -16 2 -1.2594 0.0383
-4 -16 3 -0.8145 0.0151
-4 -16 4 1.6689 0.0110
-4 -16 5 -1.5835 0.0102
-4 -16 6 1.6464 0.0115
-4 -16 7 0.7290 0.0094
-4 -16 8 1.1108 0.0000
-4 -16 9 -0.9742 0.0442
-4 -16 10 -0.6135 0.0029
-4 -16 11 1.2786 0.0061
-4 -16 12 -1.0506 0.0070
-4 -16 13 0.1795 -0.0167
-4 -16 14 -0.6534 -0.0122
-4 -16 15 -2.4892 0.0160
-4 -16 16 0.3662 -0.0130
-4 -16 17 -0.1207 -0.0191
-4 -16 18 -0.6259 0.0007
-4 -16 19 -4.1478 -0.0028
-4 -16 20 -0.7791 -0.0163
-4 -16 21 0.1268 0.0161
-4 -16 22 -0.0304 0.0010
-4 -15 1 3.1396 0.2853
-4 -15 2 2.3614 0.0715
-4 -15 3 2.6058 -0.0090
-4 -15 4 1.5752 0.0205
-4 -15 5 2.2117 0.0113
-4 -15 6 0.0114 0.0084
-4 -15 7 2.4138 0.0097
-4 -15 8 1.3599 -0.0224
-4 -15 9 0.2739 -0.0246
-4 -15 10 -0.4536 0.0130
-4 -15 11 1.1358 -0.0177
-4 -15 12 2.1813 -0.0238
-4 -15 13 -1.3568 -0.0099
-4 -15 14 0.4119 -0.0173
-4 -15 15 1.2990 -0.0273
-4 -15 16 -2.9360 0.0115
-4 -15 17 -0.9477 -0.0174
-4 -15 18 0.2098 -0.0185
-4 -15 19 1.5500 0.0129
-4 -15 20 -3.3258 0.0106
-4 -15 21 -2.5413 -0.0150
-4 -15 22 -1.0208 0.0140
-4 -15 23 1.3623 0.0178
-4 -14 1 3.0282 0.1689
-4 -14 2 2.6749 0.1793
-4 -14 3 1.0836 -0.0444
-4 -14 4 0.9085 -0.0678
-4 -14 5 -2.2571 -0.0140
-4 -14 6 -2.5553 -0.0015
-4 -14 7 -5.7201 0.0009
-4 -14 8 -1.7594 0.0073
-4 -14 9 0.1120 -0.0308
-4 -14 10 -1.0604 -0.0318
-4 -14 11 -0.1200 -0.0002
-4 -14 12 -1.4171 -0.0137
-4 -14 13 0.5125 -0.0207
-4 -14 14 0.7660 -0.0034
-4 -14 15 -1.5952 -0.0114
-4 -14 16 1.5602 -0.0033
-4 -14 17 -0.3342 0.0216
-4 -14 18 0.3717 -0.0108
-4 -14 19 2.0351 -0.0117
-4 -14 20 2.8891 0.0020
-4 -14 21 0.4557 0.0055
-4 -14 22 0.1594 0.0022
-4 -14 23 -0.4904 0.0031
-4 -14 24 1.4224 0.0269
-4 -13 1 1.0192 -0.3648
-4 -13 2 2.3471 0.0312
-4 -13 3 1.2398 0.1007
-4 -13 4 -1.8428 -0.0562
-4 -13 5 -2.7033 -0.0512
-4 -13 6 -3.8625 0.0100
-4 -13 7 -0.5193 -0.0024
-4 -13 8 -3.5958 -0.0200
-4 -13 9 -2.5398 0.0107
-4 -13 10 0.5960 -0.0319
-4 -13 11 1.4608 -0.0052
-4 -13 12 1.9650 0.0182
-4 -13 13 -0.4336 -0.0012
-4 -13 14 0.8587 0.0076
-4 -13 15 2.8219 0.0096
-4 -13 16 -1.6292 -0.0045
-4 -13 17 0.0176 0.0116
-4 -13 18 -0.8384 0.0122
-4 -13 19 -0.8365 -0.0029
-4 -13 20 2.2436 -0.0014
-4 -13 21 2.7997 0.0028
-4 -13 22 1.7854 -0.0096
-4 -13 23 1.8448 0.0016
-4 -13 24 1.1647 -0.0040
-4 -13 25 -0.0874 -0.0265
-4 -12 1 7.6876 -0.3716
-4 -12 2 0.3298 -0.3375
-4 -12 3 -1.7801 0.0280
-4 -12 4 1.7807 0.1218
-4 -12 5 -1.0281 -0.0206
-4 -12 6 -0.6618 -0.0034
-4 -12 7 -2.0066 0.0298
-4 -12 8 -0.1424 -0.0107
-4 -12 9 -2.8992 -0.0025
-4 -12 10 -1.6944 0.0335
-4 -12 11 1.9391 0.0015
-4 -12 12 2.6794 0.0335
-4 -12 13 3.2951 0.0463
-4 -12 14 1.7729 0.0223
-4 -12 15 -1.5092 0.0217
-4 -12 16 1.7121 0.0121
-4 -12 17 -0.3570 -0.0137
-4 -12 18 -1.8481 0.0060
-4 -12 19 1.1339 0.0105
-4 -12 20 -0.7311 -0.0080
-4 -12 21 0.6669 0.0005
-4 -12 22 3.2689 0.0157
-4 -12 23 2.2972 -0.0035
-4 -12 24 0.1042 -0.0098
-4 -12 25 -0.4980 0.0058
-4 -11 1 1.2209 0.1993
-4 -11 2 1.6167 -0.1332
-4 -11 3 -0.8855 -0.1751
-4 -11 4 -0.8267 0.0713
-4 -11 5 1.8407 0.0859
-4 -11 6 -0.9503 -0.0384
-4 -11 7 4.2685 0.0149
-4 -11 8 -0.0810 0.0528
-4 -11 9 -3.8481 0.0055
-4 -11 10 -5.3981 0.0093
-4 -11 11 -0.1685 0.0291
-4 -11 12 0.9854 0.0023
-4 -11 13 -0.4686 0.0172
-4 -11 14 0.3028 0.0262
-4 -11 15 0.0796 -0.0015
-4 -11 16 -1.8257 0.0094
-4 -11 17 1.2784 0.0047
-4 -11 18 1.7299 -0.0229
-4 -11 19 -1.8726 -0.0107
-4 -11 20 0.9390 0.0038
-4 -11 21 -0.5337 -0.0044
-4 -11 22 -0.3067 -0.0057
-4 -11 23 1.5675 0.0140
-4 -11 24 0.4194 0.0238
-4 -11 25 -0.1309 -0.0080
-4 -11 26 -0.2991 -0.0005
-4 -10 1 2.4477 0.3189
-4 -10 2 0.4860 0.3089
-4 -10 3 -4.1193 0.0117
-4 -10 4 4.2863 -0.0847
-4 -10 5 6.1819 0.0436
-4 -10 6 2.7611 0.0245
-4 -10 7 -0.6811 -0.0374
-4 -10 8 3.8291 0.0348
-4 -10 9 -4.8412 0.0631
-4 -10 10 -4.5528 -0.0013
-4 -10 11 -5.7798 -0.0139
-4 -10 12 -3.6302 -0.0218
-4 -10 13 -1.7121 -0.0372
-4 -10 14 -3.5017 -0.0204
-4 -10 15 -4.3576 0.0002
-4 -10 16 -0.7814 -0.0154
-4 -10 17 1.4019 0.0022
-4 -10 18 -0.8576 0.0130
-4 -10 19 1.5257 -0.0027
-4 -10 20 1.5125 -0.0018
-4 -10 21 0.2673 0.0105
-4 -10 22 -1.2520 -0.0075
-4 -10 23 0.0104 0.0084
-4 -10 24 -0.2220 0.0101
-4 -10 25 -1.2493 -0.0076
-4 -10 26 1.3623 -0.0000
-4 -9 1 -7.0503 0.1387
-4 -9 2 -1.4964 0.1397
-4 -9 3 -0.4862 0.1552
-4 -9 4 0.3274 -0.0046
-4 -9 5 8.5360 -0.0456
-4 -9 6 2.8457 0.0227
-4 -9 7 0.2999 -0.0220
-4 -9 8 -2.2296 -0.0578
-4 -9 9 2.9984 0.0034
-4 -9 10 -5.1603 0.0181
-4 -9 11 -1.5183 -0.0363
-4 -9 12 -1.9190 -0.0241
-4 -9 13 -2.9334 -0.0181
-4 -9 14 -2.2533 -0.0365
-4 -9 15 -2.9030 -0.0197
-4 -9 16 -3.4750 0.0024
-4 -9 17 -0.8016 -0.0097
-4 -9 18 4.3788 0.0217
-4 -9 19 1.0100 0.0232
-4 -9 20 0.4412 -0.0002
-4 -9 21 1.3598 0.0086
-4 -9 22 -0.2461 0.0058
-4 -9 23 0.0520 -0.0122
-4 -9 24 -0.5771 0.0315
-4 -9 25 -0.9605 0.0416
-4 -9 26 0.9845 0.0104
-4 -8 1 -2.6401 0.0622
-4 -8 2 -1.0364 -0.0196
-4 -8 3 -1.7998 -0.0725
-4 -8 4 0.4521 -0.0065
-4 -8 5 -0.2825 -0.0225
-4 -8 6 2.3387 -0.0140
-4 -8 7 -1.7822 0.0243
-4 -8 8 0.4589 -0.0403
-4 -8 9 -0.4495 -0.0925
-4 -8 10 13.0315 -0.0173
-4 -8 11 5.4431 0.0094
-4 -8 12 3.1163 -0.0311
-4 -8 13 0.5478 0.0017
-4 -8 14 -2.9769 0.0127
-4 -8 15 -2.1743 -0.0164
-4 -8 16 -1.4558 0.0031
-4 -8 17 -0.2695 0.0057
-4 -8 18 -0.6922 -0.0166
-4 -8 19 1.0352 0.0059
-4 -8 20 0.9886 0.0073
-4 -8 21 -1.4451 -0.0062
-4 -8 22 -0.6092 0.0047
-4 -8 23 0.0481 0.0098
-4 -8 24 1.2647 0.0042
-4 -8 25 0.4153 0.0167
-4 -8 26 -0.6050 0.0201
-4 -7 1 -7.9018 -0.4206
-4 -7 2 2.2621 0.0171
-4 -7 3 6.0825 -0.0060
-4 -7 4 2.7939 -0.1014
-4 -7 5 1.1469 -0.0296
-4 -7 6 -5.9697 0.0054
-4 -7 7 0.2175 0.0186
-4 -7 8 -0.7475 0.0476
-4 -7 9 8.3667 -0.0075
-4 -7 10 6.8858 -0.0527
-4 -7 11 7.7092 0.0241
-4 -7 12 -1.0064 0.0311
-4 -7 13 -1.1904 0.0000
-4 -7 14 -3.7210 0.0349
-4 -7 15 -4.2987 0.0364
-4 -7 16 -0.8966 -0.0128
-4 -7 17 -1.5966 -0.0049
-4 -7 18 -0.2983 -0.0112
-4 -7 19 0.8405 -0.0289
-4 -7 20 -0.1978 -0.0043
-4 -7 21 1.4035 0.0082
-4 -7 22 -0.8078 0.0026
-4 -7 23 1.1200 0.0101
-4 -7 24 1.8775 -0.0059
-4 -7 25 -0.7756 -0.0225
-4 -7 26 0.2064 -0.0052
-4 -6 1 -3.2801 -0.5270
-4 -6 2 1.6310 -0.3363
-4 -6 3 5.1732 0.1406
-4 -6 4 8.8506 0.1409
-4 -6 5 1.5530 -0.0181
-4 -6 6 -1.1941 -0.0170
-4 -6 7 -0.6706 -0.0137
-4 -6 8 5.5269 0.0097
-4 -6 9 -3.5822 0.0586
-4 -6 10 2.5360 0.0286
-4 -6 11 2.6716 0.0016
-4 -6 12 1.2116 0.0627
-4 -6 13 -4.2982 0.0275
-4 -6 14 -1.8037 -0.0153
-4 -6 15 -0.9353 0.0178
-4 -6 16 -0.1717 0.0114
-4 -6 17 0.0844 -0.0145
-4 -6 18 -1.0014 0.0139
-4 -6 19 0.5250 0.0011
-4 -6 20 0.7171 -0.0147
-4 -6 21 -0.4613 -0.0022
-4 -6 22 4.4031 -0.0031
-4 -6 23 1.7386 -0.0142
-4 -6 24 1.4362 -0.0072
-4 -6 25 3.0381 0.0031
-4 -6 26 -1.2220 -0.0177
-4 -6 27 -1.6632 0.0025
-4 -5 1 -0.4158 0.4282
-4 -5 2 1.5279 -0.2423
-4 -5 3 -2.8413 -0.1918
-4 -5 4 -8.3780 0.1672
-4 -5 5 -5.9531 0.1087
-4 -5 6 -9.8528 -0.0325
-4 -5 7 -0.8255 -0.0051
-4 -5 8 3.7151 -0.0100
-4 -5 9 7.8927 0.0043
-4 -5 10 3.9450 0.0538
-4 -5 11 1.0833 0.0147
-4 -5 12 -2.3259 -0.0079
-4 -5 13 4.7489 0.0275
-4 -5 14 2.9446 -0.0182
-4 -5 15 1.9241 -0.0391
-4 -5 16 4.4029 0.0039
-4 -5 17 3.0733 0.0062
-4 -5 18 -1.5529 -0.0039
-4 -5 19 -1.2028 0.0219
-4 -5 20 -0.4333 0.0146
-4 -5 21 -2.6185 -0.0169
-4 -5 22 -3.0089 -0.0043
-4 -5 23 2.1964 0.0049
-4 -5 24 0.9671 -0.0115
-4 -5 25 -0.5917 -0.0162
-4 -5 26 0.1902 0.0117
-4 -5 27 -1.6121 0.0393
-4 -4 1 0.1839 0.7378
-4 -4 2 -1.6342 0.5248
-4 -4 3 -11.7117 -0.1687
-4 -4 4 -10.2910 -0.2062
-4 -4 5 -7.9867 0.0633
-4 -4 6 -2.3759 0.0258
-4 -4 7 6.2381 -0.0175
-4 -4 8 16.8254 0.0394
-4 -4 9 8.0090 -0.0011
-4 -4 10 1.0322 -0.0441
-4 -4 11 -0.0207 -0.0264
-4 -4 12 0.8492 -0.0465
-4 -4 13 1.9971 -0.0264
-4 -4 14 7.0846 0.0148
-4 -4 15 3.4140 -0.0067
-4 -4 16 1.6100 -0.0248
-4 -4 17 0.3904 0.0022
-4 -4 18 -3.3616 -0.0059
-4 -4 19 -2.7431 -0.0141
-4 -4 20 0.1759 0.0144
-4 -4 21 -1.5661 0.0109
-4 -4 22 -2.8579 -0.0148
-4 -4 23 -2.4911 0.0117
-4 -4 24 -1.4621 0.0151
-4 -4 25 -1.1880 -0.0007
-4 -4 26 -1.6199 -0.0219
-4 -4 27 -0.0875 -0.0272
-4 -3 1 -3.3321 -0.1462
-4 -3 2 4.2886 0.3643
-4 -3 3 -1.3175 0.3206
-4 -3 4 -2.1079 -0.1260
-4 -3 5 13.0990 -0.1293
-4 -3 6 11.4290 0.0464
-4 -3 7 6.6176 -0.0087
-4 -3 8 3.9461 -0.0282
-4 -3 9 0.7944 0.0112
-4 -3 10 0.0044 -0.0338
-4 -3 11 -2.0716 -0.0755
-4 -3 12 -4.0929 -0.0318
-4 -3 13 3.2727 -0.0165
-4 -3 14 5.9792 -0.0001
-4 -3 15 3.3521 0.0252
-4 -3 16 -2.8427 0.0061
-4 -3 17 -3.0275 -0.0060
-4 -3 18 -2.3250 0.0144
-4 -3 19 -4.3920 -0.0184
-4 -3 20 -0.4629 -0.0149
-4 -3 21 2.5205 0.0154
-4 -3 22 1.4733 -0.0014
-4 -3 23 -1.6198 -0.0170
-4 -3 24 -2.0419 0.0249
-4 -3 25 -1.6838 0.0373
-4 -3 26 -1.5882 -0.0313
-4 -2 1 30.6173 -0.4103
-4 -2 2 13.1989 -0.3571
-4 -2 3 -6.3244 0.0492
-4 -2 4 -7.8990 0.1316
-4 -2 5 -1.2192 -0.0611
-4 -2 6 -1.3431 -0.0218
-4 -2 7 -1.1980 0.0445
-4 -2 8 -1.2355 -0.0663
-4 -2 9 -9.1746 -0.0771
-4 -2 10 -8.7642 0.0217
-4 -2 11 -0.5285 0.0226
-4 -2 12 4.2492 -0.0173
-4 -2 13 4.8795 0.0165
-4 -2 14 6.5075 0.0132
-4 -2 15 4.3751 0.0002
-4 -2 16 2.8496 0.0206
-4 -2 17 -1.3996 0.0042
-4 -2 18 -2.9152 0.0023
-4 -2 19 0.2309 0.0294
-4 -2 20 -2.4681 -0.0111
-4 -2 21 -1.6555 -0.0132
-4 -2 22 -0.0577 0.0171
-4 -2 23 -0.5933 -0.0130
-4 -2 24 -3.3926 -0.0184
-4 -2 25 -1.7399 0.0309
-4 -2 26 -2.7883 0.0522
-4 -1 1 1.2096 -0.2422
-4 -1 2 7.8320 -0.2279
-4 -1 3 -1.6133 -0.2492
-4 -1 4 -14.4868 -0.0183
-4 -1 5 0.9021 0.0585
-4 -1 6 5.3078 -0.0216
-4 -1 7 -5.9748 0.0393
-4 -1 8 -9.9292 0.0701
-4 -1 9 -13.1077 -0.0443
-4 -1 10 -10.5449 -0.0505
-4 -1 11 2.4913 0.0606
-4 -1 12 6.7248 0.0424
-4 -1 13 7.3971 0.0061
-4 -1 14 4.7585 0.0284
-4 -1 15 1.9465 0.0041
-4 -1 16 0.8662 -0.0113
-4 -1 17 -0.0018 0.0001
-4 -1 18 0.0015 -0.0088
-4 -1 19 1.0730 0.0084
-4 -1 20 1.5997 0.0283
-4 -1 21 -2.2877 0.0027
-4 -1 22 0.1725 -0.0048
-4 -1 23 0.6676 0.0051
-4 -1 24 0.3735 -0.0401
-4 -1 25 -1.0994 -0.0252
-4 -1 26 0.5470 0.0265
-4 0 1 -6.5872 -0.2785
-4 0 2 3.1002 -0.0510
-4 0 3 18.9184 0.1120
-4 0 4 12.0217 0.0092
-4 0 5 7.4852 0.0057
-4 0 6 10.8198 0.0075
-4 0 7 -3.8107 -0.0276
-4 0 8 -10.0616 0.0766
-4 0 9 -5.4385 0.1025
-4 0 10 -4.7372 0.0008
-4 0 11 -0.8018 -0.0017
-4 0 12 4.4193 0.0598
-4 0 13 3.0260 0.0058
-4 0 14 -0.0930 -0.0210
-4 0 15 -6.7238 0.0031
-4 0 16 -1.9854 -0.0057
-4 0 17 2.7057 -0.0113
-4 0 18 -2.6037 -0.0126
-4 0 19 -0.1320 -0.0202
-4 0 20 1.9378 0.0074
-4 0 21 -0.4471 0.0215
-4 0 22 -1.0627 0.0039
-4 0 23 0.8568 0.0113
-4 0 24 -1.7653 0.0139
-4 0 25 1.3882 -0.0707
-4 0 26 0.2162 -0.0867
-4 1 1 -8.6337 0.4230
-4 1 2 -7.3595 -0.1216
-4 1 3 21.8480 0.0044
-4 1 4 17.1298 0.1817
-4 1 5 9.5785 0.0675
-4 1 6 7.9031 -0.0231
-4 1 7 1.7854 -0.0562
-4 1 8 -0.9052 -0.0639
-4 1 9 0.3051 0.0677
-4 1 10 2.2537 0.0928
-4 1 11 4.1964 -0.0036
-4 1 12 -1.0535 -0.0151
-4 1 13 -3.9560 0.0112
-4 1 14 -1.5789 -0.0337
-4 1 15 -0.5575 -0.0361
-4 1 16 -2.0940 0.0128
-4 1 17 1.0693 0.0107
-4 1 18 1.5939 0.0036
-4 1 19 -4.0788 -0.0034
-4 1 20 -3.4117 -0.0325
-4 1 21 -1.3158 -0.0082
-4 1 22 -2.0442 0.0086
-4 1 23 -1.9240 -0.0029
-4 1 24 1.7393 0.0315
-4 1 25 -1.1119 0.0245
-4 1 26 0.9551 -0.0033
-4 2 1 13.9833 0.8049
-4 2 2 3.3949 0.3780
-4 2 3 9.3100 -0.2239
-4 2 4 27.9944 -0.1103
-4 2 5 12.6726 0.0883
-4 2 6 1.4596 0.0595
-4 2 7 -2.9683 0.0172
-4 2 8 -4.3769 -0.0409
-4 2 9 2.7209 -0.0883
-4 2 10 1.8539 -0.0213
-4 2 11 0.3706 -0.0072
-4 2 12 -1.9037 -0.0524
-4 2 13 -6.7138 -0.0081
-4 2 14 -4.8396 0.0187
-4 2 15 -1.8687 -0.0177
-4 2 16 0.7707 -0.0125
-4 2 17 3.9759 0.0253
-4 2 18 1.4536 0.0107
-4 2 19 -0.5255 0.0019
-4 2 20 -2.4301 0.0030
-4 2 21 -2.5184 -0.0102
-4 2 22 2.9189 -0.0253
-4 2 23 4.9414 -0.0270
-4 2 24 1.4572 -0.0114
-4 2 25 3.2746 0.0298
-4 3 1 7.3344 -0.2458
-4 3 2 14.1836 0.4153
-4 3 3 19.5153 0.1937
-4 3 4 7.1271 -0.2274
-4 3 5 4.6294 -0.1002
-4 3 6 -3.5072 0.0588
-4 3 7 -10.3965 0.0445
-4 3 8 -2.2504 0.0145
-4 3 9 1.5208 -0.0517
-4 3 10 3.5545 -0.0870
-4 3 11 0.9893 -0.0606
-4 3 12 -1.4043 -0.0295
-4 3 13 -5.2341 -0.0226
-4 3 14 -4.5745 0.0266
-4 3 15 -3.1345 0.0369
-4 3 16 -0.6101 -0.0100
-4 3 17 0.1886 -0.0162
-4 3 18 1.2417 0.0149
-4 3 19 1.8125 -0.0088
-4 3 20 -0.6084 -0.0051
-4 3 21 -0.6869 0.0113
-4 3 22 0.5558 0.0206
-4 3 23 -1.3822 -0.0022
-4 3 24 1.6339 -0.0368
-4 3 25 1.9337 -0.0575
-4 4 1 7.7053 -0.7713
-4 4 2 14.4165 -0.3855
-4 4 3 0.8655 0.2044
-4 4 4 -0.6014 0.1433
-4 4 5 -5.7961 -0.1005
-4 4 6 -1.9891 -0.0494
-4 4 7 2.8813 0.0177
-4 4 8 -1.7643 -0.0243
-4 4 9 8.1152 -0.0061
-4 4 10 6.0172 0.0209
-4 4 11 0.5785 0.0091
-4 4 12 -2.5032 -0.0017
-4 4 13 0.9175 0.0025
-4 4 14 1.5463 -0.0092
-4 4 15 1.2281 0.0201
-4 4 16 -2.6734 0.0170
-4 4 17 -4.1353 -0.0161
-4 4 18 -4.4954 -0.0166
-4 4 19 -2.3232 0.0033
-4 4 20 0.2881 -0.0040
-4 4 21 -1.8654 0.0124
-4 4 22 -1.3653 0.0242
-4 4 23 3.2550 0.0212
-4 4 24 -1.0797 -0.0060
-4 5 1 15.1449 -0.0842
-4 5 2 8.5912 -0.4614
-4 5 3 11.8700 -0.2618
-4 5 4 -7.1596 0.1367
-4 5 5 -8.1495 0.0810
-4 5 6 5.2863 -0.0524
-4 5 7 5.1810 0.0065
-4 5 8 9.3386 0.0269
-4 5 9 -0.2538 -0.0319
-4 5 10 1.4765 0.0208
-4 5 11 4.0537 0.0738
-4 5 12 0.5195 0.0558
-4 5 13 -4.7863 0.0246
-4 5 14 0.0261 -0.0114
-4 5 15 0.2210 -0.0139
-4 5 16 -0.9542 0.0037
-4 5 17 -4.2548 0.0069
-4 5 18 -7.3781 0.0083
-4 5 19 -4.4203 -0.0068
-4 5 20 0.8103 0.0177
-4 5 21 1.1621 -0.0162
-4 5 22 2.9221 -0.0248
-4 5 23 0.9972 0.0689
-4 5 24 2.5759 0.0152
-4 6 1 5.8670 0.2902
-4 6 2 6.6585 0.1903
-4 6 3 -3.2318 -0.1027
-4 6 4 -4.8512 -0.1229
-4 6 5 -8.3504 0.0474
-4 6 6 -6.5059 -0.0208
-4 6 7 8.7675 -0.0310
-4 6 8 6.2483 0.0766
-4 6 9 6.5302 0.0532
-4 6 10 -2.9600 -0.0170
-4 6 11 -3.3020 -0.0076
-4 6 12 1.0625 0.0349
-4 6 13 0.0975 0.0249
-4 6 14 -4.1511 -0.0015
-4 6 15 -2.0830 -0.0008
-4 6 16 -2.3260 -0.0011
-4 6 17 -1.1291 0.0101
-4 6 18 -1.2102 0.0134
-4 6 19 -2.4884 -0.0203
-4 6 20 -1.2679 -0.0126
-4 6 21 3.3264 0.0029
-4 6 22 -1.0499 -0.0191
-4 6 23 -0.6485 0.0200
-4 7 1 3.8237 0.3280
-4 7 2 -8.0385 0.2422
-4 7 3 -3.7033 0.1787
-4 7 4 -4.1754 0.0171
-4 7 5 -4.7159 -0.0314
-4 7 6 2.0188 0.0023
-4 7 7 0.6493 -0.0576
-4 7 8 7.7934 -0.0230
-4 7 9 1.9267 0.0832
-4 7 10 -1.4970 0.0392
-4 7 11 -4.9368 -0.0469
-4 7 12 -2.9393 -0.0409
-4 7 13 1.0546 -0.0023
-4 7 14 1.0527 -0.0115
-4 7 15 -3.2962 -0.0005
-4 7 16 -3.6245 0.0007
-4 7 17 -3.8018 -0.0015
-4 7 18 -0.8603 0.0120
-4 7 19 -0.5081 0.0007
-4 7 20 -0.3079 0.0160
-4 7 21 -1.1013 -0.0188
-4 7 22 1.7122 -0.0867
-4 7 23 -0.5430 0.0232
-4 8 1 1.7159 0.3633
-4 8 2 -0.7103 0.0997
-4 8 3 0.3110 -0.0587
-4 8 4 5.6221 0.0038
-4 8 5 6.8187 0.0214
-4 8 6 2.9861 0.0700
-4 8 7 0.5735 0.0353
-4 8 8 -6.6620 -0.0827
-4 8 9 0.1875 -0.0721
-4 8 10 0.3940 0.0176
-4 8 11 -0.1614 -0.0105
-4 8 12 -2.4039 -0.0440
-4 8 13 -2.9699 -0.0137
-4 8 14 -2.8234 -0.0091
-4 8 15 -2.9996 -0.0218
-4 8 16 -4.5262 -0.0135
-4 8 17 -3.3375 0.0099
-4 8 18 -1.3191 0.0230
-4 8 19 2.6858 0.0042
-4 8 20 -0.0780 0.0163
-4 8 21 0.7599 0.0127
-4 8 22 0.7554 -0.0400
-4 9 1 -3.9988 -0.2103
-4 9 2 -4.8869 0.1377
-4 9 3 1.8001 -0.0262
-4 9 4 5.8590 -0.1541
-4 9 5 5.8708 -0.0354
-4 9 6 1.3180 0.0351
-4 9 7 -3.1483 0.0939
-4 9 8 -2.0656 0.0216
-4 9 9 -9.2102 -0.0867
-4 9 10 -3.8631 -0.0603
-4 9 11 -0.0360 -0.0062
-4 9 12 -0.9527 -0.0009
-4 9 13 -3.6041 -0.0020
-4 9 14 -3.1082 0.0279
-4 9 15 -2.7135 0.0229
-4 9 16 -0.7981 -0.0266
-4 9 17 -1.8081 -0.0239
-4 9 18 -0.2431 -0.0173
-4 9 19 0.7924 -0.0032
-4 9 20 1.6081 0.0779
-4 9 21 0.6562 0.0318
-4 10 1 -6.8105 -0.6696
-4 10 2 -5.0794 -0.2151
-4 10 3 0.0669 0.1673
-4 10 4 3.2369 0.0780
-4 10 5 3.6862 -0.0950
-4 10 6 5.6459 -0.0673
-4 10 7 1.6422 -0.0113
-4 10 8 -2.9255 0.0452
-4 10 9 1.3205 0.0353
-4 10 10 -5.9697 -0.0064
-4 10 11 -4.3731 0.0136
-4 10 12 -0.4956 0.0235
-4 10 13 -0.9371 0.0038
-4 10 14 -3.6331 0.0142
-4 10 15 -1.9371 0.0358
-4 10 16 -1.8642 0.0061
-4 10 17 -0.7898 -0.0125
-4 10 18 -0.8341 -0.0310
-4 10 19 0.6092 -0.0384
-4 10 20 -0.3815 0.0433
-4 11 1 -0.4405 -0.0463
-4 11 2 -0.8285 -0.3972
-4 11 3 3.0068 -0.1005
-4 11 4 4.3900 0.1759
-4 11 5 4.9446 0.0705
-4 11 6 1.3026 -0.0590
-4 11 7 -0.8586 -0.0559
-4 11 8 3.3376 -0.0186
-4 11 9 1.1900 0.0408
-4 11 10 2.4503 0.0524
-4 11 11 -2.0530 0.0405
-4 11 12 -3.4954 0.0413
-4 11 13 -4.1972 -0.0003
-4 11 14 -2.5956 -0.0232
-4 11 15 -1.1262 -0.0046
-4 11 16 1.9577 0.0247
-4 11 17 1.0656 0.0466
-4 11 18 0.8044 -0.0360
-4 11 19 1.2276 -0.0947
-4 12 1 -2.9217 0.4956
-4 12 2 1.6459 0.1318
-4 12 3 3.3522 -0.1912
-4 12 4 0.4916 -0.0700
-4 12 5 -0.6857 0.0930
-4 12 6 1.6027 0.0132
-4 12 7 -0.6366 -0.0128
-4 12 8 -3.9146 0.0185
-4 12 9 3.9846 0.0225
-4 12 10 1.9104 -0.0017
-4 12 11 -1.1429 -0.0276
-4 12 12 -0.9674 0.0143
-4 12 13 -0.2274 0.0142
-4 12 14 -2.0143 0.0052
-4 12 15 1.2511 -0.0110
-4 12 16 3.5306 -0.0313
-4 12 17 2.5337 0.0485
-4 12 18 0.9158 0.0405
-4 13 1 -2.1564 0.2620
-4 13 2 -2.2451 0.3625
-4 13 3 0.6731 0.1121
-4 13 4 1.3561 -0.0979
-4 13 5 -1.5756 -0.0497
-4 13 6 0.5334 0.0528
-4 13 7 3.6196 0.0024
-4 13 8 3.0563 -0.0037
-4 13 9 -2.7935 0.0325
-4 13 10 1.5397 -0.0083
-4 13 11 1.6531 -0.0458
-4 13 12 -0.4912 -0.0531
-4 13 13 1.1472 -0.0084
-4 13 14 -0.1262 0.0205
-4 13 15 -1.6474 -0.0131
-4 13 16 0.5418 -0.0208
-4 13 17 1.1046 0.0687
-4 14 1 -1.5860 -0.0539
-4 14 2 -3.6733 0.0300
-4 14 3 0.3467 0.0929
-4 14 4 1.8367 0.0207
-4 14 5 1.2447 -0.0251
-4 14 6 -0.8958 0.0423
-4 14 7 -0.0889 0.0341
-4 14 8 2.6757 -0.0703
-4 14 9 3.4752 -0.0342
-4 14 10 -2.8211 0.0227
-4 14 11 -2.1985 -0.0059
-4 14 12 -0.6850 -0.0159
-4 14 13 0.3695 -0.0531
-4 14 14 2.3042 0.0290
-4 14 15 -0.9254 0.0551
-4 14 16 -1.0978 -0.0664
-4 15 1 2.0276 -0.2656
-4 15 2 0.6113 -0.1184
-4 15 3 -2.0698 -0.0627
-4 15 4 0.2244 -0.0221
-4 15 5 1.9571 -0.0106
-4 15 6 -0.0370 -0.0162
-4 15 7 -2.8468 0.0555
-4 15 8 -0.3775 0.0006
-4 15 9 0.5990 -0.0773
-4 15 10 2.0848 -0.0333
-4 15 11 -0.4745 0.0233
-4 15 12 0.1290 0.0612
-4 15 13 2.9657 0.0192
-4 15 14 2.5991 -0.0386
-4 15 15 2.7049 0.0190
-4 16 1 0.1423 -0.2713
-4 16 2 -0.9855 -0.1194
-4 16 3 -0.1568 0.0192
-4 16 4 -2.8814 0.0034
-4 16 5 -2.2490 -0.0510
-4 16 6 3.9329 -0.0497
-4 16 7 0.7621 -0.0097
-4 16 8 -4.5210 0.0494
-4 16 9 -0.3868 0.0192
-4 16 10 -0.3130 0.0162
-4 16 11 2.4247 0.0302
-4 16 12 0.4298 0.0002
-4 16 13 0.9356 -0.0160
-4 16 14 4.0423 0.0105
-4 17 1 1.5281 0.0533
-4 17 2 -2.6172 -0.1148
-4 17 3 -2.3424 -0.0062
-4 17 4 -2.2350 0.0889
-4 17 5 -4.1012 0.0349
-4 17 6 -2.2466 -0.0563
-4 17 7 2.2599 -0.0583
-4 17 8 1.2987 0.0082
-4 17 9 -3.9820 0.0985
-4 17 10 -0.5320 0.0207
-4 17 11 -0.0830 -0.0463
-4 17 12 2.2460 0.0609
-4 18 1 -0.4846 0.3125
-4 18 2 1.4707 0.1002
-4 18 3 -0.3378 -0.0878
-4 18 4 -0.1484 -0.0173
-4 18 5 -1.1151 0.0826
-4 18 6 -2.6784 -0.0094
-4 18 7 -1.6735 0.0076
-4 18 8 -0.2374 0.0139
-4 18 9 1.6176 -0.0439
-4 18 10 -2.0084 0.1061
-4 19 1 1.4315 0.1346
-4 19 2 -0.6474 0.1930
-4 19 3 0.7769 0.0271
-4 19 4 1.5201 -0.1396
-4 19 5 1.9861 -0.0142
-4 19 6 1.8460 0.1263
-4 19 7 -1.5419 -0.0067
-4 19 8 -1.3997 0.0569
-4 20 1 -1.8444 -0.1890
-4 20 2 0.9655 -0.0460
-4 20 3 0.0973 0.0158
-4 20 4 -0.8253 0.0137
-4 20 5 1.9220 -0.0320
-4 20 6 2.0814 0.0121
-4 21 1 2.3076 -0.2489
-4 21 2 0.3878 -0.1266
-4 21 3 1.3696 0.0198
-3 -21 1 1.8367 -0.0243
-3 -21 2 2.4814 0.0059
-3 -21 3 -1.8867 0.0521
-3 -21 4 -4.6429 -0.0601
-3 -21 5 -1.2719 0.0143
-3 -21 6 -1.6396 -0.0536
-3 -21 7 -3.0407 0.0332
-3 -21 8 -0.9436 -0.0231
-3 -21 9 -0.5244 0.0163
-3 -21 10 -0.1784 -0.0191
-3 -21 11 -0.5782 0.0463
-3 -21 12 3.0342 -0.0036
-3 -21 13 1.2687 0.0289
-3 -21 14 -0.7742 0.0470
-3 -20 1 1.1733 0.1245
-3 -20 2 1.9022 -0.0165
-3 -20 3 3.0438 0.0439
-3 -20 4 -2.6411 0.0343
-3 -20 5 -4.7992 -0.0276
-3 -20 6 -1.3208 0.0315
-3 -20 7 -2.4766 -0.0567
-3 -20 8 -4.0257 0.0211
-3 -20 9 -0.3966 -0.0217
-3 -20 10 0.4440 0.0040
-3 -20 11 0.9207 0.0100
-3 -20 12 1.3268 0.0363
-3 -20 13 4.4066 -0.0125
-3 -20 14 3.2365 0.0225
-3 -20 15 -0.1424 -0.0211
-3 -20 16 -3.4074 0.0326
-3 -20 17 -2.5033 -0.0325
-3 -19 1 0.1243 0.1704
-3 -19 2 1.8229 0.0821
-3 -19 3 1.6825 -0.0176
-3 -19 4 -0.1440 -0.0014
-3 -19 5 -1.2709 -0.0135
-3 -19 6 0.2066 -0.0088
-3 -19 7 1.5167 0.0007
-3 -19 8 0.8727 -0.0341
-3 -19 9 -0.8117 -0.0033
-3 -19 10 -0.4297 -0.0194
-3 -19 11 -1.7705 0.0157
-3 -19 12 -3.3233 -0.0138
-3 -19 13 -1.5940 -0.0026
-3 -19 14 1.1679 -0.0344
-3 -19 15 1.2868 0.0077
-3 -19 16 0.3161 -0.0232
-3 -19 17 -0.9193 0.0201
-3 -19 18 -0.6088 -0.0181
-3 -19 19 -0.7285 0.0374
-3 -18 1 1.6175 -0.0692
-3 -18 2 -1.4524 0.0681
-3 -18 3 1.8595 0.0107
-3 -18 4 0.1680 -0.0520
-3 -18 5 -3.1204 -0.0030
-3 -18 6 -0.1311 -0.0076
-3 -18 7 2.0266 0.0033
-3 -18 8 1.7151 0.0070
-3 -18 9 0.7709 -0.0097
-3 -18 10 0.4056 -0.0264
-3 -18 11 0.5048 -0.0153
-3 -18 12 -1.4882 -0.0026
-3 -18 13 -3.9740 -0.0135
-3 -18 14 -1.7322 0.0183
-3 -18 15 0.8270 -0.0079
-3 -18 16 0.8433 0.0080
-3 -18 17 0.5130 -0.0084
-3 -18 18 0.2531 -0.0026
-3 -18 19 1.6512 -0.0090
-3 -18 20 0.8923 0.0168
-3 -17 1 -2.5668 -0.3451
-3 -17 2 -1.0607 -0.1105
-3 -17 3 -0.4570 0.0550
-3 -17 4 1.0921 0.0146
-3 -17 5 -2.4190 -0.0247
-3 -17 6 -4.0810 0.0068
-3 -17 7 -1.9318 -0.0131
-3 -17 8 -0.7553 0.0050
-3 -17 9 0.5743 0.0126
-3 -17 10 0.5153 0.0149
-3 -17 11 3.9633 -0.0099
-3 -17 12 3.0872 0.0165
-3 -17 13 -1.0984 0.0117
-3 -17 14 -0.8829 0.0053
-3 -17 15 -0.4883 0.0117
-3 -17 16 -0.9079 0.0049
-3 -17 17 -0.4396 -0.0034
-3 -17 18 2.2343 -0.0028
-3 -17 19 1.3340 -0.0096
-3 -17 20 -0.2404 0.0099
-3 -17 21 1.6196 0.0098
-3 -17 22 0.8679 0.0281
-3 -16 1 -1.1813 -0.1212
-3 -16 2 -5.0082 -0.2288
-3 -16 3 -3.9684 -0.0709
-3 -16 4 0.5426 0.0629
-3 -16 5 2.4430 0.0052
-3 -16 6 -0.1136 -0.0191
-3 -16 7 -1.5166 0.0229
-3 -16 8 2.1961 -0.0051
-3 -16 9 1.8998 0.0274
-3 -16 10 0.2087 0.0426
-3 -16 11 0.5819 0.0409
-3 -16 12 1.2686 0.0055
-3 -16 13 -1.0149 0.0180
-3 -16 14 -3.6254 0.0090
-3 -16 15 -1.0762 0.0126
-3 -16 16 1.1971 -0.0053
-3 -16 17 -1.0520 0.0017
-3 -16 18 -3.0651 -0.0034
-3 -16 19 2.1584 0.0103
-3 -16 20 2.7001 -0.0051
-3 -16 21 -0.4712 0.0028
-3 -16 22 0.5462 0.0006
-3 -16 23 -2.1642 -0.0128
-3 -15 1 -1.3556 0.2820
-3 -15 2 2.0076 0.0548
-3 -15 3 -1.4627 -0.1046
-3 -15 4 -0.8850 -0.0339
-3 -15 5 1.8331 0.0531
-3 -15 6 3.7808 -0.0151
-3 -15 7 2.8701 0.0032
-3 -15 8 0.8792 0.0413
-3 -15 9 3.7263 -0.0003
-3 -15 10 0.8091 0.0111
-3 -15 11 -0.5675 0.0176
-3 -15 12 2.8842 0.0192
-3 -15 13 0.5757 -0.0132
-3 -15 14 0.0438 -0.0039
-3 -15 15 -0.3705 -0.0130
-3 -15 16 0.2778 -0.0084
-3 -15 17 2.2626 -0.0029
-3 -15 18 -0.0119 -0.0087
-3 -15 19 -1.2400 0.0054
-3 -15 20 -0.3777 0.0171
-3 -15 21 0.5254 -0.0044
-3 -15 22 0.3618 -0.0077
-3 -15 23 0.6095 -0.0033
-3 -14 1 3.2870 0.2109
-3 -14 2 0.8636 0.2451
-3 -14 3 2.8294 0.0804
-3 -14 4 0.0903 -0.0467
-3 -14 5 -1.0075 0.0002
-3 -14 6 -1.0020 0.0246
-3 -14 7 -2.1609 -0.0296
-3 -14 8 -0.7419 -0.0148
-3 -14 9 -0.9170 0.0148
-3 -14 10 -0.1028 -0.0219
-3 -14 11 -0.3951 -0.0308
-3 -14 12 -2.4194 0.0068
-3 -14 13 1.1121 -0.0033
-3 -14 14 1.2597 -0.0191
-3 -14 15 -0.5180 -0.0057
-3 -14 16 2.1013 -0.0064
-3 -14 17 2.6962 -0.0032
-3 -14 18 3.0502 0.0179
-3 -14 19 0.0842 -0.0065
-3 -14 20 -1.7773 0.0118
-3 -14 21 -0.9132 0.0076
-3 -14 22 1.3303 0.0028
-3 -14 23 -1.7062 -0.0146
-3 -14 24 -0.8181 0.0090
-3 -13 1 -1.0307 0.0372
-3 -13 2 1.7315 0.0327
-3 -13 3 -1.5841 0.0661
-3 -13 4 -1.2641 0.0308
-3 -13 5 -2.7160 -0.0221
-3 -13 6 -3.8109 0.0156
-3 -13 7 -0.1622 0.0069
-3 -13 8 -0.2461 -0.0686
-3 -13 9 0.7379 -0.0426
-3 -13 10 -1.2652 -0.0078
-3 -13 11 -2.7248 -0.0299
-3 -13 12 -0.2023 -0.0264
-3 -13 13 -1.2617 0.0166
-3 -13 14 0.3846 -0.0074
-3 -13 15 2.5159 -0.0042
-3 -13 16 -1.4329 -0.0025
-3 -13 17 2.3886 0.0066
-3 -13 18 2.2920 -0.0081
-3 -13 19 2.3469 0.0199
-3 -13 20 0.6421 -0.0083
-3 -13 21 -2.1026 -0.0042
-3 -13 22 1.9338 0.0003
-3 -13 23 6.4625 0.0119
-3 -13 24 0.9882 -0.0132
-3 -13 25 -1.2126 -0.0302
-3 -12 1 4.8559 -0.1405
-3 -12 2 -1.7993 -0.0392
-3 -12 3 -3.2393 -0.0865
-3 -12 4 -4.5088 -0.0374
-3 -12 5 -2.3956 0.0153
-3 -12 6 -0.5256 -0.0063
-3 -12 7 -0.6404 0.0325
-3 -12 8 3.3583 0.0075
-3 -12 9 -0.3008 -0.0559
-3 -12 10 0.5443 -0.0152
-3 -12 11 1.3424 -0.0045
-3 -12 12 -0.0973 -0.0143
-3 -12 13 -0.6153 -0.0061
-3 -12 14 -0.8376 0.0327
-3 -12 15 -1.3392 0.0013
-3 -12 16 1.7765 0.0035
-3 -12 17 -2.2857 0.0016
-3 -12 18 1.0055 -0.0042
-3 -12 19 3.3798 -0.0196
-3 -12 20 2.1993 0.0076
-3 -12 21 1.7309 0.0021
-3 -12 22 0.1969 0.0020
-3 -12 23 2.6614 -0.0166
-3 -12 24 4.3609 -0.0240
-3 -12 25 0.6145 -0.0202
-3 -11 1 2.0590 -0.4807
-3 -11 2 4.7748 -0.0916
-3 -11 3 -4.5007 0.0589
-3 -11 4 -7.8829 -0.0384
-3 -11 5 -2.1233 -0.0380
-3 -11 6 -2.6428 -0.0112
-3 -11 7 -0.7968 -0.0074
-3 -11 8 0.9961 0.0505
-3 -11 9 4.5020 0.0415
-3 -11 10 -2.3232 -0.0094
-3 -11 11 0.9852 0.0237
-3 -11 12 2.6579 0.0244
-3 -11 13 1.8834 -0.0003
-3 -11 14 -0.2818 0.0061
-3 -11 15 -1.8867 0.0269
-3 -11 16 -4.7468 -0.0020
-3 -11 17 0.9653 -0.0024
-3 -11 18 -0.5101 0.0033
-3 -11 19 -2.4959 -0.0018
-3 -11 20 3.0353 -0.0092
-3 -11 21 0.5812 -0.0012
-3 -11 22 -2.0617 -0.0011
-3 -11 23 -2.2213 0.0011
-3 -11 24 0.3212 0.0187
-3 -11 25 -0.2523 -0.0257
-3 -11 26 -0.4350 -0.0284
-3 -10 1 0.3372 -0.1292
-3 -10 2 0.3021 -0.2852
-3 -10 3 2.3715 0.0425
-3 -10 4 -3.3498 0.1292
-3 -10 5 -2.7549 -0.0203
-3 -10 6 2.2003 -0.0317
-3 -10 7 -5.0832 -0.0204
-3 -10 8 -2.8254 -0.0161
-3 -10 9 -4.6989 0.0587
-3 -10 10 0.6916 0.0645
-3 -10 11 -2.0568 0.0202
-3 -10 12 3.1635 0.0292
-3 -10 13 0.8667 0.0146
-3 -10 14 -0.8797 -0.0257
-3 -10 15 -1.0960 -0.0174
-3 -10 16 -1.3033 0.0007
-3 -10 17 -3.8254 -0.0089
-3 -10 18 -1.8717 -0.0012
-3 -10 19 1.2095 0.0185
-3 -10 20 -1.3476 -0.0099
-3 -10 21 3.7471 -0.0022
-3 -10 22 0.9171 0.0093
-3 -10 23 -0.8031 -0.0134
-3 -10 24 -0.2936 -0.0144
-3 -10 25 0.4456 0.0005
-3 -10 26 0.5620 -0.0513
-3 -9 1 -8.0561 0.6483
-3 -9 2 -3.6560 0.0378
-3 -9 3 2.9322 -0.2103
-3 -9 4 6.2076 0.0270
-3 -9 5 9.9260 0.0901
-3 -9 6 4.5377 -0.0218
-3 -9 7 -2.8741 -0.0012
-3 -9 8 -12.9672 0.0120
-3 -9 9 -5.7167 -0.0127
-3 -9 10 -11.7800 0.0165
-3 -9 11 -4.7753 0.0115
-3 -9 12 -5.1748 -0.0055
-3 -9 13 -0.1509 0.0101
-3 -9 14 -0.3723 0.0056
-3 -9 15 -1.9875 -0.0277
-3 -9 16 -0.7946 -0.0082
-3 -9 17 0.3070 -0.0001
-3 -9 18 2.1568 -0.0155
-3 -9 19 -1.6590 0.0051
-3 -9 20 0.6907 0.0177
-3 -9 21 1.2540 -0.0115
-3 -9 22 2.9524 -0.0045
-3 -9 23 1.3739 -0.0102
-3 -9 24 2.0564 -0.0139
-3 -9 25 -0.9440 0.0079
-3 -9 26 -0.2269 -0.0190
-3 -8 1 2.2201 0.3749
-3 -8 2 -6.6681 0.5143
-3 -8 3 -1.8944 0.0288
-3 -8 4 3.6901 -0.1826
-3 -8 5 4.5787 0.0092
-3 -8 6 6.7621 0.0575
-3 -8 7 -0.4059 -0.0133
-3 -8 8 -4.1768 0.0091
-3 -8 9 -16.7422 -0.0028
-3 -8 10 -1.5447 -0.0517
-3 -8 11 -0.4310 -0.0356
-3 -8 12 1.5061 -0.0278
-3 -8 13 -1.3098 -0.0176
-3 -8 14 0.3172 0.0155
-3 -8 15 0.3378 0.0083
-3 -8 16 0.6982 -0.0053
-3 -8 17 2.6129 0.0134
-3 -8 18 0.6871 0.0143
-3 -8 19 1.9481 -0.0047
-3 -8 20 -2.6028 -0.0001
-3 -8 21 -1.0646 -0.0104
-3 -8 22 -1.1069 -0.0101
-3 -8 23 -0.5643 0.0055
-3 -8 24 2.6730 0.0151
-3 -8 25 3.2003 -0.0001
-3 -8 26 -2.2918 0.0106
-3 -7 1 -3.7536 -0.3909
-3 -7 2 6.0331 0.0532
-3 -7 3 2.2057 0.2589
-3 -7 4 -2.6070 -0.0034
-3 -7 5 0.0882 -0.1109
-3 -7 6 -9.3943 0.0362
-3 -7 7 -6.7444 0.0036
-3 -7 8 -0.6126 -0.0733
-3 -7 9 7.7120 -0.0150
-3 -7 10 -2.8546 -0.0073
-3 -7 11 4.1279 -0.0404
-3 -7 12 -1.0127 -0.0261
-3 -7 13 -1.3628 -0.0133
-3 -7 14 -2.7942 -0.0118
-3 -7 15 -2.0234 0.0258
-3 -7 16 0.7643 0.0165
-3 -7 17 2.3147 0.0077
-3 -7 18 4.5073 0.0064
-3 -7 19 1.9244 0.0016
-3 -7 20 0.0962 -0.0122
-3 -7 21 -3.8908 0.0091
-3 -7 22 -3.4724 -0.0009
-3 -7 23 -1.5586 -0.0010
-3 -7 24 -0.4143 -0.0035
-3 -7 25 0.4468 0.0136
-3 -7 26 0.5084 -0.0057
-3 -7 27 -1.1471 -0.0306
-3 -6 1 -7.4494 -0.3739
-3 -6 2 2.7360 -0.4385
-3 -6 3 12.4895 -0.1278
-3 -6 4 6.9121 0.1148
-3 -6 5 -1.0858 0.0063
-3 -6 6 -5.0499 -0.0492
-3 -6 7 -10.6284 0.0406
-3 -6 8 2.6100 -0.0272
-3 -6 9 -2.7042 -0.0899
-3 -6 10 1.5952 -0.0014
-3 -6 11 -1.5693 0.0171
-3 -6 12 -5.2167 -0.0014
-3 -6 13 -9.0183 0.0129
-3 -6 14 -2.6521 0.0166
-3 -6 15 -2.2639 -0.0103
-3 -6 16 -1.2409 0.0036
-3 -6 17 1.0949 -0.0149
-3 -6 18 1.4227 -0.0061
-3 -6 19 1.9081 0.0017
-3 -6 20 1.6369 0.0120
-3 -6 21 1.2775 0.0040
-3 -6 22 -0.4799 0.0104
-3 -6 23 -1.9477 -0.0050
-3 -6 24 -0.2389 -0.0138
-3 -6 25 1.5552 -0.0057
-3 -6 26 0.1552 0.0092
-3 -6 27 -0.7990 0.0117
-3 -5 1 3.4709 -0.2066
-3 -5 2 10.8283 -0.0781
-3 -5 3 5.3104 -0.1543
-3 -5 4 -2.5672 -0.0763
-3 -5 5 1.7232 0.0368
-3 -5 6 -11.5919 -0.0267
-3 -5 7 -20.7849 -0.0033
-3 -5 8 -15.5944 0.0818
-3 -5 9 1.6604 0.0101
-3 -5 10 -2.6166 -0.0361
-3 -5 11 -3.0634 0.0457
-3 -5 12 -5.0007 0.0380
-3 -5 13 -4.0913 0.0094
-3 -5 14 -2.2624 0.0072
-3 -5 15 1.7401 0.0010
-3 -5 16 0.1721 -0.0180
-3 -5 17 2.1578 -0.0038
-3 -5 18 -0.4380 -0.0064
-3 -5 19 -1.5949 -0.0049
-3 -5 20 1.6773 -0.0002
-3 -5 21 1.2323 0.0056
-3 -5 22 0.4068 0.0008
-3 -5 23 2.3181 0.0126
-3 -5 24 1.1319 -0.0055
-3 -5 25 0.1556 -0.0352
-3 -5 26 0.2523 0.0184
-3 -5 27 -0.7024 0.0401
-3 -4 1 13.8602 -0.0140
-3 -4 2 14.6198 0.0119
-3 -4 3 2.8257 0.1639
-3 -4 4 -17.1181 0.0445
-3 -4 5 -22.2756 -0.0375
-3 -4 6 -6.4020 -0.0147
-3 -4 7 -5.1391 -0.0536
-3 -4 8 0.8690 0.0412
-3 -4 9 -3.1402 0.1394
-3 -4 10 -4.6965 0.0537
-3 -4 11 -0.1114 -0.0046
-3 -4 12 -0.5746 0.0239
-3 -4 13 -4.4555 -0.0048
-3 -4 14 3.4423 -0.0237
-3 -4 15 6.5817 0.0009
-3 -4 16 3.6303 0.0128
-3 -4 17 -1.5407 0.0006
-3 -4 18 0.2447 0.0083
-3 -4 19 -3.4805 -0.0014
-3 -4 20 -4.0741 -0.0198
-3 -4 21 0.1372 -0.0019
-3 -4 22 -1.8655 -0.0097
-3 -4 23 -2.2154 -0.0030
-3 -4 24 -1.6874 0.0185
-3 -4 25 -2.7156 0.0271
-3 -4 26 -0.5524 -0.0206
-3 -4 27 -0.4473 -0.0140
-3 -3 1 -32.6741 0.6664
-3 -3 2 1.4553 0.0172
-3 -3 3 11.9825 -0.0624
-3 -3 4 -3.2165 0.1415
-3 -3 5 6.4205 0.0906
-3 -3 6 21.3561 0.0139
-3 -3 7 20.8099 0.0226
-3 -3 8 11.8476 -0.0149
-3 -3 9 6.1026 0.0275
-3 -3 10 -6.1341 0.0560
-3 -3 11 -8.2075 -0.0193
-3 -3 12 -0.2352 -0.0283
-3 -3 13 2.8897 0.0051
-3 -3 14 2.8592 -0.0156
-3 -3 15 3.6849 -0.0353
-3 -3 16 -0.0479 -0.0027
-3 -3 17 -2.4736 0.0108
-3 -3 18 -5.2264 0.0066
-3 -3 19 -2.7374 0.0153
-3 -3 20 -1.2376 0.0115
-3 -3 21 -0.6188 -0.0178
-3 -3 22 1.2226 -0.0110
-3 -3 23 -0.1134 -0.0202
-3 -3 24 0.6898 -0.0066
-3 -3 25 0.2587 0.0170
-3 -3 26 -1.7926 0.0333
-3 -2 1 17.6741 0.4633
-3 -2 2 -5.1581 0.4936
-3 -2 3 2.9507 -0.1051
-3 -2 4 0.3074 -0.2033
-3 -2 5 -3.5785 0.0673
-3 -2 6 10.3391 0.1192
-3 -2 7 9.7088 0.0525
-3 -2 8 7.7807 -0.0101
-3 -2 9 3.2958 -0.0637
-3 -2 10 -10.1579 -0.0451
-3 -2 11 -8.0462 -0.0040
-3 -2 12 1.1119 -0.0248
-3 -2 13 5.5721 -0.0010
-3 -2 14 3.1339 0.0308
-3 -2 15 1.0897 -0.0126
-3 -2 16 2.3164 -0.0358
-3 -2 17 -1.1790 -0.0021
-3 -2 18 -3.8322 -0.0013
-3 -2 19 -3.9388 -0.0008
-3 -2 20 -0.5411 0.0094
-3 -2 21 0.6849 0.0140
-3 -2 22 -0.9230 -0.0005
-3 -2 23 1.1506 -0.0105
-3 -2 24 -0.7856 -0.0340
-3 -2 25 -0.9126 -0.0203
-3 -2 26 0.5531 0.0473
-3 -1 1 -10.3573 -0.7173
-3 -1 2 -19.8941 0.0972
-3 -1 3 -21.6787 0.2956
-3 -1 4 -38.9399 -0.0782
-3 -1 5 -38.9587 -0.1931
-3 -1 6 -13.7724 -0.0177
-3 -1 7 -6.1310 0.0022
-3 -1 8 -9.3161 -0.0278
-3 -1 9 -3.6430 -0.0201
-3 -1 10 2.0059 -0.0295
-3 -1 11 0.5208 -0.0133
-3 -1 12 6.4143 0.0098
-3 -1 13 10.0964 -0.0133
-3 -1 14 12.2384 0.0179
-3 -1 15 4.0199 0.0450
-3 -1 16 -3.8631 -0.0023
-3 -1 17 1.1132 -0.0117
-3 -1 18 1.2330 0.0033
-3 -1 19 -2.3382 -0.0065
-3 -1 20 -1.5465 -0.0117
-3 -1 21 -1.0129 -0.0013
-3 -1 22 -2.0628 0.0058
-3 -1 23 -2.9078 0.0140
-3 -1 24 -1.5035 0.0180
-3 -1 25 -1.5736 -0.0001
-3 -1 26 0.7495 -0.0141
-3 0 1 5.6373 -0.6636
-3 0 2 -56.5491 -0.6664
-3 0 3 -29.8966 -0.0114
-3 0 4 -3.0820 0.2011
-3 0 5 -20.5403 -0.0457
-3 0 6 -25.8110 -0.1291
-3 0 7 -15.3300 -0.0200
-3 0 8 -12.1144 -0.0513
-3 0 9 -3.3929 -0.0574
-3 0 10 0.4311 0.0117
-3 0 11 9.3172 0.0276
-3 0 12 13.0997 0.0298
-3 0 13 10.2130 0.0079
-3 0 14 5.3322 -0.0189
-3 0 15 1.2289 0.0062
-3 0 16 -4.2168 0.0290
-3 0 17 -2.7542 0.0042
-3 0 18 1.0887 0.0075
-3 0 19 -0.4522 0.0144
-3 0 20 -0.8495 -0.0023
-3 0 21 0.2266 -0.0250
-3 0 22 1.8526 -0.0061
-3 0 23 2.1923 0.0020
-3 0 24 0.3612 0.0274
-3 0 25 0.1015 0.0050
-3 0 26 -0.1420 -0.0499
-3 1 1 3.1080 0.2742
-3 1 2 -0.2128 -0.2107
-3 1 3 -21.9738 -0.3837
-3 1 4 2.0964 0.0044
-3 1 5 8.7332 0.1487
-3 1 6 -10.9559 -0.0300
-3 1 7 -20.8970 -0.0283
-3 1 8 -19.5309 0.0391
-3 1 9 -8.9437 -0.0367
-3 1 10 7.6652 -0.0389
-3 1 11 8.8515 0.0357
-3 1 12 9.5921 0.0362
-3 1 13 2.3702 0.0242
-3 1 14 0.6433 -0.0095
-3 1 15 2.9678 -0.0402
-3 1 16 -2.1304 -0.0107
-3 1 17 -5.0859 0.0161
-3 1 18 -1.2096 -0.0008
-3 1 19 -0.2194 0.0223
-3 1 20 -1.0197 0.0165
-3 1 21 -0.3182 -0.0061
-3 1 22 -2.0726 -0.0195
-3 1 23 0.3934 -0.0305
-3 1 24 0.7856 -0.0095
-3 1 25 -1.5794 0.0646
-3 1 26 -0.4102 0.0263
-3 2 1 27.1795 0.3947
-3 2 2 2.1139 0.4555
-3 2 3 -11.2650 0.0925
-3 2 4 -2.5972 -0.1339
-3 2 5 3.7000 0.0151
-3 2 6 6.6121 0.0545
-3 2 7 -6.7590 -0.0449
-3 2 8 -18.8708 0.0811
-3 2 9 -4.9317 0.1230
-3 2 10 3.1924 -0.0027
-3 2 11 7.0476 -0.0331
-3 2 12 7.0716 -0.0107
-3 2 13 4.4381 -0.0044
-3 2 14 -0.9880 0.0124
-3 2 15 0.6857 -0.0061
-3 2 16 2.6249 -0.0218
-3 2 17 1.9648 -0.0023
-3 2 18 -1.3148 -0.0003
-3 2 19 -2.6228 -0.0076
-3 2 20 -1.1404 0.0181
-3 2 21 -3.5348 0.0053
-3 2 22 0.7741 -0.0122
-3 2 23 2.7208 -0.0064
-3 2 24 0.4927 -0.0148
-3 2 25 2.0424 0.0104
-3 3 1 -36.0761 0.2238
-3 3 2 13.3377 0.1245
-3 3 3 19.6323 0.2140
-3 3 4 -4.0672 0.0669
-3 3 5 -5.9103 0.0147
-3 3 6 -1.1354 0.0797
-3 3 7 3.6504 0.0261
-3 3 8 -3.3063 -0.0326
-3 3 9 -12.0161 0.0722
-3 3 10 2.1570 0.0736
-3 3 11 5.0663 -0.0253
-3 3 12 1.0778 -0.0400
-3 3 13 -0.8092 -0.0246
-3 3 14 -0.7271 -0.0090
-3 3 15 1.8551 0.0073
-3 3 16 5.1884 0.0102
-3 3 17 2.3152 0.0042
-3 3 18 0.2480 0.0002
-3 3 19 -0.3553 -0.0258
-3 3 20 0.1871 -0.0214
-3 3 21 2.6878 0.0125
-3 3 22 -0.4252 0.0165
-3 3 23 1.5643 0.0126
-3 3 24 4.0475 -0.0044
-3 3 25 0.6454 -0.0526
-3 4 1 5.2167 0.1583
-3 4 2 -1.3843 0.0426
-3 4 3 4.3793 -0.1326
-3 4 4 11.0929 -0.0171
-3 4 5 -17.9074 0.0522
-3 4 6 -20.4761 0.1122
-3 4 7 -1.2028 0.0873
-3 4 8 6.9158 -0.0483
-3 4 9 7.5880 -0.0973
-3 4 10 -2.4722 -0.0038
-3 4 11 -2.1439 0.0289
-3 4 12 0.8974 -0.0245
-3 4 13 -1.1464 0.0018
-3 4 14 0.7284 0.0119
-3 4 15 3.7408 -0.0072
-3 4 16 0.9732 -0.0065
-3 4 17 2.7127 -0.0026
-3 4 18 0.3857 0.0104
-3 4 19 -1.5731 0.0052
-3 4 20 3.8933 -0.0176
-3 4 21 1.3640 0.0119
-3 4 22 -0.7020 -0.0154
-3 4 23 1.7293 0.0051
-3 4 24 -2.0735 0.0769
-3 5 1 1.5184 -0.5289
-3 5 2 1.1763 0.0574
-3 5 3 10.5415 0.1125
-3 5 4 -1.5700 -0.1071
-3 5 5 -3.1582 -0.1289
-3 5 6 -9.0536 -0.0456
-3 5 7 -3.8275 0.0156
-3 5 8 12.1060 0.0302
-3 5 9 11.3792 -0.0627
-3 5 10 6.1965 -0.0730
-3 5 11 -0.8409 0.0089
-3 5 12 -1.6875 0.0158
-3 5 13 1.1006 -0.0039
-3 5 14 -0.0278 0.0213
-3 5 15 -0.2677 0.0187
-3 5 16 1.6570 -0.0013
-3 5 17 -1.4176 -0.0199
-3 5 18 -2.8374 0.0145
-3 5 19 -3.3901 0.0171
-3 5 20 -2.1274 0.0013
-3 5 21 5.1443 0.0252
-3 5 22 4.7589 -0.0021
-3 5 23 0.0372 -0.0328
-3 5 24 3.5155 0.0274
-3 6 1 16.6567 -0.6812
-3 6 2 4.7274 -0.4584
-3 6 3 -9.0670 0.1159
-3 6 4 6.7255 0.1690
-3 6 5 2.7762 -0.0751
-3 6 6 1.9276 -0.1725
-3 6 7 1.3940 -0.0919
-3 6 8 -0.4632 -0.0194
-3 6 9 11.5418 0.0230
-3 6 10 6.4872 0.0059
-3 6 11 -1.1614 0.0135
-3 6 12 -1.2128 0.0196
-3 6 13 -1.8778 -0.0185
-3 6 14 -2.3745 -0.0356
-3 6 15 -2.6604 0.0142
-3 6 16 -3.3318 0.0381
-3 6 17 -2.5791 -0.0024
-3 6 18 -0.7655 -0.0008
-3 6 19 -0.1128 0.0057
-3 6 20 1.0740 -0.0132
-3 6 21 1.6247 0.0484
-3 6 22 2.7130 0.0156
-3 6 23 5.0069 -0.0487
-3 7 1 0.3776 0.4558
-3 7 2 -7.6763 -0.2690
-3 7 3 -8.0042 -0.3112
-3 7 4 -12.9257 0.1014
-3 7 5 -3.1048 0.1551
-3 7 6 6.6489 -0.0096
-3 7 7 9.2712 -0.0503
-3 7 8 4.1589 0.0086
-3 7 9 -4.4528 0.0134
-3 7 10 2.3470 0.0151
-3 7 11 -1.7173 0.0154
-3 7 12 -3.9391 0.0195
-3 7 13 0.6556 0.0324
-3 7 14 -0.5053 -0.0300
-3 7 15 -2.7491 -0.0569
-3 7 16 -3.3132 0.0047
-3 7 17 -1.3423 0.0018
-3 7 18 -1.0638 0.0024
-3 7 19 1.5172 0.0274
-3 7 20 2.3629 -0.0040
-3 7 21 0.8921 0.0133
-3 7 22 2.0053 0.0262
-3 7 23 0.0055 -0.0132
-3 8 1 6.6292 0.7793
-3 8 2 -2.3705 0.5512
-3 8 3 -12.5299 -0.0947
-3 8 4 -2.4728 -0.2169
-3 8 5 2.8552 0.0619
-3 8 6 5.8417 0.1307
-3 8 7 7.7336 0.0479
-3 8 8 2.3623 0.0643
-3 8 9 1.0291 0.0507
-3 8 10 -6.2668 -0.0066
-3 8 11 -0.3323 -0.0316
-3 8 12 0.3386 -0.0213
-3 8 13 -1.8130 0.0193
-3 8 14 0.5775 0.0244
-3 8 15 -1.6354 -0.0197
-3 8 16 -1.4233 -0.0262
-3 8 17 -1.5356 -0.0004
-3 8 18 -1.6804 -0.0008
-3 8 19 -0.2370 -0.0284
-3 8 20 1.1527 0.0239
-3 8 21 0.6515 0.0822
-3 8 22 -0.5898 -0.0082
-3 9 1 4.1742 -0.0783
-3 9 2 1.0392 0.3324
-3 9 3 4.0787 0.2832
-3 9 4 3.8385 -0.0642
-3 9 5 1.6757 -0.0799
-3 9 6 0.8171 0.0457
-3 9 7 0.6695 0.0425
-3 9 8 -0.7572 -0.0216
-3 9 9 -5.6463 0.0400
-3 9 10 1.6888 0.0484
-3 9 11 -2.2841 -0.0281
-3 9 12 -1.3882 -0.0590
-3 9 13 -0.7243 -0.0245
-3 9 14 -3.1316 0.0240
-3 9 15 -2.6323 0.0389
-3 9 16 -1.2996 0.0010
-3 9 17 1.9811 -0.0159
-3 9 18 0.9596 0.0078
-3 9 19 0.1165 -0.0425
-3 9 20 1.3714 -0.0601
-3 9 21 0.1652 0.0593
-3 10 1 2.7300 -0.3342
-3 10 2 3.4337 -0.2494
-3 10 3 0.8940 0.0182
-3 10 4 4.0277 0.0956
-3 10 5 3.2852 -0.0234
-3 10 6 -0.6155 0.0117
-3 10 7 -2.4908 0.0294
-3 10 8 -4.4826 -0.0679
-3 10 9 -1.0917 -0.1159
-3 10 10 -7.2954 0.0108
-3 10 11 -2.0706 0.0503
-3 10 12 -0.2486 -0.0046
-3 10 13 -0.2235 -0.0217
-3 10 14 -0.7460 -0.0212
-3 10 15 -2.5680 0.0171
-3 10 16 -2.7385 0.0145
-3 10 17 0.5695 0.0083
-3 10 18 1.8984 0.0373
-3 10 19 0.4271 -0.0477
-3 10 20 1.3566 -0.0784
-3 11 1 -0.1304 -0.2232
-3 11 2 -2.6226 -0.1770
-3 11 3 3.7484 -0.1019
-3 11 4 6.4662 -0.0188
-3 11 5 0.9227 -0.0175
-3 11 6 -1.3334 -0.0557
-3 11 7 -2.0622 0.0188
-3 11 8 -2.3004 0.0282
-3 11 9 -3.8369 -0.0707
-3 11 10 2.5826 -0.0704
-3 11 11 -3.9212 0.0246
-3 11 12 -4.0976 0.0461
-3 11 13 -0.1376 0.0040
-3 11 14 0.2982 -0.0165
-3 11 15 -1.9716 0.0089
-3 11 16 -1.7416 0.0039
-3 11 17 -1.2587 -0.0009
-3 11 18 0.3027 0.0617
-3 11 19 1.5881 0.0058
-3 12 1 -0.9176 -0.2162
-3 12 2 2.7985 -0.0836
-3 12 3 0.0716 0.0427
-3 12 4 0.6472 0.0523
-3 12 5 -0.3090 -0.0364
-3 12 6 -4.2371 -0.1320
-3 12 7 -3.0129 -0.0596
-3 12 8 -3.5421 0.0608
-3 12 9 0.1164 0.0766
-3 12 10 0.0337 -0.0073
-3 12 11 1.5332 -0.0361
-3 12 12 -3.2518 0.0198
-3 12 13 -2.3234 0.0135
-3 12 14 1.3840 -0.0193
-3 12 15 1.6406 0.0047
-3 12 16 0.6449 -0.0214
-3 12 17 0.4692 -0.0006
-3 12 18 -0.1532 0.0854
-3 13 1 5.3222 0.2669
-3 13 2 -1.0225 -0.0741
-3 13 3 -0.5322 -0.0918
-3 13 4 1.7871 0.0588
-3 13 5 -1.0365 0.0948
-3 13 6 -1.4717 0.0057
-3 13 7 -0.4870 -0.0657
-3 13 8 0.5620 -0.0123
-3 13 9 -3.1851 0.0386
-3 13 10 0.4698 0.0552
-3 13 11 1.2193 -0.0083
-3 13 12 0.3117 -0.0070
-3 13 13 0.4391 0.0082
-3 13 14 1.8826 -0.0453
-3 13 15 1.5372 -0.0091
-3 13 16 0.8784 -0.0097
-3 13 17 1.3555 -0.0349
-3 14 1 -2.0097 0.5163
-3 14 2 4.7727 0.2629
-3 14 3 0.4096 -0.0889
-3 14 4 -1.6339 -0.1272
-3 14 5 2.8864 0.0644
-3 14 6 2.6187 0.1233
-3 14 7 1.0308 0.0409
-3 14 8 3.0738 -0.0072
-3 14 9 3.6685 0.0075
-3 14 10 -2.4945 -0.0053
-3 14 11 -0.0462 -0.0257
-3 14 12 -1.3584 -0.0180
-3 14 13 -2.4120 0.0355
-3 14 14 1.8180 0.0394
-3 14 15 0.2807 -0.0062
-3 14 16 -0.5281 -0.0531
-3 15 1 1.8498 -0.0784
-3 15 2 0.3419 0.2642
-3 15 3 2.2951 0.1572
-3 15 4 0.8047 -0.0883
-3 15 5 -1.8818 -0.0946
-3 15 6 1.6361 0.0323
-3 15 7 2.1900 0.0711
-3 15 8 -0.6655 -0.0126
-3 15 9 1.6050 -0.0265
-3 15 10 3.9191 0.0076
-3 15 11 -1.2692 -0.0135
-3 15 12 0.2140 -0.0053
-3 15 13 -0.8653 -0.0327
-3 15 14 -0.7054 -0.0120
-3 15 15 2.3450 0.0929
-3 16 1 -0.6000 -0.4292
-3 16 2 1.1365 -0.2171
-3 16 3 -0.1291 0.0898
-3 16 4 0.9136 0.0815
-3 16 5 -0.4101 -0.0481
-3 16 6 -0.7736 -0.0481
-3 16 7 0.5054 -0.0164
-3 16 8 0.5606 -0.0376
-3 16 9 -0.8296 -0.0516
-3 16 10 -1.4101 0.0690
-3 16 11 5.1689 0.0370
-3 16 12 2.0610 -0.0491
-3 16 13 -0.2459 -0.0112
-3 16 14 0.3350 -0.0568
-3 17 1 -0.8792 -0.1151
-3 17 2 -4.5129 -0.2518
-3 17 3 -2.9982 -0.0941
-3 17 4 -1.7926 0.0580
-3 17 5 -0.5954 0.0280
-3 17 6 1.0335 -0.0460
-3 17 7 2.2595 -0.0060
-3 17 8 0.5388 0.0666
-3 17 9 -0.0927 -0.0304
-3 17 10 0.3285 -0.1294
-3 17 11 -3.0471 0.0329
-3 17 12 3.9603 0.0603
-3 18 1 -1.2041 0.1029
-3 18 2 -0.8996 0.0284
-3 18 3 -4.6021 -0.0441
-3 18 4 -1.6514 0.0013
-3 18 5 0.1211 0.0170
-3 18 6 -0.8614 -0.0239
-3 18 7 0.7193 -0.0122
-3 18 8 1.3214 -0.0023
-3 18 9 0.4623 0.0406
-3 18 10 -1.2264 0.0466
-3 18 11 1.8824 -0.1050
-3 19 1 0.6011 0.1809
-3 19 2 -1.6192 0.1283
-3 19 3 0.2340 0.0051
-3 19 4 -1.6509 -0.0377
-3 19 5 -1.1301 0.0672
-3 19 6 2.3988 0.0165
-3 19 7 -0.1493 -0.0946
-3 19 8 -1.4326 0.0771
-3 20 1 -3.5331 0.1744
-3 20 2 -0.5130 0.0393
-3 20 3 -0.9036 0.0602
-3 20 4 -0.1703 -0.0188
-3 20 5 0.2438 -0.0387
-3 20 6 -0.2349 0.1914
-3 21 1 1.0395 -0.1205
-3 21 2 -0.8386 0.1045
-3 21 3 1.7588 0.0128
-2 -22 5 -3.7088 -0.1147
-2 -22 6 1.3666 0.0357
-2 -22 7 1.0586 -0.1074
-2 -22 8 -0.9922 0.0091
-2 -22 9 0.3857 -0.0548
-2 -22 10 -0.3052 0.0110
-2 -22 11 -1.5451 0.0130
-2 -21 1 -2.4667 -0.1316
-2 -21 2 -0.5131 -0.1030
-2 -21 3 3.0799 -0.0505
-2 -21 4 -0.6254 -0.0314
-2 -21 5 -3.3671 -0.0097
-2 -21 6 -1.8918 -0.0680
-2 -21 7 0.1816 0.0305
-2 -21 8 0.9466 -0.0764
-2 -21 9 0.4311 0.0166
-2 -21 10 0.4704 -0.0336
-2 -21 11 -0.8260 0.0194
-2 -21 12 -0.3428 -0.0020
-2 -21 13 -3.0513 0.0569
-2 -21 14 -3.2755 -0.0116
-2 -21 15 -1.0938 0.0112
-2 -20 1 0.5542 0.0829
-2 -20 2 -3.4663 -0.0879
-2 -20 3 1.4682 -0.0852
-2 -20 4 2.5605 -0.0025
-2 -20 5 -3.1371 -0.0074
-2 -20 6 -2.7841 0.0137
-2 -20 7 -1.0747 0.0047
-2 -20 8 -1.6927 0.0280
-2 -20 9 1.5432 -0.0069
-2 -20 10 1.9074 -0.0026
-2 -20 11 1.6824 -0.0208
-2 -20 12 0.0676 0.0387
-2 -20 13 -0.4695 -0.0104
-2 -20 14 -2.0158 0.0473
-2 -20 15 -4.2481 -0.0249
-2 -20 16 -2.4349 0.0140
-2 -20 17 0.6277 -0.0418
-2 -20 18 2.2034 0.0281
-2 -19 1 1.0517 0.2249
-2 -19 2 -3.0219 0.1517
-2 -19 3 -4.3151 -0.0039
-2 -19 4 1.6729 -0.0111
-2 -19 5 0.8614 0.0019
-2 -19 6 -0.6290 0.0431
-2 -19 7 -0.3784 0.0039
-2 -19 8 -0.2805 0.0173
-2 -19 9 -1.3894 0.0113
-2 -19 10 -0.0936 0.0068
-2 -19 11 0.0491 0.0242
-2 -19 12 0.7109 -0.0082
-2 -19 13 0.3421 0.0031
-2 -19 14 -2.1056 -0.0235
-2 -19 15 -1.8872 0.0153
-2 -19 16 -2.3139 -0.0396
-2 -19 17 -0.4601 0.0035
-2 -19 18 1.2980 -0.0120
-2 -19 19 0.9153 0.0261
-2 -18 1 2.0268 0.0677
-2 -18 2 -3.6952 0.0968
-2 -18 3 -4.8620 0.0941
-2 -18 4 -2.2540 0.0006
-2 -18 5 1.3155 0.0182
-2 -18 6 0.2964 0.0156
-2 -18 7 1.9214 0.0368
-2 -18 8 -0.8277 -0.0136
-2 -18 9 -1.4082 0.0480
-2 -18 10 -1.4540 0.0070
-2 -18 11 -2.7106 -0.0112
-2 -18 12 -2.1429 0.0175
-2 -18 13 -2.2430 -0.0113
-2 -18 14 0.0926 -0.0050
-2 -18 15 -0.4214 0.0024
-2 -18 16 0.1216 0.0257
-2 -18 17 -1.0760 0.0048
-2 -18 18 -1.0463 0.0000
-2 -18 19 3.2174 0.0128
-2 -18 20 0.5265 0.0091
-2 -18 21 -1.6303 0.0348
-2 -17 1 0.7108 -0.0815
-2 -17 2 3.8359 -0.0540
-2 -17 3 -4.2140 -0.0057
-2 -17 4 -2.6630 0.0302
-2 -17 5 -3.2318 -0.0154
-2 -17 6 -1.0966 0.0161
-2 -17 7 -1.7861 0.0177
-2 -17 8 -1.3768 -0.0022
-2 -17 9 -1.9565 -0.0425
-2 -17 10 -2.2528 0.0127
-2 -17 11 1.0078 -0.0223
-2 -17 12 1.5553 -0.0170
-2 -17 13 0.4639 0.0117
-2 -17 14 -1.0698 0.0093
-2 -17 15 -0.0889 -0.0007
-2 -17 16 -0.4128 0.0132
-2 -17 17 1.0045 0.0087
-2 -17 18 0.9962 0.0063
-2 -17 19 -1.2730 -0.0142
-2 -17 20 3.3385 0.0249
-2 -17 21 0.6715 0.0024
-2 -17 22 0.1467 0.0150
-2 -16 1 -2.5868 -0.1808
-2 -16 2 -2.8220 -0.0658
-2 -16 3 0.5794 -0.0386
-2 -16 4 -2.3609 -0.0215
-2 -16 5 1.6636 -0.0154
-2 -16 6 -1.1634 -0.0433
-2 -16 7 -0.1495 -0.0280
-2 -16 8 -1.8147 -0.0162
-2 -16 9 -1.0924 -0.0346
-2 -16 10 0.4847 -0.0289
-2 -16 11 -3.0977 0.0056
-2 -16 12 -0.9228 -0.0161
-2 -16 13 0.0283 0.0123
-2 -16 14 -2.4816 0.0112
-2 -16 15 -2.8092 0.0137
-2 -16 16 -0.4289 -0.0168
-2 -16 17 0.7711 0.0044
-2 -16 18 -2.4958 0.0138
-2 -16 19 1.3879 0.0179
-2 -16 20 1.5375 -0.0064
-2 -16 21 -0.4302 0.0086
-2 -16 22 -2.3930 -0.0047
-2 -16 23 0.1619 -0.0057
-2 -15 1 -4.2523 -0.2470
-2 -15 2 0.0992 -0.1146
-2 -15 3 -1.1064 0.0365
-2 -15 4 2.3122 -0.0113
-2 -15 5 -0.0061 -0.0280
-2 -15 6 4.6437 -0.0566
-2 -15 7 3.5873 -0.0475
-2 -15 8 3.3337 -0.0141
-2 -15 9 2.1869 -0.0004
-2 -15 10 -1.3898 0.0026
-2 -15 11 -1.2390 0.0073
-2 -15 12 -0.1605 0.0156
-2 -15 13 -0.4130 -0.0048
-2 -15 14 2.0564 0.0081
-2 -15 15 -0.2158 0.0011
-2 -15 16 -3.2497 0.0041
-2 -15 17 1.1156 -0.0079
-2 -15 18 3.4688 0.0037
-2 -15 19 -3.1749 0.0110
-2 -15 20 -0.2471 0.0097
-2 -15 21 0.2590 -0.0034
-2 -15 22 1.0285 -0.0109
-2 -15 23 1.7717 -0.0101
-2 -15 24 0.3030 -0.0407
-2 -14 1 3.0631 0.1779
-2 -14 2 1.0851 -0.1175
-2 -14 3 4.6919 -0.0581
-2 -14 4 -0.0296 0.0640
-2 -14 5 2.3052 0.0296
-2 -14 6 -0.1626 0.0014
-2 -14 7 1.3871 -0.0001
-2 -14 8 -0.6377 0.0138
-2 -14 9 0.2331 0.0048
-2 -14 10 2.4712 0.0106
-2 -14 11 -0.6924 0.0011
-2 -14 12 -2.3992 -0.0043
-2 -14 13 1.3036 0.0088
-2 -14 14 1.1751 -0.0088
-2 -14 15 2.7007 -0.0044
-2 -14 16 0.8652 0.0010
-2 -14 17 -0.9715 -0.0150
-2 -14 18 1.6006 -0.0037
-2 -14 19 2.5759 0.0016
-2 -14 20 -0.2017 0.0120
-2 -14 21 -1.8312 -0.0161
-2 -14 22 -2.4685 -0.0147
-2 -14 23 1.1633 -0.0154
-2 -14 24 2.8237 -0.0092
-2 -13 1 -0.4791 0.5438
-2 -13 2 2.4097 0.2518
-2 -13 3 0.9523 -0.0738
-2 -13 4 3.2416 -0.0542
-2 -13 5 -3.6312 0.0809
-2 -13 6 -2.4599 0.0770
-2 -13 7 -3.0630 0.0332
-2 -13 8 0.0510 0.0447
-2 -13 9 0.2639 0.0193
-2 -13 10 -3.4914 -0.0058
-2 -13 11 -2.7727 0.0026
-2 -13 12 1.0762 -0.0057
-2 -13 13 0.0748 0.0052
-2 -13 14 2.5831 0.0055
-2 -13 15 3.5861 -0.0041
-2 -13 16 2.4659 -0.0093
-2 -13 17 2.3990 0.0175
-2 -13 18 -1.1190 -0.0057
-2 -13 19 -0.1186 -0.0017
-2 -13 20 0.4147 -0.0032
-2 -13 21 -1.1929 -0.0023
-2 -13 22 -1.9222 -0.0185
-2 -13 23 -1.0736 0.0051
-2 -13 24 -1.0415 0.0042
-2 -13 25 0.6909 0.0170
-2 -12 1 0.7763 0.0075
-2 -12 2 -3.1411 0.3200
-2 -12 3 -1.3582 0.1714
-2 -12 4 -6.3248 -0.0838
-2 -12 5 -0.3305 -0.0394
-2 -12 6 0.7362 0.0446
-2 -12 7 1.0714 0.0150
-2 -12 8 -0.4565 -0.0151
-2 -12 9 -1.7701 0.0259
-2 -12 10 -0.8898 0.0187
-2 -12 11 -2.2662 -0.0082
-2 -12 12 -2.3723 -0.0047
-2 -12 13 1.2388 -0.0189
-2 -12 14 3.0063 0.0021
-2 -12 15 2.2316 0.0053
-2 -12 16 1.9420 0.0039
-2 -12 17 -1.0696 0.0015
-2 -12 18 1.7204 0.0060
-2 -12 19 -1.0559 -0.0148
-2 -12 20 0.6326 0.0061
-2 -12 21 4.0405 0.0018
-2 -12 22 2.1771 -0.0071
-2 -12 23 1.4360 -0.0150
-2 -12 24 1.9830 -0.0079
-2 -12 25 -0.9084 -0.0003
-2 -11 1 -0.4727 -0.4963
-2 -11 2 -1.8805 -0.2270
-2 -11 3 -8.7817 0.1238
-2 -11 4 -4.4457 0.0907
-2 -11 5 -3.6985 -0.0881
-2 -11 6 4.0670 -0.0452
-2 -11 7 4.4925 0.0045
-2 -11 8 4.1342 -0.0460
-2 -11 9 5.7571 -0.0482
-2 -11 10 -4.9323 0.0058
-2 -11 11 -5.5493 -0.0060
-2 -11 12 -3.0981 -0.0113
-2 -11 13 -1.0467 0.0012
-2 -11 14 -1.4792 -0.0109
-2 -11 15 -0.5899 0.0108
-2 -11 16 -1.6420 0.0003
-2 -11 17 1.8246 -0.0050
-2 -11 18 -0.5536 0.0061
-2 -11 19 0.1856 -0.0020
-2 -11 20 -0.4588 -0.0069
-2 -11 21 -0.2935 -0.0007
-2 -11 22 2.2039 0.0006
-2 -11 23 -0.6314 -0.0176
-2 -11 24 -1.1219 -0.0175
-2 -11 25 -1.2267 0.0005
-2 -11 26 -2.4208 0.0240
-2 -10 1 -1.2323 -0.1811
-2 -10 2 -7.1826 -0.3210
-2 -10 3 -2.9410 -0.1940
-2 -10 4 -12.5516 0.0439
-2 -10 5 -8.0991 0.0280
-2 -10 6 3.5192 -0.0678
-2 -10 7 7.6590 -0.0090
-2 -10 8 4.0115 -0.0025
-2 -10 9 0.0693 -0.0676
-2 -10 10 8.2894 -0.0326
-2 -10 11 0.5809 0.0143
-2 -10 12 0.9235 0.0011
-2 -10 13 -0.8066 0.0156
-2 -10 14 1.0558 0.0078
-2 -10 15 0.1823 -0.0118
-2 -10 16 -0.5654 0.0002
-2 -10 17 -3.6985 0.0076
-2 -10 18 0.2272 -0.0004
-2 -10 19 2.3567 0.0119
-2 -10 20 -0.2180 0.0010
-2 -10 21 0.2648 -0.0045
-2 -10 22 -1.3894 0.0082
-2 -10 23 -1.4352 0.0070
-2 -10 24 -1.4099 -0.0261
-2 -10 25 1.5744 -0.0017
-2 -10 26 -0.2878 -0.0035
-2 -9 1 -7.4450 0.0091
-2 -9 2 -8.4840 0.0672
-2 -9 3 -8.1822 -0.0439
-2 -9 4 4.4352 -0.0798
-2 -9 5 0.3183 0.0005
-2 -9 6 -2.4524 -0.0504
-2 -9 7 1.1405 -0.0564
-2 -9 8 -0.7717 0.0473
-2 -9 9 2.3619 0.0352
-2 -9 10 -4.4790 -0.0221
-2 -9 11 5.5417 -0.0018
-2 -9 12 0.8518 0.0108
-2 -9 13 1.2161 -0.0140
-2 -9 14 -0.3617 0.0153
-2 -9 15 -0.2198 0.0097
-2 -9 16 -1.8763 -0.0072
-2 -9 17 0.2047 0.0044
-2 -9 18 0.7726 0.0065
-2 -9 19 0.9133 0.0020
-2 -9 20 3.7797 0.0153
-2 -9 21 0.8023 -0.0118
-2 -9 22 2.3517 -0.0079
-2 -9 23 -1.1979 0.0116
-2 -9 24 -0.6093 -0.0123
-2 -9 25 0.4196 -0.0325
-2 -9 26 1.4444 -0.0285
-2 -8 1 -5.4338 0.1836
-2 -8 2 -10.1780 0.0333
-2 -8 3 -0.3233 0.0996
-2 -8 4 0.5707 0.0497
-2 -8 5 8.4256 -0.0020
-2 -8 6 6.9173 0.0164
-2 -8 7 -5.9904 -0.0108
-2 -8 8 -8.3473 0.0147
-2 -8 9 -13.4504 0.0855
-2 -8 10 -2.9836 0.0353
-2 -8 11 -3.6578 -0.0161
-2 -8 12 6.7016 -0.0059
-2 -8 13 1.8184 -0.0053
-2 -8 14 0.6783 -0.0262
-2 -8 15 1.1720 -0.0016
-2 -8 16 1.9528 -0.0013
-2 -8 17 0.6969 -0.0083
-2 -8 18 -0.1557 0.0087
-2 -8 19 2.0088 0.0044
-2 -8 20 -0.5585 0.0030
-2 -8 21 2.5426 -0.0025
-2 -8 22 1.3024 -0.0223
-2 -8 23 -0.0182 -0.0101
-2 -8 24 -0.9627 0.0110
-2 -8 25 2.4210 -0.0064
-2 -8 26 -0.7251 0.0141
-2 -7 1 -4.9810 0.6250
-2 -7 2 -0.3894 0.1545
-2 -7 3 1.7355 -0.1090
-2 -7 4 3.5777 0.0131
-2 -7 5 -0.1886 0.1067
-2 -7 6 -3.1173 0.1185
-2 -7 7 -13.5374 0.0632
-2 -7 8 -18.5095 -0.0043
-2 -7 9 -1.6393 -0.0028
-2 -7 10 -5.4819 0.0382
-2 -7 11 4.6051 0.0016
-2 -7 12 3.9494 -0.0201
-2 -7 13 2.8748 0.0019
-2 -7 14 0.7775 -0.0058
-2 -7 15 1.7758 -0.0208
-2 -7 16 1.4409 -0.0027
-2 -7 17 1.6599 0.0002
-2 -7 18 2.6353 -0.0134
-2 -7 19 1.0812 -0.0008
-2 -7 20 -1.6832 -0.0065
-2 -7 21 -5.3882 0.0051
-2 -7 22 0.2193 -0.0008
-2 -7 23 0.6620 -0.0063
-2 -7 24 -1.5703 -0.0139
-2 -7 25 -1.3004 -0.0083
-2 -7 26 1.4557 -0.0344
-2 -7 27 -1.7692 -0.0014
-2 -6 1 -11.7503 -0.0009
-2 -6 2 -9.6753 0.4018
-2 -6 3 10.6020 0.0813
-2 -6 4 6.6255 -0.1541
-2 -6 5 -1.5963 -0.0298
-2 -6 6 3.1944 0.0615
-2 -6 7 -3.3718 0.0604
-2 -6 8 -3.6141 0.0056
-2 -6 9 -2.8043 -0.0351
-2 -6 10 4.1656 -0.0284
-2 -6 11 -0.3596 -0.0005
-2 -6 12 0.4560 -0.0121
-2 -6 13 -3.9135 -0.0076
-2 -6 14 -2.2683 0.0357
-2 -6 15 1.9399 0.0203
-2 -6 16 3.9334 0.0044
-2 -6 17 1.2712 0.0026
-2 -6 18 0.4115 -0.0079
-2 -6 19 -1.1980 -0.0178
-2 -6 20 -2.6038 -0.0028
-2 -6 21 -3.3681 0.0043
-2 -6 22 -6.1560 0.0193
-2 -6 23 -3.3543 0.0079
-2 -6 24 -1.7707 0.0045
-2 -6 25 -1.2739 -0.0301
-2 -6 26 -1.3243 -0.0291
-2 -6 27 -0.4781 -0.0288
-2 -5 1 -8.0991 -0.9394
-2 -5 2 5.9412 -0.2333
-2 -5 3 9.0876 0.2725
-2 -5 4 3.5570 0.0682
-2 -5 5 -0.1641 -0.1720
-2 -5 6 7.0704 -0.1032
-2 -5 7 2.9762 -0.0275
-2 -5 8 -6.2189 -0.0420
-2 -5 9 5.0619 -0.0259
-2 -5 10 -1.9374 -0.0101
-2 -5 11 -3.0033 0.0042
-2 -5 12 0.5394 0.0084
-2 -5 13 -3.0524 -0.0067
-2 -5 14 -5.2287 -0.0022
-2 -5 15 1.5532 0.0237
-2 -5 16 5.3550 0.0086
-2 -5 17 3.4853 0.0021
-2 -5 18 -1.8555 0.0133
-2 -5 19 0.0901 0.0088
-2 -5 20 -1.7260 -0.0092
-2 -5 21 -1.4634 0.0042
-2 -5 22 0.2799 0.0066
-2 -5 23 -0.5893 0.0019
-2 -5 24 1.8652 0.0066
-2 -5 25 1.1112 0.0166
-2 -5 26 0.2282 0.0165
-2 -5 27 1.5034 0.0015
-2 -4 1 45.9416 -0.2616
-2 -4 2 25.8276 -0.6182
-2 -4 3 22.8430 -0.1673
-2 -4 4 -3.2594 0.2139
-2 -4 5 -40.0345 0.0424
-2 -4 6 -31.1940 -0.1332
-2 -4 7 -10.0793 -0.0785
-2 -4 8 0.0742 -0.0310
-2 -4 9 1.1178 -0.0458
-2 -4 10 0.7288 0.0086
-2 -4 11 -6.5055 0.0381
-2 -4 12 -4.2417 0.0373
-2 -4 13 -0.2530 0.0056
-2 -4 14 -2.4178 -0.0286
-2 -4 15 0.6417 -0.0198
-2 -4 16 5.8524 0.0031
-2 -4 17 4.1817 0.0023
-2 -4 18 3.6573 0.0027
-2 -4 19 -2.8599 0.0231
-2 -4 20 -2.4108 0.0056
-2 -4 21 -1.3934 -0.0147
-2 -4 22 -0.0736 -0.0012
-2 -4 23 0.1410 0.0011
-2 -4 24 -1.0735 -0.0086
-2 -4 25 1.2042 0.0035
-2 -4 26 2.2499 0.0138
-2 -4 27 0.4710 0.0528
-2 -3 1 -1.0313 0.6265
-2 -3 2 30.2469 0.1814
-2 -3 3 27.7695 -0.2398
-2 -3 4 7.9784 -0.0670
-2 -3 5 -18.0063 0.1202
-2 -3 6 -21.3791 -0.0326
-2 -3 7 -4.5678 -0.0319
-2 -3 8 0.9149 0.0669
-2 -3 9 11.4452 0.0517
-2 -3 10 4.6006 -0.0176
-2 -3 11 -10.7567 -0.0114
-2 -3 12 -6.9043 0.0223
-2 -3 13 1.8668 0.0188
-2 -3 14 5.1359 -0.0006
-2 -3 15 0.5552 -0.0172
-2 -3 16 -0.7966 -0.0074
-2 -3 17 1.3913 0.0023
-2 -3 18 -2.4269 -0.0103
-2 -3 19 1.1816 -0.0096
-2 -3 20 -1.8517 0.0202
-2 -3 21 -1.0569 0.0052
-2 -3 22 -1.3114 -0.0042
-2 -3 23 -2.8354 0.0056
-2 -3 24 0.2722 0.0057
-2 -3 25 0.0028 -0.0240
-2 -3 26 -0.8099 -0.0090
-2 -2 1 31.3995 0.3276
-2 -2 2 -0.8846 0.5092
-2 -2 3 34.5527 0.2033
-2 -2 4 59.0424 -0.1176
-2 -2 5 31.6317 -0.0033
-2 -2 6 10.6107 0.0834
-2 -2 7 6.3667 -0.0144
-2 -2 8 -2.3898 0.0278
-2 -2 9 -8.7091 0.1015
-2 -2 10 -5.3614 0.0373
-2 -2 11 -7.9521 -0.0542
-2 -2 12 -8.6478 -0.0437
-2 -2 13 -0.2371 0.0086
-2 -2 14 2.2161 0.0105
-2 -2 15 3.4296 0.0115
-2 -2 16 -1.7325 -0.0002
-2 -2 17 -4.3133 0.0064
-2 -2 18 -0.2882 0.0064
-2 -2 19 -2.6603 -0.0224
-2 -2 20 1.6115 -0.0133
-2 -2 21 1.7129 0.0145
-2 -2 22 3.0581 -0.0028
-2 -2 23 2.3632 0.0002
-2 -2 24 -0.9326 0.0218
-2 -2 25 -0.8177 0.0200
-2 -2 26 0.8394 -0.0342
-2 -1 1 52.6881 0.0798
-2 -1 2 25.7778 -0.0467
-2 -1 3 -24.6832 0.1044
-2 -1 4 7.1368 0.0929
-2 -1 5 22.8551 0.0606
-2 -1 6 9.6244 0.1347
-2 -1 7 4.2448 0.0454
-2 -1 8 -14.7229 -0.0886
-2 -1 9 -21.4864 -0.0545
-2 -1 10 -12.0567 0.0535
-2 -1 11 -7.2864 0.0136
-2 -1 12 -0.9586 -0.0381
-2 -1 13 1.2839 -0.0243
-2 -1 14 7.8238 -0.0112
-2 -1 15 4.9709 -0.0040
-2 -1 16 -0.4408 0.0069
-2 -1 17 -2.1554 0.0117
-2 -1 18 -0.1328 0.0241
-2 -1 19 2.4153 0.0108
-2 -1 20 -2.0139 -0.0273
-2 -1 21 0.7312 -0.0178
-2 -1 22 -1.1087 0.0054
-2 -1 23 -1.1512 -0.0069
-2 -1 24 0.0839 0.0142
-2 -1 25 -1.2443 0.0782
-2 -1 26 -2.2794 0.0672
-2 0 1 20.4371 -0.0832
-2 0 2 -45.3978 0.0413
-2 0 3 -69.7337 -0.0964
-2 0 4 -46.9659 -0.1094
-2 0 5 -7.7084 -0.0335
-2 0 6 8.6797 0.0461
-2 0 7 7.1561 0.1107
-2 0 8 2.2799 -0.0064
-2 0 9 -5.9258 -0.1163
-2 0 10 -5.6363 -0.0635
-2 0 11 5.4626 0.0414
-2 0 12 10.4597 0.0111
-2 0 13 12.4347 -0.0162
-2 0 14 0.5699 0.0044
-2 0 15 2.4248 -0.0091
-2 0 16 1.0312 -0.0155
-2 0 17 -3.7892 -0.0073
-2 0 18 -0.8255 0.0015
-2 0 19 -0.0121 0.0150
-2 0 20 0.5469 0.0202
-2 0 21 -3.0212 -0.0130
-2 0 22 -1.0192 0.0035
-2 0 23 -0.3460 0.0083
-2 0 24 2.0024 -0.0227
-2 0 25 1.9266 0.0184
-2 0 26 1.5918 0.0783
-2 1 1 -76.8844 -0.6865
-2 1 2 2.2072 -0.0806
-2 1 3 -28.7764 0.1405
-2 1 4 -46.5647 -0.0855
-2 1 5 -20.5404 -0.2375
-2 1 6 4.1808 -0.1360
-2 1 7 11.9343 -0.0111
-2 1 8 2.2604 0.0675
-2 1 9 -0.7318 0.0077
-2 1 10 12.0616 -0.0639
-2 1 11 8.2650 -0.0125
-2 1 12 8.8043 0.0370
-2 1 13 4.1817 0.0026
-2 1 14 -0.3209 0.0083
-2 1 15 -4.0151 0.0267
-2 1 16 -1.0561 -0.0069
-2 1 17 -3.4014 -0.0143
-2 1 18 -3.3863 -0.0168
-2 1 19 -0.1182 -0.0041
-2 1 20 0.3144 0.0151
-2 1 21 3.1335 0.0139
-2 1 22 -1.5577 0.0042
-2 1 23 -0.5640 0.0334
-2 1 24 0.4804 -0.0005
-2 1 25 0.3789 -0.0311
-2 2 1 3.5845 -0.2818
-2 2 2 -31.7390 -0.5848
-2 2 3 2.3121 -0.0511
-2 2 4 -6.3054 0.2400
-2 2 5 -27.5865 0.0082
-2 2 6 -25.5401 -0.1632
-2 2 7 -6.0558 -0.1353
-2 2 8 4.3590 -0.0252
-2 2 9 3.4345 0.0657
-2 2 10 4.9449 0.0335
-2 2 11 14.1334 0.0037
-2 2 12 6.9209 0.0365
-2 2 13 4.8449 0.0008
-2 2 14 -1.9571 -0.0285
-2 2 15 -5.0944 0.0041
-2 2 16 -3.1415 0.0208
-2 2 17 1.2766 0.0132
-2 2 18 -0.6457 0.0051
-2 2 19 -2.1676 -0.0205
-2 2 20 -0.7367 -0.0117
-2 2 21 -0.1893 -0.0006
-2 2 22 1.0381 0.0013
-2 2 23 -2.8381 0.0138
-2 2 24 -2.5693 0.0534
-2 2 25 -2.8997 0.0393
-2 3 1 -47.1279 0.8264
-2 3 2 -9.2094 0.0966
-2 3 3 -13.3671 -0.3467
-2 3 4 2.0776 -0.0166
-2 3 5 1.5534 0.1807
-2 3 6 -21.9186 0.0370
-2 3 7 -15.7737 -0.0107
-2 3 8 1.0415 -0.0132
-2 3 9 3.3300 0.0310
-2 3 10 10.7989 0.0255
-2 3 11 11.1066 -0.0090
-2 3 12 10.3869 0.0165
-2 3 13 4.5946 0.0280
-2 3 14 -0.0510 -0.0172
-2 3 15 -1.0028 -0.0331
-2 3 16 2.4909 0.0002
-2 3 17 -1.5213 0.0175
-2 3 18 -1.3838 0.0104
-2 3 19 -4.8090 0.0055
-2 3 20 -5.2629 -0.0191
-2 3 21 0.4050 -0.0097
-2 3 22 -2.2322 -0.0053
-2 3 23 -0.3786 -0.0085
-2 3 24 3.3614 0.0267
-2 3 25 0.6649 0.0461
-2 4 1 -13.8280 0.5410
-2 4 2 -35.8859 0.6894
-2 4 3 -12.0584 0.0512
-2 4 4 9.5394 -0.2384
-2 4 5 3.0974 0.0256
-2 4 6 -8.7770 0.1589
-2 4 7 -17.9065 0.0601
-2 4 8 -6.3210 0.0437
-2 4 9 7.8720 0.0529
-2 4 10 4.9279 0.0207
-2 4 11 5.5516 -0.0508
-2 4 12 4.4669 -0.0605
-2 4 13 4.9359 0.0128
-2 4 14 5.9881 0.0418
-2 4 15 2.9003 -0.0081
-2 4 16 -0.8234 -0.0223
-2 4 17 3.5170 -0.0015
-2 4 18 1.1733 0.0067
-2 4 19 -1.3342 0.0152
-2 4 20 -3.2936 -0.0081
-2 4 21 -2.2911 -0.0062
-2 4 22 1.5501 0.0166
-2 4 23 -1.4331 -0.0345
-2 4 24 -1.4750 0.0092
-2 5 1 -14.0983 -0.5952
-2 5 2 2.5117 -0.0152
-2 5 3 -16.2824 0.3369
-2 5 4 -20.9526 0.0609
-2 5 5 0.3969 -0.0351
-2 5 6 -2.1026 0.0862
-2 5 7 -2.9228 0.0365
-2 5 8 -2.3867 -0.0641
-2 5 9 1.7063 -0.0305
-2 5 10 9.0066 0.0414
-2 5 11 1.6495 0.0301
-2 5 12 -0.1166 -0.0448
-2 5 13 5.0296 -0.0518
-2 5 14 4.4126 0.0148
-2 5 15 4.7960 0.0199
-2 5 16 4.1707 0.0063
-2 5 17 -0.7938 0.0006
-2 5 18 1.5883 -0.0117
-2 5 19 0.8285 0.0067
-2 5 20 -2.0225 -0.0113
-2 5 21 0.3890 0.0086
-2 5 22 -0.2116 0.0335
-2 5 23 -1.6235 -0.0588
-2 5 24 -0.1636 -0.0604
-2 6 1 19.7815 -0.4522
-2 6 2 0.4485 -0.4283
-2 6 3 -10.8950 -0.0447
-2 6 4 -4.6540 0.1201
-2 6 5 -8.5491 -0.0223
-2 6 6 2.4169 -0.0100
-2 6 7 9.8980 0.0576
-2 6 8 7.9253 -0.0641
-2 6 9 3.1507 -0.1342
-2 6 10 2.8410 -0.0488
-2 6 11 5.1611 0.0823
-2 6 12 -0.9613 0.0538
-2 6 13 -2.5043 -0.0320
-2 6 14 3.7262 -0.0116
-2 6 15 2.7144 0.0000
-2 6 16 0.2254 -0.0040
-2 6 17 -1.2505 0.0044
-2 6 18 -2.2586 -0.0034
-2 6 19 -0.0565 0.0137
-2 6 20 1.2805 -0.0184
-2 6 21 -1.4635 -0.0296
-2 6 22 0.3856 0.0752
-2 6 23 2.1226 0.0144
-2 7 1 -13.5770 -0.0402
-2 7 2 6.2789 -0.0682
-2 7 3 -0.3973 -0.1115
-2 7 4 -13.0119 -0.0572
-2 7 5 -2.7068 -0.1155
-2 7 6 -1.4025 -0.1432
-2 7 7 9.1521 -0.0065
-2 7 8 12.9134 0.1083
-2 7 9 4.6667 0.0019
-2 7 10 1.1297 -0.0978
-2 7 11 -2.4420 -0.0285
-2 7 12 -0.4393 0.0616
-2 7 13 0.2301 0.0301
-2 7 14 -1.8629 -0.0095
-2 7 15 -0.6628 -0.0035
-2 7 16 -1.9967 -0.0041
-2 7 17 1.6174 -0.0226
-2 7 18 1.2307 -0.0165
-2 7 19 0.5195 0.0190
-2 7 20 2.4905 -0.0222
-2 7 21 4.4967 -0.0151
-2 7 22 0.9247 0.0565
-2 8 1 -2.4830 0.0623
-2 8 2 -9.1685 -0.0360
-2 8 3 -12.1338 0.0357
-2 8 4 -2.0209 0.0531
-2 8 5 3.0201 -0.0119
-2 8 6 5.8429 -0.1405
-2 8 7 5.7514 -0.1271
-2 8 8 8.4613 0.0522
-2 8 9 4.6559 0.1328
-2 8 10 -2.6063 0.0263
-2 8 11 0.9918 -0.0503
-2 8 12 -1.5933 -0.0191
-2 8 13 -0.3177 0.0047
-2 8 14 3.3569 -0.0138
-2 8 15 0.4969 -0.0036
-2 8 16 -0.4864 0.0391
-2 8 17 -1.8714 0.0083
-2 8 18 2.7629 -0.0329
-2 8 19 1.4650 0.0020
-2 8 20 2.0999 0.0033
-2 8 21 1.6781 -0.0330
-2 8 22 1.1336 0.0167
-2 9 1 -9.7141 0.4681
-2 9 2 -2.7270 0.0593
-2 9 3 -0.3159 -0.1403
-2 9 4 -1.6283 0.0311
-2 9 5 6.3296 0.1817
-2 9 6 7.5658 0.1082
-2 9 7 3.9710 -0.0435
-2 9 8 1.2526 -0.0776
-2 9 9 -0.4007 0.0330
-2 9 10 3.0774 0.0707
-2 9 11 -0.9102 0.0141
-2 9 12 1.8686 -0.0184
-2 9 13 -0.1359 0.0172
-2 9 14 -0.9369 -0.0072
-2 9 15 2.2832 -0.0541
-2 9 16 -2.2085 0.0024
-2 9 17 0.3784 0.0450
-2 9 18 1.5401 0.0368
-2 9 19 0.9469 -0.0005
-2 9 20 -1.0427 -0.0821
-2 9 21 0.8951 -0.0164
-2 10 1 0.4918 0.3875
-2 10 2 0.8330 0.3931
-2 10 3 -1.4938 -0.0304
-2 10 4 2.0723 -0.1893
-2 10 5 4.1041 0.0420
-2 10 6 2.0431 0.1967
-2 10 7 1.9925 0.1095
-2 10 8 0.1892 -0.0071
-2 10 9 0.1487 -0.0546
-2 10 10 -3.0268 0.0031
-2 10 11 3.1339 0.0055
-2 10 12 1.2884 -0.0274
-2 10 13 -0.5867 0.0206
-2 10 14 -0.5574 0.0394
-2 10 15 -0.6028 -0.0242
-2 10 16 0.4945 -0.0471
-2 10 17 -1.6170 -0.0320
-2 10 18 2.1042 0.0344
-2 10 19 1.7289 0.0711
-2 10 20 1.2514 -0.0397
-2 11 1 -1.5912 -0.5087
-2 11 2 -0.1246 0.0527
-2 11 3 4.5686 0.2752
-2 11 4 3.4886 -0.0220
-2 11 5 2.5378 -0.1337
-2 11 6 2.6760 -0.0041
-2 11 7 -0.7907 0.0544
-2 11 8 0.8751 0.0232
-2 11 9 -1.0388 -0.0297
-2 11 10 1.8663 -0.0091
-2 11 11 -2.0634 0.0276
-2 11 12 0.1945 -0.0388
-2 11 13 2.1672 -0.0407
-2 11 14 0.1318 0.0255
-2 11 15 0.0167 0.0318
-2 11 16 -0.2430 -0.0135
-2 11 17 -0.3418 -0.0689
-2 11 18 0.4318 0.0059
-2 11 19 3.1983 0.0790
-2 12 1 -0.9957 -0.5336
-2 12 2 2.3879 -0.4366
-2 12 3 -3.1199 0.0402
-2 12 4 0.6402 0.1809
-2 12 5 1.9451 -0.0379
-2 12 6 -4.2747 -0.1091
-2 12 7 -0.6429 -0.0397
-2 12 8 0.7095 -0.0325
-2 12 9 3.3484 -0.0468
-2 12 10 1.2343 -0.0195
-2 12 11 3.2038 0.0669
-2 12 12 -2.1261 0.0492
-2 12 13 -3.9655 -0.0214
-2 12 14 1.3544 -0.0416
-2 12 15 1.3623 0.0064
-2 12 16 -0.2606 0.0232
-2 12 17 0.2644 -0.0718
-2 12 18 0.1462 -0.0422
-2 13 1 -2.3458 0.2028
-2 13 2 -2.1014 -0.1457
-2 13 3 1.3188 -0.2070
-2 13 4 -2.3123 0.0136
-2 13 5 -2.3920 0.0275
-2 13 6 -0.1974 -0.0760
-2 13 7 -4.6870 -0.0363
-2 13 8 -0.4988 0.0513
-2 13 9 1.3841 -0.0022
-2 13 10 2.5094 -0.0565
-2 13 11 0.5135 -0.0339
-2 13 12 1.3140 0.0592
-2 13 13 -1.9997 0.0524
-2 13 14 -2.2218 -0.0144
-2 13 15 1.6550 -0.0054
-2 13 16 0.7187 0.0149
-2 13 17 0.2819 -0.0667
-2 14 1 -3.0785 0.3310
-2 14 2 2.0404 0.2044
-2 14 3 0.9929 -0.0250
-2 14 4 1.2566 -0.0838
-2 14 5 0.5708 0.0065
-2 14 6 0.1089 -0.0291
-2 14 7 2.4175 -0.0488
-2 14 8 -1.4525 0.0686
-2 14 9 -1.1053 0.1006
-2 14 10 -0.9785 0.0116
-2 14 11 1.7571 -0.0554
-2 14 12 -0.1649 -0.0503
-2 14 13 -1.9862 0.0532
-2 14 14 -0.9953 -0.0061
-2 14 15 0.5074 0.0059
-2 14 16 0.6337 0.0885
-2 15 1 2.1984 0.1457
-2 15 2 -1.3164 0.1292
-2 15 3 0.8445 0.0330
-2 15 4 1.6793 -0.0008
-2 15 5 0.3944 0.0696
-2 15 6 1.9036 0.0987
-2 15 7 2.6051 -0.0182
-2 15 8 1.1539 -0.0773
-2 15 9 0.1231 0.0369
-2 15 10 -0.5816 0.0836
-2 15 11 -3.0004 0.0146
-2 15 12 3.0946 -0.0417
-2 15 13 0.4391 -0.0430
-2 15 14 -2.3668 -0.0098
-2 15 15 1.5159 -0.0231
-2 16 1 2.5260 0.0143
-2 16 2 3.0942 0.0626
-2 16 3 0.8891 -0.0198
-2 16 4 1.1085 -0.0420
-2 16 5 -0.7379 0.0331
-2 16 6 -1.7662 0.1179
-2 16 7 1.1869 0.0802
-2 16 8 0.4459 -0.0427
-2 16 9 -3.2348 -0.0848
-2 16 10 -1.5941 0.0352
-2 16 11 1.2476 0.0125
-2 16 12 -0.5771 -0.0371
-2 16 13 2.6406 0.0358
-2 16 14 -0.3773 -0.0708
-2 17 1 1.1205 -0.2572
-2 17 2 0.6204 -0.0222
-2 17 3 -1.4017 0.1235
-2 17 4 -1.8026 -0.0396
-2 17 5 -0.0826 -0.1087
-2 17 6 -0.4516 -0.0254
-2 17 7 -0.3871 0.0715
-2 17 8 -0.9344 0.0760
-2 17 9 -0.4949 -0.0802
-2 17 10 -2.4760 -0.0929
-2 17 11 -4.5742 0.0748
-2 17 12 0.7664 -0.0770
-2 18 1 -1.9914 -0.2602
-2 18 2 -1.5493 -0.2067
-2 18 3 -2.2837 0.0510
-2 18 4 -0.8923 0.1405
-2 18 5 -1.2398 -0.0336
-2 18 6 -0.3966 -0.0866
-2 18 7 1.5220 -0.0839
-2 18 8 0.7195 -0.0247
-2 18 9 -3.2607 0.0660
-2 18 10 -1.4883 -0.0727
-2 19 1 -1.4787 0.1588
-2 19 2 -1.3191 -0.0779
-2 19 3 -0.2207 -0.1382
-2 19 4 0.1218 0.0626
-2 19 5 0.3454 0.0546
-2 19 6 -0.4381 -0.0859
-2 19 7 -0.8617 -0.0455
-2 19 8 -0.4075 -0.0032
-2 19 9 0.1731 -0.0391
-2 20 1 -1.2162 0.3198
-2 20 2 -1.6864 0.1476
-2 20 3 -2.5245 0.0107
-2 20 4 0.6265 -0.1227
-2 20 5 0.3302 0.0032
-2 20 6 -1.4617 0.0938
-2 21 1 0.1768 -0.0053
-2 21 2 -0.7768 0.1524
-2 21 3 -1.2117 -0.0225
-1 -22 2 -1.7968 -0.0290
-1 -22 3 -0.2268 -0.0094
-1 -22 4 -0.3601 -0.0008
-1 -22 5 -2.2068 -0.0074
-1 -22 6 0.4773 0.0554
-1 -22 7 0.8499 -0.0472
-1 -22 8 -2.2292 0.0857
-1 -22 9 -0.8423 -0.0340
-1 -22 10 -0.8456 0.0777
-1 -22 11 -0.3997 -0.0185
-1 -22 12 0.3073 0.0331
-1 -21 1 0.8191 -0.1129
-1 -21 2 -3.1690 0.0285
-1 -21 3 -0.9040 -0.0406
-1 -21 4 1.0357 -0.0392
-1 -21 5 -1.9128 0.0071
-1 -21 6 -1.7892 -0.0338
-1 -21 7 1.7241 0.0515
-1 -21 8 -0.9056 -0.0542
-1 -21 9 -3.4142 0.0340
-1 -21 10 0.1645 -0.0171
-1 -21 11 0.1650 0.0396
-1 -21 12 1.7629 -0.0242
-1 -21 13 1.6297 0.0237
-1 -21 14 0.7811 -0.0388
-1 -21 15 0.3884 -0.0033
-1 -21 16 -0.1713 -0.0584
-1 -20 1 1.0865 -0.1374
-1 -20 2 0.7348 -0.0723
-1 -20 3 -1.6550 -0.0143
-1 -20 4 2.0345 -0.0213
-1 -20 5 1.3402 -0.0492
-1 -20 6 -2.0502 -0.0168
-1 -20 7 -0.1156 -0.0040
-1 -20 8 0.8784 0.0284
-1 -20 9 0.6717 -0.0084
-1 -20 10 -0.1171 -0.0052
-1 -20 11 0.0808 -0.0169
-1 -20 12 -0.8484 0.0295
-1 -20 13 2.1437 -0.0355
-1 -20 14 1.6216 0.0236
-1 -20 15 -1.4613 -0.0047
-1 -20 16 -0.2852 0.0116
-1 -20 17 1.1222 -0.0076
-1 -20 18 2.6617 0.0422
-1 -19 1 2.0716 0.0021
-1 -19 2 1.3734 -0.0656
-1 -19 3 -0.5986 -0.0223
-1 -19 4 1.3021 0.0106
-1 -19 5 2.0244 -0.0234
-1 -19 6 1.0085 -0.0224
-1 -19 7 1.5940 -0.0173
-1 -19 8 1.2701 -0.0075
-1 -19 9 -1.7280 -0.0122
-1 -19 10 0.3413 0.0156
-1 -19 11 0.4974 -0.0101
-1 -19 12 0.2912 -0.0012
-1 -19 13 -0.2070 0.0150
-1 -19 14 0.6633 -0.0243
-1 -19 15 1.2871 0.0121
-1 -19 16 -1.6338 -0.0268
-1 -19 17 0.7964 -0.0022
-1 -19 18 2.1783 0.0131
-1 -19 19 2.1296 0.0273
-1 -18 1 -3.5177 0.2304
-1 -18 2 -2.1856 0.0400
-1 -18 3 -3.0031 -0.0337
-1 -18 4 -1.5770 0.0475
-1 -18 5 5.2218 0.0687
-1 -18 6 2.1795 -0.0080
-1 -18 7 1.8176 0.0128
-1 -18 8 0.6217 -0.0213
-1 -18 9 -0.8422 0.0109
-1 -18 10 -2.0825 0.0008
-1 -18 11 -2.3993 0.0181
-1 -18 12 -1.0874 0.0043
-1 -18 13 -0.4053 -0.0127
-1 -18 14 0.4772 -0.0163
-1 -18 15 0.8977 -0.0044
-1 -18 16 1.2395 0.0031
-1 -18 17 -1.8472 -0.0112
-1 -18 18 0.5892 0.0055
-1 -18 19 1.7138 0.0193
-1 -18 20 -0.4744 0.0047
-1 -18 21 -0.1464 0.0236
-1 -17 1 -3.5748 0.2041
-1 -17 2 -0.3397 0.1984
-1 -17 3 -2.9778 0.0029
-1 -17 4 -3.2522 -0.0171
-1 -17 5 -2.1025 0.0595
-1 -17 6 2.6121 0.0571
-1 -17 7 0.9818 0.0099
-1 -17 8 2.8327 0.0333
-1 -17 9 0.0593 -0.0011
-1 -17 10 -0.6850 0.0187
-1 -17 11 2.2785 -0.0017
-1 -17 12 1.1629 -0.0101
-1 -17 13 2.5549 -0.0022
-1 -17 14 2.6487 -0.0028
-1 -17 15 2.1876 -0.0030
-1 -17 16 -1.4068 0.0258
-1 -17 17 0.8496 0.0062
-1 -17 18 0.2097 -0.0010
-1 -17 19 -2.3422 0.0014
-1 -17 20 2.6246 0.0177
-1 -17 21 1.9773 -0.0070
-1 -17 22 -0.1551 0.0019
-1 -16 1 -0.0170 -0.2203
-1 -16 2 -1.9652 0.0465
-1 -16 3 1.1413 0.1168
-1 -16 4 -2.7783 -0.0301
-1 -16 5 1.1481 -0.0130
-1 -16 6 -1.4495 0.0529
-1 -16 7 0.2019 0.0055
-1 -16 8 -0.6804 -0.0089
-1 -16 9 2.6091 -0.0136
-1 -16 10 3.8892 -0.0194
-1 -16 11 -0.6621 -0.0044
-1 -16 12 1.1415 -0.0128
-1 -16 13 -1.0577 -0.0004
-1 -16 14 -1.5355 0.0014
-1 -16 15 1.0259 -0.0043
-1 -16 16 -1.0271 -0.0171
-1 -16 17 -5.1840 0.0017
-1 -16 18 0.4596 0.0039
-1 -16 19 2.5551 0.0045
-1 -16 20 -2.2727 -0.0038
-1 -16 21 1.5071 0.0033
-1 -16 22 -1.2358 -0.0163
-1 -16 23 -0.4058 -0.0029
-1 -15 1 -7.3153 -0.3550
-1 -15 2 -2.0240 -0.2477
-1 -15 3 1.4625 0.0304
-1 -15 4 4.3368 0.0549
-1 -15 5 -0.5705 -0.0511
-1 -15 6 3.3359 -0.0252
-1 -15 7 0.9541 0.0075
-1 -15 8 2.4291 -0.0355
-1 -15 9 -0.0372 -0.0300
-1 -15 10 0.0576 -0.0283
-1 -15 11 2.8908 0.0152
-1 -15 12 -1.5915 0.0074
-1 -15 13 -2.6094 -0.0079
-1 -15 14 -2.7755 0.0074
-1 -15 15 0.1198 -0.0069
-1 -15 16 2.0566 0.0000
-1 -15 17 -0.6306 0.0028
-1 -15 18 -0.3011 0.0004
-1 -15 19 -1.0975 0.0024
-1 -15 20 0.2033 0.0038
-1 -15 21 -1.0317 -0.0038
-1 -15 22 -1.3405 -0.0119
-1 -15 23 -3.3755 -0.0116
-1 -15 24 0.7388 0.0139
-1 -14 1 0.1495 0.0178
-1 -14 2 -2.6840 -0.1421
-1 -14 3 0.7044 -0.1141
-1 -14 4 1.0380 0.0077
-1 -14 5 4.4514 -0.0641
-1 -14 6 0.0452 -0.1004
-1 -14 7 3.0660 -0.0285
-1 -14 8 -0.1352 0.0317
-1 -14 9 2.1745 0.0025
-1 -14 10 3.1151 -0.0128
-1 -14 11 -0.7720 -0.0068
-1 -14 12 1.5985 0.0183
-1 -14 13 2.0221 0.0046
-1 -14 14 -3.4501 -0.0018
-1 -14 15 -2.7211 0.0051
-1 -14 16 -0.1715 -0.0044
-1 -14 17 0.8932 -0.0036
-1 -14 18 0.7842 0.0100
-1 -14 19 1.5657 -0.0005
-1 -14 20 0.2338 -0.0072
-1 -14 21 1.3995 -0.0069
-1 -14 22 0.2407 -0.0084
-1 -14 23 2.1522 -0.0047
-1 -14 24 1.2806 -0.0164
-1 -13 1 5.9079 0.2399
-1 -13 2 3.2320 0.1114
-1 -13 3 1.1947 -0.0315
-1 -13 4 3.9487 -0.0370
-1 -13 5 -5.1182 -0.0003
-1 -13 6 -2.5676 -0.0446
-1 -13 7 -2.0629 -0.0519
-1 -13 8 3.2130 0.0313
-1 -13 9 1.5456 0.0620
-1 -13 10 -0.1116 0.0113
-1 -13 11 0.0127 -0.0135
-1 -13 12 -0.8634 -0.0026
-1 -13 13 -0.3049 0.0083
-1 -13 14 2.0386 -0.0040
-1 -13 15 -1.6588 -0.0028
-1 -13 16 -1.6692 -0.0119
-1 -13 17 -0.5885 -0.0032
-1 -13 18 1.4605 0.0075
-1 -13 19 0.9576 -0.0020
-1 -13 20 -1.9791 0.0005
-1 -13 21 -0.2981 -0.0104
-1 -13 22 1.7255 -0.0304
-1 -13 23 -1.0850 -0.0137
-1 -13 24 -0.2179 0.0097
-1 -13 25 0.5651 0.0171
-1 -12 1 3.5557 0.2510
-1 -12 2 7.2012 0.0960
-1 -12 3 2.5438 0.0265
-1 -12 4 -6.2704 0.0493
-1 -12 5 -2.1158 0.1075
-1 -12 6 -6.4381 0.0772
-1 -12 7 -2.1135 0.0032
-1 -12 8 -4.6335 -0.0338
-1 -12 9 0.0548 0.0237
-1 -12 10 3.8681 0.0536
-1 -12 11 0.5247 0.0129
-1 -12 12 0.9874 -0.0120
-1 -12 13 3.7275 -0.0047
-1 -12 14 3.9544 -0.0101
-1 -12 15 6.1785 -0.0030
-1 -12 16 0.7584 0.0043
-1 -12 17 -3.1794 -0.0152
-1 -12 18 -2.2300 0.0012
-1 -12 19 -1.1438 0.0114
-1 -12 20 0.7933 -0.0015
-1 -12 21 -1.9426 0.0098
-1 -12 22 -0.9238 -0.0103
-1 -12 23 1.9261 -0.0073
-1 -12 24 -0.4306 0.0128
-1 -12 25 -1.8967 0.0119
-1 -11 1 -2.0006 0.1982
-1 -11 2 -3.4776 0.1884
-1 -11 3 -4.0270 0.0009
-1 -11 4 3.1430 -0.0235
-1 -11 5 -5.6983 0.0732
-1 -11 6 2.1557 0.1173
-1 -11 7 2.4792 0.0633
-1 -11 8 1.0557 -0.0057
-1 -11 9 -1.1965 -0.0481
-1 -11 10 -2.5894 -0.0020
-1 -11 11 0.1270 0.0120
-1 -11 12 -0.1684 -0.0176
-1 -11 13 0.1967 -0.0045
-1 -11 14 0.8688 -0.0009
-1 -11 15 -0.4428 -0.0039
-1 -11 16 0.0528 0.0146
-1 -11 17 -0.2272 0.0029
-1 -11 18 -4.0013 -0.0028
-1 -11 19 -2.8687 -0.0048
-1 -11 20 -2.2884 0.0085
-1 -11 21 -1.2242 0.0176
-1 -11 22 -1.5993 0.0130
-1 -11 23 -2.8911 -0.0145
-1 -11 24 -2.3439 -0.0166
-1 -11 25 -2.6979 0.0037
-1 -11 26 -2.7359 0.0317
-1 -10 1 -0.9642 -0.3585
-1 -10 2 -7.3071 0.0793
-1 -10 3 -5.9836 0.1366
-1 -10 4 -8.3024 -0.0991
-1 -10 5 4.7320 -0.1010
-1 -10 6 5.1541 0.0201
-1 -10 7 14.8067 0.0470
-1 -10 8 9.1608 0.0342
-1 -10 9 -2.7622 -0.0338
-1 -10 10 -1.8296 -0.0525
-1 -10 11 -3.9275 -0.0044
-1 -10 12 1.5515 -0.0144
-1 -10 13 -1.1663 -0.0086
-1 -10 14 -2.2875 0.0160
-1 -10 15 0.0931 0.0083
-1 -10 16 -1.1107 -0.0022
-1 -10 17 -3.7917 0.0090
-1 -10 18 -0.0550 0.0022
-1 -10 19 -0.2092 0.0052
-1 -10 20 -0.3385 0.0040
-1 -10 21 -1.2375 0.0030
-1 -10 22 -3.1459 0.0023
-1 -10 23 -2.0526 0.0191
-1 -10 24 -3.2054 0.0036
-1 -10 25 -1.8313 0.0043
-1 -10 26 -0.3425 0.0220
-1 -9 1 -4.6823 -0.6166
-1 -9 2 -6.4759 -0.4001
-1 -9 3 -12.2342 0.1044
-1 -9 4 2.1007 0.1169
-1 -9 5 3.2929 -0.1166
-1 -9 6 13.5266 -0.1199
-1 -9 7 10.4116 -0.0446
-1 -9 8 9.3939 -0.0191
-1 -9 9 10.1362 0.0041
-1 -9 10 -1.4757 -0.0210
-1 -9 11 1.4621 0.0008
-1 -9 12 -0.4102 0.0287
-1 -9 13 4.1614 -0.0085
-1 -9 14 -0.5910 -0.0012
-1 -9 15 -2.9903 0.0043
-1 -9 16 -2.7054 -0.0040
-1 -9 17 -1.5075 -0.0034
-1 -9 18 -1.7098 0.0085
-1 -9 19 1.1331 -0.0014
-1 -9 20 3.1364 -0.0017
-1 -9 21 0.2512 0.0089
-1 -9 22 -0.8291 0.0072
-1 -9 23 -2.2507 0.0099
-1 -9 24 -1.8130 0.0148
-1 -9 25 -0.5893 -0.0235
-1 -9 26 0.6632 -0.0279
-1 -8 1 -12.3376 0.2286
-1 -8 2 -17.8896 -0.2703
-1 -8 3 -3.1420 -0.2193
-1 -8 4 0.8517 0.1189
-1 -8 5 12.3855 0.0308
-1 -8 6 13.6666 -0.1115
-1 -8 7 16.1686 -0.0467
-1 -8 8 9.0343 0.0007
-1 -8 9 1.5095 0.0066
-1 -8 10 7.1930 0.0090
-1 -8 11 -1.7936 0.0123
-1 -8 12 5.0996 0.0322
-1 -8 13 2.0002 0.0273
-1 -8 14 -1.2501 -0.0111
-1 -8 15 -1.4656 0.0025
-1 -8 16 0.5373 0.0022
-1 -8 17 -2.1412 -0.0109
-1 -8 18 -2.2189 -0.0019
-1 -8 19 -0.4451 0.0097
-1 -8 20 0.3182 0.0047
-1 -8 21 0.8085 0.0044
-1 -8 22 -1.6727 0.0063
-1 -8 23 -1.8651 0.0028
-1 -8 24 -2.6971 0.0000
-1 -8 25 -0.9753 -0.0027
-1 -8 26 -0.2451 -0.0166
-1 -7 1 3.1631 0.7013
-1 -7 2 1.5222 0.4076
-1 -7 3 -4.3485 -0.1403
-1 -7 4 7.7258 -0.1548
-1 -7 5 1.4349 0.0669
-1 -7 6 4.0430 0.0092
-1 -7 7 -0.5617 -0.0270
-1 -7 8 -8.0745 0.0706
-1 -7 9 0.1049 0.0652
-1 -7 10 3.0743 0.0080
-1 -7 11 10.0288 -0.0346
-1 -7 12 3.8668 -0.0105
-1 -7 13 4.4956 0.0202
-1 -7 14 0.5098 0.0127
-1 -7 15 -2.8425 -0.0152
-1 -7 16 -1.5234 -0.0024
-1 -7 17 0.9742 0.0028
-1 -7 18 -1.1693 -0.0092
-1 -7 19 -0.0040 0.0034
-1 -7 20 0.1345 0.0089
-1 -7 21 -2.0715 -0.0071
-1 -7 22 0.6502 0.0036
-1 -7 23 1.8256 0.0161
-1 -7 24 -0.2293 0.0119
-1 -7 25 -1.1136 -0.0080
-1 -7 26 1.3111 -0.0333
-1 -6 1 -8.2053 0.0633
-1 -6 2 8.7794 0.3268
-1 -6 3 22.9067 0.2189
-1 -6 4 17.3372 -0.0354
-1 -6 5 -4.8816 0.0497
-1 -6 6 -20.6109 0.1136
-1 -6 7 -9.7443 0.0001
-1 -6 8 -7.2390 -0.0394
-1 -6 9 -4.2864 0.0499
-1 -6 10 8.1626 0.0469
-1 -6 11 3.2502 -0.0161
-1 -6 12 6.3707 -0.0550
-1 -6 13 3.1608 -0.0352
-1 -6 14 -3.6764 -0.0011
-1 -6 15 -3.8975 0.0032
-1 -6 16 0.2848 -0.0002
-1 -6 17 1.7672 0.0197
-1 -6 18 -1.6238 -0.0061
-1 -6 19 -5.5715 -0.0183
-1 -6 20 -2.4046 -0.0011
-1 -6 21 -3.5001 0.0051
-1 -6 22 -3.9008 -0.0001
-1 -6 23 -1.7225 -0.0010
-1 -6 24 -0.1556 0.0066
-1 -6 25 0.1696 0.0000
-1 -6 26 -0.5362 -0.0225
-1 -5 1 -27.7396 -0.2202
-1 -5 2 -1.0761 -0.1357
-1 -5 3 18.8103 0.0689
-1 -5 4 40.8794 0.1013
-1 -5 5 22.3080 0.0609
-1 -5 6 2.0025 0.1292
-1 -5 7 -2.4196 0.0721
-1 -5 8 -4.5317 -0.0803
-1 -5 9 3.8094 -0.0876
-1 -5 10 8.7604 0.0267
-1 -5 11 3.5493 0.0380
-1 -5 12 -1.9630 -0.0095
-1 -5 13 0.3620 -0.0202
-1 -5 14 1.4018 -0.0037
-1 -5 15 -2.2660 0.0026
-1 -5 16 -0.0082 -0.0117
-1 -5 17 2.2104 -0.0077
-1 -5 18 -3.7893 0.0177
-1 -5 19 -4.2549 -0.0070
-1 -5 20 -6.0994 0.0017
-1 -5 21 -3.7976 0.0073
-1 -5 22 -3.0075 -0.0026
-1 -5 23 -0.7797 -0.0134
-1 -5 24 -0.5730 -0.0168
-1 -5 25 -1.1487 0.0147
-1 -5 26 0.0939 0.0142
-1 -4 1 27.7199 -0.2614
-1 -4 2 13.9331 -0.0199
-1 -4 3 25.6427 0.0087
-1 -4 4 41.7152 -0.1000
-1 -4 5 27.7617 -0.0980
-1 -4 6 -1.8192 -0.0163
-1 -4 7 0.9717 0.0796
-1 -4 8 -0.5801 0.0440
-1 -4 9 -3.0744 -0.1043
-1 -4 10 7.7261 -0.0755
-1 -4 11 1.7530 0.0247
-1 -4 12 -6.7239 0.0350
-1 -4 13 -2.0961 0.0150
-1 -4 14 0.9007 0.0083
-1 -4 15 1.7072 0.0126
-1 -4 16 0.4547 -0.0076
-1 -4 17 3.9068 -0.0133
-1 -4 18 4.2575 -0.0038
-1 -4 19 -5.5748 0.0126
-1 -4 20 -3.5472 -0.0062
-1 -4 21 -3.6039 0.0035
-1 -4 22 1.7529 0.0219
-1 -4 23 1.3692 0.0053
-1 -4 24 0.1375 -0.0255
-1 -4 25 2.0388 -0.0263
-1 -4 26 1.1703 0.0257
-1 -3 1 77.6309 -0.5680
-1 -3 2 60.6696 -0.2666
-1 -3 3 -7.0406 0.1709
-1 -3 4 -10.7795 0.1207
-1 -3 5 -2.9823 -0.1434
-1 -3 6 -5.8951 -0.2240
-1 -3 7 0.3837 -0.0815
-1 -3 8 5.3660 0.0768
-1 -3 9 0.6198 0.0639
-1 -3 10 0.5181 -0.0368
-1 -3 11 0.5062 -0.0130
-1 -3 12 -6.9496 0.0092
-1 -3 13 -5.0833 -0.0146
-1 -3 14 4.3050 -0.0130
-1 -3 15 5.0960 0.0148
-1 -3 16 3.4410 0.0332
-1 -3 17 0.4213 0.0003
-1 -3 18 0.1069 -0.0072
-1 -3 19 3.3909 -0.0102
-1 -3 20 -2.2999 -0.0005
-1 -3 21 -1.5706 0.0000
-1 -3 22 -4.7079 0.0050
-1 -3 23 1.3075 0.0306
-1 -3 24 3.1993 0.0183
-1 -3 25 1.3924 -0.0225
-1 -3 26 0.7348 -0.0408
-1 -2 1 57.4140 0.2128
-1 -2 2 30.0620 -0.3890
-1 -2 3 16.8905 -0.2197
-1 -2 4 0.2410 0.1430
-1 -2 5 2.3880 0.0862
-1 -2 6 -4.6756 -0.0935
-1 -2 7 7.5230 -0.1493
-1 -2 8 19.0438 -0.0101
-1 -2 9 -1.1747 0.0909
-1 -2 10 -7.5924 0.0517
-1 -2 11 -6.4017 0.0012
-1 -2 12 -4.9329 0.0110
-1 -2 13 -1.9110 0.0100
-1 -2 14 -0.6275 -0.0411
-1 -2 15 6.1444 -0.0331
-1 -2 16 2.3669 0.0149
-1 -2 17 -1.8817 0.0193
-1 -2 18 -0.9605 0.0033
-1 -2 19 -1.7726 0.0033
-1 -2 20 2.6947 -0.0086
-1 -2 21 -0.9449 -0.0076
-1 -2 22 2.6676 -0.0101
-1 -2 23 -1.1379 -0.0030
-1 -2 24 0.8315 0.0188
-1 -2 25 3.7318 0.0028
-1 -2 26 3.3523 -0.0329
-1 -1 2 145.5097 0.2385
-1 -1 3 47.8433 -0.3909
-1 -1 4 -0.8957 -0.2693
-1 -1 5 10.9800 0.1255
-1 -1 6 3.4321 0.1714
-1 -1 7 -14.2537 0.0338
-1 -1 8 -15.4275 -0.0156
-1 -1 9 -12.5640 0.0069
-1 -1 10 -19.9197 0.0122
-1 -1 11 -15.7690 -0.0168
-1 -1 12 -8.2151 0.0049
-1 -1 13 -0.5961 0.0493
-1 -1 14 4.1797 0.0227
-1 -1 15 0.8255 -0.0467
-1 -1 16 6.4727 -0.0264
-1 -1 17 3.3393 0.0145
-1 -1 18 -1.5602 0.0099
-1 -1 19 1.4731 0.0059
-1 -1 20 -0.7010 0.0065
-1 -1 21 4.2132 0.0049
-1 -1 22 -0.3675 0.0005
-1 -1 23 0.3450 -0.0237
-1 -1 24 -1.3873 -0.0278
-1 -1 25 -0.2752 0.0238
-1 -1 26 -0.5328 0.0534
-1 0 2 48.6041 0.5124
-1 0 3 63.6713 0.2120
-1 0 4 -6.6618 -0.1475
-1 0 5 -23.8854 -0.1086
-1 0 6 -9.0732 0.1115
-1 0 7 -11.1470 0.1109
-1 0 8 -18.1696 -0.0011
-1 0 9 -26.7115 0.0116
-1 0 10 -15.7284 0.0079
-1 0 11 -5.3486 -0.0245
-1 0 12 0.6054 -0.0666
-1 0 13 9.2417 -0.0223
-1 0 14 5.2516 0.0568
-1 0 15 1.2494 0.0293
-1 0 16 -1.1977 -0.0280
-1 0 17 2.9113 -0.0137
-1 0 18 3.7924 -0.0045
-1 0 19 0.8991 -0.0124
-1 0 20 0.5663 0.0039
-1 0 21 -3.5677 0.0092
-1 0 22 1.7907 0.0096
-1 0 23 -1.1579 0.0257
-1 0 24 -0.3930 -0.0221
-1 0 25 -0.9392 -0.0660
-1 0 26 0.3369 0.0159
-1 1 2 -32.8985 0.0817
-1 1 3 -14.2356 0.3383
-1 1 4 23.7545 0.1770
-1 1 5 10.7119 -0.0456
-1 1 6 0.6036 -0.0329
-1 1 7 9.3593 0.0177
-1 1 8 2.0114 -0.0576
-1 1 9 -7.7664 -0.0614
-1 1 10 -7.4961 0.0379
-1 1 11 5.1219 0.0345
-1 1 12 8.8930 -0.0129
-1 1 13 3.8452 -0.0604
-1 1 14 5.7611 -0.0210
-1 1 15 -1.7298 0.0506
-1 1 16 -2.7754 0.0109
-1 1 17 -4.3115 -0.0162
-1 1 18 -1.4178 0.0076
-1 1 19 2.3506 -0.0168
-1 1 20 -1.3854 -0.0221
-1 1 21 0.0859 -0.0039
-1 1 22 -0.4776 0.0083
-1 1 23 2.2249 0.0369
-1 1 24 1.9601 0.0256
-1 1 25 3.4064 -0.0530
-1 2 1 11.0921 -0.1708
-1 2 2 -68.2752 -0.1823
-1 2 3 -18.7846 0.0028
-1 2 4 13.5994 0.1194
-1 2 5 30.2163 0.0431
-1 2 6 14.1829 -0.0498
-1 2 7 -2.8900 0.0454
-1 2 8 8.2641 0.0044
-1 2 9 3.3616 -0.1283
-1 2 10 -4.7321 -0.0673
-1 2 11 0.6629 0.0451
-1 2 12 0.0058 0.0756
-1 2 13 1.9444 0.0159
-1 2 14 -1.4388 -0.0454
-1 2 15 -2.8967 -0.0086
-1 2 16 -2.5468 0.0107
-1 2 17 2.1385 -0.0148
-1 2 18 -0.2214 0.0081
-1 2 19 2.3943 0.0242
-1 2 20 4.4421 -0.0037
-1 2 21 0.9100 -0.0142
-1 2 22 2.0794 -0.0291
-1 2 23 -1.5306 -0.0127
-1 2 24 -1.0371 0.0635
-1 2 25 0.1526 0.0678
-1 3 1 14.6878 -0.2156
-1 3 2 17.0290 0.0091
-1 3 3 -41.7029 0.0299
-1 3 4 -25.1779 0.0053
-1 3 5 10.3387 -0.0453
-1 3 6 11.4677 -0.1429
-1 3 7 -1.0272 -0.0375
-1 3 8 -1.3550 0.1268
-1 3 9 8.1840 0.0533
-1 3 10 8.2012 -0.0745
-1 3 11 1.7272 -0.0464
-1 3 12 2.3118 0.0200
-1 3 13 -4.2363 0.0436
-1 3 14 -4.3729 -0.0006
-1 3 15 -2.1142 -0.0170
-1 3 16 0.1236 0.0061
-1 3 17 -0.9732 -0.0116
-1 3 18 1.9201 -0.0262
-1 3 19 -0.7867 0.0147
-1 3 20 -2.0557 0.0337
-1 3 21 -0.8092 -0.0056
-1 3 22 -1.3884 -0.0098
-1 3 23 -2.6653 -0.0240
-1 3 24 -2.9761 -0.0453
-1 4 1 -26.1231 0.1448
-1 4 2 -19.2466 -0.1596
-1 4 3 9.8363 -0.0181
-1 4 4 -16.5689 0.0492
-1 4 5 -13.3758 0.0728
-1 4 6 4.1951 -0.0623
-1 4 7 0.3850 -0.1809
-1 4 8 1.3675 0.0071
-1 4 9 9.4297 0.1610
-1 4 10 12.4401 0.0759
-1 4 11 10.9704 -0.0402
-1 4 12 0.7735 -0.0247
-1 4 13 -1.2313 -0.0001
-1 4 14 0.8049 -0.0016
-1 4 15 -1.1358 -0.0142
-1 4 16 -2.6190 0.0026
-1 4 17 -0.4645 0.0365
-1 4 18 -3.7807 -0.0035
-1 4 19 -1.1786 -0.0303
-1 4 20 -4.4021 0.0066
-1 4 21 -5.2738 0.0151
-1 4 22 -0.2055 0.0288
-1 4 23 -0.6158 -0.0050
-1 4 24 -3.0284 -0.0539
-1 5 1 -33.1068 0.4334
-1 5 2 14.2496 -0.1632
-1 5 3 2.6354 -0.3318
-1 5 4 -4.1048 -0.1298
-1 5 5 -10.9608 0.1219
-1 5 6 -13.8527 0.2141
-1 5 7 -3.7021 0.0160
-1 5 8 4.4433 -0.1381
-1 5 9 7.0782 -0.0243
-1 5 10 8.0635 0.0597
-1 5 11 7.9476 0.0162
-1 5 12 7.1666 0.0024
-1 5 13 2.2184 0.0177
-1 5 14 -0.5602 0.0075
-1 5 15 2.5449 -0.0234
-1 5 16 2.6694 -0.0400
-1 5 17 -1.6304 0.0193
-1 5 18 -0.4636 0.0297
-1 5 19 -1.0436 -0.0076
-1 5 20 1.3793 -0.0083
-1 5 21 -0.7237 -0.0272
-1 5 22 -2.1895 -0.0017
-1 5 23 0.1500 0.0366
-1 6 1 -6.9574 0.0144
-1 6 2 -14.4765 0.2489
-1 6 3 13.0591 -0.0322
-1 6 4 1.1723 -0.1949
-1 6 5 -6.7353 -0.1140
-1 6 6 -3.8958 0.1270
-1 6 7 -5.2628 0.1821
-1 6 8 4.7407 -0.0246
-1 6 9 6.5943 -0.0958
-1 6 10 5.2415 -0.0259
-1 6 11 5.1413 -0.0117
-1 6 12 2.1060 -0.0288
-1 6 13 3.3000 0.0018
-1 6 14 4.9305 0.0600
-1 6 15 2.8927 0.0363
-1 6 16 1.1754 -0.0407
-1 6 17 -0.9127 -0.0307
-1 6 18 -2.6307 0.0083
-1 6 19 -1.4226 0.0049
-1 6 20 -1.9313 -0.0121
-1 6 21 -0.9481 -0.0444
-1 6 22 0.3800 0.0368
-1 6 23 -0.4950 0.0520
-1 7 1 -14.8372 -0.4190
-1 7 2 0.2093 0.2001
-1 7 3 -6.8371 0.4001
-1 7 4 -2.3919 0.1754
-1 7 5 4.6872 -0.1230
-1 7 6 1.3944 -0.1598
-1 7 7 1.8289 0.0079
-1 7 8 3.9742 0.0536
-1 7 9 8.1046 -0.0102
-1 7 10 2.5363 0.0103
-1 7 11 -0.7760 0.0261
-1 7 12 2.7638 -0.0160
-1 7 13 1.2571 -0.0695
-1 7 14 1.1836 -0.0173
-1 7 15 2.6185 0.0602
-1 7 16 0.2457 0.0201
-1 7 17 0.0616 -0.0223
-1 7 18 -1.6500 -0.0218
-1 7 19 -2.4928 0.0028
-1 7 20 -1.8751 -0.0013
-1 7 21 0.3037 -0.0510
-1 7 22 -0.4435 -0.0139
-1 8 1 1.5513 -0.1527
-1 8 2 -12.5511 -0.2151
-1 8 3 -4.0273 0.0892
-1 8 4 -5.0255 0.2222
-1 8 5 0.1069 0.0828
-1 8 6 12.1505 -0.1172
-1 8 7 7.0435 -0.0790
-1 8 8 5.3533 0.0045
-1 8 9 3.6993 -0.0260
-1 8 10 2.3593 -0.0200
-1 8 11 2.1837 0.0650
-1 8 12 -1.2660 0.0795
-1 8 13 1.4836 -0.0157
-1 8 14 2.2733 -0.0763
-1 8 15 1.8405 -0.0270
-1 8 16 2.9773 0.0327
-1 8 17 -1.9630 0.0094
-1 8 18 1.7884 -0.0128
-1 8 19 1.9866 0.0529
-1 8 20 -0.7079 0.0474
-1 8 21 -0.8615 -0.0917
-1 9 1 -3.0189 0.1757
-1 9 2 0.5972 -0.1114
-1 9 3 -0.4324 -0.2534
-1 9 4 2.3896 -0.1105
-1 9 5 8.1753 0.0482
-1 9 6 8.6383 0.0313
-1 9 7 6.8802 -0.0234
-1 9 8 2.0017 0.0473
-1 9 9 0.7946 0.0300
-1 9 10 0.8940 -0.0770
-1 9 11 -0.8281 -0.0417
-1 9 12 2.9550 0.0527
-1 9 13 1.5563 0.0784
-1 9 14 0.4293 0.0161
-1 9 15 3.3778 -0.0623
-1 9 16 1.0776 -0.0224
-1 9 17 0.7675 0.0298
-1 9 18 -0.6881 -0.0438
-1 9 19 2.1325 0.0036
-1 9 20 -0.1044 0.0907
-1 9 21 -0.0582 0.0152
-1 10 1 -0.4741 0.1837
-1 10 2 -2.5209 0.0427
-1 10 3 2.3538 -0.0705
-1 10 4 5.0590 -0.1231
-1 10 5 4.2013 -0.0300
-1 10 6 7.1558 0.0180
-1 10 7 4.6823 -0.0474
-1 10 8 -2.1858 0.0129
-1 10 9 -1.4746 0.1300
-1 10 10 0.5611 0.0380
-1 10 11 3.1015 -0.0760
-1 10 12 0.1123 -0.0484
-1 10 13 0.0465 0.0135
-1 10 14 -0.1212 0.0679
-1 10 15 -1.4300 0.0065
-1 10 16 3.5184 -0.0376
-1 10 17 -0.3261 -0.0080
-1 10 18 -1.8210 -0.0206
-1 10 19 -0.0418 -0.0057
-1 10 20 1.0848 0.0263
-1 11 1 0.5193 0.1458
-1 11 2 1.9237 -0.0002
-1 11 3 5.0285 -0.0150
-1 11 4 4.7088 -0.0021
-1 11 5 6.4982 0.0350
-1 11 6 4.2376 0.1066
-1 11 7 1.7806 0.0074
-1 11 8 2.2422 -0.1114
-1 11 9 -4.8279 -0.0259
-1 11 10 -1.9632 0.0925
-1 11 11 1.2500 0.0506
-1 11 12 3.0425 -0.0380
-1 11 13 1.7191 -0.0378
-1 11 14 -1.4273 0.0149
-1 11 15 -0.0379 0.0237
-1 11 16 -0.0081 0.0107
-1 11 17 2.4437 0.0190
-1 11 18 0.6496 -0.0316
-1 11 19 0.0619 0.0079
-1 12 1 -1.4287 -0.0335
-1 12 2 3.1316 0.0897
-1 12 3 3.2817 -0.0066
-1 12 4 4.2107 -0.0401
-1 12 5 2.9782 -0.0181
-1 12 6 2.5599 0.0841
-1 12 7 4.1327 0.1116
-1 12 8 0.5252 -0.0450
-1 12 9 1.8491 -0.1200
-1 12 10 -2.2644 -0.0432
-1 12 11 0.7534 0.0536
-1 12 12 2.1412 0.0137
-1 12 13 0.5245 -0.0156
-1 12 14 1.3859 0.0346
-1 12 15 -0.8305 0.0249
-1 12 16 -0.0522 -0.0004
-1 12 17 0.9665 -0.0411
-1 12 18 2.1610 -0.0552
-1 13 1 -2.6654 -0.2869
-1 13 2 -3.9618 0.1154
-1 13 3 1.4678 0.2208
-1 13 4 0.7969 0.0865
-1 13 5 1.2437 -0.1192
-1 13 6 1.5692 -0.1436
-1 13 7 0.3985 0.0221
-1 13 8 5.7180 0.1072
-1 13 9 2.6830 0.0015
-1 13 10 1.4600 -0.0722
-1 13 11 -1.8286 -0.0203
-1 13 12 1.6265 0.0180
-1 13 13 1.4575 -0.0377
-1 13 14 -1.9819 -0.0126
-1 13 15 0.5183 0.0387
-1 13 16 -0.8196 0.0880
-1 13 17 -1.3560 0.0278
-1 14 1 0.1089 -0.1140
-1 14 2 2.5723 -0.1297
-1 14 3 -0.4198 0.0838
-1 14 4 0.8137 0.1442
-1 14 5 1.6869 0.0469
-1 14 6 0.3867 -0.1330
-1 14 7 2.2123 -0.1151
-1 14 8 -0.7877 0.0291
-1 14 9 0.6141 0.0566
-1 14 10 -0.6003 0.0252
-1 14 11 -0.3954 0.0260
-1 14 12 -2.6539 0.0137
-1 14 13 -0.0883 0.0083
-1 14 14 -0.6273 -0.0895
-1 14 15 -1.0536 -0.0597
-1 14 16 1.1543 0.1164
-1 15 1 3.1507 0.2329
-1 15 2 1.4409 -0.1348
-1 15 3 -0.2021 -0.2411
-1 15 4 -0.2636 -0.0788
-1 15 5 -1.1500 0.1020
-1 15 6 -0.8798 0.0885
-1 15 7 0.5376 -0.0685
-1 15 8 3.5701 -0.0405
-1 15 9 -0.1256 0.0381
-1 15 10 -1.2313 -0.0076
-1 15 11 -3.2817 0.0123
-1 15 12 0.1132 0.0194
-1 15 13 0.1276 0.0449
-1 15 14 -0.0977 0.0539
-1 15 15 0.2184 -0.1959
-1 16 1 2.1283 0.1879
-1 16 2 4.6688 0.0781
-1 16 3 1.5486 -0.1080
-1 16 4 -1.8920 -0.1348
-1 16 5 -0.7780 -0.0522
-1 16 6 -3.8077 0.0794
-1 16 7 -1.8614 0.0690
-1 16 8 1.5431 0.0001
-1 16 9 0.9221 0.0208
-1 16 10 0.6239 -0.0090
-1 16 11 1.4634 -0.0438
-1 16 12 -1.4906 -0.0257
-1 16 13 2.2790 -0.0167
-1 17 1 2.5433 -0.0577
-1 17 2 4.3778 0.0873
-1 17 3 1.0578 0.1000
-1 17 4 0.9174 -0.0121
-1 17 5 -0.8316 -0.0167
-1 17 6 -3.6067 0.0198
-1 17 7 -4.6014 0.0089
-1 17 8 -0.9113 -0.0514
-1 17 9 1.8013 -0.0280
-1 17 10 -0.4308 0.0548
-1 17 11 -0.3305 0.0409
-1 17 12 0.8548 -0.0804
-1 18 1 -1.9682 -0.1053
-1 18 2 -0.1504 -0.0229
-1 18 3 0.7407 0.0584
-1 18 4 -1.1592 0.0932
-1 18 5 0.6679 -0.0005
-1 18 6 -0.1433 0.0143
-1 18 7 -2.4402 -0.0094
-1 18 8 -1.6842 -0.0643
-1 18 9 -2.7341 -0.0479
-1 18 10 -0.4498 -0.1031
-1 19 1 -0.2779 -0.0877
-1 19 2 -0.9709 -0.0089
-1 19 3 -2.2224 0.0141
-1 19 4 0.5949 0.0579
-1 19 5 3.0675 -0.0718
-1 19 6 0.3285 -0.1016
-1 19 7 -1.5161 0.0822
-1 19 8 -2.2875 -0.0260
-1 20 1 1.1645 0.0028
-1 20 2 1.1474 0.0146
-1 20 3 -1.4606 0.0261
-1 20 4 -2.7663 -0.0255
-1 20 5 0.8031 0.0674
-1 20 6 2.9070 -0.1045
-1 21 1 -0.3537 0.1519
-1 21 2 1.3734 -0.0289
-1 21 3 0.6253 -0.0662
0 -22 1 -0.2958 0.0865
0 -22 2 1.4301 -0.0945
0 -22 3 -0.8579 0.0289
0 -22 4 0.8581 -0.0546
0 -22 5 -0.5217 0.0800
0 -22 6 -1.4524 0.0231
0 -22 7 1.6541 -0.0070
0 -22 8 1.2000 0.0390
0 -22 9 -0.0671 -0.0294
0 -22 10 0.0103 0.0350
0 -22 11 0.2372 -0.0504
0 -22 12 -1.4228 0.0186
0 -22 13 1.2756 -0.0671
0 -21 1 2.0134 -0.0011
0 -21 2 -0.1608 0.0934
0 -21 3 0.6766 -0.0553
0 -21 4 -1.7793 -0.0129
0 -21 5 -1.7479 -0.0257
0 -21 6 -2.6343 0.0296
0 -21 7 -1.4462 0.0247
0 -21 8 0.1476 -0.0192
0 -21 9 -0.8942 0.0241
0 -21 10 1.4763 -0.0381
0 -21 11 1.4537 0.0158
0 -21 12 -0.1074 -0.0227
0 -21 13 -0.7959 0.0073
0 -21 14 2.8089 -0.0342
0 -21 15 2.2862 0.0261
0 -21 16 -2.0622 -0.0310
0 -20 1 -0.8320 -0.0615
0 -20 2 1.2593 0.0794
0 -20 3 -2.0050 0.1024
0 -20 4 0.8619 0.0150
0 -20 5 0.2794 -0.0046
0 -20 6 -5.9356 -0.0097
0 -20 7 -4.3445 -0.0007
0 -20 8 0.5043 0.0026
0 -20 9 -0.2742 -0.0126
0 -20 10 0.7703 0.0082
0 -20 11 4.0559 -0.0407
0 -20 12 0.3929 0.0021
0 -20 13 -0.6590 -0.0142
0 -20 14 -1.2461 -0.0161
0 -20 15 1.2232 0.0072
0 -20 16 2.4793 0.0305
0 -20 17 -0.4852 -0.0126
0 -20 18 -0.7076 -0.0154
0 -19 1 2.6278 -0.0875
0 -19 2 2.0287 0.0014
0 -19 3 2.8393 0.0689
0 -19 4 -2.3007 0.0288
0 -19 5 -0.6458 0.0034
0 -19 6 0.4003 -0.0249
0 -19 7 -3.1454 0.0077
0 -19 8 -0.9086 0.0017
0 -19 9 -0.3303 -0.0190
0 -19 10 0.3574 0.0171
0 -19 11 3.3829 0.0004
0 -19 12 3.1774 -0.0050
0 -19 13 -1.3559 0.0163
0 -19 14 -0.4585 -0.0098
0 -19 15 0.4643 0.0085
0 -19 16 1.5710 0.0319
0 -19 17 0.9169 0.0102
0 -19 18 0.2844 0.0224
0 -19 19 1.8066 0.0106
0 -18 1 1.7128 -0.0505
0 -18 2 1.0963 -0.0683
0 -18 3 1.4042 -0.0404
0 -18 4 2.1105 0.0050
0 -18 5 3.3688 -0.0062
0 -18 6 -0.1703 -0.0240
0 -18 7 -1.2444 -0.0186
0 -18 8 -1.5918 0.0150
0 -18 9 -3.3561 -0.0029
0 -18 10 -5.3927 -0.0103
0 -18 11 -2.9212 0.0296
0 -18 12 1.3011 0.0086
0 -18 13 0.8618 0.0179
0 -18 14 -3.6154 0.0015
0 -18 15 -0.9741 -0.0098
0 -18 16 1.8665 0.0005
0 -18 17 0.1055 0.0079
0 -18 18 0.9581 -0.0022
0 -18 19 0.5772 0.0150
0 -18 20 -0.3248 -0.0073
0 -18 21 -0.1416 0.0058
0 -17 1 -3.2345 0.0615
0 -17 2 -1.5633 -0.0890
0 -17 3 1.6226 -0.0455
0 -17 4 0.5972 -0.0059
0 -17 5 0.3789 0.0171
0 -17 6 4.4078 -0.0130
0 -17 7 -1.1727 -0.0402
0 -17 8 -1.3942 0.0073
0 -17 9 -1.0223 0.0447
0 -17 10 -1.9584 0.0075
0 -17 11 -1.5849 -0.0017
0 -17 12 -1.3401 0.0007
0 -17 13 3.7346 -0.0120
0 -17 14 2.0331 -0.0020
0 -17 15 -0.8694 -0.0103
0 -17 16 2.6518 0.0133
0 -17 17 2.9350 0.0067
0 -17 18 0.4717 -0.0048
0 -17 19 3.7117 -0.0040
0 -17 20 1.4935 -0.0087
0 -17 21 -0.1066 -0.0167
0 -17 22 1.0602 -0.0078
0 -16 1 3.7336 0.1822
0 -16 2 -2.6605 -0.0301
0 -16 3 -0.8119 -0.1006
0 -16 4 0.1612 -0.0367
0 -16 5 1.3274 0.0151
0 -16 6 0.2357 0.0517
0 -16 7 2.0512 -0.0021
0 -16 8 -0.0572 -0.0243
0 -16 9 2.7819 0.0195
0 -16 10 4.1884 0.0273
0 -16 11 1.4831 -0.0160
0 -16 12 2.8213 -0.0023
0 -16 13 0.1322 -0.0051
0 -16 14 -0.0821 0.0001
0 -16 15 -2.2972 -0.0010
0 -16 16 -2.1512 -0.0153
0 -16 17 -2.9826 0.0024
0 -16 18 0.6179 0.0052
0 -16 19 4.5401 -0.0082
0 -16 20 4.3179 -0.0059
0 -16 21 2.6754 -0.0145
0 -16 22 3.4487 -0.0057
0 -16 23 3.0746 0.0112
0 -15 1 -1.8070 0.0521
0 -15 2 0.7896 0.1216
0 -15 3 3.8653 -0.0326
0 -15 4 4.9137 -0.0506
0 -15 5 0.4449 -0.0131
0 -15 6 2.1976 0.0540
0 -15 7 0.4197 0.0645
0 -15 8 0.4320 -0.0314
0 -15 9 -1.3726 -0.0342
0 -15 10 0.9557 -0.0139
0 -15 11 2.4594 -0.0003
0 -15 12 -3.9405 -0.0182
0 -15 13 0.3950 -0.0011
0 -15 14 -2.3737 -0.0003
0 -15 15 -4.1405 -0.0009
0 -15 16 -0.1774 -0.0053
0 -15 17 0.0654 -0.0034
0 -15 18 -2.8071 -0.0016
0 -15 19 1.1339 0.0079
0 -15 20 1.8471 -0.0103
0 -15 21 0.2484 -0.0123
0 -15 22 -0.4759 -0.0048
0 -15 23 -0.6990 -0.0005
0 -14 1 0.4748 -0.2788
0 -14 2 1.0801 0.1573
0 -14 3 0.4018 0.2105
0 -14 4 4.8821 0.0636
0 -14 5 5.5068 -0.0596
0 -14 6 -1.3890 -0.0643
0 -14 7 0.5610 0.0257
0 -14 8 -1.0590 0.0300
0 -14 9 -1.7121 -0.0249
0 -14 10 -1.4351 -0.0096
0 -14 11 -1.0735 -0.0017
0 -14 12 1.5147 -0.0009
0 -14 13 -2.0591 -0.0198
0 -14 14 1.4116 -0.0034
0 -14 15 0.5854 0.0048
0 -14 16 -0.5206 0.0124
0 -14 17 1.6581 0.0033
0 -14 18 0.1767 0.0005
0 -14 19 0.3803 -0.0072
0 -14 20 0.2905 -0.0032
0 -14 21 -3.2815 -0.0002
0 -14 22 -1.0360 -0.0044
0 -14 23 1.0088 0.0295
0 -14 24 -0.5552 0.0250
0 -13 1 -0.5565 -0.1712
0 -13 2 0.8303 -0.0955
0 -13 3 2.7755 0.1334
0 -13 4 0.8345 0.1365
0 -13 5 -0.8427 0.0121
0 -13 6 -0.1830 -0.0960
0 -13 7 -2.3752 -0.0713
0 -13 8 3.2106 0.0295
0 -13 9 2.3513 0.0247
0 -13 10 -0.1887 -0.0041
0 -13 11 -1.6031 0.0163
0 -13 12 -4.9473 0.0204
0 -13 13 -1.2729 0.0053
0 -13 14 -2.0698 -0.0148
0 -13 15 -2.3504 -0.0003
0 -13 16 1.7245 0.0029
0 -13 17 0.1500 0.0024
0 -13 18 0.9568 0.0113
0 -13 19 0.8658 -0.0003
0 -13 20 0.1759 -0.0010
0 -13 21 1.2220 0.0113
0 -13 22 -2.8344 0.0026
0 -13 23 -2.9697 -0.0290
0 -13 24 1.3233 0.0166
0 -13 25 -0.3291 0.0212
0 -12 1 1.2236 0.1540
0 -12 2 7.0212 -0.2215
0 -12 3 0.7224 -0.2127
0 -12 4 -3.9414 -0.0414
0 -12 5 -4.9646 0.0656
0 -12 6 -10.1786 0.0255
0 -12 7 -0.5556 -0.0338
0 -12 8 -0.0094 -0.0082
0 -12 9 -0.3437 0.0248
0 -12 10 2.4858 -0.0031
0 -12 11 -0.1400 -0.0013
0 -12 12 -1.9376 0.0112
0 -12 13 -2.9456 0.0260
0 -12 14 -0.5337 0.0038
0 -12 15 3.3631 -0.0230
0 -12 16 0.4762 0.0067
0 -12 17 2.3293 -0.0009
0 -12 18 0.4329 -0.0054
0 -12 19 -0.4219 0.0255
0 -12 20 2.7153 -0.0123
0 -12 21 2.0690 0.0030
0 -12 22 2.2810 0.0153
0 -12 23 0.8527 -0.0045
0 -12 24 -2.5012 -0.0122
0 -12 25 -0.3857 0.0126
0 -11 1 5.3589 0.1939
0 -11 2 -3.8343 0.0052
0 -11 3 -7.1154 -0.1524
0 -11 4 -6.0201 -0.1209
0 -11 5 -7.1538 -0.0130
0 -11 6 -4.4824 0.0700
0 -11 7 -8.9129 0.0103
0 -11 8 1.6389 0.0006
0 -11 9 2.5256 0.0349
0 -11 10 -0.1518 0.0035
0 -11 11 3.9184 -0.0161
0 -11 12 2.5017 -0.0233
0 -11 13 2.7634 -0.0123
0 -11 14 0.2318 0.0158
0 -11 15 -2.3234 -0.0084
0 -11 16 1.7756 -0.0011
0 -11 17 -2.2744 0.0099
0 -11 18 -1.6554 -0.0141
0 -11 19 -1.5362 -0.0129
0 -11 20 -2.9241 0.0064
0 -11 21 0.7371 -0.0085
0 -11 22 0.5177 0.0126
0 -11 23 -1.9566 0.0189
0 -11 24 -0.7349 0.0029
0 -11 25 -3.1271 -0.0068
0 -10 1 0.7715 0.0916
0 -10 2 -0.6342 0.1072
0 -10 3 -9.7823 0.0660
0 -10 4 -15.8782 0.0011
0 -10 5 -2.9673 -0.0055
0 -10 6 -2.4942 0.0466
0 -10 7 8.4876 0.0150
0 -10 8 5.5469 -0.0340
0 -10 9 0.4360 0.0100
0 -10 10 0.8336 0.0338
0 -10 11 -2.0049 -0.0025
0 -10 12 3.4023 -0.0183
0 -10 13 1.4637 -0.0246
0 -10 14 -2.6248 0.0101
0 -10 15 -1.6759 0.0176
0 -10 16 -3.1484 -0.0114
0 -10 17 -2.2908 0.0132
0 -10 18 -2.8191 0.0128
0 -10 19 -2.8072 -0.0055
0 -10 20 -2.0022 -0.0024
0 -10 21 -1.2992 -0.0075
0 -10 22 -2.0946 -0.0182
0 -10 23 -1.7329 -0.0012
0 -10 24 -2.2581 0.0294
0 -10 25 -0.4690 0.0306
0 -10 26 -1.0830 0.0155
0 -9 1 3.0257 -0.0486
0 -9 2 4.8165 0.0667
0 -9 3 -2.8297 0.0239
0 -9 4 -2.1409 0.0210
0 -9 5 -2.7425 -0.0053
0 -9 6 9.9041 0.0416
0 -9 7 2.8638 0.0784
0 -9 8 3.0624 -0.0493
0 -9 9 2.6928 -0.0781
0 -9 10 -2.8044 -0.0185
0 -9 11 -1.5739 0.0192
0 -9 12 -4.8474 0.0221
0 -9 13 4.5187 0.0104
0 -9 14 2.3126 -0.0019
0 -9 15 -6.4001 0.0074
0 -9 16 -3.4543 -0.0037
0 -9 17 -1.4547 -0.0155
0 -9 18 -0.7970 0.0115
0 -9 19 1.6036 0.0127
0 -9 20 1.3177 -0.0128
0 -9 21 0.8434 0.0056
0 -9 22 2.9186 0.0027
0 -9 23 0.4031 -0.0133
0 -9 24 0.1061 0.0041
0 -9 25 1.5825 0.0221
0 -9 26 2.3481 0.0380
0 -8 1 -21.1999 -0.3176
0 -8 2 -13.7567 0.1267
0 -8 3 3.9523 0.1539
0 -8 4 13.3290 0.0411
0 -8 5 17.6960 -0.0770
0 -8 6 7.0874 -0.0936
0 -8 7 15.3796 0.0397
0 -8 8 6.5390 0.0720
0 -8 9 -6.3281 -0.0517
0 -8 10 -2.9360 -0.0472
0 -8 11 -2.5065 0.0029
0 -8 12 2.3847 0.0087
0 -8 13 -2.1494 -0.0022
0 -8 14 -0.3941 -0.0029
0 -8 15 -1.4737 0.0052
0 -8 16 -3.4266 0.0031
0 -8 17 -0.2541 -0.0163
0 -8 18 0.8956 -0.0179
0 -8 19 0.2236 0.0040
0 -8 20 0.2458 0.0128
0 -8 21 -2.0379 -0.0076
0 -8 22 -4.5214 0.0107
0 -8 23 -1.0599 0.0135
0 -8 24 0.3952 -0.0193
0 -8 25 -0.8057 -0.0164
0 -8 26 1.1557 -0.0253
0 -7 1 -11.4767 -0.2010
0 -7 2 -18.4369 -0.1102
0 -7 3 -16.7656 0.1736
0 -7 4 10.3040 0.1198
0 -7 5 28.4813 -0.0030
0 -7 6 27.6078 -0.1650
0 -7 7 7.8738 -0.1193
0 -7 8 2.9146 0.0862
0 -7 9 1.5502 0.0970
0 -7 10 -0.5023 -0.0036
0 -7 11 3.5741 -0.0074
0 -7 12 -1.5091 0.0165
0 -7 13 2.1438 -0.0059
0 -7 14 -0.3741 -0.0282
0 -7 15 -4.9683 -0.0144
0 -7 16 -4.0893 -0.0005
0 -7 17 -0.0402 0.0130
0 -7 18 1.8354 0.0032
0 -7 19 1.8173 -0.0119
0 -7 20 0.2456 0.0042
0 -7 21 -1.7199 -0.0040
0 -7 22 -4.0573 -0.0114
0 -7 23 -3.3051 0.0106
0 -7 24 -2.5042 0.0065
0 -7 25 -0.3697 -0.0331
0 -7 26 -0.5056 -0.0325
0 -6 1 -7.6194 0.3792
0 -6 2 4.3695 -0.2998
0 -6 3 4.9000 -0.2915
0 -6 4 4.5786 -0.0370
0 -6 5 6.8248 0.1014
0 -6 6 -1.8280 0.0700
0 -6 7 6.1778 -0.0820
0 -6 8 1.9782 -0.0588
0 -6 9 -2.9924 0.0613
0 -6 10 4.9195 0.0355
0 -6 11 4.6184 -0.0017
0 -6 12 3.1648 0.0247
0 -6 13 -0.3021 0.0259
0 -6 14 -2.3025 -0.0200
0 -6 15 -4.5670 -0.0271
0 -6 16 -6.1211 -0.0042
0 -6 17 -0.3825 0.0098
0 -6 18 2.7980 0.0191
0 -6 19 -1.7498 0.0057
0 -6 20 1.6578 -0.0040
0 -6 21 1.2074 0.0142
0 -6 22 -1.1124 -0.0118
0 -6 23 -3.3455 -0.0105
0 -6 24 -1.2464 0.0045
0 -6 25 -1.9544 0.0050
0 -6 26 -0.8009 -0.0142
0 -5 1 6.6321 0.3951
0 -5 2 3.6341 0.0277
0 -5 3 -3.4196 -0.3252
0 -5 4 0.9318 -0.2304
0 -5 5 6.4612 0.0009
0 -5 6 -7.2162 0.1701
0 -5 7 -13.8232 0.0935
0 -5 8 5.7355 -0.0286
0 -5 9 5.2422 -0.0169
0 -5 10 6.9956 0.0106
0 -5 11 10.0296 -0.0459
0 -5 12 -1.0551 -0.0411
0 -5 13 -5.2918 0.0398
0 -5 14 -0.4681 0.0444
0 -5 15 0.9802 -0.0055
0 -5 16 -2.9512 -0.0187
0 -5 17 -4.7505 -0.0116
0 -5 18 -1.2577 0.0094
0 -5 19 0.0459 0.0053
0 -5 20 -3.5605 0.0083
0 -5 21 0.1106 0.0042
0 -5 22 -1.4685 0.0091
0 -5 23 1.4758 0.0027
0 -5 24 -1.9024 -0.0074
0 -5 25 -2.0381 -0.0019
0 -5 26 -0.5779 0.0123
0 -4 1 -18.9837 -0.1322
0 -4 2 28.2429 0.3454
0 -4 3 36.5123 0.2339
0 -4 4 21.0116 -0.0628
0 -4 5 19.3889 -0.1026
0 -4 6 -3.4640 0.0057
0 -4 7 -7.4368 0.0673
0 -4 8 1.1707 0.0157
0 -4 9 7.9016 -0.0154
0 -4 10 10.5101 0.0156
0 -4 11 9.3848 0.0027
0 -4 12 1.5382 -0.0714
0 -4 13 -5.0363 -0.0488
0 -4 14 -5.2257 0.0373
0 -4 15 0.4666 0.0330
0 -4 16 1.0775 -0.0082
0 -4 17 -0.1505 -0.0144
0 -4 18 -0.1314 -0.0128
0 -4 19 -5.0842 -0.0085
0 -4 20 -3.2889 -0.0146
0 -4 21 -1.2662 0.0084
0 -4 22 2.2496 0.0061
0 -4 23 -2.3024 -0.0003
0 -4 24 1.2928 0.0094
0 -4 25 -0.4645 -0.0050
0 -4 26 -0.6630 0.0196
0 -3 1 100.1926 -0.3747
0 -3 2 91.7607 -0.0467
0 -3 3 40.6367 0.2977
0 -3 4 12.2287 0.2638
0 -3 5 11.2521 -0.0120
0 -3 6 0.8463 -0.0715
0 -3 7 -17.5920 -0.0300
0 -3 8 1.5332 -0.0395
0 -3 9 4.6595 -0.0497
0 -3 10 -1.6688 -0.0036
0 -3 11 3.9701 0.0774
0 -3 12 0.4079 0.0327
0 -3 13 -3.6639 -0.0589
0 -3 14 -1.6424 -0.0370
0 -3 15 2.3690 0.0182
0 -3 16 5.7205 0.0158
0 -3 17 -0.4048 -0.0092
0 -3 18 -2.9856 0.0013
0 -3 19 1.0121 0.0112
0 -3 20 -2.5661 -0.0113
0 -3 21 -1.7287 -0.0161
0 -3 22 -3.4196 -0.0015
0 -3 23 2.3149 0.0050
0 -3 24 -1.4013 0.0193
0 -3 25 -0.3758 0.0209
0 -3 26 -0.0702 -0.0187
0 -2 2 48.3465 -0.1589
0 -2 3 47.7482 -0.0763
0 -2 4 -23.1992 0.0902
0 -2 5 -20.0464 0.0150
0 -2 6 4.7208 -0.0571
0 -2 7 5.7595 -0.0056
0 -2 8 4.3536 0.0203
0 -2 9 8.7330 -0.0311
0 -2 10 -0.7224 -0.0735
0 -2 11 -8.1259 0.0023
0 -2 12 -1.2603 0.0836
0 -2 13 1.8425 0.0358
0 -2 14 4.1999 -0.0250
0 -2 15 1.8316 -0.0212
0 -2 16 -0.5761 0.0070
0 -2 17 0.0190 -0.0080
0 -2 18 -3.5863 -0.0210
0 -2 19 -4.7213 0.0151
0 -2 20 -0.1379 0.0201
0 -2 21 -0.0314 -0.0038
0 -2 22 3.6381 0.0040
0 -2 23 -1.9476 -0.0109
0 -2 24 1.1817 -0.0230
0 -2 25 0.2922 -0.0129
0 -2 26 1.5737 0.0033
0 -1 3 25.5229 -0.0792
0 -1 4 11.3869 -0.0823
0 -1 5 -21.7803 -0.0304
0 -1 6 -0.8134 -0.1233
0 -1 7 5.1897 -0.0429
0 -1 8 1.7170 0.1047
0 -1 9 -0.2657 0.0976
0 -1 10 -10.8356 -0.0202
0 -1 11 -7.1125 -0.0775
0 -1 12 -7.8918 -0.0089
0 -1 13 -0.1093 0.0359
0 -1 14 5.7759 0.0173
0 -1 15 4.6688 -0.0030
0 -1 16 4.2710 0.0078
0 -1 17 0.3334 0.0173
0 -1 18 -2.8517 -0.0335
0 -1 19 -3.8414 -0.0251
0 -1 20 -2.8593 0.0304
0 -1 21 1.3670 0.0211
0 -1 22 0.5247 -0.0010
0 -1 23 5.3772 -0.0008
0 -1 24 0.0101 -0.0063
0 -1 25 0.3959 -0.0243
0 -1 26 -0.8841 -0.0389
0 0 3 38.7368 -0.0598
0 0 4 -3.5389 -0.0079
0 0 5 -33.2728 0.0914
0 0 6 -37.1756 0.0682
0 0 7 -22.6647 -0.0870
0 0 8 -16.5243 -0.0553
0 0 9 -21.3357 0.0897
0 0 10 -14.7809 0.0813
0 0 11 -12.5821 -0.0086
0 0 12 -0.7035 -0.0355
0 0 13 2.6496 -0.0148
0 0 14 6.6149 -0.0110
0 0 15 6.1911 -0.0140
0 0 16 0.0481 0.0005
0 0 17 4.7011 0.0354
0 0 18 3.7751 0.0276
0 0 19 1.4523 -0.0403
0 0 20 0.2718 -0.0325
0 0 21 -4.2898 0.0174
0 0 22 0.9926 -0.0024
0 0 23 0.9508 0.0060
0 0 24 2.2168 0.0088
0 0 25 -1.1388 -0.0208
0 1 2 29.8008 -0.0982
0 1 3 -43.2496 -0.1579
0 1 4 -14.7905 -0.1025
0 1 5 -17.9853 0.1018
0 1 6 -29.3500 0.1978
0 1 7 -27.7347 0.0760
0 1 8 -18.6242 -0.0950
0 1 9 -6.8952 -0.0767
0 1 10 -9.8410 0.0433
0 1 11 3.2473 0.0155
0 1 12 8.8338 -0.0196
0 1 13 5.3076 0.0231
0 1 14 3.4315 0.0135
0 1 15 0.7338 -0.0136
0 1 16 -1.4315 -0.0283
0 1 17 -4.3857 -0.0163
0 1 18 -0.8386 0.0375
0 1 19 0.3892 0.0141
0 1 20 0.7888 -0.0363
0 1 21 0.8014 -0.0097
0 1 22 -3.8468 0.0063
0 1 23 0.2435 -0.0379
0 1 24 0.9371 -0.0029
0 1 25 2.0503 0.0039
0 2 0 32.5772 0.0863
0 2 1 -22.6543 0.0708
0 2 2 14.1060 0.3475
0 2 3 15.9642 0.2420
0 2 4 -17.9941 -0.0815
0 2 5 9.1701 -0.1388
0 2 6 12.6536 -0.0009
0 2 7 -10.2294 0.1225
0 2 8 -14.9860 0.0673
0 2 9 -7.0351 -0.0780
0 2 10 2.6400 -0.0368
0 2 11 0.8471 0.0170
0 2 12 4.3947 -0.0429
0 2 13 5.7818 -0.0151
0 2 14 0.8480 0.0566
0 2 15 -1.4667 0.0437
0 2 16 -2.7413 -0.0112
0 2 17 -0.1752 -0.0538
0 2 18 -2.2619 -0.0188
0 2 19 -0.1679 0.0349
0 2 20 3.6661 0.0048
0 2 21 2.8013 -0.0114
0 2 22 3.5209 -0.0078
0 2 23 1.3427 -0.0007
0 2 24 -0.8518 -0.0206
0 2 25 -0.9104 -0.0096
0 3 0 -6.5451 0.0365
0 3 1 40.4826 -0.1649
0 3 2 9.1676 -0.0089
0 3 3 -3.0253 0.3655
0 3 4 18.7759 0.2273
0 3 5 5.1350 -0.0718
0 3 6 11.4399 -0.1364
0 3 7 2.1454 -0.0968
0 3 8 -14.0077 0.0192
0 3 9 -11.4553 0.0147
0 3 10 -6.4647 -0.0157
0 3 11 1.0475 0.0678
0 3 12 2.1548 0.0194
0 3 13 -4.0582 -0.0693
0 3 14 -4.4704 -0.0418
0 3 15 -0.8589 0.0331
0 3 16 0.7249 0.0435
0 3 17 1.9183 -0.0155
0 3 18 5.5057 -0.0335
0 3 19 2.1570 -0.0053
0 3 20 1.8343 0.0127
0 3 21 2.2205 -0.0005
0 3 22 1.1487 0.0095
0 3 23 1.4084 -0.0035
0 3 24 -0.7112 -0.0358
0 4 0 30.8532 0.7299
0 4 1 -39.7945 0.3045
0 4 2 -23.1055 -0.3122
0 4 3 14.4808 -0.1524
0 4 4 -5.1262 0.1558
0 4 5 5.9193 0.0812
0 4 6 8.8636 -0.0506
0 4 7 2.9017 -0.0840
0 4 8 -3.7944 -0.0401
0 4 9 -4.7421 0.0063
0 4 10 0.1920 -0.0337
0 4 11 -0.4742 0.0042
0 4 12 -1.8269 0.1061
0 4 13 -0.3835 0.0328
0 4 14 -3.2067 -0.0711
0 4 15 -4.8149 -0.0381
0 4 16 -0.4634 0.0222
0 4 17 1.8272 0.0249
0 4 18 -1.0398 0.0073
0 4 19 0.5424 -0.0029
0 4 20 -1.1698 0.0068
0 4 21 -3.7595 -0.0030
0 4 22 -3.5307 -0.0168
0 4 23 -0.4010 0.0551
0 4 24 0.1919 0.0260
0 5 0 -52.8876 0.1475
0 5 1 -16.7558 0.6436
0 5 2 -20.3260 0.1549
0 5 3 -14.9695 -0.3777
0 5 4 14.4782 -0.2303
0 5 5 -6.5231 -0.0198
0 5 6 -3.4884 0.0226
0 5 7 3.6141 0.0520
0 5 8 4.3604 0.0499
0 5 9 6.1377 0.0383
0 5 10 2.3490 -0.0197
0 5 11 1.0147 -0.0981
0 5 12 1.3678 -0.0114
0 5 13 -1.4483 0.0967
0 5 14 -1.7495 0.0240
0 5 15 -1.6461 -0.0353
0 5 16 -2.4262 -0.0111
0 5 17 0.4055 0.0114
0 5 18 1.4108 0.0103
0 5 19 -1.5601 -0.0097
0 5 20 0.3516 0.0116
0 5 21 -0.4762 -0.0111
0 5 22 -2.5664 -0.0519
0 5 23 -1.5621 0.0181
0 6 0 26.4242 -0.9903
0 6 1 -1.3895 -0.3875
0 6 2 -11.7791 0.1880
0 6 3 6.4850 0.0031
0 6 4 -7.7055 -0.1537
0 6 5 -3.0053 -0.0194
0 6 6 -2.5347 0.0244
0 6 7 -1.2222 -0.0087
0 6 8 3.3277 0.0081
0 6 9 7.5166 0.0679
0 6 10 8.5466 0.0893
0 6 11 2.5327 -0.0239
0 6 12 -3.2281 -0.1058
0 6 13 -1.4684 -0.0204
0 6 14 0.8837 0.0373
0 6 15 0.2476 0.0182
0 6 16 -0.2445 0.0036
0 6 17 -1.8467 0.0258
0 6 18 0.1151 0.0338
0 6 19 1.7674 -0.0235
0 6 20 -0.4726 -0.0229
0 6 21 -0.1305 0.0057
0 6 22 0.2043 -0.0470
0 7 0 -13.2092 -0.3466
0 7 1 11.5742 -0.6756
0 7 2 6.8955 -0.1917
0 7 3 -10.1033 0.1817
0 7 4 2.5671 0.1167
0 7 5 -8.3407 0.0732
0 7 6 -3.0382 0.0762
0 7 7 5.2904 0.0024
0 7 8 3.3910 -0.0802
0 7 9 3.9134 -0.0663
0 7 10 1.7758 0.0506
0 7 11 1.5195 0.0797
0 7 12 0.9057 -0.0058
0 7 13 -1.8837 -0.0497
0 7 14 0.1740 -0.0157
0 7 15 0.9400 -0.0017
0 7 16 -1.1199 -0.0259
0 7 17 -0.7870 -0.0031
0 7 18 -3.5734 0.0533
0 7 19 -2.1781 0.0258
0 7 20 0.7291 -0.0052
0 7 21 -0.5097 -0.0365
0 7 22 -0.8193 -0.0550
0 8 0 -10.0592 0.5596
0 8 1 -4.2121 0.1755
0 8 2 -1.7823 -0.0001
0 8 3 2.1068 0.1073
0 8 4 -10.8179 0.0589
0 8 5 -4.9237 -0.0318
0 8 6 1.8688 0.0167
0 8 7 5.4520 0.0877
0 8 8 7.7898 0.0174
0 8 9 3.6192 -0.1030
0 8 10 1.6044 -0.0804
0 8 11 0.4642 0.0251
0 8 12 0.1385 0.0496
0 8 13 1.1152 0.0039
0 8 14 -0.1319 0.0036
0 8 15 0.6222 0.0337
0 8 16 1.6968 -0.0288
0 8 17 -2.6059 -0.0639
0 8 18 -2.0678 -0.0068
0 8 19 -0.8851 0.0536
0 8 20 -1.3291 0.0897
0 8 21 -1.0449 0.0133
0 9 0 -2.9972 0.2989
0 9 1 1.3347 0.3531
0 9 2 -0.8542 0.1440
0 9 3 -2.1168 0.0975
0 9 4 6.8397 0.0557
0 9 5 1.2085 -0.0754
0 9 6 0.4465 -0.1202
0 9 7 6.6866 -0.0343
0 9 8 4.5487 0.0807
0 9 9 2.0408 0.0510
0 9 10 -0.5233 -0.0478
0 9 11 -1.0256 -0.0346
0 9 12 0.9098 0.0161
0 9 13 0.8897 -0.0103
0 9 14 1.3620 -0.0154
0 9 15 0.0306 0.0545
0 9 16 -1.0924 0.0638
0 9 17 2.0801 -0.0040
0 9 18 -1.7230 -0.0832
0 9 19 -1.1696 -0.0502
0 9 20 1.4087 0.1004
0 10 0 3.6885 0.0886
0 10 1 -2.6706 0.0618
0 10 2 -0.8470 -0.1356
0 10 3 0.2163 -0.1028
0 10 4 0.2020 0.0734
0 10 5 4.5582 0.0585
0 10 6 4.1283 -0.0514
0 10 7 -1.4408 -0.1012
0 10 8 -0.1752 -0.0364
0 10 9 0.5492 0.0638
0 10 10 -1.4500 0.0161
0 10 11 -0.0742 -0.0189
0 10 12 -0.4041 0.0487
0 10 13 -0.4562 0.0104
0 10 14 -0.1100 -0.0590
0 10 15 -2.1378 -0.0442
0 10 16 -0.4184 0.0218
0 10 17 -1.9291 0.0818
0 10 18 -0.5448 0.0200
0 10 19 0.2492 -0.1085
0 10 20 1.4879 -0.0121
0 11 0 3.5632 -0.0562
0 11 1 5.0584 0.1440
0 11 2 -1.5143 -0.0366
0 11 3 0.0397 -0.2799
0 11 4 1.5311 -0.1497
0 11 5 1.6599 0.0648
0 11 6 -1.1786 0.1026
0 11 7 -1.3750 0.0370
0 11 8 -0.9298 -0.0554
0 11 9 -2.1537 -0.0234
0 11 10 -0.6203 0.0215
0 11 11 -0.7422 -0.0456
0 11 12 1.0149 0.0002
0 11 13 1.0049 0.0640
0 11 14 -0.6868 0.0075
0 11 15 1.1063 -0.0313
0 11 16 -2.3844 -0.0326
0 11 17 0.1207 0.0640
0 11 18 -0.3927 0.0620
0 11 19 -1.1507 -0.0004
0 12 0 5.3651 -0.4871
0 12 1 4.4148 -0.1619
0 12 2 5.5884 0.1685
0 12 3 4.1019 0.0046
0 12 4 3.2579 -0.1500
0 12 5 0.3943 -0.0415
0 12 6 -0.6819 0.0489
0 12 7 -5.5107 0.0505
0 12 8 -5.8448 0.0217
0 12 9 0.2416 0.0087
0 12 10 -1.4039 0.0243
0 12 11 -0.2783 -0.0207
0 12 12 0.6849 -0.0840
0 12 13 0.7380 -0.0089
0 12 14 1.6245 0.0855
0 12 15 -0.4424 0.0115
0 12 16 2.6051 -0.0512
0 12 17 0.0017 0.0039
0 12 18 -0.0082 0.0204
0 13 0 -2.2797 -0.2090
0 13 1 -0.3122 -0.4400
0 13 2 0.6715 -0.0482
0 13 3 3.2755 0.2570
0 13 4 1.5992 0.1143
0 13 5 0.7194 -0.0362
0 13 6 -0.7828 -0.0195
0 13 7 -2.0197 -0.0123
0 13 8 -1.1224 -0.0255
0 13 9 -1.2117 -0.0141
0 13 10 2.4702 0.0204
0 13 11 0.3999 0.0705
0 13 12 0.5965 0.0125
0 13 13 0.5956 -0.0924
0 13 14 -1.6372 -0.0059
0 13 15 -0.4601 0.0423
0 13 16 -1.4250 -0.0278
0 13 17 0.1858 0.0273
0 14 0 -5.9930 0.4776
0 14 1 -3.1504 0.0927
0 14 2 1.6488 -0.1060
0 14 3 3.0436 0.0700
0 14 4 3.7465 0.1230
0 14 5 3.7147 0.0179
0 14 6 1.8381 -0.0145
0 14 7 0.2046 0.0229
0 14 8 -1.5608 -0.0263
0 14 9 -0.7907 -0.0683
0 14 10 -1.9314 -0.0469
0 14 11 1.2654 0.0246
0 14 12 -0.1267 0.0791
0 14 13 -0.0550 0.0100
0 14 14 -1.8470 -0.0043
0 14 15 -3.4948 0.0429
0 15 0 1.3213 0.3415
0 15 1 -2.6344 0.4130
0 15 2 -0.9813 0.0693
0 15 3 1.9931 -0.0915
0 15 4 2.3289 -0.0184
0 15 5 1.5518 -0.0160
0 15 6 2.2001 -0.0522
0 15 7 -0.8530 -0.0125
0 15 8 0.2570 0.0663
0 15 9 -0.7786 0.0179
0 15 10 -2.4447 -0.0912
0 15 11 -3.4823 -0.0502
0 15 12 0.1696 0.0451
0 15 13 -0.0833 0.0148
0 15 14 1.2468 0.0444
0 16 0 0.2201 -0.1594
0 16 1 -0.7572 0.0677
0 16 2 0.1816 0.0229
0 16 3 -2.9367 -0.0758
0 16 4 -6.1266 -0.0269
0 16 5 0.0281 -0.0003
0 16 6 0.3810 -0.0221
0 16 7 -0.6878 -0.0450
0 16 8 -0.3672 -0.0084
0 16 9 1.2567 0.0956
0 16 10 -0.7462 -0.0148
0 16 11 -0.8131 -0.1029
0 16 12 -0.7600 0.0079
0 16 13 2.1046 -0.0396
0 17 0 1.9963 -0.2159
0 17 1 0.3706 -0.1636
0 17 2 0.2420 -0.0144
0 17 3 0.7411 -0.1059
0 17 4 -2.7371 -0.0738
0 17 5 -5.7482 0.0751
0 17 6 -0.5890 0.0838
0 17 7 -1.7639 0.0285
0 17 8 -1.3903 -0.1115
0 17 9 1.8934 -0.0610
0 17 10 1.6735 0.1049
0 17 11 0.0136 -0.0825
0 18 0 2.2008 -0.1186
0 18 1 1.0509 -0.1138
0 18 2 2.2208 0.0319
0 18 3 1.8684 0.0524
0 18 4 -2.6638 -0.0293
0 18 5 -0.4245 -0.0025
0 18 6 -0.1102 0.0223
0 18 7 -1.0168 0.0384
0 18 8 -0.4831 0.0451
0 18 9 0.2219 -0.0970
0 18 10 1.2539 -0.0926
0 19 0 3.2607 -0.0074
0 19 1 0.6283 -0.0888
0 19 2 0.5053 -0.0002
0 19 3 2.1228 0.1494
0 19 4 1.1133 0.0819
0 19 5 -0.5057 -0.0657
0 19 6 2.0571 -0.0451
0 19 7 1.1555 0.0164
0 19 8 -2.8377 -0.0378
0 20 0 0.8397 0.2118
0 20 1 0.7956 0.0246
0 20 2 -0.5078 0.0126
0 20 3 1.3029 -0.0129
0 20 4 -0.3488 0.0445
0 20 5 -0.5597 0.0975
0 20 6 1.7367 -0.0916
0 21 0 1.1365 0.1181
0 21 1 -0.2857 0.2563
0 21 2 0.0214 -0.0116
0 21 3 1.1424 0.0263
1 -22 0 -1.1159 0.0501
1 -22 1 1.2251 0.1147
1 -22 2 2.1819 -0.0240
1 -22 3 -0.6412 0.0212
1 -22 4 2.1951 -0.0433
1 -22 5 0.5136 0.0479
1 -22 6 0.8147 -0.1006
1 -22 7 1.3338 0.0241
1 -22 8 1.0108 -0.0566
1 -22 9 -0.6478 0.0051
1 -22 10 -0.2166 -0.0193
1 -22 11 1.0987 -0.0349
1 -22 12 -0.6851 0.0098
1 -22 13 -1.5929 -0.0507
1 -21 0 1.0269 -0.1528
1 -21 1 0.7172 -0.0751
1 -21 2 0.7920 0.0459
1 -21 3 2.6822 -0.0597
1 -21 4 -3.6633 0.0173
1 -21 5 0.8299 -0.0195
1 -21 6 0.6027 0.0473
1 -21 7 -1.6514 -0.0429
1 -21 8 1.9487 0.0379
1 -21 9 1.5855 -0.0174
1 -21 10 -2.3517 0.0125
1 -21 11 0.1545 0.0074
1 -21 12 1.6374 -0.0276
1 -21 13 -0.7160 0.0115
1 -21 14 0.8536 -0.0215
1 -21 15 0.6126 -0.0191
1 -21 16 -2.0237 0.0088
1 -20 0 0.5449 -0.1659
1 -20 1 -0.3236 -0.1355
1 -20 2 -1.3224 -0.0514
1 -20 3 -2.0564 0.0196
1 -20 4 1.4079 -0.0432
1 -20 5 -2.8484 0.0237
1 -20 6 -1.8991 0.0031
1 -20 7 -1.3362 0.0089
1 -20 8 -0.5433 -0.0189
1 -20 9 0.1252 0.0157
1 -20 10 -1.8473 -0.0047
1 -20 11 -1.7575 -0.0158
1 -20 12 0.7763 -0.0035
1 -20 13 -0.6981 0.0269
1 -20 14 -3.6387 -0.0051
1 -20 15 0.0660 -0.0199
1 -20 16 1.7502 0.0117
1 -20 17 -0.2250 -0.0063
1 -20 18 -1.7095 -0.0642
1 -19 0 1.8782 0.1369
1 -19 1 1.3673 0.0295
1 -19 2 -1.9508 0.0581
1 -19 3 -1.8701 0.0714
1 -19 4 -6.9928 -0.0034
1 -19 5 -3.3296 -0.0226
1 -19 6 -1.2136 0.0010
1 -19 7 -3.6299 0.0037
1 -19 8 1.3263 -0.0037
1 -19 9 5.3842 -0.0223
1 -19 10 0.8550 0.0070
1 -19 11 -0.5281 0.0021
1 -19 12 -0.6270 -0.0425
1 -19 13 -0.5574 -0.0244
1 -19 14 0.1888 0.0184
1 -19 15 -2.5886 -0.0181
1 -19 16 2.4562 0.0027
1 -19 17 3.5022 -0.0013
1 -19 18 1.1301 0.0045
1 -19 19 -0.0357 -0.0161
1 -18 0 1.7484 0.1670
1 -18 1 5.0254 0.0929
1 -18 2 1.0994 0.0472
1 -18 3 -2.2673 0.0812
1 -18 4 -2.4510 0.0463
1 -18 5 -6.1032 -0.0416
1 -18 6 -3.6942 -0.0164
1 -18 7 -1.1652 -0.0170
1 -18 8 -2.5404 0.0109
1 -18 9 0.8342 -0.0018
1 -18 10 1.0621 -0.0015
1 -18 11 -2.5401 0.0277
1 -18 12 -1.1936 0.0106
1 -18 13 -0.6949 -0.0052
1 -18 14 -2.0561 0.0040
1 -18 15 -2.3178 0.0042
1 -18 16 -3.6219 -0.0123
1 -18 17 1.0841 0.0181
1 -18 18 -1.8106 -0.0032
1 -18 19 -1.5912 0.0142
1 -18 20 1.8418 -0.0064
1 -18 21 0.3263 -0.0354
1 -17 0 -1.1217 0.1541
1 -17 1 -0.7946 0.0605
1 -17 2 2.1288 -0.1036
1 -17 3 2.4077 -0.0422
1 -17 4 0.6955 0.0496
1 -17 5 -0.8141 0.0206
1 -17 6 -2.0234 -0.0337
1 -17 7 -6.3518 -0.0139
1 -17 8 -5.7054 -0.0215
1 -17 9 -4.2245 0.0094
1 -17 10 -2.4484 -0.0119
1 -17 11 -1.1451 0.0102
1 -17 12 -3.7112 0.0320
1 -17 13 -0.3829 -0.0025
1 -17 14 1.6561 -0.0136
1 -17 15 -1.6465 -0.0008
1 -17 16 0.9495 0.0040
1 -17 17 1.0839 -0.0057
1 -17 18 -0.2902 0.0045
1 -17 19 -0.3985 0.0002
1 -17 20 -0.0811 0.0063
1 -17 21 -0.5975 -0.0058
1 -17 22 -2.1150 -0.0427
1 -16 0 0.4148 -0.0017
1 -16 1 0.9202 0.1558
1 -16 2 -3.8277 -0.0188
1 -16 3 -1.4915 -0.1758
1 -16 4 2.4437 -0.0572
1 -16 5 0.5159 0.0159
1 -16 6 -1.5246 -0.0015
1 -16 7 -0.2982 0.0098
1 -16 8 -4.2757 0.0146
1 -16 9 -3.1165 0.0102
1 -16 10 -0.1331 0.0147
1 -16 11 2.6586 -0.0372
1 -16 12 2.8945 -0.0002
1 -16 13 -1.0946 0.0226
1 -16 14 4.0976 -0.0034
1 -16 15 0.5401 -0.0115
1 -16 16 -3.0301 -0.0014
1 -16 17 4.0080 -0.0015
1 -16 18 2.9607 -0.0062
1 -16 19 0.2299 -0.0027
1 -16 20 4.9351 0.0011
1 -16 21 2.7414 -0.0107
1 -16 22 1.4368 0.0247
1 -15 0 1.0146 -0.4089
1 -15 1 -1.2567 -0.1058
1 -15 2 0.0396 0.1383
1 -15 3 -1.6863 -0.0322
1 -15 4 -0.2336 -0.1029
1 -15 5 3.6698 0.0054
1 -15 6 2.2371 0.0175
1 -15 7 -1.8521 0.0168
1 -15 8 0.3682 0.0292
1 -15 9 -1.1943 0.0122
1 -15 10 -1.9828 0.0118
1 -15 11 -0.4398 -0.0026
1 -15 12 -1.2080 -0.0323
1 -15 13 0.1682 0.0124
1 -15 14 -2.8803 0.0193
1 -15 15 0.8877 -0.0140
1 -15 16 -1.4963 -0.0174
1 -15 17 -1.4661 0.0185
1 -15 18 3.4953 0.0022
1 -15 19 4.8040 -0.0141
1 -15 20 3.0921 -0.0055
1 -15 21 4.2046 0.0039
1 -15 22 0.0492 -0.0029
1 -15 23 1.9410 0.0237
1 -14 0 -2.1357 -0.2980
1 -14 1 0.1037 -0.4363
1 -14 2 2.5664 -0.0414
1 -14 3 0.7449 0.1639
1 -14 4 2.5261 0.0405
1 -14 5 0.7714 0.0134
1 -14 6 -0.4516 0.0358
1 -14 7 0.2199 -0.0056
1 -14 8 -3.6357 -0.0179
1 -14 9 -3.6609 -0.0008
1 -14 10 -2.8789 -0.0032
1 -14 11 -2.3357 0.0093
1 -14 12 -1.3746 -0.0047
1 -14 13 -5.3333 -0.0238
1 -14 14 1.6939 0.0075
1 -14 15 0.6126 0.0117
1 -14 16 2.0221 -0.0090
1 -14 17 3.5206 -0.0096
1 -14 18 0.3857 0.0255
1 -14 19 1.4156 0.0084
1 -14 20 5.2610 -0.0137
1 -14 21 0.3408 -0.0063
1 -14 22 3.1570 -0.0053
1 -14 23 1.4590 0.0214
1 -14 24 1.8386 0.0323
1 -13 0 -1.1337 0.4147
1 -13 1 -0.8396 0.0773
1 -13 2 -1.8370 -0.0809
1 -13 3 3.6155 0.1124
1 -13 4 -1.9870 0.1010
1 -13 5 -0.1215 -0.0177
1 -13 6 -2.1842 -0.0006
1 -13 7 -6.1185 0.0112
1 -13 8 0.7822 -0.0210
1 -13 9 0.9867 -0.0224
1 -13 10 -1.7608 -0.0029
1 -13 11 -0.1016 -0.0037
1 -13 12 -1.5813 0.0096
1 -13 13 1.5495 -0.0016
1 -13 14 -3.4680 0.0021
1 -13 15 -0.5246 0.0121
1 -13 16 1.7926 -0.0029
1 -13 17 2.1272 -0.0178
1 -13 18 3.2317 -0.0146
1 -13 19 -0.6382 0.0093
1 -13 20 -1.9717 0.0029
1 -13 21 3.4981 0.0086
1 -13 22 -3.0038 0.0352
1 -13 23 -1.7120 -0.0036
1 -13 24 0.6522 0.0174
1 -12 0 0.9083 0.4435
1 -12 1 0.9676 0.4632
1 -12 2 8.0350 0.1400
1 -12 3 0.4892 -0.0050
1 -12 4 -2.5399 0.0314
1 -12 5 -7.7684 -0.0475
1 -12 6 -7.5660 -0.0796
1 -12 7 -2.6339 -0.0002
1 -12 8 -1.8995 0.0246
1 -12 9 -0.4086 0.0012
1 -12 10 -0.0300 -0.0133
1 -12 11 -1.6945 0.0131
1 -12 12 -0.1096 0.0046
1 -12 13 -3.4368 -0.0047
1 -12 14 1.8595 0.0014
1 -12 15 1.1975 0.0042
1 -12 16 0.8107 0.0169
1 -12 17 3.8654 0.0097
1 -12 18 1.3277 -0.0263
1 -12 19 1.7200 0.0035
1 -12 20 1.1954 0.0180
1 -12 21 -2.0635 -0.0024
1 -12 22 3.7412 0.0125
1 -12 23 -0.0538 0.0231
1 -12 24 -4.6875 -0.0070
1 -12 25 -1.0960 0.0156
1 -11 0 0.9497 -0.1660
1 -11 1 4.9607 -0.0069
1 -11 2 -2.0999 -0.0353
1 -11 3 -0.6723 -0.0864
1 -11 4 -8.8869 -0.0045
1 -11 5 -6.1135 0.0076
1 -11 6 -4.8164 -0.0416
1 -11 7 -12.7109 -0.0592
1 -11 8 -2.8019 -0.0009
1 -11 9 2.4891 0.0472
1 -11 10 -4.2174 0.0021
1 -11 11 -2.2523 -0.0015
1 -11 12 -1.6870 0.0356
1 -11 13 5.3123 -0.0118
1 -11 14 3.3797 -0.0163
1 -11 15 1.5501 0.0051
1 -11 16 4.6538 0.0011
1 -11 17 0.5328 0.0255
1 -11 18 0.8060 0.0163
1 -11 19 1.1918 -0.0221
1 -11 20 0.4565 0.0010
1 -11 21 2.9867 -0.0011
1 -11 22 0.6661 -0.0140
1 -11 23 -0.7680 0.0096
1 -11 24 -1.3375 0.0106
1 -11 25 -4.1374 0.0071
1 -10 0 -0.8337 -0.2301
1 -10 1 -11.5983 -0.1321
1 -10 2 -8.6597 -0.1755
1 -10 3 -8.9731 -0.1998
1 -10 4 -14.4318 -0.0534
1 -10 5 -15.5274 0.0664
1 -10 6 -2.2626 0.0433
1 -10 7 9.7464 0.0037
1 -10 8 1.7237 -0.0390
1 -10 9 0.0325 0.0100
1 -10 10 3.3859 0.0336
1 -10 11 -1.2961 -0.0397
1 -10 12 0.7125 -0.0003
1 -10 13 0.2332 0.0310
1 -10 14 5.2042 -0.0149
1 -10 15 2.8372 -0.0154
1 -10 16 -0.3650 -0.0081
1 -10 17 4.5397 -0.0003
1 -10 18 0.1629 0.0166
1 -10 19 -1.5108 0.0059
1 -10 20 -0.9590 -0.0071
1 -10 21 -3.5886 -0.0010
1 -10 22 -2.6204 -0.0021
1 -10 23 -0.9672 -0.0212
1 -10 24 -5.4726 0.0070
1 -10 25 -3.4369 0.0141
1 -9 0 1.8730 -0.2677
1 -9 1 2.7436 -0.0311
1 -9 2 -10.5028 0.1689
1 -9 3 -17.3850 -0.0524
1 -9 4 -14.7403 -0.1291
1 -9 5 -6.5625 0.0005
1 -9 6 0.7337 0.0614
1 -9 7 1.3494 0.0713
1 -9 8 10.5727 0.0231
1 -9 9 7.8692 -0.0259
1 -9 10 -0.1383 0.0092
1 -9 11 1.8820 -0.0122
1 -9 12 -3.2128 -0.0599
1 -9 13 0.4796 0.0169
1 -9 14 1.0212 0.0331
1 -9 15 0.5704 -0.0078
1 -9 16 0.1617 -0.0156
1 -9 17 -1.0190 -0.0163
1 -9 18 3.4875 -0.0076
1 -9 19 3.5985 0.0081
1 -9 20 2.3260 -0.0068
1 -9 21 1.4747 -0.0063
1 -9 22 1.6377 0.0046
1 -9 23 0.2693 0.0110
1 -9 24 1.0625 -0.0082
1 -9 25 -2.7202 0.0022
1 -9 26 -2.0495 0.0170
1 -8 0 2.6594 -0.3245
1 -8 1 -12.6602 -0.3732
1 -8 2 -9.3660 0.1324
1 -8 3 -3.0579 0.3205
1 -8 4 -3.4401 0.0492
1 -8 5 -2.6167 -0.0427
1 -8 6 0.0223 -0.0037
1 -8 7 4.7699 -0.0132
1 -8 8 -2.0850 0.0164
1 -8 9 -3.9981 -0.0101
1 -8 10 -2.5759 0.0025
1 -8 11 -3.7905 0.0441
1 -8 12 3.4096 -0.0154
1 -8 13 -0.1190 -0.0526
1 -8 14 1.1358 0.0189
1 -8 15 0.2008 0.0245
1 -8 16 -1.7606 -0.0080
1 -8 17 1.7998 -0.0117
1 -8 18 1.6053 -0.0028
1 -8 19 3.4020 -0.0100
1 -8 20 4.9036 0.0017
1 -8 21 2.2090 -0.0072
1 -8 22 -1.1706 -0.0056
1 -8 23 1.0922 0.0233
1 -8 24 1.8898 0.0245
1 -8 25 -0.0536 0.0054
1 -8 26 -2.2337 -0.0081
1 -7 0 -12.9735 0.5282
1 -7 1 -5.8801 -0.0625
1 -7 2 -22.4804 -0.2547
1 -7 3 -16.5462 0.1811
1 -7 4 -1.9178 0.2225
1 -7 5 15.3345 0.0014
1 -7 6 13.7186 -0.0466
1 -7 7 -2.1042 -0.0410
1 -7 8 -3.5215 -0.0483
1 -7 9 -6.2764 -0.0229
1 -7 10 -4.9010 -0.0253
1 -7 11 2.4280 0.0287
1 -7 12 -0.3518 0.0570
1 -7 13 2.4173 -0.0143
1 -7 14 1.4922 -0.0484
1 -7 15 0.4945 0.0102
1 -7 16 -0.8762 0.0112
1 -7 17 -1.1049 -0.0098
1 -7 18 3.0777 0.0071
1 -7 19 1.4132 0.0120
1 -7 20 -1.6213 -0.0070
1 -7 21 -0.4742 0.0035
1 -7 22 -2.2002 -0.0073
1 -7 23 -2.8360 -0.0129
1 -7 24 -0.3185 0.0158
1 -7 25 2.7423 0.0020
1 -7 26 0.1453 0.0077
1 -6 0 4.2271 0.7966
1 -6 1 -17.0789 0.7863
1 -6 2 8.1321 0.0404
1 -6 3 3.2500 -0.2532
1 -6 4 5.8239 -0.0128
1 -6 5 13.8624 -0.0173
1 -6 6 13.5248 -0.0452
1 -6 7 4.0445 0.0139
1 -6 8 -5.8855 0.0222
1 -6 9 -3.3196 -0.0128
1 -6 10 0.6892 -0.0365
1 -6 11 4.4621 -0.0293
1 -6 12 6.4593 0.0263
1 -6 13 -0.4116 0.0440
1 -6 14 -3.4030 -0.0160
1 -6 15 -2.2519 -0.0286
1 -6 16 -0.4296 0.0244
1 -6 17 1.2780 -0.0103
1 -6 18 1.6422 -0.0282
1 -6 19 -0.7801 0.0056
1 -6 20 -1.6061 0.0091
1 -6 21 -1.8621 0.0046
1 -6 22 -0.6278 -0.0033
1 -6 23 -2.7320 -0.0122
1 -6 24 -0.4798 -0.0188
1 -6 25 -1.4084 -0.0211
1 -6 26 1.4732 -0.0261
1 -5 0 -51.2632 -0.4858
1 -5 1 5.0535 0.1964
1 -5 2 -8.9111 0.2172
1 -5 3 13.0697 -0.1870
1 -5 4 5.9335 -0.1822
1 -5 5 7.1859 -0.0142
1 -5 6 5.5324 -0.0349
1 -5 7 -7.2223 -0.0260
1 -5 8 -1.0575 0.0576
1 -5 9 -3.3413 0.0803
1 -5 10 -2.9443 0.0167
1 -5 11 6.5932 -0.0296
1 -5 12 4.6022 -0.0243
1 -5 13 -1.7990 0.0208
1 -5 14 -2.7647 0.0271
1 -5 15 -0.8209 -0.0171
1 -5 16 0.7459 0.0001
1 -5 17 -1.1668 0.0398
1 -5 18 1.1393 -0.0104
1 -5 19 3.1796 -0.0343
1 -5 20 -4.5627 -0.0072
1 -5 21 -2.9614 0.0126
1 -5 22 -1.0697 0.0097
1 -5 23 0.7675 0.0040
1 -5 24 -3.1232 0.0077
1 -5 25 -0.9872 -0.0111
1 -5 26 -1.6355 -0.0343
1 -4 0 -29.0938 -0.7726
1 -4 1 -86.1386 -0.6636
1 -4 2 -6.5360 -0.1527
1 -4 3 8.0212 -0.0069
1 -4 4 -1.2969 -0.0409
1 -4 5 -0.5959 0.0668
1 -4 6 8.6728 0.0910
1 -4 7 -2.6999 -0.0201
1 -4 8 -4.4453 -0.0610
1 -4 9 14.1536 0.0303
1 -4 10 6.6423 0.0513
1 -4 11 0.7322 0.0030
1 -4 12 3.5880 -0.0119
1 -4 13 2.3111 -0.0084
1 -4 14 -3.6845 0.0187
1 -4 15 -5.3402 0.0006
1 -4 16 0.9198 -0.0222
1 -4 17 2.6120 0.0146
1 -4 18 0.5753 0.0355
1 -4 19 -0.7511 -0.0145
1 -4 20 0.8579 -0.0265
1 -4 21 -2.4427 0.0012
1 -4 22 -0.6077 0.0099
1 -4 23 -1.9118 -0.0098
1 -4 24 1.5195 0.0262
1 -4 25 -2.8671 0.0495
1 -4 26 -1.7784 0.0227
1 -3 0 -0.2985 0.1615
1 -3 1 61.0920 -0.1904
1 -3 2 8.1716 -0.0205
1 -3 3 39.5630 0.0692
1 -3 4 17.8712 0.0242
1 -3 5 -8.2401 -0.0097
1 -3 6 0.7746 0.0938
1 -3 7 -0.4671 0.0998
1 -3 8 4.0315 -0.0427
1 -3 9 7.0148 -0.0745
1 -3 10 9.7232 0.0027
1 -3 11 5.3341 -0.0045
1 -3 12 -2.1240 -0.0183
1 -3 13 -4.1420 0.0097
1 -3 14 -0.3312 0.0250
1 -3 15 2.6434 0.0171
1 -3 16 1.5275 -0.0322
1 -3 17 2.6842 -0.0300
1 -3 18 0.4181 0.0183
1 -3 19 1.9341 0.0399
1 -3 20 -0.3361 -0.0180
1 -3 21 -2.5414 -0.0159
1 -3 22 -3.1700 0.0254
1 -3 23 -0.1774 0.0121
1 -3 24 -2.5647 -0.0134
1 -3 25 1.3079 0.0406
1 -3 26 -1.6521 0.0482
1 -2 0 86.0640 0.0257
1 -2 1 -10.0662 0.1677
1 -2 2 50.3345 0.1432
1 -2 3 48.8651 0.1984
1 -2 4 3.9473 0.0819
1 -2 5 -30.8749 -0.0703
1 -2 6 -14.7858 -0.1062
1 -2 7 5.6623 0.0279
1 -2 8 -2.8753 0.0563
1 -2 9 9.1988 -0.0290
1 -2 10 6.1957 -0.0256
1 -2 11 -5.3103 0.0237
1 -2 12 -2.3651 -0.0136
1 -2 13 -2.9917 -0.0436
1 -2 14 2.1985 0.0167
1 -2 15 -0.2850 0.0456
1 -2 16 -2.2368 0.0147
1 -2 17 -0.1314 -0.0313
1 -2 18 -0.2676 -0.0361
1 -2 19 -2.3965 -0.0024
1 -2 20 0.6128 0.0290
1 -2 21 1.4085 -0.0214
1 -2 22 -1.1778 0.0077
1 -2 23 -3.3413 0.0390
1 -2 24 1.2214 -0.0148
1 -2 25 -0.7459 -0.0213
1 -1 2 -56.4758 -0.0101
1 -1 3 -14.9872 0.1133
1 -1 4 35.2780 0.1336
1 -1 5 -9.7233 0.0195
1 -1 6 -23.5898 -0.1156
1 -1 7 4.4636 -0.1054
1 -1 8 17.3368 0.0099
1 -1 9 5.5998 0.0280
1 -1 10 0.1894 -0.0106
1 -1 11 1.7895 0.0201
1 -1 12 -2.3958 0.0534
1 -1 13 -1.0664 -0.0258
1 -1 14 -2.4145 -0.0634
1 -1 15 3.4048 0.0180
1 -1 16 -2.0668 0.0341
1 -1 17 -7.2109 0.0122
1 -1 18 -3.7593 -0.0181
1 -1 19 -2.7818 -0.0192
1 -1 20 -0.1329 0.0123
1 -1 21 2.3481 0.0046
1 -1 22 1.0078 -0.0364
1 -1 23 0.5084 0.0254
1 -1 24 -1.6948 0.0628
1 -1 25 1.4856 -0.0153
1 0 2 53.6043 -0.1173
1 0 3 -36.4111 -0.2093
1 0 4 -31.4220 -0.0721
1 0 5 11.9822 0.0280
1 0 6 -1.5139 0.0447
1 0 7 -10.0034 -0.0123
1 0 8 -9.4511 -0.0292
1 0 9 -3.5539 0.0002
1 0 10 -3.6488 -0.0142
1 0 11 -10.7386 -0.0242
1 0 12 1.4785 0.0509
1 0 13 4.5873 0.0635
1 0 14 5.8505 -0.0423
1 0 15 2.5786 -0.0639
1 0 16 0.8079 0.0126
1 0 17 -0.0705 0.0239
1 0 18 -1.2523 0.0156
1 0 19 0.2644 -0.0064
1 0 20 -0.6116 -0.0059
1 0 21 1.9851 0.0230
1 0 22 3.6719 -0.0067
1 0 23 1.6561 -0.0446
1 0 24 1.1339 0.0134
1 0 25 -1.3512 0.0712
1 1 1 117.4228 0.2450
1 1 2 6.9588 0.0707
1 1 3 -37.9138 -0.2117
1 1 4 -58.0282 -0.1824
1 1 5 -54.3250 -0.0329
1 1 6 -14.1467 0.0213
1 1 7 -6.1291 0.0234
1 1 8 -9.8935 0.0449
1 1 9 -12.6607 0.0421
1 1 10 -9.2075 0.0131
1 1 11 3.4350 -0.0391
1 1 12 3.2974 -0.0618
1 1 13 8.3171 0.0451
1 1 14 4.3911 0.0629
1 1 15 2.4313 -0.0259
1 1 16 -0.4730 -0.0176
1 1 17 -3.4532 0.0082
1 1 18 1.3309 -0.0126
1 1 19 0.2857 -0.0044
1 1 20 1.3336 0.0019
1 1 21 2.3296 0.0216
1 1 22 0.7414 0.0235
1 1 23 0.8198 -0.0296
1 1 24 1.3351 -0.0308
1 2 0 47.2392 -0.7477
1 2 1 -76.6754 -0.5752
1 2 2 0.7908 0.1657
1 2 3 -24.6546 0.1740
1 2 4 -55.5000 -0.0495
1 2 5 -34.4750 -0.0445
1 2 6 -23.6398 0.0304
1 2 7 -1.5068 -0.0176
1 2 8 3.0574 -0.0185
1 2 9 0.9754 0.0407
1 2 10 5.6471 0.0466
1 2 11 2.1958 0.0198
1 2 12 7.2322 -0.0497
1 2 13 6.0559 -0.0586
1 2 14 2.8383 0.0475
1 2 15 -1.4815 0.0335
1 2 16 -3.4350 -0.0166
1 2 17 -3.9050 0.0165
1 2 18 -3.9580 0.0142
1 2 19 2.6041 -0.0177
1 2 20 1.4794 -0.0306
1 2 21 0.8466 -0.0059
1 2 22 2.5492 0.0535
1 2 23 1.5308 0.0423
1 2 24 0.2385 -0.0166
1 3 0 15.0689 0.1599
1 3 1 44.3786 -0.2348
1 3 2 -49.3236 -0.2424
1 3 3 -13.4745 0.1862
1 3 4 16.0346 0.1636
1 3 5 -14.4274 -0.0133
1 3 6 -10.3426 0.0639
1 3 7 -9.3467 0.0386
1 3 8 -4.0591 -0.0836
1 3 9 -0.1974 -0.0658
1 3 10 -0.8106 0.0003
1 3 11 5.7100 0.0497
1 3 12 2.1811 0.0299
1 3 13 -1.8465 -0.0268
1 3 14 -2.8452 -0.0154
1 3 15 -3.0706 0.0187
1 3 16 -1.5974 -0.0140
1 3 17 0.4440 -0.0323
1 3 18 1.8721 0.0178
1 3 19 0.6566 0.0345
1 3 20 4.3254 -0.0188
1 3 21 4.8641 -0.0263
1 3 22 1.2100 -0.0160
1 3 23 0.4253 0.0060
1 3 24 0.3874 0.0353
1 4 0 55.2483 0.5597
1 4 1 -16.2395 0.3992
1 4 2 16.7044 -0.0633
1 4 3 -7.3527 -0.1031
1 4 4 -6.8056 0.1373
1 4 5 15.7217 -0.0046
1 4 6 -3.2833 -0.0906
1 4 7 -10.5564 0.0678
1 4 8 -16.1242 0.0651
1 4 9 -7.8248 -0.0384
1 4 10 1.4483 -0.0581
1 4 11 0.1430 -0.0105
1 4 12 -1.3663 0.0242
1 4 13 -2.8282 0.0153
1 4 14 -3.4608 0.0049
1 4 15 -3.0229 0.0195
1 4 16 -1.4715 0.0173
1 4 17 0.3361 -0.0396
1 4 18 2.3093 -0.0268
1 4 19 2.5243 0.0458
1 4 20 0.8269 0.0381
1 4 21 0.4759 -0.0258
1 4 22 -0.3981 -0.0311
1 4 23 -1.4708 0.0023
1 5 0 -57.1873 0.2235
1 5 1 6.0956 0.3400
1 5 2 -23.0365 0.2515
1 5 3 -6.7733 -0.1207
1 5 4 15.7230 -0.1047
1 5 5 -3.4689 0.0251
1 5 6 1.3556 -0.0943
1 5 7 -3.6560 -0.0768
1 5 8 -5.6708 0.0707
1 5 9 -7.5026 0.0655
1 5 10 -3.7878 -0.0038
1 5 11 1.4346 -0.0191
1 5 12 0.9694 -0.0065
1 5 13 -3.9873 -0.0179
1 5 14 -3.7540 -0.0310
1 5 15 -0.2426 0.0027
1 5 16 -0.9008 0.0555
1 5 17 1.1327 0.0247
1 5 18 1.4005 -0.0364
1 5 19 0.5042 -0.0219
1 5 20 0.5575 0.0148
1 5 21 0.8529 0.0186
1 5 22 -0.2048 -0.0460
1 5 23 -0.6632 -0.0466
1 6 0 -14.0544 -0.0624
1 6 1 -30.3473 -0.1192
1 6 2 9.2218 -0.0491
1 6 3 2.2315 -0.0628
1 6 4 -5.6319 -0.1138
1 6 5 9.3197 0.0414
1 6 6 -4.9057 0.0763
1 6 7 0.6381 -0.0734
1 6 8 0.1248 -0.0612
1 6 9 0.7086 0.0283
1 6 10 1.9009 0.0231
1 6 11 -0.9753 0.0002
1 6 12 -3.0976 0.0176
1 6 13 -4.2212 0.0347
1 6 14 -4.0253 -0.0413
1 6 15 -0.6065 -0.0671
1 6 16 2.0990 0.0137
1 6 17 0.7816 0.0445
1 6 18 2.6913 0.0246
1 6 19 1.3267 0.0015
1 6 20 -0.0331 -0.0041
1 6 21 1.1538 0.0310
1 6 22 1.1035 -0.0426
1 7 0 -9.1196 -0.3886
1 7 1 5.4111 -0.1722
1 7 2 -1.6342 -0.1129
1 7 3 1.9186 -0.0291
1 7 4 9.6598 -0.0456
1 7 5 -6.8684 -0.0052
1 7 6 -0.7592 0.1081
1 7 7 -0.4047 0.0803
1 7 8 1.9916 -0.0220
1 7 9 2.0235 -0.0348
1 7 10 -2.2977 -0.0052
1 7 11 -3.1782 -0.0229
1 7 12 -1.9762 -0.0312
1 7 13 -4.0340 0.0563
1 7 14 -4.0038 0.0677
1 7 15 -2.4091 -0.0440
1 7 16 -0.9626 -0.0460
1 7 17 1.1720 -0.0039
1 7 18 -0.4786 0.0127
1 7 19 -0.2420 -0.0122
1 7 20 -0.0094 -0.0093
1 7 21 -0.6815 0.0524
1 8 0 -7.1640 -0.4684
1 8 1 -9.9521 -0.1911
1 8 2 1.2208 0.1422
1 8 3 -2.5862 0.1484
1 8 4 -8.3820 0.0217
1 8 5 3.1083 -0.0659
1 8 6 -3.9424 -0.0163
1 8 7 -0.1901 0.0434
1 8 8 3.6376 0.0276
1 8 9 0.2449 -0.0036
1 8 10 -0.8399 0.0128
1 8 11 -2.1298 -0.0007
1 8 12 -1.7827 -0.0684
1 8 13 -0.5173 -0.0492
1 8 14 -2.8086 0.0595
1 8 15 -0.7505 0.0793
1 8 16 -0.3844 -0.0126
1 8 17 -2.9134 -0.0324
1 8 18 -0.7176 -0.0131
1 8 19 -1.3245 -0.0398
1 8 20 -1.7369 -0.0564
1 8 21 -0.1848 0.0356
1 9 0 -2.2303 0.2087
1 9 1 1.6393 -0.1065
1 9 2 -6.1092 -0.0483
1 9 3 -3.5072 0.1795
1 9 4 2.5265 0.1429
1 9 5 -2.3623 -0.0128
1 9 6 2.8047 -0.0659
1 9 7 3.1211 -0.0335
1 9 8 0.3721 -0.0187
1 9 9 2.4845 -0.0187
1 9 10 -0.6866 0.0068
1 9 11 -3.8635 0.0506
1 9 12 -0.1114 0.0227
1 9 13 1.6140 -0.0570
1 9 14 0.9779 -0.0587
1 9 15 -1.0218 0.0382
1 9 16 -0.4220 0.0595
1 9 17 2.1400 -0.0074
1 9 18 -0.8983 0.0256
1 9 19 -1.7566 -0.0043
1 9 20 -0.0479 -0.0636
1 10 0 1.5451 0.6158
1 10 1 -2.2852 0.2881
1 10 2 2.3565 -0.1247
1 10 3 -1.5815 -0.1188
1 10 4 -2.5884 0.0725
1 10 5 3.8387 0.0423
1 10 6 2.7395 -0.0205
1 10 7 -1.2349 0.0045
1 10 8 -1.0081 0.0075
1 10 9 -1.7397 -0.0433
1 10 10 -2.2315 -0.0425
1 10 11 -2.6200 0.0079
1 10 12 -2.6377 0.0629
1 10 13 -0.6107 0.0363
1 10 14 -1.1317 -0.0580
1 10 15 -2.2040 -0.0534
1 10 16 -1.1542 0.0007
1 10 17 -1.8029 -0.0025
1 10 18 1.9182 0.0142
1 10 19 2.0521 -0.0013
1 11 0 -2.2598 0.0802
1 11 1 0.4039 0.3047
1 11 2 -6.6095 0.1284
1 11 3 -4.2883 -0.1804
1 11 4 -1.2625 -0.1229
1 11 5 -2.8109 0.0281
1 11 6 -0.2060 -0.0216
1 11 7 2.4374 -0.0142
1 11 8 -2.4690 0.0432
1 11 9 -1.7844 0.0486
1 11 10 0.6651 -0.0108
1 11 11 -2.5315 -0.0522
1 11 12 -2.9772 -0.0038
1 11 13 0.1462 0.0264
1 11 14 -0.0237 -0.0120
1 11 15 -1.5927 0.0060
1 11 16 -4.1931 0.0091
1 11 17 -0.5842 0.0162
1 11 18 0.1076 0.0507
1 12 0 -0.1884 -0.3599
1 12 1 -1.1862 -0.1719
1 12 2 -0.3346 0.0666
1 12 3 -1.8944 0.0115
1 12 4 -1.9776 -0.1004
1 12 5 -1.3323 0.0080
1 12 6 -0.7019 0.0391
1 12 7 -2.2252 -0.0570
1 12 8 -2.5006 -0.0272
1 12 9 -2.9300 0.0365
1 12 10 -1.0760 0.0554
1 12 11 1.5546 -0.0161
1 12 12 0.5114 -0.0273
1 12 13 -0.6006 0.0155
1 12 14 2.4075 -0.0250
1 12 15 1.9111 -0.0432
1 12 16 1.9955 0.0016
1 12 17 -1.3900 0.0179
1 13 0 3.0188 -0.2680
1 13 1 -1.3941 -0.2987
1 13 2 -0.2598 -0.1341
1 13 3 -2.6179 0.0823
1 13 4 -3.2313 0.0237
1 13 5 -5.1493 -0.0018
1 13 6 -4.2657 0.0925
1 13 7 -0.7962 0.0429
1 13 8 -1.4166 -0.0718
1 13 9 -0.4269 -0.0431
1 13 10 0.9381 0.0115
1 13 11 1.3281 0.0147
1 13 12 1.9234 -0.0049
1 13 13 1.9606 0.0114
1 13 14 0.3858 0.0262
1 13 15 1.1976 -0.0008
1 13 16 -0.2496 -0.1221
1 14 0 -0.6978 -0.0766
1 14 1 2.5086 -0.0450
1 14 2 -1.8565 -0.0005
1 14 3 -1.1064 0.0711
1 14 4 -2.2228 0.0808
1 14 5 -2.5909 -0.0336
1 14 6 -3.4705 -0.0100
1 14 7 -1.5924 0.0913
1 14 8 1.1572 0.0316
1 14 9 0.3707 -0.0439
1 14 10 0.0389 -0.0242
1 14 11 0.4367 -0.0467
1 14 12 0.9982 -0.0055
1 14 13 0.3570 0.0031
1 14 14 -1.2787 0.0032
1 14 15 -2.1779 0.1325
1 15 0 -1.9676 0.2139
1 15 1 -3.0023 0.0959
1 15 2 4.9719 0.0385
1 15 3 5.1603 0.0442
1 15 4 1.6850 0.0642
1 15 5 -0.5156 0.0212
1 15 6 1.3345 -0.0689
1 15 7 -2.0929 -0.0174
1 15 8 -3.6380 0.0305
1 15 9 0.8600 -0.0159
1 15 10 1.1629 0.0150
1 15 11 -2.1516 0.0029
1 15 12 -2.6027 -0.0075
1 15 13 -0.9288 0.0313
1 15 14 0.4457 -0.0179
1 16 0 -1.7450 0.3238
1 16 1 -1.0695 0.1526
1 16 2 -2.6954 -0.0513
1 16 3 2.9699 -0.0538
1 16 4 2.4019 0.0027
1 16 5 -0.8396 0.0403
1 16 6 -1.4609 -0.0040
1 16 7 1.8869 -0.0382
1 16 8 0.0347 0.0299
1 16 9 -1.3401 -0.0033
1 16 10 0.7798 -0.0564
1 16 11 0.8606 0.0130
1 16 12 -0.3278 0.0508
1 17 0 1.1678 0.0024
1 17 1 -0.6120 0.0986
1 17 2 -3.8202 0.0443
1 17 3 -1.9721 -0.1175
1 17 4 -0.3906 -0.0931
1 17 5 -3.0168 0.0154
1 17 6 -0.2963 0.0455
1 17 7 -0.8447 0.0253
1 17 8 -1.3636 -0.0175
1 17 9 0.7358 -0.0028
1 17 10 2.0902 0.0157
1 17 11 1.2578 -0.1158
1 18 0 -1.0628 -0.2787
1 18 1 1.8581 -0.1094
1 18 2 -0.7289 0.0378
1 18 3 -0.7007 0.0260
1 18 4 -1.5801 -0.0544
1 18 5 -2.5191 0.0480
1 18 6 -2.0278 0.0168
1 18 7 0.9346 -0.0722
1 18 8 0.3342 0.0476
1 18 9 -0.6283 -0.0093
1 19 0 0.8086 -0.1262
1 19 1 2.9067 -0.1818
1 19 2 2.3192 -0.0653
1 19 3 1.1608 0.1399
1 19 4 2.2219 0.0160
1 19 5 -1.6328 -0.0743
1 19 6 -0.7201 0.1228
1 19 7 2.0269 0.0252
1 20 0 1.8321 0.1142
1 20 1 1.7692 0.0002
1 20 2 0.4104 0.0179
1 20 3 2.2256 -0.0485
1 20 4 2.2207 0.0670
1 20 5 0.6643 0.0113
1 21 0 0.6193 0.1732
1 21 1 0.0776 0.1259
1 21 2 -0.6169 -0.0261
2 -22 0 -1.5304 0.0343
2 -22 1 0.4816 -0.0727
2 -22 2 0.0198 -0.0008
2 -22 3 1.8578 -0.0478
2 -22 4 3.6788 -0.0238
2 -22 5 -0.0177 -0.0018
2 -22 6 3.5283 -0.0560
2 -22 7 0.2644 0.0331
2 -22 8 -0.3027 -0.0516
2 -22 9 0.6535 0.0480
2 -22 10 -0.9633 -0.0422
2 -22 11 -2.1476 0.0588
2 -22 12 0.3755 0.0226
2 -21 0 0.6420 0.0664
2 -21 1 -0.6579 0.0258
2 -21 2 -0.2487 -0.0487
2 -21 3 1.3422 -0.0175
2 -21 4 -0.0859 -0.0224
2 -21 5 2.7588 -0.0208
2 -21 6 -0.3216 0.0256
2 -21 7 1.1029 -0.0422
2 -21 8 1.0101 0.0456
2 -21 9 2.9147 -0.0435
2 -21 10 0.5653 0.0246
2 -21 11 -1.6875 -0.0281
2 -21 12 0.2093 -0.0177
2 -21 13 3.2265 -0.0195
2 -21 14 1.9175 -0.0138
2 -21 15 -0.5640 -0.0702
2 -20 0 -1.0046 -0.1578
2 -20 1 1.0104 -0.0326
2 -20 2 -0.9027 -0.0174
2 -20 3 -0.8653 -0.0142
2 -20 4 3.2220 -0.0079
2 -20 5 -2.1666 0.0024
2 -20 6 2.6312 0.0039
2 -20 7 0.2545 0.0266
2 -20 8 -3.5852 0.0049
2 -20 9 -0.7721 0.0593
2 -20 10 1.1331 -0.0258
2 -20 11 -2.1558 0.0097
2 -20 12 0.5142 -0.0012
2 -20 13 0.8867 0.0137
2 -20 14 0.4843 0.0076
2 -20 15 0.6889 0.0044
2 -20 16 -2.5144 -0.0129
2 -20 17 -3.7897 0.0051
2 -19 0 -1.7716 -0.2590
2 -19 1 -0.7141 -0.1041
2 -19 2 -1.1515 0.0283
2 -19 3 -1.1360 0.0430
2 -19 4 -1.0179 0.0167
2 -19 5 2.2472 0.0041
2 -19 6 -1.1596 0.0135
2 -19 7 0.2962 -0.0044
2 -19 8 -0.9916 -0.0027
2 -19 9 -0.1974 0.0126
2 -19 10 1.4911 0.0255
2 -19 11 -0.1181 -0.0003
2 -19 12 -3.9669 -0.0103
2 -19 13 0.2675 -0.0306
2 -19 14 2.0493 0.0216
2 -19 15 0.2706 -0.0008
2 -19 16 1.3030 -0.0275
2 -19 17 0.6469 -0.0137
2 -19 18 0.9725 0.0111
2 -19 19 -2.9556 0.0259
2 -18 0 -2.0329 0.0614
2 -18 1 0.0132 -0.0753
2 -18 2 -1.1827 -0.0204
2 -18 3 -4.1729 0.0807
2 -18 4 -2.2863 0.0514
2 -18 5 -3.2091 -0.0061
2 -18 6 2.7502 0.0098
2 -18 7 4.1578 -0.0012
2 -18 8 0.5410 -0.0142
2 -18 9 0.1277 -0.0017
2 -18 10 0.6075 0.0028
2 -18 11 -0.5558 -0.0171
2 -18 12 0.7269 -0.0027
2 -18 13 -3.1475 -0.0017
2 -18 14 0.6411 -0.0154
2 -18 15 3.8311 0.0016
2 -18 16 -1.4567 -0.0141
2 -18 17 0.7537 -0.0093
2 -18 18 -1.9146 0.0012
2 -18 19 -1.3898 0.0071
2 -18 20 -0.4145 0.0222
2 -17 0 -1.3171 0.3340
2 -17 1 -1.8014 0.1455
2 -17 2 -0.9082 -0.0361
2 -17 3 -2.1644 -0.0307
2 -17 4 -2.1453 0.0557
2 -17 5 1.3402 0.0151
2 -17 6 0.9177 -0.0252
2 -17 7 2.3654 0.0112
2 -17 8 1.3406 -0.0162
2 -17 9 -3.1389 -0.0227
2 -17 10 -4.1440 0.0097
2 -17 11 -2.9326 0.0080
2 -17 12 -2.8355 -0.0177
2 -17 13 -2.1532 -0.0048
2 -17 14 -2.6980 0.0016
2 -17 15 0.9671 0.0085
2 -17 16 0.7001 0.0046
2 -17 17 -3.4748 -0.0213
2 -17 18 1.2595 -0.0208
2 -17 19 -3.7258 -0.0042
2 -17 20 -2.1757 -0.0094
2 -17 21 1.9813 -0.0242
2 -16 0 1.0345 0.1080
2 -16 1 0.4118 0.1809
2 -16 2 -0.9822 0.0493
2 -16 3 -1.4226 -0.0833
2 -16 4 -1.5772 -0.0491
2 -16 5 -2.7615 0.0237
2 -16 6 0.7380 -0.0383
2 -16 7 1.5785 -0.0288
2 -16 8 -0.4326 0.0197
2 -16 9 2.3390 -0.0102
2 -16 10 0.0918 -0.0072
2 -16 11 -1.3396 0.0178
2 -16 12 0.3517 -0.0022
2 -16 13 -2.3060 -0.0115
2 -16 14 -1.5719 0.0010
2 -16 15 -0.6839 -0.0016
2 -16 16 -0.4968 0.0055
2 -16 17 1.7423 0.0127
2 -16 18 -0.5715 0.0035
2 -16 19 0.1249 -0.0045
2 -16 20 -1.0491 0.0056
2 -16 21 1.5854 -0.0144
2 -16 22 3.6767 -0.0287
2 -15 0 1.3518 -0.1335
2 -15 1 -0.9485 -0.0768
2 -15 2 0.1919 0.0391
2 -15 3 0.9011 -0.0262
2 -15 4 -1.1216 -0.0991
2 -15 5 -0.4534 -0.0109
2 -15 6 -2.0935 0.0328
2 -15 7 -1.3192 -0.0241
2 -15 8 2.0798 0.0092
2 -15 9 0.8086 0.0160
2 -15 10 3.0341 -0.0126
2 -15 11 1.1071 -0.0055
2 -15 12 2.1171 0.0286
2 -15 13 2.1221 0.0082
2 -15 14 -3.7691 -0.0083
2 -15 15 -0.3039 -0.0049
2 -15 16 -1.0562 -0.0017
2 -15 17 -1.6895 0.0127
2 -15 18 4.2739 0.0083
2 -15 19 2.0626 -0.0133
2 -15 20 0.8856 -0.0042
2 -15 21 0.4950 0.0291
2 -15 22 -2.6325 0.0129
2 -15 23 1.5634 0.0035
2 -14 0 -2.0723 -0.2323
2 -14 1 0.3078 -0.1650
2 -14 2 2.3855 -0.0703
2 -14 3 4.7174 0.0437
2 -14 4 7.0949 0.0038
2 -14 5 0.8277 -0.0209
2 -14 6 -0.5837 0.0488
2 -14 7 -1.5898 0.0417
2 -14 8 -6.2285 -0.0101
2 -14 9 -2.9617 0.0122
2 -14 10 -2.1882 0.0027
2 -14 11 0.2162 -0.0182
2 -14 12 -1.0503 -0.0081
2 -14 13 -1.7042 0.0252
2 -14 14 1.9004 -0.0028
2 -14 15 -2.3545 -0.0073
2 -14 16 1.1968 -0.0039
2 -14 17 3.2562 -0.0049
2 -14 18 1.5591 0.0163
2 -14 19 2.4433 0.0089
2 -14 20 1.2896 -0.0232
2 -14 21 0.3130 -0.0060
2 -14 22 2.9136 0.0299
2 -14 23 -1.7043 0.0206
2 -13 0 -2.6015 -0.2843
2 -13 1 -1.6683 -0.0737
2 -13 2 -1.6577 0.0106
2 -13 3 4.3782 0.0599
2 -13 4 4.6538 0.0662
2 -13 5 7.3535 -0.0031
2 -13 6 0.3449 -0.0240
2 -13 7 -5.9773 0.0355
2 -13 8 -0.4318 0.0200
2 -13 9 -2.0441 -0.0023
2 -13 10 -3.1984 0.0204
2 -13 11 -1.7643 -0.0076
2 -13 12 0.5185 -0.0241
2 -13 13 1.3501 -0.0037
2 -13 14 -1.9770 0.0349
2 -13 15 2.6288 0.0032
2 -13 16 0.2606 -0.0034
2 -13 17 1.5036 0.0128
2 -13 18 4.5686 -0.0038
2 -13 19 1.8200 -0.0073
2 -13 20 0.9990 -0.0096
2 -13 21 2.9734 -0.0213
2 -13 22 -2.7507 0.0135
2 -13 23 2.4652 0.0263
2 -13 24 1.0641 0.0095
2 -12 0 -3.8528 0.1697
2 -12 1 0.1431 -0.0195
2 -12 2 5.4723 0.0828
2 -12 3 2.8803 0.0827
2 -12 4 1.2945 0.0552
2 -12 5 -4.9159 0.0092
2 -12 6 1.8768 -0.0424
2 -12 7 2.1356 -0.0453
2 -12 8 -4.1484 -0.0037
2 -12 9 2.6249 -0.0070
2 -12 10 1.2680 0.0013
2 -12 11 -2.8171 0.0211
2 -12 12 0.4395 -0.0033
2 -12 13 -0.4389 -0.0392
2 -12 14 3.2466 -0.0165
2 -12 15 -0.6031 0.0336
2 -12 16 2.0278 -0.0063
2 -12 17 5.4134 -0.0086
2 -12 18 3.5530 0.0066
2 -12 19 1.9457 -0.0080
2 -12 20 0.9995 0.0014
2 -12 21 -2.7443 -0.0052
2 -12 22 1.3882 -0.0069
2 -12 23 -2.5844 0.0271
2 -12 24 -1.3482 0.0342
2 -11 0 4.6531 0.5930
2 -11 1 7.1391 0.1890
2 -11 2 1.8052 -0.0764
2 -11 3 3.0376 -0.0309
2 -11 4 -1.3221 0.0231
2 -11 5 -4.8398 0.0095
2 -11 6 -7.8466 -0.0047
2 -11 7 -5.0643 -0.0085
2 -11 8 -1.1551 -0.0390
2 -11 9 -0.8324 -0.0163
2 -11 10 0.8226 -0.0017
2 -11 11 0.2692 -0.0033
2 -11 12 -4.5151 0.0318
2 -11 13 0.7128 0.0054
2 -11 14 2.0411 -0.0476
2 -11 15 4.5929 -0.0075
2 -11 16 -0.4144 0.0150
2 -11 17 0.0950 -0.0183
2 -11 18 3.5461 0.0072
2 -11 19 1.1610 0.0114
2 -11 20 -0.7895 -0.0077
2 -11 21 3.1638 -0.0003
2 -11 22 -1.8825 -0.0096
2 -11 23 -0.3058 -0.0041
2 -11 24 0.5847 0.0164
2 -11 25 -2.8634 0.0431
2 -10 0 -3.2926 0.0828
2 -10 1 -0.3536 0.2846
2 -10 2 -1.2610 -0.0109
2 -10 3 -3.9224 -0.1855
2 -10 4 -4.1186 -0.0583
2 -10 5 -9.8435 0.0161
2 -10 6 -3.1939 -0.0364
2 -10 7 1.7727 0.0173
2 -10 8 -2.6581 0.0429
2 -10 9 -1.6270 -0.0081
2 -10 10 -0.7550 0.0080
2 -10 11 -2.1106 0.0015
2 -10 12 3.5378 -0.0047
2 -10 13 -0.7116 0.0386
2 -10 14 4.0368 0.0069
2 -10 15 2.7314 -0.0270
2 -10 16 0.7143 0.0134
2 -10 17 -1.0022 0.0074
2 -10 18 -1.0924 -0.0262
2 -10 19 0.2657 0.0027
2 -10 20 -0.1112 0.0180
2 -10 21 -4.5677 -0.0030
2 -10 22 -3.7771 0.0003
2 -10 23 -4.0425 -0.0075
2 -10 24 -2.5968 0.0089
2 -10 25 -0.1540 0.0316
2 -9 0 0.6468 -0.6008
2 -9 1 6.2960 -0.1973
2 -9 2 -3.6763 0.1632
2 -9 3 -13.8060 -0.0354
2 -9 4 -10.3604 -0.1446
2 -9 5 -1.6719 0.0146
2 -9 6 0.0791 0.0285
2 -9 7 5.3963 -0.0473
2 -9 8 8.0678 0.0363
2 -9 9 2.8483 0.0425
2 -9 10 0.0169 -0.0046
2 -9 11 2.1829 -0.0030
2 -9 12 -1.3502 -0.0213
2 -9 13 3.6878 -0.0085
2 -9 14 0.8422 0.0285
2 -9 15 3.5341 -0.0001
2 -9 16 0.4773 -0.0101
2 -9 17 -1.7410 0.0257
2 -9 18 -0.4606 0.0068
2 -9 19 -0.6555 -0.0233
2 -9 20 -0.4856 -0.0030
2 -9 21 1.7823 0.0114
2 -9 22 -1.8263 0.0024
2 -9 23 -4.3042 0.0149
2 -9 24 -0.1371 0.0036
2 -9 25 1.5913 -0.0036
2 -8 0 -6.7840 -0.3203
2 -8 1 -4.0697 -0.4429
2 -8 2 0.8982 -0.1000
2 -8 3 -0.9855 0.2035
2 -8 4 -4.9280 0.0161
2 -8 5 -4.1593 -0.0363
2 -8 6 7.1433 0.0985
2 -8 7 8.3655 0.0307
2 -8 8 2.3230 -0.0519
2 -8 9 -0.0384 0.0115
2 -8 10 -2.1503 -0.0045
2 -8 11 -4.0133 -0.0122
2 -8 12 2.5383 0.0015
2 -8 13 1.0551 -0.0142
2 -8 14 4.1078 -0.0023
2 -8 15 -0.1215 0.0073
2 -8 16 0.9522 -0.0182
2 -8 17 1.0648 -0.0057
2 -8 18 0.0856 0.0320
2 -8 19 1.6335 -0.0014
2 -8 20 1.9257 -0.0307
2 -8 21 1.6691 0.0005
2 -8 22 4.1961 0.0024
2 -8 23 2.1295 -0.0078
2 -8 24 -1.2750 0.0074
2 -8 25 0.4606 -0.0074
2 -7 0 -12.8238 0.1128
2 -7 1 -8.3608 0.0263
2 -7 2 -20.6846 -0.1559
2 -7 3 -11.4887 0.0607
2 -7 4 -3.2207 0.1928
2 -7 5 4.0837 -0.0274
2 -7 6 4.9373 -0.0365
2 -7 7 3.9778 0.0713
2 -7 8 -1.5643 -0.0075
2 -7 9 -11.3167 -0.0422
2 -7 10 -9.8472 0.0107
2 -7 11 -0.2201 -0.0073
2 -7 12 -1.2476 -0.0122
2 -7 13 2.5802 0.0074
2 -7 14 2.1754 0.0112
2 -7 15 3.2651 0.0034
2 -7 16 -0.6928 -0.0043
2 -7 17 -0.0048 -0.0219
2 -7 18 3.0742 -0.0006
2 -7 19 1.2841 0.0407
2 -7 20 -0.7780 -0.0030
2 -7 21 -1.0089 -0.0228
2 -7 22 -2.1775 0.0144
2 -7 23 1.2703 -0.0045
2 -7 24 1.4640 -0.0040
2 -7 25 0.4957 -0.0020
2 -6 0 -4.0284 0.2920
2 -6 1 -25.2574 0.2939
2 -6 2 -6.3006 0.1943
2 -6 3 -10.5346 -0.0626
2 -6 4 -1.9396 0.0237
2 -6 5 2.3345 0.0435
2 -6 6 7.7138 -0.0963
2 -6 7 -0.7253 -0.0436
2 -6 8 -5.0270 0.0395
2 -6 9 1.4507 -0.0118
2 -6 10 -1.9212 -0.0085
2 -6 11 -2.1941 0.0350
2 -6 12 7.3604 0.0016
2 -6 13 1.8615 -0.0275
2 -6 14 -2.8071 0.0087
2 -6 15 -3.3661 0.0304
2 -6 16 -0.8166 0.0173
2 -6 17 0.6670 -0.0040
2 -6 18 1.3816 -0.0245
2 -6 19 2.0382 0.0007
2 -6 20 0.3672 0.0215
2 -6 21 -2.6327 -0.0076
2 -6 22 1.1965 0.0000
2 -6 23 0.0524 0.0205
2 -6 24 1.7032 0.0019
2 -6 25 0.6965 -0.0006
2 -5 0 0.9622 0.5079
2 -5 1 16.6385 0.1825
2 -5 2 -9.3290 0.0718
2 -5 3 23.6147 -0.0137
2 -5 4 14.3852 -0.0926
2 -5 5 1.5895 0.0110
2 -5 6 0.3158 -0.0034
2 -5 7 1.7062 -0.0670
2 -5 8 -7.2110 -0.0139
2 -5 9 -8.5005 0.0282
2 -5 10 1.6984 -0.0199
2 -5 11 5.0716 0.0121
2 -5 12 1.3544 0.0571
2 -5 13 0.7147 -0.0064
2 -5 14 -0.5662 -0.0476
2 -5 15 -2.7125 -0.0055
2 -5 16 -1.9757 0.0214
2 -5 17 -0.4120 0.0176
2 -5 18 -0.0591 -0.0006
2 -5 19 2.3556 -0.0134
2 -5 20 -0.2381 0.0018
2 -5 21 0.1232 0.0155
2 -5 22 -1.3274 -0.0156
2 -5 23 2.8192 -0.0131
2 -5 24 1.3653 0.0158
2 -5 25 1.7530 0.0066
2 -4 0 -37.4148 0.0594
2 -4 1 -52.0087 0.0741
2 -4 2 5.2230 -0.1784
2 -4 3 -4.3184 -0.1554
2 -4 4 14.0844 -0.0548
2 -4 5 1.8735 -0.0091
2 -4 6 -2.4661 0.0515
2 -4 7 -10.9571 0.0326
2 -4 8 -13.8722 -0.0190
2 -4 9 2.1212 0.0046
2 -4 10 1.6062 0.0079
2 -4 11 -1.2101 -0.0536
2 -4 12 2.8942 0.0059
2 -4 13 1.2194 0.0614
2 -4 14 -1.6595 -0.0076
2 -4 15 -2.8765 -0.0452
2 -4 16 -2.2882 -0.0093
2 -4 17 0.1229 0.0035
2 -4 18 0.3150 -0.0007
2 -4 19 -2.2634 0.0047
2 -4 20 2.5756 0.0053
2 -4 21 -0.7822 -0.0011
2 -4 22 -0.5817 0.0078
2 -4 23 -0.6940 -0.0463
2 -4 24 0.9271 -0.0326
2 -4 25 -1.2638 0.0321
2 -3 0 -17.5565 -0.7842
2 -3 1 5.7350 -0.1291
2 -3 2 -51.6988 0.1830
2 -3 3 23.9959 -0.0712
2 -3 4 30.0367 -0.1134
2 -3 5 -5.3116 0.0117
2 -3 6 -15.4377 0.0185
2 -3 7 4.1231 0.0405
2 -3 8 0.2264 0.0478
2 -3 9 -3.7205 0.0108
2 -3 10 11.8211 0.0232
2 -3 11 9.8927 -0.0193
2 -3 12 0.3882 -0.0735
2 -3 13 -4.7680 0.0056
2 -3 14 -1.9467 0.0569
2 -3 15 4.0138 0.0027
2 -3 16 1.5227 -0.0252
2 -3 17 2.5293 0.0087
2 -3 18 2.6871 0.0018
2 -3 19 1.6809 -0.0232
2 -3 20 -1.7176 -0.0109
2 -3 21 1.6605 0.0196
2 -3 22 -1.1130 0.0228
2 -3 23 -3.2114 0.0191
2 -3 24 -2.6116 -0.0506
2 -3 25 1.0189 -0.0209
2 -2 0 31.1214 -0.3930
2 -2 1 42.7458 -0.4449
2 -2 2 65.8835 0.0655
2 -2 3 -14.9779 0.3239
2 -2 4 16.4063 0.0369
2 -2 5 10.1439 -0.0580
2 -2 6 -14.7604 -0.0002
2 -2 7 -9.2183 -0.0193
2 -2 8 2.9302 -0.0089
2 -2 9 6.8689 0.0110
2 -2 10 -0.0168 0.0184
2 -2 11 -1.6860 0.0414
2 -2 12 0.5696 -0.0097
2 -2 13 0.2692 -0.0590
2 -2 14 -0.3348 0.0020
2 -2 15 1.3686 0.0421
2 -2 16 5.0020 -0.0022
2 -2 17 1.1784 -0.0050
2 -2 18 2.7929 0.0320
2 -2 19 0.7285 -0.0074
2 -2 20 -0.0959 -0.0340
2 -2 21 -0.4973 -0.0229
2 -2 22 0.7372 0.0117
2 -2 23 -0.0444 0.0408
2 -2 24 -2.1534 0.0199
2 -2 25 -2.3860 -0.0507
2 -1 0 -43.9612 0.5971
2 -1 1 56.1379 -0.0870
2 -1 2 -4.3439 -0.2830
2 -1 3 7.5847 0.1074
2 -1 4 -15.5098 0.2274
2 -1 5 -9.3904 0.0034
2 -1 6 -13.7267 -0.0119
2 -1 7 -2.0897 0.0211
2 -1 8 12.3811 -0.0360
2 -1 9 3.0595 -0.0535
2 -1 10 1.7775 -0.0212
2 -1 11 -1.8306 0.0087
2 -1 12 -2.0184 0.0448
2 -1 13 1.5564 0.0202
2 -1 14 -2.2715 -0.0271
2 -1 15 2.6277 0.0075
2 -1 16 -0.3263 0.0016
2 -1 17 -2.8999 -0.0401
2 -1 18 -2.1448 0.0114
2 -1 19 1.4136 0.0499
2 -1 20 0.8047 -0.0007
2 -1 21 0.2558 -0.0356
2 -1 22 1.3152 -0.0374
2 -1 23 -1.0268 0.0077
2 -1 24 -1.2021 0.0466
2 -1 25 -0.1257 0.0165
2 0 0 -35.9804 0.6343
2 0 1 -51.8401 0.6580
2 0 2 72.1185 0.0613
2 0 3 -15.3151 -0.2672
2 0 4 -17.3830 -0.0003
2 0 5 5.2515 0.0683
2 0 6 1.4260 -0.0615
2 0 7 -1.5378 0.0181
2 0 8 1.3181 0.0521
2 0 9 9.5922 -0.0261
2 0 10 2.9294 -0.0407
2 0 11 -5.0681 -0.0172
2 0 12 -3.1391 0.0007
2 0 13 1.4065 0.0133
2 0 14 5.7171 0.0022
2 0 15 -1.0142 -0.0014
2 0 16 2.6078 0.0250
2 0 17 0.0537 -0.0145
2 0 18 -2.6657 -0.0536
2 0 19 2.3300 0.0077
2 0 20 1.1080 0.0474
2 0 21 0.2561 0.0233
2 0 22 1.5245 -0.0254
2 0 23 2.9424 -0.0560
2 0 24 -0.1915 0.0030
2 1 0 57.4527 -0.1613
2 1 1 51.0446 0.2541
2 1 2 -38.7279 0.2852
2 1 3 23.7495 -0.0362
2 1 4 -18.6415 -0.1886
2 1 5 -28.0501 -0.0088
2 1 6 -1.7781 -0.0094
2 1 7 -0.4800 -0.1035
2 1 8 0.1289 0.0142
2 1 9 -6.6599 0.0690
2 1 10 -2.8734 0.0017
2 1 11 5.3955 0.0065
2 1 12 1.6496 -0.0017
2 1 13 4.0587 -0.0207
2 1 14 3.4731 -0.0157
2 1 15 4.4563 -0.0089
2 1 16 1.8002 0.0232
2 1 17 1.1440 0.0418
2 1 18 0.4485 -0.0180
2 1 19 -0.7435 -0.0574
2 1 20 3.9668 -0.0030
2 1 21 1.2850 0.0271
2 1 22 0.6740 0.0208
2 1 23 1.0456 -0.0046
2 1 24 1.7900 -0.0616
2 2 0 13.3623 -0.2950
2 2 1 -51.1196 -0.3931
2 2 2 0.9431 -0.0751
2 2 3 -71.9656 0.0453
2 2 4 -39.8060 -0.0417
2 2 5 -15.0506 -0.0429
2 2 6 -8.8970 0.0900
2 2 7 6.7430 0.0186
2 2 8 4.3009 -0.0845
2 2 9 6.2779 0.0188
2 2 10 4.6789 0.0293
2 2 11 5.4833 -0.0247
2 2 12 11.3097 0.0314
2 2 13 5.8482 0.0193
2 2 14 4.1761 -0.0101
2 2 15 0.0618 -0.0193
2 2 16 -1.1166 -0.0232
2 2 17 0.6338 0.0316
2 2 18 -1.1582 0.0444
2 2 19 1.9420 -0.0064
2 2 20 1.3385 -0.0363
2 2 21 0.8477 -0.0049
2 2 22 -0.4458 0.0442
2 2 23 -0.0883 0.0120
2 2 24 -0.2361 0.0094
2 3 0 -14.7678 -0.4276
2 3 1 -8.6232 -0.0999
2 3 2 -88.5266 -0.1250
2 3 3 -17.8011 -0.0823
2 3 4 -22.0860 0.0086
2 3 5 -13.0242 -0.0169
2 3 6 11.4705 0.0333
2 3 7 9.2912 0.1249
2 3 8 11.9357 0.0089
2 3 9 6.4387 -0.0459
2 3 10 4.7805 0.0096
2 3 11 7.0890 -0.0368
2 3 12 6.0940 -0.0532
2 3 13 2.6646 0.0252
2 3 14 -2.2408 0.0554
2 3 15 -2.7253 0.0157
2 3 16 -3.5896 -0.0285
2 3 17 -0.9227 -0.0285
2 3 18 2.4388 0.0002
2 3 19 -0.3560 0.0223
2 3 20 2.6359 0.0055
2 3 21 3.5218 -0.0124
2 3 22 1.4264 -0.0171
2 3 23 -0.6126 0.0170
2 4 0 28.3572 -0.3342
2 4 1 -24.6946 -0.1973
2 4 2 13.8756 0.1629
2 4 3 -39.7526 0.1716
2 4 4 -6.2977 0.0414
2 4 5 11.1728 -0.0356
2 4 6 -1.2780 -0.0725
2 4 7 3.8928 0.0058
2 4 8 -3.1918 0.0598
2 4 9 3.0410 -0.0056
2 4 10 5.0566 -0.0016
2 4 11 1.5827 0.0330
2 4 12 1.7524 -0.0346
2 4 13 -1.5763 -0.0592
2 4 14 -5.0001 0.0160
2 4 15 -3.4711 0.0523
2 4 16 -1.8508 0.0155
2 4 17 -2.3710 -0.0076
2 4 18 0.2602 -0.0026
2 4 19 3.0365 -0.0013
2 4 20 0.2662 -0.0022
2 4 21 0.2976 -0.0196
2 4 22 0.9973 0.0216
2 4 23 0.0292 -0.0322
2 5 0 -11.6796 0.6501
2 5 1 10.2403 -0.1055
2 5 2 -26.3021 -0.1174
2 5 3 8.3156 0.1331
2 5 4 -1.5258 0.1621
2 5 5 -4.6084 0.0399
2 5 6 0.5994 -0.0474
2 5 7 -8.5574 -0.0611
2 5 8 -3.9113 -0.0295
2 5 9 -4.7865 -0.0067
2 5 10 -0.0844 -0.0177
2 5 11 1.8570 0.0317
2 5 12 2.0235 0.0663
2 5 13 -0.4212 -0.0259
2 5 14 -4.9525 -0.0502
2 5 15 -4.0184 -0.0065
2 5 16 -0.2494 0.0109
2 5 17 1.3273 0.0072
2 5 18 0.9290 0.0007
2 5 19 0.2356 0.0314
2 5 20 -0.6120 -0.0165
2 5 21 -1.3335 -0.0569
2 5 22 -1.0977 -0.0395
2 6 0 -17.6830 0.6862
2 6 1 -28.6847 0.5269
2 6 2 16.7093 -0.1568
2 6 3 0.1365 -0.2521
2 6 4 4.0299 0.0172
2 6 5 6.8871 0.0891
2 6 6 -7.2102 0.0159
2 6 7 -3.6625 -0.0038
2 6 8 -5.1138 -0.0038
2 6 9 -0.6648 -0.0249
2 6 10 2.7652 -0.0523
2 6 11 0.5257 -0.0388
2 6 12 -2.5448 0.0313
2 6 13 -0.0712 0.0644
2 6 14 -2.1090 0.0018
2 6 15 -2.3393 -0.0283
2 6 16 1.8440 0.0021
2 6 17 3.3987 -0.0171
2 6 18 3.7978 -0.0465
2 6 19 2.4790 0.0129
2 6 20 -0.2647 0.0486
2 6 21 -0.9033 -0.0216
2 7 0 -0.7615 -0.4012
2 7 1 5.7420 0.2522
2 7 2 -4.2522 0.2945
2 7 3 16.8031 -0.1100
2 7 4 9.6556 -0.1958
2 7 5 -0.7197 -0.0047
2 7 6 0.1666 0.0227
2 7 7 -5.7698 -0.0276
2 7 8 -0.2258 0.0279
2 7 9 0.3443 0.0498
2 7 10 -1.5521 0.0018
2 7 11 -2.7147 -0.0296
2 7 12 -2.2584 -0.0539
2 7 13 -3.0078 -0.0149
2 7 14 -1.3390 0.0364
2 7 15 -1.5177 -0.0001
2 7 16 0.2101 0.0277
2 7 17 2.0116 0.0514
2 7 18 2.2606 -0.0485
2 7 19 3.1739 -0.0780
2 7 20 1.2127 -0.0031
2 7 21 -0.5844 0.0465
2 8 0 -2.5738 -0.5596
2 8 1 -0.7823 -0.4465
2 8 2 12.3198 0.0998
2 8 3 -1.3822 0.1875
2 8 4 -0.9370 -0.0469
2 8 5 2.9220 -0.0805
2 8 6 -4.2684 0.0285
2 8 7 -0.9262 -0.0251
2 8 8 -2.3710 -0.0559
2 8 9 -3.6650 0.0486
2 8 10 -0.8513 0.0589
2 8 11 -2.2593 0.0141
2 8 12 -5.4515 -0.0076
2 8 13 -1.2525 -0.0473
2 8 14 -1.2581 -0.0211
2 8 15 -2.0127 -0.0117
2 8 16 -2.4784 -0.0138
2 8 17 -2.6621 0.0711
2 8 18 -1.5206 0.0581
2 8 19 0.1946 -0.0495
2 8 20 0.1551 -0.1177
2 9 0 0.3314 -0.0316
2 9 1 4.4674 -0.2318
2 9 2 -2.0153 -0.2366
2 9 3 3.4771 0.0485
2 9 4 -3.5061 0.0911
2 9 5 -6.0661 -0.0375
2 9 6 1.7978 0.0184
2 9 7 0.9586 0.0903
2 9 8 0.6485 -0.0209
2 9 9 0.5302 -0.0614
2 9 10 -1.6140 0.0103
2 9 11 -1.9882 0.0257
2 9 12 -1.7271 0.0110
2 9 13 -1.1205 0.0198
2 9 14 2.0868 0.0033
2 9 15 0.6390 -0.0156
2 9 16 0.0251 -0.0323
2 9 17 -1.7463 -0.0358
2 9 18 -3.7092 0.0710
2 9 19 -2.1790 0.0832
2 10 0 2.0963 0.1385
2 10 1 1.6322 0.1296
2 10 2 8.0643 0.0037
2 10 3 0.8535 -0.0412
2 10 4 0.9133 0.0349
2 10 5 1.7365 0.0080
2 10 6 -3.0654 -0.0470
2 10 7 0.2419 0.0371
2 10 8 1.6198 0.0758
2 10 9 -3.1639 -0.0277
2 10 10 -1.0893 -0.0316
2 10 11 0.5121 0.0072
2 10 12 -2.4338 -0.0166
2 10 13 -1.9317 -0.0033
2 10 14 0.1312 0.0186
2 10 15 1.2607 0.0083
2 10 16 0.6475 -0.0102
2 10 17 0.6398 -0.0808
2 10 18 -0.2754 -0.0783
2 11 0 -0.1234 0.3027
2 11 1 2.0123 0.0827
2 11 2 -2.4683 0.0606
2 11 3 -1.2517 0.0359
2 11 4 -0.3377 0.0445
2 11 5 -1.7686 0.0353
2 11 6 -0.8020 -0.0482
2 11 7 -0.9829 -0.0685
2 11 8 -1.6200 0.0155
2 11 9 0.0862 0.0366
2 11 10 -1.4854 -0.0124
2 11 11 -1.0501 0.0214
2 11 12 -0.7693 0.0187
2 11 13 -1.9605 -0.0304
2 11 14 -1.7837 -0.0398
2 11 15 -1.3831 0.0078
2 11 16 -1.6070 0.0649
2 11 17 0.1474 0.0254
2 12 0 0.8028 0.3050
2 12 1 -3.3379 0.1733
2 12 2 -1.5536 -0.0810
2 12 3 -0.9243 -0.0960
2 12 4 -2.7287 -0.0104
2 12 5 1.0851 0.0598
2 12 6 -0.2437 0.0405
2 12 7 -0.1310 -0.0309
2 12 8 1.4619 -0.0307
2 12 9 -3.2398 -0.0065
2 12 10 -2.6344 0.0044
2 12 11 -0.6081 -0.0140
2 12 12 0.2455 0.0253
2 12 13 -0.4710 0.0504
2 12 14 0.1022 -0.0454
2 12 15 -0.0083 -0.0614
2 12 16 0.4840 0.0732
2 13 0 -1.2139 -0.2729
2 13 1 -0.8648 0.1011
2 13 2 1.1496 0.0704
2 13 3 -1.5714 -0.0869
2 13 4 1.9363 -0.1114
2 13 5 -0.6388 -0.0064
2 13 6 -2.0686 0.0479
2 13 7 -1.5487 0.0136
2 13 8 0.5661 0.0159
2 13 9 3.5601 0.0220
2 13 10 0.3280 0.0056
2 13 11 -0.2579 -0.0278
2 13 12 0.5521 -0.0708
2 13 13 2.8477 0.0646
2 13 14 1.4913 0.0687
2 13 15 1.0917 -0.0941
2 14 0 0.1482 -0.4868
2 14 1 -2.5158 -0.2647
2 14 2 -4.3720 0.1039
2 14 3 0.4456 0.1280
2 14 4 -3.6092 -0.0203
2 14 5 -1.2766 -0.0833
2 14 6 -1.5969 0.0018
2 14 7 -0.5931 0.0144
2 14 8 1.8508 -0.0008
2 14 9 1.6379 0.0221
2 14 10 4.3820 0.0400
2 14 11 2.7690 0.0168
2 14 12 1.5217 -0.0616
2 14 13 0.1106 -0.0618
2 14 14 1.2542 0.0388
2 15 0 -0.1400 0.0549
2 15 1 -1.8976 -0.1904
2 15 2 -1.7216 -0.1286
2 15 3 -2.1261 0.0841
2 15 4 2.1196 0.0842
2 15 5 0.9013 -0.0194
2 15 6 2.0119 -0.0204
2 15 7 -0.5608 0.0175
2 15 8 -1.7364 -0.0263
2 15 9 0.8235 -0.0416
2 15 10 0.7516 0.0407
2 15 11 2.1595 0.0726
2 15 12 -0.6227 -0.0189
2 15 13 -0.6887 0.0092
2 16 0 -2.4084 0.3057
2 16 1 1.7458 0.1556
2 16 2 -1.4519 -0.0918
2 16 3 0.5745 -0.0452
2 16 4 1.9187 0.0486
2 16 5 1.5202 0.0073
2 16 6 0.2609 -0.0344
2 16 7 3.2518 -0.0010
2 16 8 1.4859 0.0976
2 16 9 -2.7295 -0.0053
2 16 10 -0.4013 -0.0882
2 16 11 1.0380 0.0995
2 17 0 -0.7016 0.1063
2 17 1 1.9767 0.1713
2 17 2 1.5224 0.0731
2 17 3 -1.6590 -0.0564
2 17 4 0.4876 -0.0186
2 17 5 0.1846 -0.0102
2 17 6 0.4259 0.0263
2 17 7 1.0320 -0.0111
2 17 8 0.9965 -0.0418
2 17 9 0.4716 0.1196
2 17 10 -1.1699 0.0487
2 18 0 1.0628 -0.0170
2 18 1 0.6152 0.0181
2 18 2 0.2151 0.0082
2 18 3 -0.2651 -0.0521
2 18 4 0.8806 -0.0103
2 18 5 1.1569 0.0603
2 18 6 -1.5055 0.0059
2 18 7 0.3132 0.0090
2 18 8 2.7380 0.0332
2 19 0 1.1643 -0.1563
2 19 1 2.9348 -0.0850
2 19 2 2.2757 -0.0443
2 19 3 -2.1025 0.0475
2 19 4 0.2719 -0.0554
2 19 5 2.2322 -0.0577
2 19 6 1.2978 0.1176
2 20 0 4.7824 -0.1810
2 20 1 3.0545 -0.1063
2 20 2 2.6756 -0.0019
2 20 3 1.5868 -0.0708
2 20 4 -2.1278 0.0419
2 21 0 1.0380 0.0939
2 21 1 3.7805 -0.0982
3 -22 0 0.5962 0.0637
3 -22 1 -0.2532 -0.0609
3 -22 2 -2.8717 0.0478
3 -22 3 0.1569 -0.0030
3 -22 4 3.1869 0.1021
3 -22 5 1.7419 -0.0266
3 -22 6 1.2990 0.0542
3 -22 7 -2.0049 0.0276
3 -22 8 -0.3009 -0.0130
3 -22 9 0.0894 0.0218
3 -22 10 1.2986 -0.0207
3 -22 11 -1.3266 0.0659
3 -21 0 0.5513 0.1350
3 -21 1 1.9983 0.1312
3 -21 2 1.7394 -0.0647
3 -21 3 -1.8733 0.0097
3 -21 4 1.3517 -0.0099
3 -21 5 5.0054 0.0520
3 -21 6 0.5892 -0.0304
3 -21 7 2.3650 0.0208
3 -21 8 -2.1376 0.0194
3 -21 9 -0.7887 -0.0188
3 -21 10 2.4206 0.0223
3 -21 11 0.5710 -0.0219
3 -21 12 -2.8525 0.0108
3 -21 13 -1.6601 -0.0030
3 -21 14 -0.5374 -0.0061
3 -20 0 -1.4351 -0.0351
3 -20 1 1.4838 0.0471
3 -20 2 2.1696 0.0855
3 -20 3 -0.0300 -0.0613
3 -20 4 -0.1314 -0.0100
3 -20 5 -0.9892 -0.0175
3 -20 6 3.0141 0.0052
3 -20 7 2.5921 -0.0195
3 -20 8 0.9749 0.0066
3 -20 9 -4.7455 0.0118
3 -20 10 -0.8493 -0.0246
3 -20 11 3.9437 -0.0101
3 -20 12 2.4254 -0.0095
3 -20 13 -0.9248 -0.0093
3 -20 14 -0.3396 -0.0153
3 -20 15 -0.8302 0.0253
3 -20 16 -2.1885 0.0026
3 -19 0 -2.9652 -0.2240
3 -19 1 -2.5186 -0.0967
3 -19 2 1.5518 0.0115
3 -19 3 1.6177 0.0550
3 -19 4 0.3433 -0.0237
3 -19 5 0.8325 -0.0156
3 -19 6 -4.4901 0.0019
3 -19 7 0.8842 0.0099
3 -19 8 1.6719 -0.0111
3 -19 9 -0.9239 0.0273
3 -19 10 -1.2791 0.0234
3 -19 11 -0.0320 0.0001
3 -19 12 1.1689 -0.0008
3 -19 13 2.6213 -0.0044
3 -19 14 -2.9982 0.0082
3 -19 15 -3.6408 0.0151
3 -19 16 -1.7764 0.0006
3 -19 17 -2.6760 -0.0088
3 -19 18 -0.3686 -0.0200
3 -18 0 -0.0277 -0.1431
3 -18 1 0.5221 -0.1238
3 -18 2 0.5519 -0.0688
3 -18 3 -0.3740 0.0261
3 -18 4 0.2237 0.0471
3 -18 5 -1.7129 -0.0131
3 -18 6 -2.0673 -0.0139
3 -18 7 -3.4923 0.0241
3 -18 8 1.9933 0.0175
3 -18 9 3.5259 -0.0024
3 -18 10 1.1617 0.0246
3 -18 11 0.6729 -0.0098
3 -18 12 2.2405 -0.0012
3 -18 13 -0.0840 0.0198
3 -18 14 1.1773 -0.0087
3 -18 15 0.0867 -0.0140
3 -18 16 -1.3363 0.0226
3 -18 17 -1.2954 0.0133
3 -18 18 -2.9452 0.0244
3 -18 19 -0.5333 0.0237
3 -17 0 -1.2493 0.0063
3 -17 1 -0.9233 -0.0109
3 -17 2 0.6018 0.0025
3 -17 3 0.1191 -0.0181
3 -17 4 0.3196 0.0374
3 -17 5 3.4493 0.0316
3 -17 6 1.1483 -0.0206
3 -17 7 0.5604 -0.0181
3 -17 8 -4.1074 0.0204
3 -17 9 -3.9744 0.0025
3 -17 10 0.3084 0.0061
3 -17 11 -2.1430 0.0181
3 -17 12 -1.3759 -0.0326
3 -17 13 4.3601 -0.0149
3 -17 14 0.5062 0.0269
3 -17 15 1.3718 0.0103
3 -17 16 1.0574 -0.0058
3 -17 17 -3.2243 0.0187
3 -17 18 0.5456 -0.0074
3 -17 19 -1.6135 -0.0070
3 -17 20 -1.9513 -0.0169
3 -16 0 -0.9120 0.2473
3 -16 1 -1.1035 0.0528
3 -16 2 -0.7046 0.0220
3 -16 3 0.6048 0.0564
3 -16 4 2.0698 0.0099
3 -16 5 1.3944 0.0208
3 -16 6 4.4811 -0.0043
3 -16 7 2.5937 -0.0409
3 -16 8 -0.5197 -0.0216
3 -16 9 -2.8191 0.0118
3 -16 10 -2.8154 -0.0079
3 -16 11 0.0862 0.0210
3 -16 12 -0.7120 0.0119
3 -16 13 -0.2757 -0.0254
3 -16 14 -0.1730 -0.0098
3 -16 15 -2.7943 0.0061
3 -16 16 1.1102 -0.0137
3 -16 17 1.6140 -0.0083
3 -16 18 -2.8723 0.0197
3 -16 19 1.3123 -0.0048
3 -16 20 -1.0302 -0.0044
3 -16 21 0.9049 -0.0221
3 -15 0 -1.3664 0.3214
3 -15 1 -1.3871 0.1527
3 -15 2 -1.7602 -0.0667
3 -15 3 -2.1721 -0.0552
3 -15 4 -0.8446 0.0044
3 -15 5 1.3556 -0.0089
3 -15 6 -0.9005 0.0177
3 -15 7 3.7732 -0.0001
3 -15 8 5.0716 -0.0147
3 -15 9 0.9083 -0.0138
3 -15 10 3.3186 -0.0016
3 -15 11 1.2653 -0.0140
3 -15 12 1.4429 0.0313
3 -15 13 1.4823 0.0238
3 -15 14 0.2433 -0.0097
3 -15 15 -1.3546 -0.0024
3 -15 16 -4.2595 0.0147
3 -15 17 -1.7962 -0.0082
3 -15 18 4.0654 -0.0001
3 -15 19 1.4570 0.0170
3 -15 20 2.8496 -0.0089
3 -15 21 0.3251 -0.0007
3 -15 22 0.1272 0.0046
3 -14 0 -2.7796 -0.1990
3 -14 1 -1.0974 0.1413
3 -14 2 0.0879 0.0670
3 -14 3 0.5064 -0.1244
3 -14 4 4.0069 -0.0780
3 -14 5 2.4128 0.0043
3 -14 6 2.1266 -0.0051
3 -14 7 -1.1075 0.0164
3 -14 8 -1.6246 0.0229
3 -14 9 1.6879 -0.0021
3 -14 10 -2.5908 -0.0063
3 -14 11 1.1289 0.0003
3 -14 12 0.1969 -0.0267
3 -14 13 1.1251 0.0149
3 -14 14 1.4842 0.0140
3 -14 15 -0.8692 -0.0097
3 -14 16 -0.7754 0.0020
3 -14 17 -1.0776 0.0202
3 -14 18 -0.1623 -0.0183
3 -14 19 3.4297 -0.0217
3 -14 20 -1.7544 -0.0017
3 -14 21 0.5606 -0.0013
3 -14 22 1.0934 0.0330
3 -14 23 -2.8279 0.0447
3 -13 0 -0.8282 -0.5312
3 -13 1 -2.6826 -0.2481
3 -13 2 0.8585 0.1245
3 -13 3 2.7681 0.1111
3 -13 4 2.3451 -0.0778
3 -13 5 5.3334 -0.0366
3 -13 6 2.4694 0.0212
3 -13 7 -0.7211 -0.0147
3 -13 8 -1.9492 0.0051
3 -13 9 -3.0656 0.0304
3 -13 10 2.4913 -0.0019
3 -13 11 -2.2667 0.0045
3 -13 12 -0.8263 0.0022
3 -13 13 -1.6091 -0.0300
3 -13 14 -1.4493 -0.0025
3 -13 15 0.9031 0.0026
3 -13 16 -1.0362 -0.0104
3 -13 17 -1.8204 0.0111
3 -13 18 0.1213 0.0306
3 -13 19 -0.7943 -0.0170
3 -13 20 0.0172 -0.0220
3 -13 21 -0.4971 -0.0018
3 -13 22 -0.7375 0.0104
3 -13 23 1.1395 0.0392
3 -12 0 -0.5079 -0.0228
3 -12 1 3.4763 -0.3125
3 -12 2 3.7565 -0.1430
3 -12 3 3.5995 0.1446
3 -12 4 3.4629 0.1008
3 -12 5 -1.7539 -0.0468
3 -12 6 1.3634 0.0117
3 -12 7 4.7450 0.0306
3 -12 8 0.3480 -0.0171
3 -12 9 1.5434 -0.0097
3 -12 10 -2.1607 0.0232
3 -12 11 0.7477 -0.0114
3 -12 12 0.1455 0.0134
3 -12 13 -0.5599 0.0184
3 -12 14 0.0358 -0.0195
3 -12 15 -0.2110 0.0025
3 -12 16 0.4827 0.0022
3 -12 17 1.1942 -0.0181
3 -12 18 3.7531 0.0053
3 -12 19 3.8283 0.0134
3 -12 20 -1.0937 -0.0171
3 -12 21 -2.7380 -0.0065
3 -12 22 0.8199 0.0116
3 -12 23 -3.5352 0.0133
3 -12 24 -1.9009 0.0371
3 -11 0 1.6363 0.3433
3 -11 1 4.4058 0.1746
3 -11 2 10.7910 -0.1295
3 -11 3 7.5877 -0.0966
3 -11 4 5.1960 0.1045
3 -11 5 -0.3443 0.0537
3 -11 6 -6.7657 -0.0556
3 -11 7 -1.2407 0.0207
3 -11 8 3.3455 0.0102
3 -11 9 0.0972 -0.0397
3 -11 10 4.3282 -0.0068
3 -11 11 -0.5730 0.0119
3 -11 12 -2.1441 -0.0238
3 -11 13 -0.0037 0.0204
3 -11 14 0.0610 0.0169
3 -11 15 4.9821 -0.0065
3 -11 16 2.8936 0.0082
3 -11 17 -0.3762 -0.0116
3 -11 18 0.7737 -0.0165
3 -11 19 4.0224 0.0086
3 -11 20 1.7281 0.0004
3 -11 21 1.7230 -0.0141
3 -11 22 -0.4952 0.0227
3 -11 23 -0.6248 0.0413
3 -11 24 -1.6911 0.0043
3 -10 0 -4.2855 0.2227
3 -10 1 -0.6311 0.2326
3 -10 2 3.1684 0.1579
3 -10 3 4.8894 -0.0359
3 -10 4 0.5888 -0.0496
3 -10 5 -0.3152 0.0607
3 -10 6 -2.6685 -0.0213
3 -10 7 -3.6063 -0.0785
3 -10 8 0.7554 0.0251
3 -10 9 3.2614 0.0013
3 -10 10 -2.0614 -0.0277
3 -10 11 -1.2178 0.0247
3 -10 12 0.4177 0.0028
3 -10 13 -0.8665 -0.0318
3 -10 14 0.7749 0.0088
3 -10 15 -0.4060 0.0054
3 -10 16 4.0157 -0.0000
3 -10 17 0.6624 0.0082
3 -10 18 -1.1463 -0.0156
3 -10 19 -0.5715 -0.0128
3 -10 20 0.4752 0.0163
3 -10 21 -2.6311 -0.0075
3 -10 22 2.0840 -0.0205
3 -10 23 -0.5613 0.0354
3 -10 24 -2.9387 0.0521
3 -9 0 7.5197 0.1834
3 -9 1 4.2714 0.0050
3 -9 2 1.3271 0.0161
3 -9 3 -7.5209 0.0327
3 -9 4 -6.1483 -0.0501
3 -9 5 -3.4687 -0.0210
3 -9 6 0.5366 0.0457
3 -9 7 5.8945 -0.0396
3 -9 8 1.8080 -0.0398
3 -9 9 -4.0442 0.0427
3 -9 10 -0.4318 0.0007
3 -9 11 -1.3912 -0.0242
3 -9 12 -3.9960 0.0389
3 -9 13 -0.3606 0.0033
3 -9 14 -1.1423 -0.0346
3 -9 15 1.6413 -0.0038
3 -9 16 -3.0050 -0.0052
3 -9 17 0.3301 -0.0038
3 -9 18 -0.7346 0.0154
3 -9 19 0.4045 0.0056
3 -9 20 -1.4831 -0.0002
3 -9 21 -3.4758 0.0117
3 -9 22 -3.7670 -0.0090
3 -9 23 1.3790 -0.0113
3 -9 24 0.1000 0.0462
3 -8 0 7.4399 -0.2359
3 -8 1 10.7299 0.0378
3 -8 2 10.7266 -0.1041
3 -8 3 3.9922 -0.1217
3 -8 4 -4.0203 -0.0432
3 -8 5 -2.8201 -0.0275
3 -8 6 1.3034 0.0323
3 -8 7 3.1283 0.0784
3 -8 8 6.6503 -0.0072
3 -8 9 4.5151 -0.0044
3 -8 10 -5.9195 0.0191
3 -8 11 -4.6871 -0.0241
3 -8 12 0.7039 -0.0211
3 -8 13 -3.1495 0.0432
3 -8 14 1.2120 0.0139
3 -8 15 -2.1152 -0.0096
3 -8 16 -0.1781 0.0078
3 -8 17 -2.6459 0.0000
3 -8 18 0.7725 -0.0100
3 -8 19 2.0886 0.0034
3 -8 20 4.4579 0.0082
3 -8 21 2.8195 0.0085
3 -8 22 1.7671 0.0096
3 -8 23 1.4931 -0.0185
3 -8 24 4.2432 -0.0211
3 -8 25 2.6243 0.0425
3 -7 0 2.8690 -0.7695
3 -7 1 1.7498 -0.1999
3 -7 2 1.2516 0.1752
3 -7 3 7.6351 0.0585
3 -7 4 6.5628 -0.0497
3 -7 5 3.5306 -0.0321
3 -7 6 5.2829 -0.0177
3 -7 7 6.3877 0.0177
3 -7 8 -1.7296 0.0419
3 -7 9 -8.7865 -0.0022
3 -7 10 -7.0321 0.0167
3 -7 11 -5.6947 0.0030
3 -7 12 -2.7512 -0.0399
3 -7 13 2.8440 -0.0251
3 -7 14 -1.5872 0.0316
3 -7 15 4.1187 0.0062
3 -7 16 -0.1994 -0.0025
3 -7 17 -1.1295 0.0183
3 -7 18 0.1312 -0.0014
3 -7 19 2.5493 -0.0140
3 -7 20 3.5234 -0.0070
3 -7 21 4.0642 -0.0105
3 -7 22 -0.2227 0.0146
3 -7 23 2.9863 0.0037
3 -7 24 2.7551 -0.0466
3 -7 25 2.8748 -0.0489
3 -6 0 3.4521 -0.0097
3 -6 1 -9.4106 -0.4632
3 -6 2 -13.1858 -0.0475
3 -6 3 -17.9627 0.2345
3 -6 4 4.7819 0.1037
3 -6 5 10.1670 0.0027
3 -6 6 2.9912 -0.0094
3 -6 7 -3.4973 -0.0335
3 -6 8 -5.5176 -0.0344
3 -6 9 -3.9693 -0.0048
3 -6 10 -6.7540 -0.0030
3 -6 11 -4.9849 0.0316
3 -6 12 3.2624 0.0328
3 -6 13 2.1865 -0.0290
3 -6 14 0.9530 -0.0288
3 -6 15 -3.4375 0.0164
3 -6 16 1.1006 -0.0157
3 -6 17 1.4269 -0.0008
3 -6 18 1.8301 0.0264
3 -6 19 1.5138 -0.0001
3 -6 20 0.9350 -0.0229
3 -6 21 1.0421 -0.0221
3 -6 22 4.0831 -0.0102
3 -6 23 -1.7684 0.0130
3 -6 24 0.8652 0.0014
3 -6 25 0.6517 -0.0194
3 -5 0 20.5132 0.8757
3 -5 1 9.6918 0.2486
3 -5 2 -8.5725 -0.3214
3 -5 3 8.0545 -0.1025
3 -5 4 2.3034 0.1297
3 -5 5 5.0428 0.0459
3 -5 6 4.8209 0.0043
3 -5 7 4.6966 0.0377
3 -5 8 -5.3364 -0.0147
3 -5 9 -8.8009 -0.0466
3 -5 10 3.2499 -0.0139
3 -5 11 4.3813 -0.0039
3 -5 12 -1.0148 0.0286
3 -5 13 1.7231 0.0444
3 -5 14 -2.1123 -0.0083
3 -5 15 -1.8633 -0.0087
3 -5 16 -0.4193 0.0086
3 -5 17 1.4998 -0.0363
3 -5 18 2.2770 -0.0116
3 -5 19 2.4658 0.0295
3 -5 20 1.7278 0.0206
3 -5 21 4.7895 -0.0104
3 -5 22 1.3619 -0.0104
3 -5 23 5.2280 0.0009
3 -5 24 2.4626 0.0071
3 -5 25 0.5757 0.0184
3 -4 0 -14.7025 0.2592
3 -4 1 4.5324 0.6023
3 -4 2 17.5745 0.2001
3 -4 3 -10.0892 -0.2151
3 -4 4 15.9723 -0.1034
3 -4 5 8.2599 0.0361
3 -4 6 -7.5861 -0.0401
3 -4 7 -8.8445 -0.0268
3 -4 8 -2.0997 0.0620
3 -4 9 -4.6897 0.0087
3 -4 10 -6.1524 -0.0270
3 -4 11 -0.9988 -0.0152
3 -4 12 2.6160 -0.0238
3 -4 13 0.6692 0.0010
3 -4 14 -0.1366 0.0204
3 -4 15 -1.5297 -0.0009
3 -4 16 -2.7402 0.0139
3 -4 17 -2.0019 0.0131
3 -4 18 0.3665 -0.0426
3 -4 19 -0.4355 -0.0046
3 -4 20 -0.3699 0.0317
3 -4 21 -0.8221 0.0188
3 -4 22 6.6727 0.0120
3 -4 23 2.6438 -0.0133
3 -4 24 1.9992 -0.0335
3 -4 25 -0.0249 -0.0035
3 -3 0 -18.1049 -0.4652
3 -3 1 -18.4480 -0.1535
3 -3 2 -25.4204 0.2548
3 -3 3 10.4136 0.0758
3 -3 4 -0.0708 -0.1370
3 -3 5 1.2210 0.0005
3 -3 6 -18.8921 0.0210
3 -3 7 -12.6245 -0.0933
3 -3 8 -5.9607 -0.0277
3 -3 9 -0.4095 0.0614
3 -3 10 7.3198 0.0099
3 -3 11 4.4589 0.0016
3 -3 12 1.1975 0.0067
3 -3 13 -1.3877 -0.0232
3 -3 14 -1.6833 -0.0167
3 -3 15 2.2107 -0.0041
3 -3 16 3.4709 0.0040
3 -3 17 1.5966 0.0312
3 -3 18 0.0812 0.0213
3 -3 19 1.6850 -0.0440
3 -3 20 -1.6422 -0.0129
3 -3 21 0.3994 0.0141
3 -3 22 -3.0095 0.0064
3 -3 23 0.0590 0.0227
3 -3 24 1.1402 -0.0106
3 -2 0 -27.8200 -0.2205
3 -2 1 17.2241 -0.3848
3 -2 2 54.1806 -0.2297
3 -2 3 -20.9520 0.0802
3 -2 4 5.7134 -0.0027
3 -2 5 13.0105 -0.0879
3 -2 6 -2.2349 0.0860
3 -2 7 -21.3632 0.0650
3 -2 8 -5.3414 -0.0652
3 -2 9 7.8465 -0.0170
3 -2 10 7.5956 0.0256
3 -2 11 5.7156 -0.0221
3 -2 12 -1.4495 0.0038
3 -2 13 -0.7472 0.0341
3 -2 14 -1.7458 -0.0045
3 -2 15 0.2159 -0.0135
3 -2 16 7.8429 -0.0168
3 -2 17 3.8497 -0.0104
3 -2 18 1.6097 0.0261
3 -2 19 0.8240 0.0254
3 -2 20 0.0950 -0.0378
3 -2 21 -3.9474 -0.0210
3 -2 22 1.0746 -0.0055
3 -2 23 1.0944 0.0067
3 -2 24 -0.7096 0.0284
3 -1 0 28.1321 -0.3063
3 -1 1 3.9191 0.0247
3 -1 2 10.8807 -0.0251
3 -1 3 49.9280 -0.0337
3 -1 4 -31.8729 0.0286
3 -1 5 -17.3996 -0.0311
3 -1 6 -0.6348 -0.0261
3 -1 7 2.4458 0.1061
3 -1 8 -0.7068 0.0643
3 -1 9 -2.5120 -0.0544
3 -1 10 3.8429 -0.0186
3 -1 11 3.7960 -0.0050
3 -1 12 2.8699 -0.0500
3 -1 13 0.4879 0.0083
3 -1 14 -0.5179 0.0487
3 -1 15 0.6690 0.0096
3 -1 16 0.0876 0.0040
3 -1 17 3.3933 -0.0282
3 -1 18 -1.8960 -0.0261
3 -1 19 -2.6115 0.0156
3 -1 20 0.3267 0.0152
3 -1 21 0.4331 -0.0228
3 -1 22 -2.9047 -0.0008
3 -1 23 -0.1497 -0.0162
3 -1 24 1.8957 -0.0076
3 0 0 -13.2649 0.0411
3 0 1 -12.9229 -0.1751
3 0 2 25.9259 0.1371
3 0 3 -17.7358 0.1274
3 0 4 8.9312 0.0821
3 0 5 -20.7900 0.0429
3 0 6 -10.4647 -0.0589
3 0 7 3.6932 -0.0437
3 0 8 7.9815 0.0433
3 0 9 8.6483 0.0120
3 0 10 1.3755 -0.0272
3 0 11 0.3858 0.0306
3 0 12 -0.3213 0.0148
3 0 13 2.5261 -0.0515
3 0 14 3.4669 -0.0119
3 0 15 -1.8676 0.0260
3 0 16 1.0509 0.0059
3 0 17 0.9978 0.0155
3 0 18 0.8274 -0.0077
3 0 19 0.2981 -0.0118
3 0 20 -0.0028 0.0077
3 0 21 -1.1787 0.0209
3 0 22 -1.3038 -0.0203
3 0 23 -0.6554 -0.0003
3 0 24 -0.1245 0.0014
3 1 0 65.1739 0.8459
3 1 1 39.1852 0.1278
3 1 2 -17.0049 -0.2282
3 1 3 35.8427 0.0320
3 1 4 -20.3726 0.0816
3 1 5 -4.7870 0.0449
3 1 6 -2.7532 0.0232
3 1 7 -3.3113 -0.0546
3 1 8 5.6386 -0.0548
3 1 9 2.4007 -0.0021
3 1 10 1.1839 -0.0074
3 1 11 0.7164 0.0081
3 1 12 2.9618 0.0622
3 1 13 2.6270 0.0258
3 1 14 1.3300 -0.0478
3 1 15 2.0781 -0.0195
3 1 16 -2.6038 0.0100
3 1 17 1.4801 -0.0120
3 1 18 1.8059 0.0220
3 1 19 -2.3821 0.0130
3 1 20 1.4286 -0.0193
3 1 21 2.8532 -0.0248
3 1 22 -0.3556 0.0249
3 1 23 0.1424 -0.0012
3 2 0 8.1090 0.3500
3 2 1 17.0442 0.6247
3 2 2 24.6952 0.0428
3 2 3 -53.3302 -0.2869
3 2 4 -6.8544 -0.0829
3 2 5 -17.4866 0.0229
3 2 6 -3.4303 -0.0006
3 2 7 8.3442 0.0246
3 2 8 -0.9007 0.0130
3 2 9 4.1966 -0.0014
3 2 10 4.6192 -0.0025
3 2 11 5.2752 -0.0451
3 2 12 8.2317 -0.0160
3 2 13 7.8624 0.0442
3 2 14 6.2898 0.0182
3 2 15 1.5303 -0.0059
3 2 16 -1.7522 0.0105
3 2 17 -4.2425 -0.0055
3 2 18 -0.2308 -0.0401
3 2 19 1.7215 0.0111
3 2 20 -1.3379 0.0265
3 2 21 0.4630 -0.0005
3 2 22 0.4314 -0.0072
3 2 23 -0.3981 0.0391
3 3 0 -19.9889 -0.7959
3 3 1 -29.8784 -0.0625
3 3 2 -58.8594 0.3658
3 3 3 4.9030 -0.0121
3 3 4 -23.8478 -0.1827
3 3 5 3.5860 -0.0399
3 3 6 13.4486 -0.0070
3 3 7 14.9955 -0.0107
3 3 8 16.1554 0.0304
3 3 9 5.1429 0.0511
3 3 10 5.1408 0.0301
3 3 11 4.2930 -0.0183
3 3 12 5.9009 -0.0545
3 3 13 6.6363 -0.0321
3 3 14 0.2929 0.0128
3 3 15 -0.6190 0.0063
3 3 16 -3.1690 0.0091
3 3 17 -3.9914 0.0345
3 3 18 -1.4669 -0.0009
3 3 19 -1.3622 -0.0535
3 3 20 0.6423 -0.0026
3 3 21 -0.2306 0.0063
3 3 22 -1.2480 -0.0149
3 4 0 -18.1983 -0.4668
3 4 1 -30.1397 -0.6400
3 4 2 -6.5203 -0.1066
3 4 3 -35.6408 0.2699
3 4 4 19.4747 0.0293
3 4 5 18.3244 -0.0362
3 4 6 16.1749 0.0498
3 4 7 16.2572 -0.0002
3 4 8 8.9908 -0.0532
3 4 9 7.2675 -0.0152
3 4 10 5.1663 0.0451
3 4 11 2.2869 0.0279
3 4 12 -1.2866 0.0062
3 4 13 -0.9226 -0.0057
3 4 14 -2.8171 -0.0252
3 4 15 -4.7590 0.0028
3 4 16 -1.6376 -0.0129
3 4 17 -3.2412 0.0046
3 4 18 -3.9793 0.0512
3 4 19 0.1212 0.0043
3 4 20 -0.6752 -0.0356
3 4 21 0.3001 -0.0247
3 4 22 0.6628 -0.0190
3 5 0 6.3895 0.2855
3 5 1 -6.0073 -0.0391
3 5 2 -27.3537 -0.2429
3 5 3 8.9932 -0.0376
3 5 4 -8.7497 0.1373
3 5 5 10.9577 0.0006
3 5 6 9.9008 -0.0041
3 5 7 3.3216 0.0887
3 5 8 4.1527 0.0019
3 5 9 0.1388 -0.0808
3 5 10 1.9268 -0.0365
3 5 11 2.4135 0.0013
3 5 12 -0.0125 0.0077
3 5 13 -2.2253 0.0230
3 5 14 -2.3490 0.0333
3 5 15 -4.5853 0.0066
3 5 16 -4.6774 -0.0214
3 5 17 -0.7348 -0.0314
3 5 18 -0.0858 -0.0056
3 5 19 -2.1420 0.0421
3 5 20 -0.5678 0.0107
3 5 21 -1.3133 -0.0451
3 6 0 -16.7001 0.2657
3 6 1 -12.5274 0.2707
3 6 2 8.5792 0.1275
3 6 3 -8.7847 -0.0485
3 6 4 8.1572 0.0031
3 6 5 -0.1858 0.0216
3 6 6 0.4182 -0.0799
3 6 7 1.1495 0.0015
3 6 8 0.1667 0.0914
3 6 9 2.5460 -0.0001
3 6 10 2.6569 -0.0543
3 6 11 1.8581 -0.0119
3 6 12 -1.5288 -0.0001
3 6 13 -0.8808 -0.0287
3 6 14 -2.4830 -0.0052
3 6 15 -2.6966 0.0463
3 6 16 -0.2233 0.0325
3 6 17 0.0536 0.0013
3 6 18 -0.7801 -0.0386
3 6 19 0.7616 -0.0514
3 6 20 -1.2665 0.0259
3 6 21 -2.3399 -0.0214
3 7 0 -1.2597 0.3527
3 7 1 -0.1464 0.0668
3 7 2 -2.8415 0.0358
3 7 3 20.4054 0.0789
3 7 4 3.3205 0.0168
3 7 5 3.7724 0.0460
3 7 6 -0.7027 -0.0243
3 7 7 -4.6119 -0.1226
3 7 8 3.7546 -0.0074
3 7 9 5.6059 0.0838
3 7 10 2.6931 0.0222
3 7 11 0.6124 -0.0084
3 7 12 -3.1041 0.0242
3 7 13 -4.6426 -0.0145
3 7 14 2.0235 -0.0673
3 7 15 1.9843 -0.0221
3 7 16 0.0766 0.0254
3 7 17 1.7993 0.0578
3 7 18 1.6325 0.0318
3 7 19 -1.1130 -0.0340
3 7 20 1.0148 -0.0294
3 8 0 3.6951 0.1773
3 8 1 2.8952 0.2246
3 8 2 11.9801 -0.0721
3 8 3 1.9022 -0.1418
3 8 4 8.8142 -0.0413
3 8 5 1.0366 0.0058
3 8 6 -2.4057 0.0516
3 8 7 -1.8230 -0.0060
3 8 8 -4.0753 -0.0749
3 8 9 -0.3098 0.0157
3 8 10 3.0711 0.0424
3 8 11 0.7416 -0.0183
3 8 12 -2.5087 0.0124
3 8 13 -3.3992 0.0409
3 8 14 -2.9896 -0.0028
3 8 15 0.9395 -0.0625
3 8 16 1.0134 -0.0531
3 8 17 0.5547 0.0127
3 8 18 -1.0016 0.0403
3 8 19 0.8022 0.0105
3 9 0 5.6568 -0.5838
3 9 1 8.7450 0.0213
3 9 2 -2.2228 0.1730
3 9 3 5.4216 -0.0745
3 9 4 -3.7042 -0.1418
3 9 5 -2.2269 -0.0625
3 9 6 0.5189 0.0306
3 9 7 -3.4695 0.0857
3 9 8 -1.1746 0.0253
3 9 9 -0.6960 -0.0217
3 9 10 -3.0600 0.0167
3 9 11 1.0440 -0.0141
3 9 12 0.5774 -0.0498
3 9 13 -4.0021 0.0062
3 9 14 -1.2889 0.0547
3 9 15 0.1272 0.0396
3 9 16 -0.0253 -0.0166
3 9 17 -0.6046 -0.0235
3 9 18 -0.2672 0.0056
3 10 0 1.9041 -0.4393
3 10 1 4.8325 -0.4719
3 10 2 8.7211 0.0185
3 10 3 -0.5078 0.2045
3 10 4 0.7664 0.0277
3 10 5 0.1216 -0.0219
3 10 6 -1.2063 -0.0119
3 10 7 0.7811 0.0089
3 10 8 0.5130 0.0256
3 10 9 -1.9451 -0.0039
3 10 10 -2.3135 0.0022
3 10 11 -2.1265 0.0243
3 10 12 0.7493 -0.0303
3 10 13 0.1287 -0.0406
3 10 14 -2.5746 0.0170
3 10 15 0.0330 0.0165
3 10 16 1.0021 0.0031
3 10 17 0.2007 -0.0039
3 10 18 -1.4044 -0.0491
3 11 0 3.7834 0.3914
3 11 1 5.4131 -0.1107
3 11 2 1.3985 -0.2357
3 11 3 4.6272 0.0482
3 11 4 0.4937 0.1632
3 11 5 -2.5703 0.0327
3 11 6 -0.3224 0.0114
3 11 7 -1.9145 0.0025
3 11 8 -1.9851 -0.0226
3 11 9 1.0759 -0.0419
3 11 10 -1.6735 -0.0353
3 11 11 -1.3459 0.0444
3 11 12 0.6281 0.0520
3 11 13 0.7456 -0.0202
3 11 14 -0.8670 0.0028
3 11 15 -1.3967 -0.0019
3 11 16 -0.4996 -0.0380
3 11 17 0.5831 -0.0024
3 12 0 4.1298 0.4139
3 12 1 0.1957 0.3766
3 12 2 0.2498 0.0090
3 12 3 -1.9501 -0.1371
3 12 4 -2.0378 0.0053
3 12 5 0.6965 0.0341
3 12 6 -1.5296 -0.0308
3 12 7 -1.7276 -0.0001
3 12 8 -0.5303 0.0287
3 12 9 -3.0803 0.0148
3 12 10 -3.1210 -0.0475
3 12 11 -3.4706 -0.0215
3 12 12 -1.0131 0.0162
3 12 13 0.9321 -0.0127
3 12 14 1.2858 0.0086
3 12 15 -1.0012 0.0511
3 12 16 -0.5007 0.0703
3 13 0 1.0227 0.0034
3 13 1 2.3277 0.1467
3 13 2 -0.0297 0.1483
3 13 3 0.4260 -0.0044
3 13 4 0.3545 -0.0649
3 13 5 -0.5757 -0.0106
3 13 6 1.9283 -0.0402
3 13 7 -2.0203 -0.0755
3 13 8 -2.3304 0.0216
3 13 9 0.4551 0.0781
3 13 10 -2.4122 0.0307
3 13 11 -1.5348 -0.0189
3 13 12 -1.5107 -0.0196
3 13 13 0.0952 -0.0137
3 13 14 1.2166 0.0139
3 13 15 1.7506 -0.0157
3 14 0 2.4350 -0.1488
3 14 1 -0.5525 -0.0778
3 14 2 -0.8782 -0.0114
3 14 3 0.0520 -0.0021
3 14 4 -1.9672 -0.0124
3 14 5 -2.4146 -0.0186
3 14 6 -1.9473 0.0385
3 14 7 0.1476 -0.0200
3 14 8 -1.0190 -0.0668
3 14 9 0.4351 0.0443
3 14 10 2.5110 0.0211
3 14 11 0.1349 0.0214
3 14 12 1.7868 0.0301
3 14 13 0.3924 -0.0687
3 15 0 0.8523 -0.2574
3 15 1 3.4510 -0.0626
3 15 2 -2.0018 -0.0016
3 15 3 -3.6824 -0.0609
3 15 4 -0.3250 -0.0343
3 15 5 0.7152 -0.0330
3 15 6 2.0710 0.0174
3 15 7 -0.7382 0.0724
3 15 8 -0.8608 -0.0369
3 15 9 0.2221 -0.0121
3 15 10 -0.4769 0.0520
3 15 11 1.1416 -0.0613
3 15 12 0.0040 -0.0434
3 16 0 -3.4216 -0.1605
3 16 1 -1.0405 -0.1656
3 16 2 2.7052 0.0385
3 16 3 0.3218 0.0730
3 16 4 -0.3369 -0.0053
3 16 5 0.6769 -0.0408
3 16 6 1.8786 -0.0556
3 16 7 4.1207 0.0531
3 16 8 1.0655 0.0809
3 16 9 -0.8697 -0.0267
3 16 10 0.7550 0.0125
3 17 0 -1.9388 0.2211
3 17 1 -0.5979 -0.0510
3 17 2 0.1724 -0.0884
3 17 3 0.0888 0.0404
3 17 4 0.0807 0.0905
3 17 5 -0.0651 -0.0122
3 17 6 -1.0115 -0.0263
3 17 7 0.1444 0.0086
3 17 8 2.1234 -0.0014
3 17 9 0.9939 0.0585
3 18 0 0.3071 0.2766
3 18 1 -0.3170 0.2100
3 18 2 2.2333 -0.0186
3 18 3 0.3886 -0.1514
3 18 4 -1.4056 0.0210
3 18 5 0.4989 0.1012
3 18 6 -0.3467 -0.0654
3 18 7 -2.4319 0.0053
3 19 0 1.7849 -0.0480
3 19 1 1.0333 0.0862
3 19 2 1.5040 0.0644
3 19 3 2.3796 0.0159
3 19 4 0.8120 -0.1306
3 19 5 -0.3142 -0.0068
3 20 0 1.6150 -0.2233
3 20 1 1.7961 -0.0389
3 20 2 1.7868 0.0243
4 -22 1 -2.7346 -0.0364
4 -22 2 -0.2000 0.0570
4 -22 3 0.3283 -0.0171
4 -22 4 -1.2321 0.0516
4 -22 5 0.9661 -0.0416
4 -22 6 0.3022 0.0241
4 -22 7 -1.5360 -0.0584
4 -22 8 0.4760 0.0005
4 -22 9 -0.4832 -0.0290
4 -21 0 0.1434 0.0447
4 -21 1 1.0159 0.0288
4 -21 2 -0.4150 -0.0035
4 -21 3 -1.0440 0.0500
4 -21 4 1.7803 -0.0301
4 -21 5 2.9090 0.0733
4 -21 6 -0.5821 -0.0339
4 -21 7 -0.5928 0.0121
4 -21 8 -0.3478 0.0037
4 -21 9 -0.7499 0.0307
4 -21 10 -2.7664 0.0078
4 -21 11 -0.0266 0.0222
4 -21 12 0.5826 0.0097
4 -21 13 -0.9864 0.0291
4 -20 0 2.0824 0.2437
4 -20 1 0.5266 0.0366
4 -20 2 2.9042 0.0139
4 -20 3 1.7114 -0.0187
4 -20 4 -1.2278 0.0073
4 -20 5 1.3737 -0.0282
4 -20 6 2.7203 0.0367
4 -20 7 -0.9665 -0.0295
4 -20 8 0.5175 -0.0081
4 -20 9 -2.2313 -0.0118
4 -20 10 -3.9042 0.0157
4 -20 11 -1.3433 -0.0163
4 -20 12 -0.4826 0.0085
4 -20 13 0.6247 -0.0140
4 -20 14 1.6669 -0.0087
4 -20 15 1.5163 -0.0014
4 -20 16 0.6162 -0.0075
4 -19 0 -3.5046 0.0744
4 -19 1 -0.7309 0.1198
4 -19 2 2.0819 -0.0166
4 -19 3 0.9601 -0.0372
4 -19 4 -0.9043 -0.0333
4 -19 5 1.9624 -0.0286
4 -19 6 0.7517 -0.0296
4 -19 7 -1.1093 0.0164
4 -19 8 -1.2258 -0.0038
4 -19 9 0.4054 0.0106
4 -19 10 -1.1552 -0.0039
4 -19 11 -4.6827 0.0130
4 -19 12 -1.7881 -0.0297
4 -19 13 0.9817 0.0029
4 -19 14 -0.5695 0.0023
4 -19 15 -1.3335 0.0090
4 -19 16 -0.6006 0.0051
4 -19 17 -0.1724 -0.0113
4 -18 0 1.1734 -0.2913
4 -18 1 -1.8335 0.0090
4 -18 2 -0.3119 0.0607
4 -18 3 1.9362 -0.0267
4 -18 4 -1.6683 -0.0357
4 -18 5 -4.0523 -0.0163
4 -18 6 -1.4374 -0.0345
4 -18 7 -0.8753 -0.0132
4 -18 8 1.9979 0.0263
4 -18 9 2.7419 0.0111
4 -18 10 3.3369 0.0164
4 -18 11 4.6429 -0.0072
4 -18 12 -2.8924 0.0030
4 -18 13 -4.8603 -0.0128
4 -18 14 -1.1887 -0.0016
4 -18 15 -2.7798 -0.0282
4 -18 16 -1.3635 -0.0138
4 -18 17 -0.2514 -0.0012
4 -18 18 -1.1428 0.0100
4 -18 19 1.0301 0.0038
4 -17 0 -0.8427 -0.3002
4 -17 1 -1.4090 -0.2784
4 -17 2 0.5875 0.0122
4 -17 3 -0.7159 0.0525
4 -17 4 -2.4243 0.0130
4 -17 5 -2.6097 0.0168
4 -17 6 -2.8714 0.0192
4 -17 7 -0.7451 -0.0213
4 -17 8 -2.2670 -0.0095
4 -17 9 -2.1342 0.0173
4 -17 10 1.7373 0.0084
4 -17 11 1.2549 0.0139
4 -17 12 1.6158 -0.0065
4 -17 13 1.5902 -0.0079
4 -17 14 -0.6517 0.0062
4 -17 15 -0.3261 0.0133
4 -17 16 -1.0950 -0.0197
4 -17 17 -0.2985 0.0100
4 -17 18 0.2758 0.0123
4 -17 19 -0.5833 -0.0154
4 -17 20 1.0283 -0.0315
4 -16 0 0.7176 0.1376
4 -16 1 -3.0896 -0.1192
4 -16 2 -3.6121 -0.1371
4 -16 3 0.2398 0.0513
4 -16 4 2.3004 0.0623
4 -16 5 1.6570 -0.0012
4 -16 6 -0.2575 0.0196
4 -16 7 -1.6663 0.0244
4 -16 8 0.7528 -0.0205
4 -16 9 -4.8163 -0.0056
4 -16 10 -7.4645 0.0058
4 -16 11 0.1944 0.0047
4 -16 12 0.7345 0.0076
4 -16 13 1.3344 0.0018
4 -16 14 3.3860 0.0018
4 -16 15 -0.8463 0.0130
4 -16 16 -0.4750 0.0039
4 -16 17 0.4134 -0.0267
4 -16 18 -0.4875 -0.0051
4 -16 19 -0.0356 -0.0071
4 -16 20 -2.6621 -0.0281
4 -16 21 0.3107 -0.0406
4 -15 0 -0.7839 0.3294
4 -15 1 -1.8735 0.2402
4 -15 2 -2.7174 0.0044
4 -15 3 -5.5259 -0.0458
4 -15 4 -4.0741 0.0439
4 -15 5 0.5466 0.0214
4 -15 6 0.1276 -0.0473
4 -15 7 1.7481 -0.0042
4 -15 8 2.7094 0.0259
4 -15 9 5.1429 -0.0198
4 -15 10 3.9340 -0.0149
4 -15 11 -1.2946 -0.0049
4 -15 12 -0.9779 -0.0051
4 -15 13 -1.2178 0.0042
4 -15 14 1.1990 0.0079
4 -15 15 2.2232 -0.0152
4 -15 16 -1.9629 -0.0081
4 -15 17 -2.6201 0.0085
4 -15 18 1.1628 0.0099
4 -15 19 2.5080 0.0122
4 -15 20 1.9416 -0.0018
4 -15 21 -3.7645 -0.0177
4 -14 0 -0.6341 0.1384
4 -14 1 -5.4560 0.1478
4 -14 2 -3.3606 0.1275
4 -14 3 -0.8150 -0.0265
4 -14 4 -1.5454 -0.0310
4 -14 5 -1.7456 0.0381
4 -14 6 1.8011 0.0096
4 -14 7 1.3036 -0.0519
4 -14 8 3.2350 -0.0007
4 -14 9 2.9399 0.0320
4 -14 10 1.4039 -0.0117
4 -14 11 3.8452 0.0091
4 -14 12 0.0136 0.0113
4 -14 13 -1.0436 -0.0181
4 -14 14 -1.9335 0.0003
4 -14 15 -0.1068 0.0124
4 -14 16 1.0547 -0.0114
4 -14 17 0.6938 -0.0002
4 -14 18 -0.7191 0.0041
4 -14 19 3.2303 -0.0065
4 -14 20 1.7933 -0.0051
4 -14 21 1.1928 -0.0074
4 -14 22 -1.3822 -0.0106
4 -13 0 -4.8686 -0.0525
4 -13 1 -3.7768 -0.0163
4 -13 2 -1.0707 -0.0449
4 -13 3 1.1965 0.0051
4 -13 4 3.9442 -0.0686
4 -13 5 5.7542 -0.0484
4 -13 6 1.4242 0.0461
4 -13 7 0.6391 0.0006
4 -13 8 -1.3745 -0.0515
4 -13 9 -0.1202 0.0123
4 -13 10 4.9587 0.0187
4 -13 11 1.3471 -0.0102
4 -13 12 1.5033 0.0164
4 -13 13 -3.4962 0.0157
4 -13 14 -2.9929 -0.0173
4 -13 15 -1.1644 0.0056
4 -13 16 0.5092 0.0042
4 -13 17 -1.9896 -0.0167
4 -13 18 -1.1023 0.0130
4 -13 19 -1.2113 0.0082
4 -13 20 0.9982 -0.0004
4 -13 21 -1.5575 0.0164
4 -13 22 1.4431 0.0271
4 -13 23 1.6346 0.0232
4 -12 0 -2.0765 -0.3586
4 -12 1 -4.1584 -0.0097
4 -12 2 -3.6577 0.0017
4 -12 3 0.9268 -0.0638
4 -12 4 3.1203 -0.0217
4 -12 5 2.1997 -0.0559
4 -12 6 0.5093 -0.0219
4 -12 7 0.5448 0.0697
4 -12 8 2.7454 0.0193
4 -12 9 0.8562 -0.0341
4 -12 10 -3.3148 0.0097
4 -12 11 2.1933 -0.0152
4 -12 12 0.8858 -0.0280
4 -12 13 0.5258 0.0112
4 -12 14 -5.5994 0.0083
4 -12 15 -3.4687 -0.0177
4 -12 16 -0.4486 0.0232
4 -12 17 1.7444 0.0031
4 -12 18 -0.6971 -0.0238
4 -12 19 1.5812 0.0071
4 -12 20 -0.8231 0.0050
4 -12 21 -4.6511 0.0076
4 -12 22 -2.3849 0.0074
4 -12 23 1.9680 0.0143
4 -11 0 -3.7199 -0.3998
4 -11 1 -1.7399 -0.2807
4 -11 2 6.9083 0.0797
4 -11 3 4.3883 0.0679
4 -11 4 1.8592 0.0215
4 -11 5 1.4232 0.0405
4 -11 6 0.5697 -0.0156
4 -11 7 -0.7521 -0.0114
4 -11 8 -2.3548 0.0390
4 -11 9 -2.2068 -0.0000
4 -11 10 1.6540 -0.0132
4 -11 11 -4.7164 0.0310
4 -11 12 -1.1604 -0.0230
4 -11 13 0.0862 -0.0307
4 -11 14 0.2474 0.0064
4 -11 15 -2.5797 0.0017
4 -11 16 0.9674 -0.0126
4 -11 17 1.6482 0.0261
4 -11 18 0.6019 0.0064
4 -11 19 0.1822 -0.0216
4 -11 20 1.8144 -0.0001
4 -11 21 -1.5898 -0.0108
4 -11 22 -5.4748 0.0015
4 -11 23 -2.4470 0.0256
4 -10 0 -2.3879 0.3307
4 -10 1 -1.9693 -0.2299
4 -10 2 0.0860 -0.1666
4 -10 3 9.5638 0.1448
4 -10 4 6.9703 0.0823
4 -10 5 3.9502 0.0293
4 -10 6 -2.3356 0.0429
4 -10 7 -2.2291 -0.0305
4 -10 8 4.4912 -0.0325
4 -10 9 4.5400 -0.0020
4 -10 10 -1.8488 -0.0110
4 -10 11 1.6467 0.0160
4 -10 12 -2.9636 0.0498
4 -10 13 0.3832 0.0035
4 -10 14 1.9277 -0.0132
4 -10 15 1.2702 0.0025
4 -10 16 1.7296 0.0016
4 -10 17 2.7550 -0.0086
4 -10 18 1.5687 0.0229
4 -10 19 -0.2444 0.0042
4 -10 20 2.0460 -0.0082
4 -10 21 -0.6732 0.0185
4 -10 22 -2.1184 -0.0138
4 -10 23 0.1052 0.0082
4 -10 24 -1.0205 0.0505
4 -9 0 -3.0429 0.6960
4 -9 1 -2.9641 0.4598
4 -9 2 -1.2890 -0.0845
4 -9 3 -3.4297 -0.1098
4 -9 4 -1.2961 0.0701
4 -9 5 0.1065 -0.0056
4 -9 6 6.6455 -0.0439
4 -9 7 6.0528 0.0218
4 -9 8 1.7529 0.0008
4 -9 9 0.2674 -0.0132
4 -9 10 2.4627 -0.0058
4 -9 11 -3.9391 -0.0226
4 -9 12 -0.7774 0.0016
4 -9 13 -1.2000 0.0349
4 -9 14 1.1250 0.0041
4 -9 15 4.5598 -0.0111
4 -9 16 0.1656 -0.0009
4 -9 17 1.9087 -0.0144
4 -9 18 1.6242 -0.0134
4 -9 19 0.0988 0.0208
4 -9 20 -0.8493 0.0024
4 -9 21 -1.1443 -0.0019
4 -9 22 -4.7709 0.0147
4 -9 23 -1.5869 -0.0141
4 -9 24 2.1057 -0.0003
4 -8 0 9.2540 -0.1039
4 -8 1 6.2849 0.3427
4 -8 2 0.2372 0.2624
4 -8 3 -3.9260 -0.1164
4 -8 4 -6.0259 -0.1062
4 -8 5 -2.5728 0.0158
4 -8 6 -2.0657 -0.0508
4 -8 7 2.1803 -0.0544
4 -8 8 4.3657 0.0391
4 -8 9 2.6505 0.0264
4 -8 10 -5.5964 0.0022
4 -8 11 -3.6321 0.0026
4 -8 12 -3.2762 -0.0339
4 -8 13 0.0699 -0.0176
4 -8 14 0.7962 0.0113
4 -8 15 -0.8920 -0.0025
4 -8 16 3.0594 0.0002
4 -8 17 -1.7276 0.0172
4 -8 18 1.4766 -0.0098
4 -8 19 1.1261 -0.0227
4 -8 20 0.6343 0.0138
4 -8 21 2.7204 -0.0055
4 -8 22 0.5805 -0.0096
4 -8 23 -3.5924 0.0161
4 -8 24 0.8682 -0.0101
4 -7 0 8.1878 -0.5315
4 -7 1 11.8398 -0.3722
4 -7 2 9.1285 0.0358
4 -7 3 5.1277 0.1071
4 -7 4 0.6693 -0.1131
4 -7 5 0.6993 -0.0253
4 -7 6 3.9779 0.0748
4 -7 7 3.8148 -0.0347
4 -7 8 -0.2896 -0.0403
4 -7 9 -5.7533 0.0400
4 -7 10 -1.3082 0.0210
4 -7 11 -5.9798 -0.0024
4 -7 12 -2.5483 0.0141
4 -7 13 1.5351 -0.0151
4 -7 14 -1.2393 -0.0166
4 -7 15 3.1557 0.0056
4 -7 16 1.2264 -0.0061
4 -7 17 0.8617 0.0043
4 -7 18 -1.5461 0.0273
4 -7 19 3.1761 -0.0121
4 -7 20 3.3621 -0.0238
4 -7 21 1.9777 0.0107
4 -7 22 3.5368 -0.0061
4 -7 23 4.9384 0.0067
4 -7 24 1.0830 0.0155
4 -6 0 11.7989 -0.1930
4 -6 1 8.7994 -0.2302
4 -6 2 1.3067 -0.2080
4 -6 3 -7.2664 0.0071
4 -6 4 3.4789 0.0628
4 -6 5 8.8398 -0.0553
4 -6 6 4.6039 0.0405
4 -6 7 0.6276 0.0982
4 -6 8 -4.7183 -0.0343
4 -6 9 -8.3833 -0.0416
4 -6 10 -10.7781 0.0239
4 -6 11 -2.0928 -0.0040
4 -6 12 -0.3252 -0.0049
4 -6 13 4.2529 0.0268
4 -6 14 8.4077 -0.0038
4 -6 15 -2.1292 -0.0094
4 -6 16 1.7993 -0.0003
4 -6 17 3.1650 -0.0160
4 -6 18 1.1139 0.0036
4 -6 19 -0.2207 0.0214
4 -6 20 -1.2092 -0.0094
4 -6 21 0.3027 -0.0143
4 -6 22 3.2082 -0.0016
4 -6 23 -1.4365 -0.0097
4 -6 24 2.4997 0.0046
4 -5 0 11.6801 -0.1398
4 -5 1 -0.3849 -0.0152
4 -5 2 1.6445 0.0373
4 -5 3 6.7629 -0.0076
4 -5 4 -3.9284 0.0539
4 -5 5 3.7625 0.0220
4 -5 6 4.5590 -0.0470
4 -5 7 -0.6128 0.0426
4 -5 8 -3.3822 0.0545
4 -5 9 -8.2895 -0.0547
4 -5 10 -4.8152 -0.0191
4 -5 11 0.0492 0.0264
4 -5 12 3.0219 -0.0207
4 -5 13 2.4168 -0.0047
4 -5 14 0.7886 0.0225
4 -5 15 4.2114 0.0006
4 -5 16 2.2608 -0.0019
4 -5 17 4.3185 -0.0004
4 -5 18 4.7657 -0.0184
4 -5 19 4.5307 -0.0114
4 -5 20 2.9689 0.0171
4 -5 21 -0.7429 -0.0077
4 -5 22 -1.7169 -0.0013
4 -5 23 3.5774 0.0117
4 -5 24 -1.2819 -0.0150
4 -4 0 -0.3551 0.2863
4 -4 1 14.7069 -0.1095
4 -4 2 9.1506 0.0167
4 -4 3 0.8197 0.1337
4 -4 4 18.9721 0.0608
4 -4 5 14.7836 0.0531
4 -4 6 4.7861 -0.0303
4 -4 7 -5.4909 -0.0855
4 -4 8 -2.3503 0.0191
4 -4 9 -2.7931 0.0234
4 -4 10 -4.8775 -0.0489
4 -4 11 -0.2668 0.0096
4 -4 12 0.6242 0.0340
4 -4 13 0.2381 -0.0310
4 -4 14 0.1703 -0.0209
4 -4 15 -3.4194 0.0044
4 -4 16 -2.1331 -0.0075
4 -4 17 -0.4460 0.0050
4 -4 18 0.7133 0.0074
4 -4 19 2.4650 -0.0071
4 -4 20 2.3164 -0.0044
4 -4 21 1.0281 0.0187
4 -4 22 5.8198 0.0007
4 -4 23 1.0224 0.0175
4 -4 24 1.8707 0.0001
4 -3 0 -0.7294 0.7603
4 -3 1 -27.5359 0.3171
4 -3 2 -0.0893 -0.1502
4 -3 3 11.8992 -0.0583
4 -3 4 -10.7887 0.0675
4 -3 5 9.0364 0.0207
4 -3 6 1.6379 0.0138
4 -3 7 -9.2025 -0.0408
4 -3 8 -11.5810 -0.0597
4 -3 9 -2.7515 0.0310
4 -3 10 0.7131 0.0134
4 -3 11 1.1381 -0.0323
4 -3 12 4.1742 0.0307
4 -3 13 2.1663 0.0404
4 -3 14 -0.5737 -0.0196
4 -3 15 -1.9600 -0.0162
4 -3 16 -2.5459 -0.0011
4 -3 17 -0.9727 -0.0104
4 -3 18 -3.0892 0.0149
4 -3 19 -1.3554 0.0151
4 -3 20 2.9542 0.0059
4 -3 21 2.7618 -0.0070
4 -3 22 -1.6750 0.0081
4 -3 23 3.2727 0.0188
4 -3 24 0.3852 0.0255
4 -2 0 -15.4751 -0.1782
4 -2 1 -1.3642 0.4154
4 -2 2 2.6289 0.1610
4 -2 3 -0.8226 -0.2162
4 -2 4 7.1946 -0.1370
4 -2 5 -12.9004 -0.0285
4 -2 6 -1.1536 -0.0017
4 -2 7 -9.1554 0.0357
4 -2 8 -7.2065 0.0150
4 -2 9 -0.3102 0.0011
4 -2 10 6.8957 0.0342
4 -2 11 5.0135 -0.0122
4 -2 12 -2.0682 -0.0354
4 -2 13 0.3224 0.0275
4 -2 14 0.7138 0.0290
4 -2 15 0.6457 -0.0067
4 -2 16 2.3710 0.0018
4 -2 17 0.3604 0.0060
4 -2 18 1.3464 -0.0199
4 -2 19 0.0828 0.0124
4 -2 20 -0.7479 0.0282
4 -2 21 0.0598 -0.0027
4 -2 22 3.2211 -0.0294
4 -2 23 -0.4837 0.0168
4 -1 0 37.4533 -0.9013
4 -1 1 -2.7228 -0.3885
4 -1 2 8.0963 0.2080
4 -1 3 32.7250 0.1202
4 -1 4 -10.8238 -0.1521
4 -1 5 -5.1450 -0.0444
4 -1 6 -11.8126 0.0234
4 -1 7 0.5578 -0.0003
4 -1 8 1.3381 0.0338
4 -1 9 -1.3402 0.0271
4 -1 10 0.6679 0.0015
4 -1 11 4.5404 0.0148
4 -1 12 2.4258 -0.0307
4 -1 13 -2.3379 -0.0385
4 -1 14 0.6423 0.0221
4 -1 15 0.0984 0.0066
4 -1 16 -1.0790 -0.0019
4 -1 17 1.0558 0.0147
4 -1 18 -4.1735 0.0043
4 -1 19 -4.3267 -0.0207
4 -1 20 0.1677 0.0020
4 -1 21 2.8236 0.0219
4 -1 22 -0.0010 -0.0123
4 -1 23 2.7491 -0.0510
4 0 0 -15.8440 -0.0602
4 0 1 22.4872 -0.5395
4 0 2 1.8961 -0.2776
4 0 3 -14.5147 0.1681
4 0 4 15.1326 0.1393
4 0 5 -21.4275 -0.0318
4 0 6 -7.9866 0.0561
4 0 7 -2.7653 0.0338
4 0 8 3.6714 -0.0587
4 0 9 4.6304 -0.0286
4 0 10 -0.0879 -0.0012
4 0 11 0.8706 0.0076
4 0 12 0.6512 0.0286
4 0 13 2.5969 -0.0036
4 0 14 1.3786 -0.0209
4 0 15 0.1442 0.0026
4 0 16 0.4929 -0.0192
4 0 17 -2.9962 -0.0058
4 0 18 0.0669 0.0183
4 0 19 -0.9950 0.0124
4 0 20 -2.2119 0.0029
4 0 21 0.5849 0.0178
4 0 22 2.4994 0.0062
4 0 23 -1.6892 -0.0091
4 1 0 33.1593 0.4365
4 1 1 6.5312 0.2310
4 1 2 1.4860 -0.1702
4 1 3 12.8463 -0.1140
4 1 4 -21.3339 0.1004
4 1 5 6.7013 0.0352
4 1 6 -8.3663 -0.0187
4 1 7 -3.5074 0.0666
4 1 8 7.0760 0.0051
4 1 9 4.5247 -0.0762
4 1 10 0.0040 -0.0240
4 1 11 -2.8537 0.0163
4 1 12 -1.2482 0.0137
4 1 13 -1.2112 0.0215
4 1 14 -0.5443 0.0108
4 1 15 0.0204 -0.0109
4 1 16 -1.4669 0.0025
4 1 17 1.4208 -0.0169
4 1 18 -0.9300 -0.0061
4 1 19 -1.5088 0.0267
4 1 20 -0.6416 -0.0029
4 1 21 1.2042 -0.0213
4 1 22 0.8357 0.0332
4 2 0 22.0894 0.2329
4 2 1 39.2661 0.3002
4 2 2 6.0042 0.2156
4 2 3 -33.3458 -0.0046
4 2 4 -5.2138 -0.0355
4 2 5 -24.7484 0.0355
4 2 6 -0.5870 -0.0824
4 2 7 2.6871 -0.0582
4 2 8 -2.2266 0.0930
4 2 9 2.5921 0.0386
4 2 10 3.6220 -0.0335
4 2 11 2.0808 0.0012
4 2 12 -0.0197 -0.0052
4 2 13 1.9851 -0.0171
4 2 14 3.3058 0.0017
4 2 15 1.4641 0.0196
4 2 16 1.5526 0.0169
4 2 17 -2.9812 0.0140
4 2 18 -0.5592 -0.0151
4 2 19 0.4358 -0.0027
4 2 20 -1.4783 0.0154
4 2 21 0.9283 -0.0159
4 2 22 3.5717 -0.0305
4 3 0 5.6288 0.2872
4 3 1 -10.9298 -0.0005
4 3 2 -13.3507 -0.0165
4 3 3 -9.4168 0.0178
4 3 4 -36.4846 0.0048
4 3 5 -1.3533 0.0096
4 3 6 -2.0899 0.0153
4 3 7 5.8500 -0.0955
4 3 8 9.5896 -0.0458
4 3 9 2.8510 0.0813
4 3 10 1.3296 0.0205
4 3 11 3.1734 -0.0265
4 3 12 4.8397 0.0190
4 3 13 4.6105 -0.0054
4 3 14 1.3135 -0.0353
4 3 15 -1.1467 -0.0172
4 3 16 -2.6969 0.0075
4 3 17 0.3161 0.0075
4 3 18 -0.4353 0.0117
4 3 19 -0.0994 0.0013
4 3 20 -0.0465 0.0274
4 3 21 -0.8467 0.0130
4 3 22 -0.9048 -0.0166
4 4 0 -20.3896 -0.1470
4 4 1 -11.3551 0.1480
4 4 2 -6.5598 -0.0797
4 4 3 -10.4645 -0.1597
4 4 4 17.7163 -0.0914
4 4 5 4.3848 0.0326
4 4 6 16.1654 0.0853
4 4 7 11.0260 0.0439
4 4 8 5.8110 -0.0611
4 4 9 3.8802 -0.0358
4 4 10 3.5614 0.0528
4 4 11 2.6172 -0.0213
4 4 12 -1.4220 -0.0331
4 4 13 -2.4481 0.0618
4 4 14 -2.4652 0.0139
4 4 15 -3.9551 -0.0230
4 4 16 -3.1652 -0.0032
4 4 17 -5.2632 -0.0180
4 4 18 -0.6325 -0.0210
4 4 19 1.9268 0.0038
4 4 20 -1.0723 0.0224
4 4 21 -1.3363 0.0507
4 5 0 3.8141 -0.7415
4 5 1 -12.0945 -0.2062
4 5 2 -10.0756 0.1907
4 5 3 13.2239 0.0428
4 5 4 3.7519 -0.1262
4 5 5 21.1902 -0.0721
4 5 6 9.2077 0.0200
4 5 7 3.6437 0.0801
4 5 8 1.3845 0.0657
4 5 9 0.0003 -0.0407
4 5 10 -0.0767 -0.0204
4 5 11 1.0899 0.0193
4 5 12 -0.2320 -0.0690
4 5 13 -2.0472 -0.0261
4 5 14 -2.4080 0.0641
4 5 15 -3.2336 0.0143
4 5 16 -4.4739 -0.0042
4 5 17 -1.7857 0.0138
4 5 18 -2.6373 -0.0090
4 5 19 -0.7661 -0.0487
4 5 20 2.7426 -0.0161
4 6 0 -13.4972 -0.0485
4 6 1 -7.5896 -0.4843
4 6 2 -4.6659 -0.1187
4 6 3 -7.1349 0.2211
4 6 4 14.8232 0.1121
4 6 5 3.5895 -0.0465
4 6 6 7.9416 -0.0264
4 6 7 2.1820 -0.0156
4 6 8 -3.3178 0.0067
4 6 9 -2.3497 0.0046
4 6 10 -0.5858 -0.0151
4 6 11 1.0622 0.0349
4 6 12 2.0955 0.0237
4 6 13 -0.9412 -0.0612
4 6 14 -3.8730 -0.0336
4 6 15 -2.6248 0.0344
4 6 16 -0.3374 0.0094
4 6 17 -2.0961 -0.0039
4 6 18 -1.4108 0.0325
4 6 19 -0.0254 -0.0227
4 6 20 -1.3095 -0.0774
4 7 0 -4.3682 0.6821
4 7 1 -5.4972 0.1971
4 7 2 -5.5082 -0.2630
4 7 3 10.3428 -0.0525
4 7 4 1.1693 0.1495
4 7 5 9.4181 0.0767
4 7 6 3.4205 -0.0198
4 7 7 1.7778 -0.0110
4 7 8 4.3308 -0.0143
4 7 9 1.9631 -0.0289
4 7 10 0.0921 -0.0155
4 7 11 -0.1797 0.0135
4 7 12 -2.3420 0.0547
4 7 13 -1.4944 0.0312
4 7 14 0.3071 -0.0538
4 7 15 -0.9560 -0.0181
4 7 16 -0.8631 0.0141
4 7 17 1.7641 -0.0158
4 7 18 0.4258 0.0238
4 7 19 -3.9945 0.0351
4 8 0 -3.2884 0.2341
4 8 1 5.5704 0.4912
4 8 2 8.7913 0.1738
4 8 3 1.7676 -0.1631
4 8 4 11.0973 -0.0782
4 8 5 -0.6390 0.0185
4 8 6 1.9549 -0.0261
4 8 7 4.7848 -0.0105
4 8 8 1.8572 0.0608
4 8 9 4.0774 0.0299
4 8 10 1.5544 -0.0305
4 8 11 -1.3248 -0.0384
4 8 12 1.0735 -0.0088
4 8 13 -0.3376 0.0327
4 8 14 -2.2140 0.0086
4 8 15 0.7665 -0.0316
4 8 16 0.6303 0.0158
4 8 17 -0.9774 -0.0044
4 8 18 -0.4912 -0.0300
4 9 0 -0.8136 -0.2120
4 9 1 6.1152 -0.0413
4 9 2 4.5112 0.1686
4 9 3 6.4812 0.0306
4 9 4 -1.7138 -0.0910
4 9 5 1.4884 -0.0244
4 9 6 -1.2871 0.0124
4 9 7 -3.1442 -0.0518
4 9 8 -0.0174 -0.0052
4 9 9 0.8177 0.0904
4 9 10 1.8041 0.0387
4 9 11 0.1409 -0.0386
4 9 12 -1.4122 -0.0335
4 9 13 0.6216 -0.0156
4 9 14 1.5391 0.0063
4 9 15 0.5322 0.0175
4 9 16 -0.0298 -0.0003
4 9 17 0.3136 0.0389
4 9 18 1.9070 0.0396
4 10 0 -3.9967 -0.2057
4 10 1 2.0700 -0.2019
4 10 2 5.1613 -0.1235
4 10 3 -0.1511 0.0109
4 10 4 2.0946 -0.0169
4 10 5 -2.5631 0.0104
4 10 6 -1.2057 0.0661
4 10 7 1.7404 0.0323
4 10 8 -0.9470 -0.0705
4 10 9 -1.4119 -0.0341
4 10 10 -1.5464 0.0523
4 10 11 -2.2370 0.0041
4 10 12 -0.8976 -0.0321
4 10 13 -0.4423 0.0011
4 10 14 -0.0724 -0.0139
4 10 15 1.9224 -0.0107
4 10 16 3.3396 0.0024
4 10 17 0.3041 0.0006
4 11 0 4.2278 -0.2536
4 11 1 2.6403 -0.0702
4 11 2 3.0739 0.0084
4 11 3 3.3152 -0.0104
4 11 4 -0.8506 -0.0187
4 11 5 -0.8008 -0.0461
4 11 6 -1.0134 0.0193
4 11 7 -2.0105 0.0725
4 11 8 -0.7301 0.0158
4 11 9 1.6214 -0.0573
4 11 10 1.9500 -0.0209
4 11 11 0.7259 0.0235
4 11 12 -0.8104 0.0118
4 11 13 1.0145 -0.0132
4 11 14 0.9950 0.0341
4 11 15 0.1792 0.0057
4 11 16 -0.1549 -0.0853
4 12 0 3.6879 0.0065
4 12 1 3.6760 -0.1426
4 12 2 1.8992 0.0282
4 12 3 -0.6087 0.1173
4 12 4 -0.4589 0.0657
4 12 5 -2.7720 -0.0441
4 12 6 -3.2652 -0.0837
4 12 7 -3.5387 -0.0119
4 12 8 -3.3455 0.0260
4 12 9 -1.3857 0.0360
4 12 10 -0.2780 0.0098
4 12 11 -0.8216 0.0192
4 12 12 1.5151 0.0055
4 12 13 0.5765 -0.0619
4 12 14 1.0294 -0.0679
4 12 15 0.4874 0.0627
4 13 0 4.9804 0.4405
4 13 1 2.6903 0.0652
4 13 2 -0.4772 -0.1322
4 13 3 0.5988 -0.0044
4 13 4 -1.2904 0.1006
4 13 5 -1.4499 0.0567
4 13 6 0.2641 -0.0719
4 13 7 -0.6730 -0.0575
4 13 8 -4.6250 -0.0066
4 13 9 -3.2213 0.0073
4 13 10 -1.3302 0.0474
4 13 11 -1.7047 -0.0047
4 13 12 -1.9298 0.0415
4 13 13 1.3610 -0.0056
4 13 14 0.9627 -0.0859
4 14 0 0.5084 0.1800
4 14 1 2.6618 0.2967
4 14 2 1.7416 0.0457
4 14 3 -2.8263 -0.1528
4 14 4 -0.8627 -0.0628
4 14 5 -5.2461 0.0563
4 14 6 -3.9810 0.0281
4 14 7 0.1228 -0.0204
4 14 8 -0.9389 -0.0037
4 14 9 -0.3147 0.0144
4 14 10 1.9358 -0.0190
4 14 11 0.2686 -0.0102
4 14 12 0.5717 0.0281
4 15 0 0.4187 -0.2966
4 15 1 -0.1982 -0.0128
4 15 2 -0.6670 0.1616
4 15 3 -0.7807 0.0018
4 15 4 -3.1752 -0.0932
4 15 5 -1.7153 -0.0284
4 15 6 -3.8940 0.0017
4 15 7 -1.1062 0.0172
4 15 8 0.0530 -0.0102
4 15 9 -2.3192 -0.0028
4 15 10 0.3498 0.0655
4 15 11 1.9687 -0.0781
4 16 0 1.2311 -0.2124
4 16 1 -0.8233 -0.2497
4 16 2 0.2213 -0.0079
4 16 3 -0.8504 0.0921
4 16 4 2.1140 -0.0182
4 16 5 0.8506 0.0247
4 16 6 0.5811 -0.0114
4 16 7 0.1217 -0.0116
4 16 8 -0.1184 0.0382
4 16 9 -0.0397 -0.0575
4 17 0 -1.3686 0.0277
4 17 1 -0.7256 -0.0690
4 17 2 0.1158 -0.0659
4 17 3 0.0045 0.0536
4 17 4 -1.0424 -0.0006
4 17 5 1.8959 -0.0337
4 17 6 0.9904 0.0653
4 17 7 0.4450 0.0134
4 17 8 0.4856 0.0017
4 18 0 -1.1601 0.1093
4 18 1 -3.1811 0.0968
4 18 2 -2.1535 0.0476
4 18 3 0.0199 0.0061
4 18 4 -0.7471 0.0390
4 18 5 -0.9079 -0.0347
4 18 6 1.2256 -0.0876
4 19 0 1.5780 0.1654
4 19 1 -0.2419 0.0218
4 19 2 -2.3348 -0.0147
4 19 3 -2.0537 0.0498
4 20 0 -0.4977 -0.0369
4 20 1 1.7765 0.1256
5 -22 4 -1.2319 -0.0125
5 -22 5 -0.8734 -0.0220
5 -22 6 -0.7878 0.0114
5 -21 0 0.4624 -0.0677
5 -21 1 0.8987 -0.0455
5 -21 2 -2.8970 -0.0717
5 -21 3 -1.1788 0.0347
5 -21 4 0.7320 -0.0113
5 -21 5 -0.8359 0.0126
5 -21 6 -2.0355 0.0278
5 -21 7 -2.3603 0.0151
5 -21 8 0.2973 -0.0325
5 -21 9 2.8239 0.0147
5 -21 10 1.7365 0.0279
5 -21 11 0.3389 0.0263
5 -21 12 -0.1185 -0.0110
5 -20 0 0.8278 0.1903
5 -20 1 -1.7297 0.0198
5 -20 2 1.3681 -0.0241
5 -20 3 1.5292 -0.0141
5 -20 4 -2.3835 0.0156
5 -20 5 -0.5272 -0.0271
5 -20 6 2.3348 0.0155
5 -20 7 -2.0040 0.0380
5 -20 8 -3.4145 -0.0156
5 -20 9 1.0602 -0.0183
5 -20 10 2.7500 0.0220
5 -20 11 2.3199 -0.0023
5 -20 12 -0.9582 0.0082
5 -20 13 -0.4818 -0.0245
5 -20 14 0.4583 -0.0201
5 -19 0 -0.0588 0.1867
5 -19 1 1.1419 0.1538
5 -19 2 -0.3764 0.0452
5 -19 3 1.2501 -0.0253
5 -19 4 1.8071 0.0226
5 -19 5 -0.6310 0.0061
5 -19 6 -0.1759 -0.0276
5 -19 7 -0.6420 -0.0064
5 -19 8 -4.7724 0.0260
5 -19 9 -6.1602 -0.0156
5 -19 10 -2.0244 -0.0087
5 -19 11 -0.4541 0.0337
5 -19 12 2.3657 -0.0057
5 -19 13 -0.3823 -0.0046
5 -19 14 0.5197 -0.0104
5 -19 15 0.7505 0.0072
5 -19 16 -0.7291 0.0201
5 -18 0 3.5624 -0.0363
5 -18 1 -0.9277 0.0555
5 -18 2 0.0463 0.0358
5 -18 3 4.0170 -0.0094
5 -18 4 0.7255 -0.0565
5 -18 5 -1.6066 0.0265
5 -18 6 0.3024 0.0035
5 -18 7 1.5484 -0.0116
5 -18 8 1.5711 0.0043
5 -18 9 -1.9310 0.0195
5 -18 10 -5.1784 -0.0097
5 -18 11 2.3083 -0.0091
5 -18 12 -0.0717 0.0207
5 -18 13 -1.5961 0.0033
5 -18 14 -1.3916 0.0128
5 -18 15 -1.6178 -0.0038
5 -18 16 -0.8393 -0.0218
5 -18 17 -0.6920 -0.0035
5 -17 0 2.4594 -0.1405
5 -17 1 3.6372 -0.0862
5 -17 2 1.0602 0.0032
5 -17 3 -0.9685 -0.0206
5 -17 4 -0.2997 -0.0204
5 -17 5 -3.3856 -0.0386
5 -17 6 -3.2891 0.0167
5 -17 7 -0.6586 0.0076
5 -17 8 2.9955 -0.0202
5 -17 9 4.8047 -0.0062
5 -17 10 1.1773 -0.0004
5 -17 11 -3.8701 -0.0215
5 -17 12 0.4810 -0.0056
5 -17 13 -1.3895 0.0071
5 -17 14 -0.8401 -0.0144
5 -17 15 1.0677 0.0029
5 -17 16 -1.7657 -0.0011
5 -17 17 -0.0589 -0.0197
5 -17 18 0.8974 0.0126
5 -17 19 -0.0505 0.0391
5 -16 0 -0.0731 -0.2695
5 -16 1 -0.7090 -0.1041
5 -16 2 -0.7736 0.0021
5 -16 3 1.9005 0.0259
5 -16 4 0.0075 0.0058
5 -16 5 0.3718 0.0059
5 -16 6 -3.0747 -0.0107
5 -16 7 -4.6190 0.0086
5 -16 8 -0.7399 0.0123
5 -16 9 -1.4410 -0.0097
5 -16 10 -4.2357 0.0186
5 -16 11 -0.8888 0.0201
5 -16 12 -0.1038 -0.0203
5 -16 13 -0.0797 -0.0110
5 -16 14 0.2518 0.0117
5 -16 15 0.6610 -0.0017
5 -16 16 2.0325 0.0099
5 -16 17 -1.0712 0.0089
5 -16 18 -0.5324 -0.0211
5 -16 19 0.6164 -0.0096
5 -16 20 0.1242 -0.0036
5 -15 0 2.7633 -0.0677
5 -15 1 0.3390 -0.1573
5 -15 2 -1.0695 -0.0053
5 -15 3 -2.3869 0.0753
5 -15 4 -0.2675 0.0217
5 -15 5 0.5599 0.0111
5 -15 6 0.7916 -0.0177
5 -15 7 -3.6443 -0.0157
5 -15 8 -5.4872 0.0040
5 -15 9 1.4261 -0.0001
5 -15 10 2.4990 -0.0261
5 -15 11 0.1221 0.0151
5 -15 12 0.3766 0.0305
5 -15 13 -0.0758 -0.0051
5 -15 14 -0.1497 -0.0034
5 -15 15 1.4481 -0.0013
5 -15 16 0.3796 -0.0230
5 -15 17 0.7819 0.0035
5 -15 18 -1.5166 0.0304
5 -15 19 -0.8857 -0.0011
5 -15 20 1.3262 -0.0033
5 -14 0 -0.4236 0.4381
5 -14 1 -2.0806 0.0524
5 -14 2 -4.1297 -0.0743
5 -14 3 -1.1605 0.0146
5 -14 4 -3.2891 0.0636
5 -14 5 -2.2425 -0.0062
5 -14 6 -0.1959 0.0119
5 -14 7 -0.2288 -0.0110
5 -14 8 1.2063 -0.0186
5 -14 9 -1.8926 0.0053
5 -14 10 -1.4664 -0.0155
5 -14 11 0.1143 -0.0286
5 -14 12 2.2626 0.0249
5 -14 13 1.2134 0.0145
5 -14 14 -1.3252 -0.0100
5 -14 15 -1.0881 0.0055
5 -14 16 -0.0705 -0.0036
5 -14 17 1.3118 -0.0194
5 -14 18 2.5777 0.0136
5 -14 19 1.1542 0.0122
5 -14 20 -0.4969 -0.0406
5 -14 21 -0.0631 -0.0306
5 -13 0 -5.7539 0.2980
5 -13 1 -3.1458 0.3425
5 -13 2 -1.6303 0.0255
5 -13 3 -1.4897 -0.0817
5 -13 4 3.2171 -0.0122
5 -13 5 6.0408 0.0083
5 -13 6 4.1774 -0.0311
5 -13 7 1.6115 0.0060
5 -13 8 -2.5818 0.0018
5 -13 9 -0.4467 0.0020
5 -13 10 -1.2120 0.0222
5 -13 11 -3.1382 -0.0188
5 -13 12 -1.8590 -0.0301
5 -13 13 0.4841 0.0173
5 -13 14 -0.4007 0.0027
5 -13 15 -1.7656 -0.0074
5 -13 16 -0.0525 0.0049
5 -13 17 -3.2759 -0.0077
5 -13 18 -1.7353 -0.0055
5 -13 19 0.1841 0.0248
5 -13 20 3.0615 -0.0084
5 -13 21 0.0043 -0.0408
5 -13 22 -2.9241 0.0083
5 -12 0 -2.7753 -0.3071
5 -12 1 -6.6895 0.0534
5 -12 2 -4.5759 0.1526
5 -12 3 3.4590 -0.0521
5 -12 4 4.0821 -0.0973
5 -12 5 3.4858 -0.0020
5 -12 6 3.3292 -0.0074
5 -12 7 1.4752 -0.0103
5 -12 8 3.4720 0.0305
5 -12 9 0.5695 0.0177
5 -12 10 1.3626 -0.0048
5 -12 11 0.3336 0.0208
5 -12 12 -3.6903 -0.0065
5 -12 13 -0.3881 -0.0213
5 -12 14 -0.8404 0.0144
5 -12 15 -0.3172 0.0044
5 -12 16 -0.6074 0.0066
5 -12 17 2.3993 0.0022
5 -12 18 -1.4192 -0.0069
5 -12 19 -0.4812 0.0030
5 -12 20 0.3643 0.0265
5 -12 21 1.5369 0.0148
5 -12 22 -0.9410 -0.0347
5 -11 0 -3.9463 -0.3306
5 -11 1 -1.4250 -0.3447
5 -11 2 0.8359 -0.0520
5 -11 3 -1.8252 0.0657
5 -11 4 -1.6900 -0.0224
5 -11 5 0.8993 -0.0246
5 -11 6 1.6481 0.0601
5 -11 7 -0.5352 0.0008
5 -11 8 -3.9852 -0.0204
5 -11 9 -1.8222 0.0194
5 -11 10 -0.1930 0.0110
5 -11 11 -1.5405 -0.0141
5 -11 12 -1.9731 0.0077
5 -11 13 -3.8969 -0.0015
5 -11 14 0.4784 -0.0083
5 -11 15 -1.5032 0.0081
5 -11 16 1.6837 0.0001
5 -11 17 0.2869 0.0039
5 -11 18 0.2368 -0.0016
5 -11 19 -4.1546 -0.0042
5 -11 20 -1.1296 -0.0220
5 -11 21 0.6062 -0.0175
5 -11 22 -3.0104 -0.0076
5 -10 0 -1.8456 -0.1127
5 -10 1 -1.5477 -0.1218
5 -10 2 0.6753 -0.1329
5 -10 3 7.9114 0.0401
5 -10 4 3.9574 0.0677
5 -10 5 -2.3016 0.0034
5 -10 6 -5.3845 0.0121
5 -10 7 -4.1748 0.0407
5 -10 8 0.6642 -0.0329
5 -10 9 -1.1586 -0.0482
5 -10 10 -2.4737 0.0006
5 -10 11 1.4981 0.0164
5 -10 12 -3.2853 -0.0069
5 -10 13 -1.3795 0.0043
5 -10 14 -2.4295 -0.0008
5 -10 15 0.1647 -0.0119
5 -10 16 -1.3772 0.0083
5 -10 17 0.6648 -0.0048
5 -10 18 -0.4671 -0.0029
5 -10 19 -2.5059 0.0041
5 -10 20 -5.0088 -0.0072
5 -10 21 -0.6025 -0.0069
5 -10 22 -1.2172 -0.0197
5 -10 23 -2.9334 -0.0194
5 -9 0 -10.3661 0.0483
5 -9 1 0.0159 0.0311
5 -9 2 5.1413 0.0654
5 -9 3 5.6904 0.0350
5 -9 4 4.2348 0.0655
5 -9 5 -0.1931 0.0137
5 -9 6 1.8467 -0.0523
5 -9 7 2.7549 0.0027
5 -9 8 1.2379 0.0487
5 -9 9 2.7655 -0.0221
5 -9 10 3.3733 -0.0379
5 -9 11 -0.8097 0.0222
5 -9 12 2.6351 0.0084
5 -9 13 -2.0592 -0.0093
5 -9 14 0.6600 0.0212
5 -9 15 0.9851 0.0008
5 -9 16 1.5213 -0.0064
5 -9 17 0.9242 0.0065
5 -9 18 2.1420 -0.0217
5 -9 19 -0.2753 -0.0121
5 -9 20 -4.2996 0.0016
5 -9 21 -4.5409 0.0025
5 -9 22 -0.0775 0.0169
5 -9 23 -1.1467 -0.0033
5 -8 0 -0.2653 0.4930
5 -8 1 0.9031 0.0565
5 -8 2 -1.5200 -0.0099
5 -8 3 -0.5286 0.0632
5 -8 4 2.8873 0.0357
5 -8 5 3.6384 0.0046
5 -8 6 0.5902 -0.0244
5 -8 7 2.4784 -0.0803
5 -8 8 5.1605 0.0117
5 -8 9 1.9318 0.0668
5 -8 10 -3.8631 -0.0173
5 -8 11 -0.9350 -0.0225
5 -8 12 -3.6841 0.0318
5 -8 13 4.5086 -0.0075
5 -8 14 3.2170 -0.0125
5 -8 15 0.8862 0.0184
5 -8 16 2.2771 -0.0048
5 -8 17 -0.8264 -0.0001
5 -8 18 -1.4992 0.0178
5 -8 19 1.6485 -0.0168
5 -8 20 -0.4180 -0.0268
5 -8 21 -2.0303 -0.0045
5 -8 22 -3.1657 0.0025
5 -8 23 -0.4111 -0.0039
5 -7 0 -6.7947 0.3535
5 -7 1 3.8582 0.3381
5 -7 2 6.6757 -0.0828
5 -7 3 1.5830 -0.1328
5 -7 4 -2.3331 -0.0219
5 -7 5 2.2015 0.0218
5 -7 6 3.7575 0.0212
5 -7 7 2.9905 -0.0093
5 -7 8 3.3228 -0.0608
5 -7 9 -0.5573 0.0172
5 -7 10 -0.4407 0.0431
5 -7 11 -4.6817 -0.0233
5 -7 12 -1.1015 -0.0149
5 -7 13 -3.4309 0.0279
5 -7 14 1.2456 -0.0151
5 -7 15 2.8132 -0.0114
5 -7 16 -0.2545 0.0162
5 -7 17 1.7268 -0.0148
5 -7 18 -1.1832 0.0016
5 -7 19 -0.2031 0.0241
5 -7 20 5.1295 -0.0214
5 -7 21 1.2907 -0.0228
5 -7 22 2.1612 -0.0001
5 -7 23 1.1741 0.0069
5 -6 0 7.4743 -0.5856
5 -6 1 2.1755 0.0975
5 -6 2 -0.0020 0.1749
5 -6 3 -0.6008 -0.1245
5 -6 4 1.2323 -0.1229
5 -6 5 3.8760 -0.0254
5 -6 6 8.3991 0.0215
5 -6 7 3.7163 0.0519
5 -6 8 -0.9502 0.0242
5 -6 9 -0.6395 -0.0275
5 -6 10 -4.1221 0.0189
5 -6 11 1.7418 0.0080
5 -6 12 -0.4250 -0.0447
5 -6 13 2.1063 -0.0025
5 -6 14 2.5315 0.0284
5 -6 15 -2.2841 -0.0143
5 -6 16 -2.2864 0.0047
5 -6 17 0.0317 0.0053
5 -6 18 -0.4558 -0.0228
5 -6 19 -2.4048 0.0069
5 -6 20 -1.4429 0.0197
5 -6 21 3.3884 -0.0168
5 -6 22 3.0872 -0.0142
5 -6 23 2.8700 0.0061
5 -5 0 11.9153 -0.6158
5 -5 1 2.7116 -0.5462
5 -5 2 -1.0717 0.0688
5 -5 3 -3.7010 0.1788
5 -5 4 -6.0170 -0.0302
5 -5 5 2.2013 -0.0236
5 -5 6 1.8561 0.0223
5 -5 7 -0.7942 -0.0082
5 -5 8 -4.2803 0.0110
5 -5 9 -6.5819 0.0081
5 -5 10 -5.4590 -0.0075
5 -5 11 -1.2470 0.0293
5 -5 12 10.1212 -0.0001
5 -5 13 5.1167 -0.0352
5 -5 14 2.1348 0.0073
5 -5 15 3.4847 0.0208
5 -5 16 -0.7426 -0.0072
5 -5 17 1.2303 0.0231
5 -5 18 2.7925 0.0124
5 -5 19 0.1184 -0.0228
5 -5 20 1.0975 0.0047
5 -5 21 -2.8877 0.0194
5 -5 22 -1.4406 -0.0165
5 -5 23 3.9098 -0.0150
5 -4 0 16.6457 0.2661
5 -4 1 14.9694 -0.2470
5 -4 2 3.5675 -0.3089
5 -4 3 5.0066 0.1043
5 -4 4 6.2300 0.1627
5 -4 5 -0.0067 0.0222
5 -4 6 6.4130 0.0200
5 -4 7 -3.8259 0.0150
5 -4 8 -9.0549 -0.0595
5 -4 9 -5.3148 -0.0432
5 -4 10 -1.8872 -0.0006
5 -4 11 -0.3422 0.0136
5 -4 12 -1.0981 0.0275
5 -4 13 3.8572 0.0022
5 -4 14 3.4459 -0.0235
5 -4 15 0.6673 0.0053
5 -4 16 -0.6692 0.0084
5 -4 17 0.2834 -0.0202
5 -4 18 3.3190 0.0240
5 -4 19 1.4688 0.0158
5 -4 20 -0.5325 -0.0166
5 -4 21 0.7993 0.0154
5 -4 22 -1.2597 0.0089
5 -4 23 -1.3390 -0.0217
5 -3 0 7.8611 0.4061
5 -3 1 -5.2828 0.3824
5 -3 2 8.4176 0.0130
5 -3 3 13.7634 -0.1051
5 -3 4 3.9263 0.0575
5 -3 5 6.1352 0.0063
5 -3 6 -2.1816 -0.0535
5 -3 7 -1.4429 0.0341
5 -3 8 -8.4853 0.0504
5 -3 9 -7.7135 -0.0406
5 -3 10 -4.7819 -0.0387
5 -3 11 0.2942 0.0067
5 -3 12 5.0964 0.0135
5 -3 13 1.4789 0.0206
5 -3 14 -1.0417 0.0050
5 -3 15 -1.4505 -0.0136
5 -3 16 -2.0670 0.0057
5 -3 17 -2.0011 -0.0018
5 -3 18 -2.3841 -0.0204
5 -3 19 -0.1715 0.0128
5 -3 20 2.9965 -0.0051
5 -3 21 1.7661 -0.0125
5 -3 22 -0.3703 0.0067
5 -3 23 1.3524 0.0036
5 -2 0 -3.5407 0.1915
5 -2 1 5.0222 0.2042
5 -2 2 -10.1116 0.2070
5 -2 3 5.8166 0.0133
5 -2 4 11.8462 -0.0497
5 -2 5 -10.9570 -0.0019
5 -2 6 -3.3138 -0.0814
5 -2 7 -9.5663 -0.0890
5 -2 8 -7.0639 0.0551
5 -2 9 -6.0747 0.0865
5 -2 10 0.7302 -0.0102
5 -2 11 2.9222 -0.0230
5 -2 12 -0.0438 0.0035
5 -2 13 0.4065 -0.0132
5 -2 14 -0.6173 -0.0041
5 -2 15 -0.8710 0.0107
5 -2 16 0.5465 -0.0004
5 -2 17 1.0523 0.0065
5 -2 18 3.4316 -0.0052
5 -2 19 1.1894 -0.0231
5 -2 20 0.5090 0.0205
5 -2 21 3.0905 -0.0124
5 -2 22 2.2107 -0.0263
5 -2 23 -1.2295 0.0011
5 -1 0 3.9095 0.0949
5 -1 1 -2.2156 0.0046
5 -1 2 10.9780 -0.0850
5 -1 3 6.6207 -0.0224
5 -1 4 0.3957 -0.0260
5 -1 5 4.9735 0.0284
5 -1 6 -17.1708 0.0641
5 -1 7 -6.6279 -0.0474
5 -1 8 -1.3911 -0.0812
5 -1 9 1.5975 0.0441
5 -1 10 -1.1989 0.0491
5 -1 11 1.7097 -0.0285
5 -1 12 0.8134 -0.0096
5 -1 13 -3.3590 0.0104
5 -1 14 -1.7441 -0.0153
5 -1 15 -2.6588 -0.0083
5 -1 16 -1.5862 0.0087
5 -1 17 2.9920 -0.0023
5 -1 18 -0.9298 0.0077
5 -1 19 -0.6851 0.0092
5 -1 20 -0.3076 -0.0285
5 -1 21 -0.1609 0.0325
5 -1 22 1.8180 -0.0270
5 0 0 -9.4386 -0.4583
5 0 1 15.0155 0.0575
5 0 2 -0.4679 0.0058
5 0 3 1.1561 -0.1315
5 0 4 2.3539 -0.0782
5 0 5 -17.3926 -0.0135
5 0 6 -1.2023 0.0977
5 0 7 -11.3007 0.1156
5 0 8 -4.9656 -0.0348
5 0 9 3.1224 -0.0790
5 0 10 1.8140 0.0217
5 0 11 0.6582 0.0078
5 0 12 1.6171 -0.0261
5 0 13 -0.2717 0.0225
5 0 14 1.1655 0.0207
5 0 15 0.4768 -0.0084
5 0 16 -2.8656 0.0024
5 0 17 -3.4420 0.0104
5 0 18 1.4668 -0.0149
5 0 19 0.5000 -0.0184
5 0 20 -0.2842 0.0223
5 0 21 -0.2744 -0.0236
5 0 22 0.1570 0.0426
5 1 0 7.2314 -0.6165
5 1 1 -0.2283 -0.3963
5 1 2 10.9876 0.1428
5 1 3 -1.4981 0.1292
5 1 4 -11.1980 -0.0248
5 1 5 0.0619 -0.0668
5 1 6 -14.3265 -0.0392
5 1 7 -2.3767 0.0423
5 1 8 0.8929 0.0506
5 1 9 2.6579 -0.0291
5 1 10 0.3461 -0.0252
5 1 11 -0.5897 0.0386
5 1 12 -0.0983 -0.0075
5 1 13 -1.4966 -0.0423
5 1 14 -1.5317 0.0264
5 1 15 0.1970 0.0124
5 1 16 -1.2497 -0.0224
5 1 17 -0.2945 0.0232
5 1 18 -1.3107 0.0171
5 1 19 1.5041 -0.0146
5 1 20 1.7988 -0.0439
5 1 21 -0.1646 -0.0109
5 1 22 -1.3269 -0.0129
5 2 0 7.6595 0.3936
5 2 1 18.0365 -0.2905
5 2 2 -1.9258 -0.2496
5 2 3 -7.3578 0.1859
5 2 4 -8.0258 0.1598
5 2 5 -18.7528 0.0222
5 2 6 1.9834 -0.0522
5 2 7 -1.7798 -0.0608
5 2 8 -2.0630 -0.0083
5 2 9 2.5167 0.0090
5 2 10 3.1578 -0.0101
5 2 11 -1.2006 0.0224
5 2 12 -1.3309 0.0429
5 2 13 -0.7568 -0.0232
5 2 14 0.4055 -0.0494
5 2 15 1.5981 0.0211
5 2 16 1.5348 0.0042
5 2 17 -1.5713 -0.0247
5 2 18 -0.2122 0.0370
5 2 19 -0.6890 0.0169
5 2 20 0.5474 -0.0132
5 2 21 1.5019 -0.0709
5 3 0 8.0291 0.7081
5 3 1 -11.1861 0.4756
5 3 2 -10.9998 -0.1428
5 3 3 -24.2212 -0.1917
5 3 4 -26.4652 0.0836
5 3 5 -6.6030 0.0482
5 3 6 -8.7076 0.0067
5 3 7 1.8227 0.0055
5 3 8 2.5360 -0.0072
5 3 9 0.1958 -0.0145
5 3 10 -0.3194 -0.0267
5 3 11 1.8674 -0.0210
5 3 12 3.5838 0.0245
5 3 13 4.7531 0.0291
5 3 14 3.4716 -0.0217
5 3 15 2.2500 -0.0282
5 3 16 0.6057 0.0180
5 3 17 0.5113 -0.0124
5 3 18 -2.0656 -0.0499
5 3 19 1.4256 0.0222
5 3 20 0.9048 0.0458
5 3 21 0.3915 0.0169
5 4 0 -7.0453 -0.1011
5 4 1 -10.0244 0.3624
5 4 2 -22.4484 0.2813
5 4 3 -14.0562 -0.1084
5 4 4 -4.3316 -0.1317
5 4 5 -7.8445 0.0060
5 4 6 8.3208 -0.0333
5 4 7 6.3810 -0.0210
5 4 8 1.7200 0.0567
5 4 9 0.4750 0.0502
5 4 10 2.8936 -0.0136
5 4 11 2.7700 -0.0361
5 4 12 0.8610 -0.0245
5 4 13 0.5892 0.0289
5 4 14 1.0345 0.0331
5 4 15 -0.8905 -0.0160
5 4 16 0.8143 0.0050
5 4 17 -2.3964 0.0214
5 4 18 -1.1051 -0.0317
5 4 19 0.1270 -0.0610
5 4 20 0.5268 -0.0015
5 5 0 4.5157 -0.3425
5 5 1 -5.0761 -0.2569
5 5 2 -3.9308 0.0574
5 5 3 -1.3286 0.1036
5 5 4 2.2840 -0.0756
5 5 5 12.8648 -0.0111
5 5 6 2.0778 0.0320
5 5 7 3.5766 -0.0747
5 5 8 4.2476 -0.0401
5 5 9 -0.4408 0.0571
5 5 10 -0.5851 0.0470
5 5 11 1.6170 -0.0032
5 5 12 -0.5182 -0.0324
5 5 13 -0.4248 -0.0150
5 5 14 -0.9012 0.0164
5 5 15 -0.9920 -0.0069
5 5 16 0.0732 -0.0116
5 5 17 3.6475 0.0394
5 5 18 -2.3080 0.0444
5 5 19 -2.2719 -0.0160
5 5 20 0.6227 -0.0522
5 6 0 -5.0334 -0.2064
5 6 1 0.5697 -0.1926
5 6 2 -1.9778 -0.1688
5 6 3 -2.3214 -0.0254
5 6 4 6.9144 0.0178
5 6 5 0.2058 -0.0293
5 6 6 5.3509 0.1125
5 6 7 -0.5989 0.0691
5 6 8 -4.2380 -0.0925
5 6 9 -2.0981 -0.0652
5 6 10 -3.2331 0.0201
5 6 11 1.5728 0.0384
5 6 12 3.9485 -0.0022
5 6 13 -0.1522 -0.0159
5 6 14 0.5602 0.0143
5 6 15 -1.1109 -0.0090
5 6 16 0.0393 -0.0254
5 6 17 0.8450 -0.0114
5 6 18 2.6655 0.0392
5 6 19 0.3059 0.0769
5 7 0 -8.9448 -0.2000
5 7 1 -8.1790 -0.0594
5 7 2 -0.4239 0.0467
5 7 3 3.8320 0.0436
5 7 4 0.0656 0.0158
5 7 5 8.2581 -0.0465
5 7 6 -1.3831 -0.0390
5 7 7 -2.1538 0.1018
5 7 8 0.0363 0.0638
5 7 9 -3.2531 -0.0607
5 7 10 -0.8465 -0.0530
5 7 11 -1.9037 0.0190
5 7 12 -0.9018 0.0211
5 7 13 2.7241 -0.0077
5 7 14 0.6640 0.0063
5 7 15 -1.0075 0.0161
5 7 16 -1.6157 -0.0104
5 7 17 2.3297 -0.0228
5 7 18 2.4479 -0.0237
5 8 0 -8.9280 0.2834
5 8 1 -2.7160 -0.0858
5 8 2 3.6759 -0.0362
5 8 3 3.0909 0.1105
5 8 4 7.5469 0.0871
5 8 5 0.3341 -0.0052
5 8 6 4.9314 -0.0996
5 8 7 2.9729 -0.0702
5 8 8 0.4400 0.0669
5 8 9 4.0654 0.0643
5 8 10 -0.4757 -0.0091
5 8 11 0.0100 -0.0164
5 8 12 -1.2203 -0.0056
5 8 13 -2.4185 -0.0225
5 8 14 1.4808 -0.0273
5 8 15 1.4745 -0.0078
5 8 16 -0.8413 0.0201
5 8 17 -3.2975 -0.0113
5 9 0 0.7761 0.5337
5 9 1 -1.2056 0.2712
5 9 2 5.0349 -0.1312
5 9 3 5.7161 -0.1299
5 9 4 0.0623 0.0516
5 9 5 4.0437 0.0534
5 9 6 -0.3926 0.0156
5 9 7 -0.4606 -0.0436
5 9 8 1.4216 -0.0366
5 9 9 0.2484 0.0406
5 9 10 4.5634 0.0193
5 9 11 1.7995 -0.0029
5 9 12 1.0707 0.0125
5 9 13 0.8404 0.0071
5 9 14 -0.6716 -0.0009
5 9 15 0.2935 -0.0030
5 9 16 0.0626 -0.0020
5 9 17 -0.5424 0.0069
5 10 0 0.1837 -0.1179
5 10 1 1.5360 0.2962
5 10 2 0.6011 0.1551
5 10 3 2.8576 -0.1448
5 10 4 2.9841 -0.1318
5 10 5 -1.0223 0.0245
5 10 6 0.2064 0.0291
5 10 7 0.1824 0.0311
5 10 8 -1.1269 0.0035
5 10 9 -1.5801 -0.0131
5 10 10 -3.1329 0.0204
5 10 11 0.7006 -0.0318
5 10 12 0.2178 -0.0258
5 10 13 -0.0395 0.0328
5 10 14 0.8887 -0.0066
5 10 15 0.7033 0.0060
5 10 16 2.2174 0.0656
5 11 0 1.5185 -0.4794
5 11 1 -0.4174 -0.2384
5 11 2 2.4353 0.1513
5 11 3 -0.7381 0.1066
5 11 4 -0.8356 -0.0832
5 11 5 0.6759 -0.0475
5 11 6 1.1073 0.0037
5 11 7 1.7333 -0.0215
5 11 8 0.3857 0.0069
5 11 9 1.3261 0.0154
5 11 10 1.5920 0.0293
5 11 11 -1.8546 0.0289
5 11 12 0.3622 -0.0452
5 11 13 1.9506 -0.0251
5 11 14 1.3875 0.0410
5 11 15 1.9509 -0.0224
5 12 0 0.5294 -0.0914
5 12 1 3.8218 -0.2994
5 12 2 -0.1945 -0.1580
5 12 3 1.9637 0.1020
5 12 4 -0.2028 0.0655
5 12 5 -4.5921 -0.0328
5 12 6 -3.6197 0.0269
5 12 7 -0.4750 0.0034
5 12 8 1.2982 -0.0504
5 12 9 0.5394 -0.0262
5 12 10 2.6912 0.0234
5 12 11 2.9579 0.0543
5 12 12 0.3601 0.0270
5 12 13 0.9635 -0.0193
5 12 14 2.2225 -0.0633
5 13 0 3.5325 0.1500
5 13 1 0.4989 0.0506
5 13 2 2.0132 -0.0910
5 13 3 -2.4168 -0.0240
5 13 4 0.1668 0.0576
5 13 5 1.6882 0.0023
5 13 6 -2.9045 -0.0420
5 13 7 0.3941 0.0544
5 13 8 -1.8053 0.0324
5 13 9 -3.4389 -0.0464
5 13 10 0.0378 -0.0001
5 13 11 0.3408 -0.0039
5 13 12 -0.9621 -0.0335
5 14 0 1.9416 0.1572
5 14 1 2.1312 0.1119
5 14 2 0.0718 0.0600
5 14 3 -1.6704 0.0246
5 14 4 -2.1199 0.0131
5 14 5 -2.0056 0.0130
5 14 6 -0.6621 -0.0518
5 14 7 -1.3493 -0.0546
5 14 8 1.9016 0.0898
5 14 9 -1.3780 0.0274
5 14 10 -2.1326 -0.0644
5 14 11 1.7226 0.0190
5 15 0 2.2972 0.1532
5 15 1 0.6714 0.0965
5 15 2 0.9327 -0.0300
5 15 3 -2.0924 -0.0219
5 15 4 -4.0304 0.0232
5 15 5 -0.9264 0.0229
5 15 6 -3.8844 -0.0034
5 15 7 0.0594 -0.0785
5 15 8 2.3964 -0.0333
5 15 9 0.5077 0.0532
5 15 10 -1.0572 0.0047
5 16 0 1.4180 -0.0910
5 16 1 -0.6845 0.0913
5 16 2 0.1181 0.0648
5 16 3 0.4953 -0.0614
5 16 4 -1.2555 -0.0977
5 16 5 0.2906 0.0235
5 16 6 2.9185 0.0414
5 16 7 -0.6019 -0.0568
5 16 8 1.2640 -0.0372
5 17 0 2.0399 -0.2884
5 17 1 1.4266 -0.1263
5 17 2 1.5339 0.0754
5 17 3 1.7930 0.1277
5 17 4 0.6577 -0.0597
5 17 5 -1.1309 -0.1390
5 17 6 -0.9660 0.0553
5 18 0 0.7271 -0.0216
5 18 1 0.0782 -0.1068
5 18 2 -1.0810 -0.0611
5 18 3 1.8439 0.0594
5 18 4 1.3616 0.1211
5 19 0 -3.0650 0.2160
5 19 1 -1.1730 0.0335
6 -21 0 1.6407 -0.0857
6 -21 1 0.6628 0.0302
6 -21 2 -1.0984 -0.0219
6 -21 3 -0.2482 0.0268
6 -21 4 0.1956 -0.0223
6 -21 5 -4.0231 -0.0173
6 -21 6 -2.8800 -0.0190
6 -21 7 -1.6688 -0.0143
6 -21 8 -2.0567 -0.0157
6 -21 9 -1.2530 -0.0326
6 -20 0 -2.2348 -0.1530
6 -20 1 -1.1285 -0.1034
6 -20 2 -1.1489 0.0257
6 -20 3 -1.5371 -0.0065
6 -20 4 -2.4783 0.0117
6 -20 5 0.4846 0.0025
6 -20 6 0.6493 -0.0018
6 -20 7 0.6419 0.0408
6 -20 8 1.5890 -0.0015
6 -20 9 1.9552 -0.0039
6 -20 10 0.1286 -0.0294
6 -20 11 3.3262 -0.0002
6 -20 12 1.8917 0.0117
6 -20 13 0.3387 0.0378
6 -19 0 -2.0623 0.1539
6 -19 1 -1.0322 -0.0315
6 -19 2 -2.1446 -0.0261
6 -19 3 -2.3724 0.0258
6 -19 4 1.1201 0.0077
6 -19 5 -2.6023 -0.0063
6 -19 6 -1.1594 -0.0063
6 -19 7 1.2291 -0.0286
6 -19 8 0.2362 0.0355
6 -19 9 1.0399 -0.0224
6 -19 10 0.8483 -0.0209
6 -19 11 -2.6551 -0.0084
6 -19 12 2.3820 0.0033
6 -19 13 -0.1263 -0.0100
6 -19 14 -0.0826 0.0410
6 -19 15 0.6166 0.0378
6 -18 0 0.6727 0.2839
6 -18 1 -0.1282 0.1529
6 -18 2 -0.0603 -0.0217
6 -18 3 1.9169 0.0029
6 -18 4 -0.6693 0.0034
6 -18 5 -0.6281 0.0210
6 -18 6 -2.1131 -0.0031
6 -18 7 -1.9749 0.0125
6 -18 8 -0.5463 -0.0041
6 -18 9 -0.1062 0.0369
6 -18 10 -1.8902 0.0021
6 -18 11 0.3934 -0.0107
6 -18 12 -0.7322 -0.0127
6 -18 13 0.6542 0.0152
6 -18 14 -2.1490 -0.0012
6 -18 15 -1.3577 0.0327
6 -18 16 -1.3068 0.0383
6 -17 0 5.5339 0.0102
6 -17 1 5.0959 0.1452
6 -17 2 2.7242 0.0675
6 -17 3 0.2883 -0.0534
6 -17 4 2.6523 -0.0185
6 -17 5 -1.2501 -0.0169
6 -17 6 -0.6462 0.0048
6 -17 7 -0.8738 0.0009
6 -17 8 -1.4101 0.0164
6 -17 9 3.3266 -0.0073
6 -17 10 3.7215 0.0036
6 -17 11 -1.8559 0.0014
6 -17 12 0.6417 0.0071
6 -17 13 -1.0033 -0.0007
6 -17 14 -1.7481 0.0154
6 -17 15 0.0667 -0.0156
6 -17 16 -0.6628 -0.0091
6 -17 17 -1.2788 0.0101
6 -16 0 -0.9005 -0.2668
6 -16 1 3.9424 -0.1016
6 -16 2 1.7076 0.0578
6 -16 3 1.3331 0.0225
6 -16 4 -1.8176 -0.0473
6 -16 5 -0.1699 0.0105
6 -16 6 -1.3696 -0.0143
6 -16 7 0.2076 -0.0356
6 -16 8 0.5744 0.0029
6 -16 9 -1.7652 0.0133
6 -16 10 -2.5242 0.0098
6 -16 11 -1.8827 0.0177
6 -16 12 0.7297 0.0012
6 -16 13 1.7249 -0.0037
6 -16 14 -0.5140 0.0084
6 -16 15 -1.3666 0.0201
6 -16 16 1.9252 -0.0078
6 -16 17 -0.3567 -0.0006
6 -16 18 -0.9376 0.0025
6 -15 0 4.2983 -0.1558
6 -15 1 0.5009 -0.2122
6 -15 2 -1.0183 -0.0790
6 -15 3 -2.2684 0.0675
6 -15 4 0.2533 0.0082
6 -15 5 -2.1981 -0.0114
6 -15 6 1.6860 0.0309
6 -15 7 -0.7716 -0.0058
6 -15 8 -3.9200 -0.0367
6 -15 9 0.8527 0.0105
6 -15 10 1.4560 -0.0011
6 -15 11 -1.5936 -0.0050
6 -15 12 -3.1556 0.0092
6 -15 13 2.9729 -0.0089
6 -15 14 2.4718 -0.0159
6 -15 15 1.1815 0.0154
6 -15 16 -1.6294 0.0073
6 -15 17 -0.7725 -0.0161
6 -15 18 -2.7181 0.0280
6 -15 19 -0.9200 0.0303
6 -14 0 0.4917 0.0316
6 -14 1 3.9767 -0.0332
6 -14 2 -0.3996 -0.0790
6 -14 3 -1.0126 -0.0031
6 -14 4 -4.8724 0.0549
6 -14 5 -3.8115 -0.0161
6 -14 6 -4.0528 0.0119
6 -14 7 -1.1230 0.0476
6 -14 8 0.8980 0.0011
6 -14 9 -0.4237 -0.0313
6 -14 10 2.3662 0.0126
6 -14 11 0.7809 -0.0018
6 -14 12 1.3313 0.0070
6 -14 13 -0.9251 0.0196
6 -14 14 1.8508 -0.0034
6 -14 15 1.2274 -0.0069
6 -14 16 3.0711 0.0218
6 -14 17 1.1611 0.0044
6 -14 18 1.1746 -0.0194
6 -14 19 -0.0697 0.0212
6 -14 20 0.2109 0.0092
6 -13 0 1.3273 0.2013
6 -13 1 -0.5478 0.0725
6 -13 2 -1.2651 0.0291
6 -13 3 -4.0672 0.0113
6 -13 4 -0.5499 0.0247
6 -13 5 -2.1526 0.0105
6 -13 6 -0.2745 -0.0615
6 -13 7 0.0381 -0.0146
6 -13 8 -3.3095 0.0417
6 -13 9 -2.5642 0.0088
6 -13 10 -1.2025 -0.0174
6 -13 11 1.9712 0.0059
6 -13 12 -3.0131 -0.0019
6 -13 13 0.2796 -0.0031
6 -13 14 -0.1511 0.0086
6 -13 15 -1.3337 0.0040
6 -13 16 0.2591 -0.0025
6 -13 17 0.1448 0.0036
6 -13 18 -2.7524 -0.0004
6 -13 19 -1.4979 -0.0033
6 -13 20 0.5921 -0.0236
6 -13 21 1.7371 -0.0468
6 -12 0 -0.7841 0.3432
6 -12 1 -3.3097 0.1634
6 -12 2 -3.3295 -0.0210
6 -12 3 2.9692 -0.0134
6 -12 4 1.4701 0.0135
6 -12 5 1.8536 0.0230
6 -12 6 -0.4342 -0.0088
6 -12 7 -3.1518 -0.0530
6 -12 8 1.1961 -0.0204
6 -12 9 -0.8703 0.0319
6 -12 10 -0.9274 -0.0029
6 -12 11 0.4982 -0.0206
6 -12 12 -0.0696 -0.0001
6 -12 13 -2.8460 -0.0045
6 -12 14 1.1624 -0.0171
6 -12 15 -0.7839 -0.0004
6 -12 16 -3.2126 0.0035
6 -12 17 0.8892 -0.0070
6 -12 18 0.6457 -0.0116
6 -12 19 -0.2052 0.0047
6 -12 20 -1.9306 0.0301
6 -12 21 0.0221 0.0001
6 -11 0 -1.2216 -0.0703
6 -11 1 3.1173 0.1666
6 -11 2 2.4987 0.0230
6 -11 3 0.1690 -0.1185
6 -11 4 1.7023 -0.0425
6 -11 5 0.2818 0.0145
6 -11 6 0.2252 0.0557
6 -11 7 -2.3936 0.0263
6 -11 8 -5.4656 -0.0263
6 -11 9 -0.5050 -0.0085
6 -11 10 -1.2178 0.0271
6 -11 11 2.2159 -0.0225
6 -11 12 2.6380 -0.0082
6 -11 13 -1.6815 0.0165
6 -11 14 -0.1824 0.0062
6 -11 15 1.4292 -0.0059
6 -11 16 2.4424 0.0154
6 -11 17 0.4584 -0.0012
6 -11 18 0.9523 -0.0257
6 -11 19 0.1575 0.0043
6 -11 20 1.5749 -0.0089
6 -11 21 -0.2077 -0.0141
6 -10 0 -2.9789 -0.5752
6 -10 1 -2.3327 -0.1662
6 -10 2 -0.0147 0.1328
6 -10 3 5.6161 0.0194
6 -10 4 3.7905 -0.0827
6 -10 5 -2.1478 -0.0110
6 -10 6 -3.0562 0.0023
6 -10 7 -2.2348 0.0237
6 -10 8 -1.2015 0.0109
6 -10 9 -4.2196 -0.0171
6 -10 10 -3.0905 0.0023
6 -10 11 -0.7191 0.0395
6 -10 12 0.2620 -0.0167
6 -10 13 0.5873 -0.0155
6 -10 14 -1.3884 0.0157
6 -10 15 -0.3844 -0.0062
6 -10 16 -3.0434 -0.0076
6 -10 17 -1.7625 0.0379
6 -10 18 -2.9226 -0.0066
6 -10 19 -1.5762 -0.0242
6 -10 20 -2.5352 0.0235
6 -10 21 0.8674 -0.0229
6 -10 22 1.5797 -0.0422
6 -9 0 -9.8552 -0.1846
6 -9 1 0.3592 -0.4070
6 -9 2 3.0718 -0.0839
6 -9 3 1.6682 0.1773
6 -9 4 3.1096 0.0587
6 -9 5 -0.7140 -0.0341
6 -9 6 -4.1830 0.0086
6 -9 7 -1.7633 -0.0166
6 -9 8 1.2837 -0.0226
6 -9 9 5.8033 -0.0006
6 -9 10 0.0043 -0.0053
6 -9 11 -3.2754 0.0160
6 -9 12 0.9200 0.0367
6 -9 13 -3.1469 -0.0256
6 -9 14 -2.2171 -0.0170
6 -9 15 -1.7784 0.0098
6 -9 16 0.8078 -0.0142
6 -9 17 0.6298 -0.0014
6 -9 18 -0.5482 0.0229
6 -9 19 -3.1972 -0.0150
6 -9 20 -1.4952 -0.0063
6 -9 21 -2.8623 0.0263
6 -9 22 1.3097 0.0047
6 -8 0 -0.0223 0.3898
6 -8 1 2.9461 0.0513
6 -8 2 4.2940 -0.2060
6 -8 3 1.4285 -0.0271
6 -8 4 -0.6713 0.1044
6 -8 5 0.6433 -0.0106
6 -8 6 0.3135 -0.0062
6 -8 7 -1.1716 0.0343
6 -8 8 2.2714 -0.0128
6 -8 9 3.3069 -0.0213
6 -8 10 3.1231 -0.0223
6 -8 11 -0.7436 -0.0231
6 -8 12 -4.6354 0.0238
6 -8 13 2.5806 0.0144
6 -8 14 2.0553 -0.0165
6 -8 15 0.6316 0.0066
6 -8 16 -0.5358 0.0041
6 -8 17 1.4333 -0.0113
6 -8 18 0.9264 -0.0034
6 -8 19 -0.2542 0.0110
6 -8 20 -3.8292 -0.0201
6 -8 21 -1.3928 -0.0061
6 -8 22 -2.5941 0.0321
6 -7 0 -2.9634 0.2699
6 -7 1 6.9296 0.3733
6 -7 2 10.4633 0.1116
6 -7 3 5.6266 -0.0977
6 -7 4 -0.0813 -0.0000
6 -7 5 -0.7513 0.0166
6 -7 6 2.2166 -0.0733
6 -7 7 4.4087 0.0097
6 -7 8 0.8443 0.0556
6 -7 9 -0.5045 0.0085
6 -7 10 -2.8476 -0.0052
6 -7 11 -3.2974 -0.0096
6 -7 12 0.3773 -0.0216
6 -7 13 -3.5772 0.0123
6 -7 14 1.1410 0.0054
6 -7 15 3.3145 -0.0108
6 -7 16 0.0678 0.0144
6 -7 17 -0.5938 0.0100
6 -7 18 3.6055 -0.0069
6 -7 19 1.0270 0.0056
6 -7 20 2.0541 0.0126
6 -7 21 -1.2154 -0.0294
6 -7 22 0.6092 -0.0009
6 -6 0 0.0431 0.0401
6 -6 1 2.1598 0.0539
6 -6 2 5.4306 0.1223
6 -6 3 9.0505 0.0249
6 -6 4 4.0448 -0.0417
6 -6 5 2.8268 0.0333
6 -6 6 7.3421 -0.0103
6 -6 7 3.3259 -0.0888
6 -6 8 2.0922 0.0087
6 -6 9 1.1109 0.0659
6 -6 10 0.3967 0.0122
6 -6 11 -2.5606 -0.0033
6 -6 12 -5.3644 0.0064
6 -6 13 0.6728 -0.0179
6 -6 14 -1.5617 -0.0013
6 -6 15 -0.2926 0.0013
6 -6 16 0.4616 -0.0058
6 -6 17 0.0981 0.0085
6 -6 18 0.5585 0.0046
6 -6 19 3.8302 0.0065
6 -6 20 1.6551 0.0145
6 -6 21 3.4538 -0.0022
6 -6 22 -1.7769 -0.0367
6 -5 0 2.9972 -0.1413
6 -5 1 -0.1196 -0.0589
6 -5 2 -2.9871 -0.0922
6 -5 3 -2.8659 -0.0713
6 -5 4 2.8623 -0.0469
6 -5 5 4.4087 0.0078
6 -5 6 3.1614 0.0963
6 -5 7 8.3379 0.0073
6 -5 8 1.3401 -0.0780
6 -5 9 -2.9022 -0.0048
6 -5 10 -3.5075 0.0283
6 -5 11 0.0882 -0.0066
6 -5 12 6.0432 -0.0003
6 -5 13 1.0078 0.0170
6 -5 14 0.7062 -0.0010
6 -5 15 0.4819 -0.0050
6 -5 16 -1.1568 0.0059
6 -5 17 -1.5264 0.0054
6 -5 18 3.1599 -0.0034
6 -5 19 0.0738 0.0037
6 -5 20 1.6471 0.0066
6 -5 21 2.4649 0.0154
6 -5 22 2.4763 -0.0053
6 -4 0 13.5268 -0.5121
6 -4 1 4.0186 -0.1167
6 -4 2 -6.9271 0.0503
6 -4 3 -2.0087 -0.0123
6 -4 4 -0.6727 -0.0533
6 -4 5 -2.4925 -0.0333
6 -4 6 6.3720 0.0215
6 -4 7 1.2750 0.0882
6 -4 8 -1.3846 -0.0032
6 -4 9 -3.8061 -0.0617
6 -4 10 -0.1620 0.0024
6 -4 11 0.0134 0.0111
6 -4 12 -0.2583 -0.0323
6 -4 13 4.5734 0.0001
6 -4 14 0.5052 0.0256
6 -4 15 1.0675 -0.0032
6 -4 16 1.3225 0.0012
6 -4 17 -0.3007 0.0063
6 -4 18 1.0193 -0.0066
6 -4 19 2.4307 -0.0108
6 -4 20 -2.6644 0.0075
6 -4 21 -0.6369 0.0124
6 -4 22 -0.3237 0.0348
6 -3 0 2.7753 -0.2484
6 -3 1 5.9865 -0.3604
6 -3 2 0.8378 0.0293
6 -3 3 -4.2509 0.1975
6 -3 4 4.4741 0.0562
6 -3 5 3.6448 -0.0518
6 -3 6 -8.8637 -0.0521
6 -3 7 -0.2391 -0.0099
6 -3 8 -2.2541 0.0527
6 -3 9 -1.1252 -0.0086
6 -3 10 -3.4407 -0.0318
6 -3 11 0.5158 0.0429
6 -3 12 5.2844 0.0248
6 -3 13 1.8620 -0.0376
6 -3 14 0.0843 0.0032
6 -3 15 -1.7654 0.0168
6 -3 16 -0.3887 -0.0112
6 -3 17 -0.8456 0.0071
6 -3 18 -1.5796 0.0089
6 -3 19 -0.8517 0.0000
6 -3 20 -1.8907 -0.0245
6 -3 21 -2.6997 0.0087
6 -3 22 -1.7295 0.0015
6 -2 0 1.1773 0.6518
6 -2 1 2.3721 0.0223
6 -2 2 -3.1223 -0.2496
6 -2 3 0.0875 0.0197
6 -2 4 1.0426 0.1541
6 -2 5 -3.2566 0.0252
6 -2 6 0.6959 -0.0382
6 -2 7 -12.2082 -0.0305
6 -2 8 -7.1935 -0.0080
6 -2 9 -4.2023 0.0311
6 -2 10 3.5503 -0.0145
6 -2 11 4.4450 -0.0125
6 -2 12 2.8754 0.0492
6 -2 13 3.9263 0.0127
6 -2 14 2.0770 -0.0371
6 -2 15 -0.2295 0.0070
6 -2 16 -1.1628 0.0089
6 -2 17 -0.7650 -0.0275
6 -2 18 1.9790 -0.0031
6 -2 19 1.2085 0.0083
6 -2 20 1.0874 0.0149
6 -2 21 -0.1630 -0.0283
6 -2 22 -1.6505 0.0331
6 -1 0 -3.5317 0.3796
6 -1 1 -0.9280 0.5402
6 -1 2 7.9279 0.0420
6 -1 3 -0.1012 -0.2160
6 -1 4 1.0453 -0.0262
6 -1 5 2.4394 0.0521
6 -1 6 -11.3969 -0.0131
6 -1 7 -3.3120 0.0157
6 -1 8 -6.2324 0.0202
6 -1 9 2.1737 -0.0050
6 -1 10 1.6791 -0.0115
6 -1 11 2.3030 -0.0555
6 -1 12 3.1507 -0.0239
6 -1 13 -0.5845 0.0399
6 -1 14 -1.0430 -0.0017
6 -1 15 2.3174 -0.0249
6 -1 16 0.6774 0.0240
6 -1 17 0.9900 -0.0050
6 -1 18 -1.0028 -0.0498
6 -1 19 -0.1762 0.0064
6 -1 20 -0.0361 0.0012
6 -1 21 0.2664 0.0398
6 0 0 -4.1681 -0.3658
6 0 1 1.5057 0.0760
6 0 2 3.0976 0.2753
6 0 3 7.6931 -0.0294
6 0 4 -2.3785 -0.1457
6 0 5 -11.5473 0.0150
6 0 6 0.3859 0.0037
6 0 7 -6.8243 -0.0479
6 0 8 -2.8741 0.0203
6 0 9 -1.6984 0.0291
6 0 10 2.9992 0.0121
6 0 11 0.5625 -0.0079
6 0 12 1.8298 -0.0483
6 0 13 -0.9648 -0.0028
6 0 14 -1.8630 0.0319
6 0 15 0.9570 -0.0124
6 0 16 1.7573 -0.0024
6 0 17 -1.2850 0.0394
6 0 18 -1.1840 -0.0005
6 0 19 -3.6647 -0.0585
6 0 20 -1.8178 0.0278
6 0 21 0.2772 -0.0323
6 1 0 -2.0170 -0.3252
6 1 1 0.6388 -0.3954
6 1 2 5.1360 -0.0801
6 1 3 -3.8032 0.1068
6 1 4 -1.9994 -0.0092
6 1 5 -5.4664 -0.0246
6 1 6 -15.3562 0.0731
6 1 7 -0.0661 -0.0196
6 1 8 -2.0858 -0.0807
6 1 9 1.5495 0.0098
6 1 10 0.4348 0.0441
6 1 11 -0.3415 0.0307
6 1 12 0.5051 0.0076
6 1 13 1.4316 -0.0266
6 1 14 -3.5659 0.0003
6 1 15 -2.7195 0.0067
6 1 16 -0.5988 -0.0358
6 1 17 0.0641 0.0125
6 1 18 -0.7906 0.0469
6 1 19 -1.6874 0.0101
6 1 20 -3.0046 -0.0569
6 1 21 -1.9181 0.0567
6 2 0 7.6094 -0.1347
6 2 1 7.4303 -0.0922
6 2 2 1.1158 -0.1469
6 2 3 1.6915 -0.0218
6 2 4 -6.4316 0.0334
6 2 5 -8.1025 -0.0160
6 2 6 0.0502 0.0398
6 2 7 -4.1442 0.1056
6 2 8 1.8830 -0.0215
6 2 9 2.6039 -0.0845
6 2 10 5.0059 0.0015
6 2 11 -1.7100 0.0248
6 2 12 -3.1523 0.0046
6 2 13 -0.6720 0.0113
6 2 14 -0.2634 0.0025
6 2 15 -1.1208 0.0121
6 2 16 -0.7577 0.0037
6 2 17 -1.0450 -0.0554
6 2 18 -0.0631 0.0145
6 2 19 -0.5356 0.0187
6 2 20 -1.7758 0.0081
6 3 0 5.6646 -0.0525
6 3 1 0.7416 -0.0190
6 3 2 -3.7773 0.0816
6 3 3 -13.2452 0.0577
6 3 4 -7.9850 0.0426
6 3 5 -3.3751 -0.0452
6 3 6 -4.3565 -0.0896
6 3 7 5.2066 0.0342
6 3 8 1.6439 0.1070
6 3 9 -0.2763 -0.0117
6 3 10 0.0900 -0.0631
6 3 11 1.8283 -0.0038
6 3 12 -1.0370 -0.0045
6 3 13 0.5997 -0.0252
6 3 14 3.6024 0.0060
6 3 15 2.5721 0.0310
6 3 16 1.3330 0.0108
6 3 17 0.4929 -0.0057
6 3 18 -2.6609 -0.0642
6 3 19 -0.4092 -0.0078
6 3 20 1.8071 -0.0198
6 4 0 -6.2393 0.4295
6 4 1 -9.1791 0.0083
6 4 2 -16.0253 -0.0616
6 4 3 -11.8398 0.0612
6 4 4 -10.0168 0.1095
6 4 5 -5.4575 0.0372
6 4 6 4.6992 -0.0669
6 4 7 2.8936 -0.1015
6 4 8 3.9408 0.0131
6 4 9 0.6221 0.0869
6 4 10 -1.4942 -0.0071
6 4 11 1.5003 -0.0221
6 4 12 2.2858 0.0239
6 4 13 0.6820 -0.0098
6 4 14 1.7235 -0.0281
6 4 15 -0.4519 -0.0041
6 4 16 -1.7336 0.0434
6 4 17 -1.0040 0.0119
6 4 18 -0.5090 -0.0127
6 4 19 -2.0291 -0.0528
6 5 0 -4.2743 0.4021
6 5 1 -8.0399 0.3551
6 5 2 -6.1673 -0.0621
6 5 3 -7.9692 -0.1744
6 5 4 -1.1766 -0.0245
6 5 5 6.4993 0.0843
6 5 6 1.1340 0.0415
6 5 7 4.6001 -0.0252
6 5 8 4.8828 -0.0652
6 5 9 2.2056 0.0001
6 5 10 1.1546 0.0337
6 5 11 -0.1878 -0.0278
6 5 12 0.4435 0.0128
6 5 13 -1.1542 0.0510
6 5 14 -1.2141 -0.0030
6 5 15 -0.0717 -0.0275
6 5 16 -3.1007 -0.0180
6 5 17 0.9824 0.0371
6 5 18 -0.0960 0.0021
6 6 0 2.3751 -0.4308
6 6 1 -1.8542 0.1261
6 6 2 -3.8264 0.2134
6 6 3 -0.7352 -0.0866
6 6 4 1.3273 -0.1539
6 6 5 0.0008 -0.0327
6 6 6 6.4986 0.0551
6 6 7 -1.0168 0.0456
6 6 8 -1.2671 0.0104
6 6 9 3.8156 -0.0162
6 6 10 -1.3008 -0.0005
6 6 11 1.1036 0.0003
6 6 12 1.8156 -0.0443
6 6 13 -0.3408 0.0073
6 6 14 2.5534 0.0622
6 6 15 1.4504 -0.0095
6 6 16 -0.1043 -0.0313
6 6 17 -2.1825 0.0146
6 6 18 1.6741 0.0337
6 7 0 -0.4877 -0.4533
6 7 1 -3.3212 -0.4084
6 7 2 -0.4814 0.0406
6 7 3 0.2805 0.1709
6 7 4 -1.1366 -0.0061
6 7 5 3.6732 -0.0509
6 7 6 -2.7438 0.0152
6 7 7 -2.1816 0.0048
6 7 8 -5.2849 -0.0153
6 7 9 -5.7739 0.0247
6 7 10 1.8777 0.0247
6 7 11 0.7839 0.0111
6 7 12 3.5346 -0.0004
6 7 13 2.6654 -0.0586
6 7 14 -0.0008 0.0086
6 7 15 3.8208 0.0631
6 7 16 0.2576 -0.0136
6 7 17 0.2756 0.0157
6 8 0 -4.9039 0.1601
6 8 1 -4.5718 -0.1644
6 8 2 -0.1658 -0.2157
6 8 3 4.2743 0.0456
6 8 4 4.1519 0.0993
6 8 5 -1.4570 -0.0076
6 8 6 2.6209 -0.0122
6 8 7 -1.7334 0.0422
6 8 8 -2.4190 -0.0263
6 8 9 -0.9997 -0.0548
6 8 10 -3.9214 0.0168
6 8 11 1.6099 0.0367
6 8 12 2.7281 0.0139
6 8 13 1.0822 -0.0190
6 8 14 -0.0747 -0.0593
6 8 15 -0.0515 -0.0003
6 8 16 2.9059 0.0086
6 9 0 -0.9961 0.2300
6 9 1 -2.4688 0.2334
6 9 2 -1.3248 -0.0000
6 9 3 2.8533 -0.0782
6 9 4 1.9746 0.0312
6 9 5 0.2062 -0.0113
6 9 6 -1.9651 -0.0509
6 9 7 1.9790 0.0259
6 9 8 0.5020 0.0809
6 9 9 0.7587 -0.0095
6 9 10 1.7060 -0.0613
6 9 11 -1.4435 -0.0047
6 9 12 3.4287 0.0265
6 9 13 3.2784 0.0179
6 9 14 0.0404 0.0141
6 9 15 -0.9961 -0.0110
6 10 0 1.4887 0.1449
6 10 1 2.7489 0.1058
6 10 2 -0.1662 0.1021
6 10 3 1.5347 0.0092
6 10 4 2.2955 0.0011
6 10 5 0.5252 0.0313
6 10 6 -1.0340 -0.0604
6 10 7 -2.7067 -0.0834
6 10 8 -0.4859 0.0237
6 10 9 -1.0830 0.0769
6 10 10 0.5182 -0.0003
6 10 11 1.2419 -0.0456
6 10 12 -2.3066 -0.0017
6 10 13 2.2995 0.0066
6 10 14 2.0568 -0.0070
6 11 0 -2.3582 0.1118
6 11 1 0.2177 0.0544
6 11 2 1.4611 -0.0360
6 11 3 -2.1787 -0.0414
6 11 4 1.0536 -0.0171
6 11 5 1.8247 0.0574
6 11 6 1.0320 0.0412
6 11 7 2.4115 -0.0624
6 11 8 -1.6309 -0.0719
6 11 9 -1.7606 0.0205
6 11 10 -0.8142 0.0653
6 11 11 -1.0999 0.0328
6 11 12 0.8571 -0.0146
6 11 13 -1.0940 0.0064
6 12 0 -2.0427 -0.2395
6 12 1 1.2085 0.0505
6 12 2 0.8381 0.0484
6 12 3 1.0424 -0.0522
6 12 4 -2.8517 -0.0864
6 12 5 -0.8536 -0.0380
6 12 6 -1.1298 0.0926
6 12 7 -1.0191 0.0513
6 12 8 3.9351 -0.0429
6 12 9 -0.0371 -0.0422
6 12 10 0.0344 -0.0025
6 12 11 2.7840 0.0116
6 12 12 -1.1238 0.0346
6 13 0 0.7475 -0.3135
6 13 1 -0.6367 -0.1985
6 13 2 2.9655 0.0669
6 13 3 0.5174 0.0963
6 13 4 -0.1639 0.0041
6 13 5 -0.2974 -0.0892
6 13 6 -1.7092 -0.0566
6 13 7 -0.0928 0.0710
6 13 8 1.7824 0.0222
6 13 9 2.3223 -0.0255
6 13 10 -0.4669 0.0177
6 13 11 -0.1983 0.0171
6 14 0 0.9018 0.1400
6 14 1 -1.1863 -0.1256
6 14 2 -2.3963 -0.0989
6 14 3 1.3357 0.0744
6 14 4 -1.3422 0.0965
6 14 5 1.0524 0.0090
6 14 6 1.2216 -0.0851
6 14 7 -3.6039 -0.0600
6 14 8 0.2963 0.0663
6 14 9 1.3779 0.0214
6 14 10 -0.1816 -0.0401
6 15 0 -0.0876 0.2712
6 15 1 1.3282 0.2077
6 15 2 0.3061 -0.0356
6 15 3 -0.3329 -0.0754
6 15 4 -0.6648 0.0209
6 15 5 -3.0400 0.0028
6 15 6 -1.5007 -0.0011
6 15 7 -0.9372 -0.0396
6 15 8 -1.8818 -0.0645
6 16 0 -0.1128 0.0249
6 16 1 -2.9224 0.1407
6 16 2 -2.2734 0.1206
6 16 3 1.1335 -0.0389
6 16 4 -1.0117 -0.0560
6 16 5 0.7454 -0.0311
6 16 6 1.7432 -0.0701
6 17 0 1.4107 -0.1290
6 17 1 1.7069 -0.0507
6 17 2 -2.6980 0.0186
6 17 3 -1.6731 0.0374
6 17 4 3.2944 -0.0261
6 18 0 1.8251 -0.0913
6 18 1 2.4557 -0.0299
6 18 2 1.8574 -0.0105
7 -21 3 -0.1984 0.0005
7 -21 4 -0.3732 -0.0569
7 -21 5 -3.9141 0.0044
7 -20 0 -0.3562 -0.1460
7 -20 1 1.7102 -0.0634
7 -20 2 1.7458 -0.0161
7 -20 3 -0.0949 -0.0294
7 -20 4 -2.5547 0.0064
7 -20 5 0.8356 -0.0066
7 -20 6 -1.9039 0.0366
7 -20 7 0.3018 -0.0001
7 -20 8 1.5364 0.0053
7 -20 9 1.7785 0.0586
7 -20 10 0.3824 -0.0121
7 -19 0 -0.7796 -0.0460
7 -19 1 -3.5907 -0.0648
7 -19 2 -0.5234 -0.0531
7 -19 3 0.7331 0.0065
7 -19 4 3.3972 -0.0230
7 -19 5 -1.4804 -0.0061
7 -19 6 1.7964 0.0109
7 -19 7 2.9655 0.0141
7 -19 8 1.8740 0.0040
7 -19 9 3.1839 -0.0150
7 -19 10 3.8222 0.0105
7 -19 11 -2.0690 -0.0100
7 -19 12 0.3574 0.0000
7 -19 13 0.6376 -0.0015
7 -18 0 -2.4065 0.1080
7 -18 1 -1.2842 0.0389
7 -18 2 -3.0257 -0.0035
7 -18 3 -0.0273 -0.0034
7 -18 4 0.2536 0.0086
7 -18 5 2.4547 -0.0265
7 -18 6 -2.4860 -0.0119
7 -18 7 0.2890 0.0048
7 -18 8 1.5902 -0.0029
7 -18 9 -0.8567 0.0090
7 -18 10 0.5177 -0.0024
7 -18 11 0.9076 0.0083
7 -18 12 -2.1651 -0.0055
7 -18 13 0.2578 0.0134
7 -18 14 -1.8859 0.0096
7 -18 15 -0.2132 0.0682
7 -17 0 4.9763 0.1565
7 -17 1 2.3078 0.1020
7 -17 2 1.8362 0.0207
7 -17 3 -1.6593 0.0101
7 -17 4 1.6933 0.0056
7 -17 5 0.6987 0.0099
7 -17 6 0.8916 -0.0072
7 -17 7 -1.5397 -0.0156
7 -17 8 -2.1539 0.0124
7 -17 9 1.2387 -0.0097
7 -17 10 2.2515 -0.0289
7 -17 11 -0.5792 -0.0084
7 -17 12 -1.5571 0.0077
7 -17 13 0.5756 -0.0250
7 -17 14 -0.6456 0.0056
7 -17 15 -2.7861 -0.0012
7 -17 16 -1.4758 0.0177
7 -16 0 0.5676 0.1271
7 -16 1 7.0290 0.0863
7 -16 2 3.0274 -0.0069
7 -16 3 1.2898 -0.0357
7 -16 4 -0.6364 -0.0071
7 -16 5 0.8207 0.0156
7 -16 6 -0.9975 0.0198
7 -16 7 1.9274 -0.0215
7 -16 8 1.8145 -0.0132
7 -16 9 -2.8314 0.0233
7 -16 10 -0.4070 -0.0052
7 -16 11 0.3078 -0.0081
7 -16 12 0.2608 0.0284
7 -16 13 -1.1257 0.0154
7 -16 14 2.1213 -0.0252
7 -16 15 -0.0922 0.0240
7 -16 16 -0.4456 0.0149
7 -16 17 -1.3648 -0.0192
7 -15 0 0.9119 -0.1918
7 -15 1 0.2802 0.0408
7 -15 2 0.5787 0.0260
7 -15 3 -3.8653 -0.0347
7 -15 4 -1.3884 -0.0529
7 -15 5 -0.6148 -0.0146
7 -15 6 2.7432 0.0271
7 -15 7 1.2889 0.0059
7 -15 8 -1.7321 -0.0225
7 -15 9 -0.4640 0.0071
7 -15 10 -0.6759 0.0249
7 -15 11 0.2860 -0.0086
7 -15 12 -3.0976 -0.0208
7 -15 13 2.2470 0.0128
7 -15 14 0.3884 0.0011
7 -15 15 1.6773 -0.0218
7 -15 16 -1.1960 0.0180
7 -15 17 -2.1913 0.0251
7 -15 18 -6.4771 0.0092
7 -14 0 -1.4790 -0.3579
7 -14 1 2.8538 -0.1885
7 -14 2 1.9120 0.0365
7 -14 3 -1.7881 0.0645
7 -14 4 -4.3693 -0.0040
7 -14 5 -0.5761 -0.0274
7 -14 6 -1.9130 0.0041
7 -14 7 0.0493 0.0126
7 -14 8 2.3145 -0.0103
7 -14 9 -1.4835 -0.0192
7 -14 10 -0.9813 -0.0001
7 -14 11 1.2029 0.0111
7 -14 12 3.3543 0.0050
7 -14 13 -3.7582 -0.0177
7 -14 14 1.8137 -0.0122
7 -14 15 -0.6493 -0.0005
7 -14 16 0.6818 0.0052
7 -14 17 1.2546 0.0102
7 -14 18 0.2935 0.0045
7 -14 19 -5.2514 0.0381
7 -13 0 2.1702 0.0414
7 -13 1 0.2436 -0.1924
7 -13 2 1.6884 -0.1041
7 -13 3 0.5184 0.0669
7 -13 4 -0.4133 0.0839
7 -13 5 -3.9509 0.0032
7 -13 6 1.2575 -0.0071
7 -13 7 1.9741 0.0067
7 -13 8 -1.2809 0.0011
7 -13 9 0.2509 -0.0147
7 -13 10 -2.0765 -0.0180
7 -13 11 0.5409 -0.0003
7 -13 12 1.3456 0.0123
7 -13 13 2.1864 0.0170
7 -13 14 -1.2987 0.0028
7 -13 15 1.3721 -0.0021
7 -13 16 -2.0994 -0.0077
7 -13 17 0.6383 -0.0007
7 -13 18 0.6284 0.0176
7 -13 19 0.2899 0.0011
7 -12 0 -3.7845 0.3615
7 -12 1 -5.4006 0.1824
7 -12 2 -4.8508 -0.0625
7 -12 3 -0.6527 -0.0435
7 -12 4 0.4257 0.0431
7 -12 5 0.9737 0.0197
7 -12 6 0.2986 -0.0260
7 -12 7 1.2477 0.0146
7 -12 8 2.7338 0.0173
7 -12 9 2.0773 0.0050
7 -12 10 -1.2761 0.0038
7 -12 11 -3.7210 -0.0263
7 -12 12 1.4969 -0.0130
7 -12 13 0.2911 0.0177
7 -12 14 1.3106 -0.0035
7 -12 15 -0.7164 0.0035
7 -12 16 -3.6970 0.0259
7 -12 17 -4.0088 -0.0081
7 -12 18 -0.9165 -0.0377
7 -12 19 -1.2582 0.0126
7 -12 20 0.1780 0.0441
7 -11 0 -1.3029 0.1308
7 -11 1 -1.6902 0.2341
7 -11 2 -4.5291 0.1326
7 -11 3 -2.6244 -0.0462
7 -11 4 2.9447 -0.0238
7 -11 5 -1.9401 0.0234
7 -11 6 -4.1194 -0.0353
7 -11 7 -2.1065 -0.0357
7 -11 8 -2.5842 0.0331
7 -11 9 1.8855 0.0117
7 -11 10 1.5711 -0.0009
7 -11 11 -0.2451 0.0105
7 -11 12 0.9451 -0.0140
7 -11 13 -0.7393 -0.0119
7 -11 14 -0.3483 0.0080
7 -11 15 3.6187 -0.0141
7 -11 16 1.9189 0.0030
7 -11 17 0.7472 0.0338
7 -11 18 0.5418 -0.0068
7 -11 19 -0.2667 -0.0425
7 -11 20 0.3931 0.0114
7 -10 0 -0.8892 -0.0646
7 -10 1 0.7206 -0.0510
7 -10 2 2.4099 0.0274
7 -10 3 -0.5467 0.0012
7 -10 4 0.8876 -0.0462
7 -10 5 1.3255 0.0184
7 -10 6 -3.5350 0.0244
7 -10 7 -5.2224 -0.0566
7 -10 8 -4.6644 -0.0426
7 -10 9 -1.9286 0.0171
7 -10 10 2.9987 0.0050
7 -10 11 -0.7113 0.0005
7 -10 12 0.5016 0.0119
7 -10 13 4.3789 -0.0031
7 -10 14 -0.6997 -0.0127
7 -10 15 -0.5291 -0.0113
7 -10 16 -0.7272 -0.0243
7 -10 17 -2.0370 0.0202
7 -10 18 0.5360 0.0300
7 -10 19 0.4072 -0.0136
7 -10 20 -1.3684 -0.0002
7 -9 0 -5.2469 -0.2265
7 -9 1 -1.6588 -0.0668
7 -9 2 2.6358 -0.0607
7 -9 3 1.3324 -0.0264
7 -9 4 0.5912 -0.0469
7 -9 5 0.9477 -0.0213
7 -9 6 -0.3701 0.0600
7 -9 7 -0.6079 0.0477
7 -9 8 -1.1891 -0.0384
7 -9 9 1.0514 -0.0125
7 -9 10 0.1189 0.0307
7 -9 11 -0.6196 -0.0028
7 -9 12 -1.3999 0.0082
7 -9 13 -2.6061 0.0130
7 -9 14 -0.4917 -0.0108
7 -9 15 -2.1006 0.0072
7 -9 16 -3.1483 -0.0007
7 -9 17 -1.8702 -0.0142
7 -9 18 -0.3308 0.0240
7 -9 19 -0.4484 -0.0058
7 -9 20 0.6904 -0.0037
7 -9 21 -0.3031 0.0394
7 -8 0 -1.7259 -0.3977
7 -8 1 -0.7107 -0.1363
7 -8 2 2.2629 0.0633
7 -8 3 1.2253 0.0317
7 -8 4 -3.2616 -0.0034
7 -8 5 -3.5735 -0.0485
7 -8 6 -1.6351 -0.0097
7 -8 7 0.3887 0.0660
7 -8 8 0.6051 0.0335
7 -8 9 -1.0810 -0.0341
7 -8 10 4.1648 -0.0033
7 -8 11 -0.3336 0.0108
7 -8 12 -4.7443 -0.0203
7 -8 13 -1.2377 -0.0092
7 -8 14 -0.0164 0.0068
7 -8 15 3.5919 0.0073
7 -8 16 2.9509 0.0171
7 -8 17 -2.1835 0.0193
7 -8 18 -0.7202 -0.0005
7 -8 19 3.6273 -0.0049
7 -8 20 -1.9982 -0.0359
7 -8 21 -1.8115 -0.0061
7 -7 0 4.4966 0.1081
7 -7 1 6.8362 -0.2293
7 -7 2 4.4454 -0.0528
7 -7 3 -0.1136 0.1324
7 -7 4 -2.1479 0.0890
7 -7 5 -5.3329 -0.0088
7 -7 6 -2.8491 -0.0558
7 -7 7 2.8796 -0.0093
7 -7 8 2.8969 0.0306
7 -7 9 -0.2054 0.0007
7 -7 10 -6.0017 -0.0268
7 -7 11 0.4631 -0.0046
7 -7 12 2.3065 0.0133
7 -7 13 -0.1498 -0.0084
7 -7 14 1.3041 -0.0140
7 -7 15 1.1087 0.0070
7 -7 16 2.5876 -0.0015
7 -7 17 1.2864 0.0007
7 -7 18 -1.8223 0.0330
7 -7 19 -3.0653 0.0075
7 -7 20 2.8757 -0.0009
7 -7 21 0.0152 -0.0307
7 -6 0 2.2602 0.6135
7 -6 1 9.2324 0.2394
7 -6 2 9.2811 -0.1433
7 -6 3 6.7572 -0.0613
7 -6 4 -1.3547 0.0921
7 -6 5 -2.0843 0.0614
7 -6 6 0.0747 -0.0256
7 -6 7 0.2488 -0.0316
7 -6 8 3.9180 -0.0067
7 -6 9 0.8954 0.0168
7 -6 10 -0.7000 -0.0044
7 -6 11 -5.7114 -0.0252
7 -6 12 -3.2152 0.0157
7 -6 13 1.4018 0.0234
7 -6 14 0.7175 -0.0150
7 -6 15 1.0979 -0.0028
7 -6 16 1.9512 0.0074
7 -6 17 0.9739 -0.0255
7 -6 18 -0.5612 -0.0231
7 -6 19 3.4517 0.0330
7 -6 20 -1.8839 0.0239
7 -6 21 0.9894 0.0042
7 -5 0 4.8476 0.0644
7 -5 1 6.6064 0.4056
7 -5 2 4.7883 0.1498
7 -5 3 2.0991 -0.1622
7 -5 4 6.9008 -0.0815
7 -5 5 0.6346 0.0221
7 -5 6 -3.2096 0.0024
7 -5 7 2.4277 -0.0190
7 -5 8 1.5161 0.0052
7 -5 9 1.4106 0.0062
7 -5 10 -4.4288 0.0092
7 -5 11 -1.6857 -0.0189
7 -5 12 -0.3458 -0.0294
7 -5 13 0.3813 0.0207
7 -5 14 2.9403 0.0257
7 -5 15 1.4982 -0.0173
7 -5 16 1.2960 0.0149
7 -5 17 0.7212 0.0338
7 -5 18 2.1185 -0.0323
7 -5 19 -0.9906 -0.0390
7 -5 20 1.8453 0.0178
7 -5 21 -0.1864 0.0105
7 -4 0 2.8343 -0.4641
7 -4 1 3.3369 -0.1892
7 -4 2 1.1111 0.1665
7 -4 3 0.1914 0.0650
7 -4 4 -0.2414 -0.0988
7 -4 5 6.9531 -0.0097
7 -4 6 8.5177 0.0189
7 -4 7 0.2695 -0.0266
7 -4 8 -0.9195 -0.0163
7 -4 9 -2.1593 0.0319
7 -4 10 2.6714 0.0219
7 -4 11 -1.4881 0.0034
7 -4 12 0.5134 -0.0231
7 -4 13 3.5596 -0.0276
7 -4 14 -0.7791 0.0123
7 -4 15 1.1612 -0.0001
7 -4 16 3.6103 -0.0255
7 -4 17 0.4275 0.0367
7 -4 18 -3.1736 0.0370
7 -4 19 1.4380 -0.0431
7 -4 20 -2.0878 -0.0217
7 -4 21 -2.0915 0.0101
7 -3 0 -2.7258 -0.2258
7 -3 1 -1.0350 -0.3383
7 -3 2 0.3858 -0.1668
7 -3 3 -5.3098 0.0865
7 -3 4 4.9567 0.0307
7 -3 5 6.3807 -0.0266
7 -3 6 -0.4557 0.0638
7 -3 7 4.9063 0.0270
7 -3 8 0.5833 -0.0571
7 -3 9 0.6516 -0.0296
7 -3 10 -1.4958 0.0246
7 -3 11 1.4233 0.0293
7 -3 12 0.4202 0.0199
7 -3 13 0.2875 -0.0231
7 -3 14 1.7581 -0.0155
7 -3 15 -2.2606 0.0098
7 -3 16 -0.1585 -0.0381
7 -3 17 2.8265 -0.0314
7 -3 18 -0.8398 0.0429
7 -3 19 -4.1864 0.0382
7 -3 20 -3.1311 -0.0246
7 -3 21 -2.4941 0.0169
7 -2 0 -0.8017 -0.0290
7 -2 1 -10.3939 0.0207
7 -2 2 -5.2820 -0.0743
7 -2 3 -0.0182 -0.0420
7 -2 4 -5.2370 0.0450
7 -2 5 1.0757 -0.0437
7 -2 6 6.2524 -0.0202
7 -2 7 -3.6591 0.0893
7 -2 8 -1.5802 0.0285
7 -2 9 -3.2885 -0.0586
7 -2 10 3.8530 -0.0317
7 -2 11 3.2304 0.0080
7 -2 12 2.2989 0.0145
7 -2 13 2.8562 0.0220
7 -2 14 -1.1119 -0.0045
7 -2 15 -2.7510 0.0026
7 -2 16 -1.3910 0.0125
7 -2 17 -1.3908 -0.0403
7 -2 18 0.7048 -0.0316
7 -2 19 0.4811 0.0375
7 -2 20 -0.3445 0.0494
7 -1 0 1.3998 0.1117
7 -1 1 -2.6933 0.0202
7 -1 2 -3.0643 0.1113
7 -1 3 -4.3651 0.0768
7 -1 4 1.7947 0.0397
7 -1 5 0.4735 0.0072
7 -1 6 -4.5227 -0.0917
7 -1 7 2.5715 -0.0218
7 -1 8 -2.2237 0.0894
7 -1 9 3.1339 0.0288
7 -1 10 3.8850 -0.0444
7 -1 11 7.1293 -0.0227
7 -1 12 4.6515 -0.0066
7 -1 13 1.0560 -0.0237
7 -1 14 -1.0820 -0.0004
7 -1 15 -2.1807 0.0115
7 -1 16 -2.5829 0.0304
7 -1 17 -0.1976 0.0232
7 -1 18 -1.2402 -0.0424
7 -1 19 -0.7448 -0.0245
7 -1 20 -1.3301 0.0310
7 0 0 -0.5221 0.4984
7 0 1 -0.7823 0.0924
7 0 2 1.9106 -0.1041
7 0 3 6.8472 -0.0065
7 0 4 -0.4322 0.0770
7 0 5 -2.6372 0.0800
7 0 6 0.1765 -0.0023
7 0 7 -2.4452 -0.1037
7 0 8 5.4085 -0.0327
7 0 9 0.3357 0.0554
7 0 10 5.8686 0.0161
7 0 11 3.5515 -0.0043
7 0 12 2.5427 0.0146
7 0 13 2.1020 0.0129
7 0 14 -0.5551 -0.0227
7 0 15 -1.9231 -0.0229
7 0 16 -0.1100 0.0062
7 0 17 -1.0176 0.0337
7 0 18 -0.6052 0.0322
7 0 19 -2.6431 -0.0244
7 0 20 -2.6156 0.0079
7 1 0 -4.8130 0.0499
7 1 1 1.7211 0.3261
7 1 2 2.6373 0.0040
7 1 3 -2.0542 -0.1875
7 1 4 1.6424 -0.0840
7 1 5 -1.0141 0.0390
7 1 6 -6.9291 0.0759
7 1 7 -0.7834 0.0070
7 1 8 -3.2176 -0.0684
7 1 9 3.9266 -0.0200
7 1 10 1.2688 0.0250
7 1 11 2.2734 -0.0031
7 1 12 -1.2354 0.0130
7 1 13 -0.0379 0.0402
7 1 14 -0.2753 0.0189
7 1 15 -2.4742 -0.0398
7 1 16 -2.5359 -0.0429
7 1 17 -2.1715 0.0102
7 1 18 -0.6396 0.0196
7 1 19 0.3022 0.0383
7 2 0 3.8925 -0.6305
7 2 1 3.3646 -0.1243
7 2 2 2.5933 0.2333
7 2 3 1.2274 0.0160
7 2 4 -6.7158 -0.1288
7 2 5 -6.6889 -0.0510
7 2 6 -2.8920 0.0206
7 2 7 -4.5593 0.0455
7 2 8 3.1548 0.0246
7 2 9 -1.3912 -0.0085
7 2 10 3.6089 0.0050
7 2 11 0.7413 -0.0035
7 2 12 -1.5078 -0.0546
7 2 13 -3.5388 -0.0175
7 2 14 -2.6455 0.0533
7 2 15 -0.9431 0.0302
7 2 16 -3.3264 -0.0070
7 2 17 -2.7795 -0.0333
7 2 18 -1.7422 0.0131
7 2 19 0.0866 0.0010
7 3 0 5.2671 -0.2565
7 3 1 8.7382 -0.4716
7 3 2 3.8593 -0.0922
7 3 3 -3.5906 0.2032
7 3 4 -2.0060 0.0577
7 3 5 -2.7340 -0.0392
7 3 6 -3.4231 -0.0122
7 3 7 4.6616 0.0045
7 3 8 0.4435 -0.0010
7 3 9 2.2967 -0.0006
7 3 10 -0.8305 0.0079
7 3 11 1.5130 0.0228
7 3 12 -0.0985 -0.0024
7 3 13 -1.0302 -0.0499
7 3 14 0.0461 -0.0216
7 3 15 -0.3913 0.0417
7 3 16 1.5587 -0.0012
7 3 17 -1.1802 0.0070
7 3 18 -2.4080 -0.0360
7 4 0 1.3054 0.3281
7 4 1 0.0924 0.0323
7 4 2 -1.6584 -0.2088
7 4 3 -3.2005 -0.0323
7 4 4 -4.3598 0.1179
7 4 5 -1.4157 0.0093
7 4 6 2.0196 -0.0042
7 4 7 -1.1734 0.0300
7 4 8 5.3895 -0.0029
7 4 9 0.6818 -0.0405
7 4 10 -2.5661 -0.0171
7 4 11 -1.2652 0.0281
7 4 12 2.8711 0.0564
7 4 13 2.4137 0.0241
7 4 14 0.1056 -0.0253
7 4 15 1.1041 -0.0438
7 4 16 -2.4646 0.0105
7 4 17 -1.8824 -0.0324
7 4 18 0.1365 0.0090
7 5 0 -2.8963 0.2148
7 5 1 -3.3063 0.2773
7 5 2 -2.5781 0.1102
7 5 3 -3.8484 -0.0842
7 5 4 -0.6638 -0.0181
7 5 5 3.6199 0.0249
7 5 6 1.0504 -0.0770
7 5 7 3.5299 -0.0072
7 5 8 -1.4614 0.0795
7 5 9 1.8975 0.0189
7 5 10 1.8977 -0.0520
7 5 11 -3.7248 -0.0340
7 5 12 -1.8117 0.0150
7 5 13 0.0264 0.0399
7 5 14 -1.1246 0.0301
7 5 15 -1.8058 0.0087
7 5 16 -2.7617 -0.0543
7 5 17 -2.4254 -0.0051
7 6 0 2.4586 0.0974
7 6 1 -2.7462 0.0413
7 6 2 -3.7879 0.0677
7 6 3 0.4173 0.0305
7 6 4 2.4356 -0.0278
7 6 5 2.3513 0.0359
7 6 6 5.9988 0.0008
7 6 7 0.4324 -0.1013
7 6 8 2.1276 -0.0184
7 6 9 0.8779 0.0755
7 6 10 -1.9006 0.0273
7 6 11 -1.6917 -0.0357
7 6 12 -3.5741 -0.0268
7 6 13 -3.2607 0.0051
7 6 14 -1.2891 0.0045
7 6 15 0.3836 0.0057
7 6 16 0.2542 -0.0075
7 6 17 -3.8303 -0.0691
7 7 0 0.1005 -0.0163
7 7 1 -1.5202 0.0334
7 7 2 -1.4512 -0.0740
7 7 3 -0.5101 -0.0659
7 7 4 -1.2041 -0.0173
7 7 5 0.4644 0.0280
7 7 6 -0.0693 0.1037
7 7 7 2.8065 -0.0001
7 7 8 -3.8629 -0.1007
7 7 9 -3.3193 -0.0085
7 7 10 -0.2205 0.0565
7 7 11 -2.1935 0.0013
7 7 12 0.1729 -0.0059
7 7 13 0.6297 -0.0158
7 7 14 -2.1282 -0.0075
7 7 15 1.7771 0.0043
7 7 16 2.0318 0.0028
7 8 0 0.3912 -0.3894
7 8 1 -1.7286 -0.0319
7 8 2 -2.2126 0.0921
7 8 3 2.2086 -0.0381
7 8 4 5.4129 -0.0817
7 8 5 0.1861 -0.0508
7 8 6 -1.4737 0.0126
7 8 7 -3.2191 0.1055
7 8 8 -0.2165 0.0085
7 8 9 -1.5548 -0.0637
7 8 10 -0.0518 0.0104
7 8 11 0.2458 0.0085
7 8 12 1.3293 -0.0719
7 8 13 3.0247 -0.0170
7 8 14 0.0813 -0.0163
7 8 15 -3.1335 0.0054
7 9 0 -2.4294 -0.2128
7 9 1 0.6308 -0.2733
7 9 2 -0.5325 0.0268
7 9 3 -0.8162 0.1505
7 9 4 0.3259 0.0237
7 9 5 1.3315 -0.0556
7 9 6 -0.4234 -0.0546
7 9 7 1.4402 0.0009
7 9 8 -2.2246 0.0608
7 9 9 0.7176 0.0028
7 9 10 2.1957 0.0082
7 9 11 3.0255 0.0447
7 9 12 0.1806 0.0009
7 9 13 0.2375 -0.0688
7 9 14 1.3981 -0.0093
7 10 0 -0.6665 0.3757
7 10 1 1.7686 -0.0351
7 10 2 2.3742 -0.1686
7 10 3 -1.0740 0.0260
7 10 4 -0.6765 0.1261
7 10 5 -0.6064 0.0215
7 10 6 -1.5255 -0.0353
7 10 7 -2.0779 -0.0319
7 10 8 3.2408 -0.0010
7 10 9 -0.5292 -0.0096
7 10 10 2.2080 -0.0484
7 10 11 2.2073 0.0336
7 10 12 0.3668 0.0615
7 10 13 0.6487 -0.0064
7 11 0 -1.8320 0.2820
7 11 1 -1.0036 0.3093
7 11 2 0.6402 0.0069
7 11 3 2.2481 -0.1475
7 11 4 -0.4150 -0.0254
7 11 5 0.2736 0.0595
7 11 6 -0.3788 -0.0288
7 11 7 0.1022 -0.0141
7 11 8 -0.9251 0.0270
7 11 9 2.0893 0.0253
7 11 10 -0.2543 -0.0105
7 11 11 2.7454 -0.0515
7 11 12 2.8478 0.0010
7 12 0 -1.6569 -0.1314
7 12 1 -2.2613 0.0832
7 12 2 -0.9852 0.1554
7 12 3 0.3564 -0.0008
7 12 4 1.7325 -0.0982
7 12 5 1.4932 -0.0197
7 12 6 0.9192 0.0179
7 12 7 -3.6467 -0.0540
7 12 8 -0.4512 0.0096
7 12 9 0.1233 0.0536
7 12 10 0.2640 0.0291
7 12 11 0.8068 0.0053
7 13 0 0.9774 -0.1534
7 13 1 2.9227 -0.1429
7 13 2 -0.6813 0.0095
7 13 3 1.9584 0.0442
7 13 4 1.3293 -0.0020
7 13 5 0.0664 -0.0078
7 13 6 1.7473 0.0102
7 13 7 1.5687 -0.0152
7 13 8 -0.9131 -0.0793
7 13 9 1.1073 -0.0387
7 14 0 0.5754 -0.0973
7 14 1 0.1281 -0.0728
7 14 2 -1.0416 -0.0171
7 14 3 -2.8910 0.0292
7 14 4 -0.5073 -0.0287
7 14 5 1.7995 -0.0127
7 14 6 2.9485 0.0180
7 14 7 1.5068 0.0186
7 14 8 0.4104 0.0292
7 15 0 -1.5465 -0.0410
7 15 1 1.9799 -0.0285
7 15 2 0.2000 0.0384
7 15 3 1.3785 0.0806
7 15 4 1.1790 0.0201
7 15 5 -2.6438 -0.0843
7 15 6 -0.1850 -0.0279
7 16 0 -1.3893 0.1925
7 16 1 0.6147 -0.0161
7 16 2 1.5596 -0.0491
7 16 3 -0.9196 0.0188
7 16 4 -0.4265 0.0843
7 17 0 -2.5473 0.0841
7 17 1 -1.9696 0.1277
7 17 2 -2.0712 -0.0349
8 -20 0 1.8633 -0.0493
8 -20 1 1.9496 0.0471
8 -20 2 0.5802 -0.0101
8 -20 3 -0.1755 -0.0243
8 -20 4 -0.0250 0.0195
8 -20 5 1.5923 0.0035
8 -20 6 -2.8363 0.0251
8 -20 7 -0.5748 -0.0096
8 -19 0 3.0957 -0.1924
8 -19 1 1.5351 -0.0273
8 -19 2 1.6375 0.0386
8 -19 3 1.0182 0.0071
8 -19 4 3.2768 -0.0055
8 -19 5 1.7506 0.0105
8 -19 6 2.7079 -0.0030
8 -19 7 0.1705 0.0184
8 -19 8 0.9531 -0.0253
8 -19 9 -0.6268 0.0086
8 -19 10 1.3022 0.0103
8 -18 0 -3.5847 -0.1379
8 -18 1 1.3434 -0.1265
8 -18 2 0.4892 0.0134
8 -18 3 0.9773 0.0473
8 -18 4 -0.7727 0.0119
8 -18 5 3.4834 -0.0173
8 -18 6 0.6886 0.0319
8 -18 7 0.9802 0.0023
8 -18 8 0.8173 -0.0070
8 -18 9 -1.2253 -0.0130
8 -18 10 -1.5395 0.0158
8 -18 11 0.9836 0.0178
8 -18 12 -0.7188 0.0175
8 -18 13 0.7938 0.0229
8 -17 0 1.2613 0.1521
8 -17 1 -0.4135 -0.0049
8 -17 2 2.9329 -0.0783
8 -17 3 -0.3824 0.0076
8 -17 4 -0.4199 0.0280
8 -17 5 -1.2952 -0.0073
8 -17 6 0.0506 -0.0035
8 -17 7 -2.0349 0.0407
8 -17 8 -0.8203 -0.0039
8 -17 9 -0.5058 0.0053
8 -17 10 -1.9430 -0.0142
8 -17 11 -0.7180 -0.0222
8 -17 12 -0.6777 0.0121
8 -17 13 0.9787 0.0175
8 -17 14 0.6159 -0.0062
8 -16 0 0.8889 0.2144
8 -16 1 4.8838 0.1810
8 -16 2 3.7038 0.0165
8 -16 3 3.8213 -0.0602
8 -16 4 -0.1489 0.0058
8 -16 5 -0.4188 -0.0223
8 -16 6 -1.3636 -0.0212
8 -16 7 -0.5377 -0.0095
8 -16 8 0.1212 0.0032
8 -16 9 -2.2493 -0.0023
8 -16 10 -0.6364 0.0036
8 -16 11 0.5884 -0.0057
8 -16 12 1.7875 -0.0124
8 -16 13 -1.8350 -0.0031
8 -16 14 2.0266 -0.0012
8 -16 15 -0.0725 0.0052
8 -15 0 0.3733 0.0077
8 -15 1 -0.7456 0.0922
8 -15 2 2.6098 0.0763
8 -15 3 0.2993 -0.0111
8 -15 4 -0.7142 -0.0271
8 -15 5 -0.2502 0.0151
8 -15 6 1.3036 0.0030
8 -15 7 -0.0933 -0.0197
8 -15 8 -1.2966 -0.0293
8 -15 9 1.6144 0.0108
8 -15 10 -1.7967 0.0157
8 -15 11 -0.5678 -0.0115
8 -15 12 1.0530 0.0063
8 -15 13 6.1189 0.0118
8 -15 14 -0.0548 -0.0229
8 -15 15 1.1734 -0.0331
8 -15 16 -1.9937 0.0150
8 -14 0 -0.1548 -0.1446
8 -14 1 -0.9376 -0.0826
8 -14 2 -1.4624 -0.0232
8 -14 3 -1.6854 -0.0040
8 -14 4 -1.5864 -0.0107
8 -14 5 -0.6451 -0.0024
8 -14 6 -0.7920 0.0357
8 -14 7 -0.1342 0.0175
8 -14 8 0.5827 -0.0248
8 -14 9 -1.7111 -0.0034
8 -14 10 0.5760 0.0102
8 -14 11 -1.6700 0.0047
8 -14 12 1.0389 0.0015
8 -14 13 -0.7123 0.0026
8 -14 14 4.6621 0.0031
8 -14 15 1.3456 0.0045
8 -14 16 -1.7194 -0.0076
8 -14 17 -5.8504 -0.0090
8 -13 0 2.8298 -0.2163
8 -13 1 0.1434 -0.0710
8 -13 2 0.5352 -0.0266
8 -13 3 2.1559 -0.0074
8 -13 4 1.3944 0.0003
8 -13 5 -1.4620 -0.0303
8 -13 6 -1.0093 0.0095
8 -13 7 0.2595 0.0368
8 -13 8 -4.6850 -0.0079
8 -13 9 -1.3114 -0.0282
8 -13 10 1.0212 0.0120
8 -13 11 -0.9248 -0.0067
8 -13 12 -2.0406 -0.0154
8 -13 13 1.4918 0.0247
8 -13 14 -1.5096 0.0003
8 -13 15 3.6690 -0.0308
8 -13 16 2.6253 0.0110
8 -13 17 -0.5569 0.0162
8 -13 18 -3.9481 -0.0209
8 -12 0 0.9314 -0.1340
8 -12 1 1.7711 -0.1285
8 -12 2 -0.3109 0.0421
8 -12 3 -3.2056 0.0615
8 -12 4 2.8488 0.0188
8 -12 5 5.8091 -0.0114
8 -12 6 1.6403 -0.0405
8 -12 7 2.0790 0.0083
8 -12 8 1.8973 0.0290
8 -12 9 -3.0642 -0.0085
8 -12 10 0.0523 -0.0190
8 -12 11 0.1837 -0.0031
8 -12 12 0.0683 -0.0228
8 -12 13 0.6303 -0.0161
8 -12 14 -1.3303 0.0137
8 -12 15 -0.1680 -0.0063
8 -12 16 0.7866 -0.0090
8 -12 17 -2.9414 0.0079
8 -12 18 -0.6181 -0.0042
8 -11 0 -0.7498 0.2903
8 -11 1 -3.8510 -0.0299
8 -11 2 -2.6509 -0.0825
8 -11 3 -3.0785 0.0585
8 -11 4 -0.8844 0.0686
8 -11 5 4.2511 0.0122
8 -11 6 2.8625 -0.0250
8 -11 7 3.5855 -0.0276
8 -11 8 3.5326 0.0256
8 -11 9 0.5233 0.0191
8 -11 10 0.0983 -0.0091
8 -11 11 -0.3684 0.0151
8 -11 12 -0.6605 0.0048
8 -11 13 0.6082 -0.0019
8 -11 14 1.3440 0.0107
8 -11 15 -1.3828 -0.0022
8 -11 16 1.5050 -0.0124
8 -11 17 1.3179 0.0257
8 -11 18 -1.4456 0.0089
8 -11 19 0.8790 -0.0470
8 -10 0 -3.6264 0.3904
8 -10 1 -0.3763 0.2773
8 -10 2 3.1463 -0.0386
8 -10 3 0.0098 -0.0935
8 -10 4 -4.1337 0.0192
8 -10 5 -1.9671 0.0356
8 -10 6 -0.4559 0.0134
8 -10 7 -1.8466 -0.0295
8 -10 8 -1.6900 -0.0202
8 -10 9 -0.2805 0.0195
8 -10 10 3.0261 0.0071
8 -10 11 1.3230 -0.0104
8 -10 12 -1.1306 0.0194
8 -10 13 3.2122 0.0082
8 -10 14 0.3287 -0.0121
8 -10 15 3.1729 -0.0128
8 -10 16 1.7511 -0.0119
8 -10 17 -1.5723 -0.0137
8 -10 18 1.3928 0.0316
8 -10 19 0.8080 0.0084
8 -9 0 -0.7345 -0.1745
8 -9 1 -4.1874 0.1637
8 -9 2 1.7817 0.1495
8 -9 3 5.5526 -0.0812
8 -9 4 1.3543 -0.1083
8 -9 5 -2.0894 0.0016
8 -9 6 -4.2035 0.0044
8 -9 7 -0.5117 0.0058
8 -9 8 4.0597 0.0057
8 -9 9 -0.5200 0.0090
8 -9 10 -1.4961 0.0135
8 -9 11 4.2280 -0.0034
8 -9 12 1.7007 -0.0231
8 -9 13 -1.7525 0.0126
8 -9 14 0.2341 0.0096
8 -9 15 -4.9764 -0.0111
8 -9 16 -0.7325 -0.0100
8 -9 17 0.6456 0.0064
8 -9 18 -3.4173 0.0100
8 -9 19 0.2202 -0.0012
8 -8 0 -5.6851 -0.3972
8 -8 1 -2.6999 -0.2692
8 -8 2 -0.1292 0.0298
8 -8 3 2.9034 0.0765
8 -8 4 2.2568 -0.0497
8 -8 5 0.5144 -0.0317
8 -8 6 -1.8594 0.0434
8 -8 7 -3.3789 -0.0074
8 -8 8 0.0179 -0.0200
8 -8 9 2.4775 0.0026
8 -8 10 0.9161 0.0226
8 -8 11 -3.1298 0.0108
8 -8 12 -1.2855 -0.0253
8 -8 13 -0.1497 -0.0331
8 -8 14 -1.6931 0.0043
8 -8 15 1.4000 0.0153
8 -8 16 0.6522 0.0005
8 -8 17 0.1174 -0.0053
8 -8 18 1.5414 0.0146
8 -8 19 1.9163 0.0020
8 -7 0 0.0630 -0.0711
8 -7 1 -1.6858 -0.1953
8 -7 2 -0.3476 -0.1385
8 -7 3 -0.7561 0.0490
8 -7 4 -0.9119 0.0601
8 -7 5 -1.5178 -0.0166
8 -7 6 -2.3096 0.0264
8 -7 7 -2.9386 0.0606
8 -7 8 -1.4336 -0.0208
8 -7 9 0.2713 -0.0484
8 -7 10 -4.0303 -0.0106
8 -7 11 -1.5759 0.0128
8 -7 12 -0.6067 0.0167
8 -7 13 2.9943 0.0064
8 -7 14 4.9837 -0.0115
8 -7 15 -0.3656 0.0008
8 -7 16 -0.2623 -0.0005
8 -7 17 3.2419 -0.0336
8 -7 18 -1.1025 -0.0017
8 -7 19 -3.8877 0.0255
8 -7 20 2.3743 0.0025
8 -6 0 1.5272 0.0655
8 -6 1 4.7468 0.0927
8 -6 2 2.8728 0.0255
8 -6 3 -1.3458 -0.0164
8 -6 4 -4.6767 0.0419
8 -6 5 -1.2909 0.0036
8 -6 6 2.6556 -0.0558
8 -6 7 1.3592 0.0389
8 -6 8 0.2937 0.0665
8 -6 9 0.8238 -0.0247
8 -6 10 1.3675 -0.0287
8 -6 11 -2.8687 -0.0013
8 -6 12 0.9560 -0.0017
8 -6 13 -1.2613 0.0238
8 -6 14 0.5134 0.0207
8 -6 15 3.9302 0.0100
8 -6 16 -0.1940 0.0068
8 -6 17 -3.1281 -0.0314
8 -6 18 -0.6398 -0.0632
8 -6 19 1.6651 0.0078
8 -6 20 -3.5332 0.0481
8 -5 0 5.4588 0.2414
8 -5 1 4.1167 0.0349
8 -5 2 2.8204 0.0580
8 -5 3 -0.6160 0.0615
8 -5 4 -1.2947 0.0237
8 -5 5 -4.7235 0.0135
8 -5 6 -3.1461 -0.0680
8 -5 7 1.3076 -0.0903
8 -5 8 -0.1956 0.0377
8 -5 9 1.8440 0.0545
8 -5 10 0.1475 -0.0119
8 -5 11 -2.5791 -0.0039
8 -5 12 -5.1740 -0.0052
8 -5 13 1.8695 -0.0258
8 -5 14 0.9468 -0.0069
8 -5 15 -2.2115 0.0022
8 -5 16 1.3741 0.0232
8 -5 17 4.3204 0.0381
8 -5 18 1.2979 -0.0241
8 -5 19 -1.7177 -0.0759
8 -5 20 4.2381 -0.0044
8 -4 0 6.5346 0.3502
8 -4 1 4.2177 0.1576
8 -4 2 4.2614 -0.0877
8 -4 3 -0.3572 -0.0684
8 -4 4 -6.8735 0.0102
8 -4 5 -0.0327 0.0446
8 -4 6 1.8780 0.0252
8 -4 7 -0.9021 -0.0605
8 -4 8 -1.7618 -0.0624
8 -4 9 -5.4093 0.0334
8 -4 10 -0.2193 0.0316
8 -4 11 1.3713 -0.0128
8 -4 12 1.8545 0.0234
8 -4 13 -0.9805 0.0165
8 -4 14 -0.7925 -0.0388
8 -4 15 -0.6848 -0.0394
8 -4 16 -2.1461 -0.0184
8 -4 17 -1.8741 0.0290
8 -4 18 0.4047 0.0694
8 -4 19 1.9984 -0.0261
8 -3 0 8.8684 -0.2308
8 -3 1 2.9792 0.1833
8 -3 2 0.7368 0.0928
8 -3 3 0.7799 -0.1356
8 -3 4 3.5736 -0.1063
8 -3 5 -0.2680 0.0060
8 -3 6 0.5338 0.0590
8 -3 7 3.8533 0.0562
8 -3 8 0.4593 -0.0214
8 -3 9 -1.7851 -0.0252
8 -3 10 -2.1214 0.0273
8 -3 11 1.8875 -0.0034
8 -3 12 -0.1227 -0.0245
8 -3 13 2.0844 0.0317
8 -3 14 2.9902 0.0304
8 -3 15 -3.2224 -0.0141
8 -3 16 -4.4876 -0.0497
8 -3 17 -0.4890 -0.0333
8 -3 18 -2.6066 0.0275
8 -3 19 -4.0878 0.0669
8 -2 0 -0.2516 -0.5826
8 -2 1 -4.0217 -0.2819
8 -2 2 -1.4981 0.1421
8 -2 3 4.1515 0.1195
8 -2 4 -2.6910 -0.0763
8 -2 5 2.0910 -0.0718
8 -2 6 3.0997 0.0097
8 -2 7 0.3450 0.0323
8 -2 8 3.0135 0.0292
8 -2 9 -2.6546 -0.0106
8 -2 10 -3.9193 0.0042
8 -2 11 -1.1500 0.0143
8 -2 12 1.3923 -0.0322
8 -2 13 -0.0473 -0.0317
8 -2 14 0.1762 0.0278
8 -2 15 1.0736 0.0350
8 -2 16 -0.9846 0.0106
8 -2 17 -2.4321 -0.0279
8 -2 18 -0.0211 -0.0198
8 -2 19 -0.5213 0.0256
8 -1 0 -2.5039 0.0716
8 -1 1 -3.0250 -0.3160
8 -1 2 -6.6915 -0.1658
8 -1 3 -5.3570 0.1383
8 -1 4 5.9313 0.1225
8 -1 5 1.6100 -0.0205
8 -1 6 -0.4122 -0.0275
8 -1 7 -0.4653 0.0076
8 -1 8 -1.4363 -0.0191
8 -1 9 3.4896 -0.0194
8 -1 10 0.1683 -0.0104
8 -1 11 0.9394 0.0212
8 -1 12 -1.0642 0.0234
8 -1 13 -3.2303 -0.0415
8 -1 14 -0.7943 -0.0457
8 -1 15 -1.1423 0.0216
8 -1 16 -2.3782 0.0365
8 -1 17 -0.0620 0.0220
8 -1 18 0.2371 -0.0107
8 -1 19 1.6359 -0.0188
8 0 0 -5.1618 0.4107
8 0 1 -3.6832 0.2319
8 0 2 -0.0139 -0.1153
8 0 3 4.3289 -0.1000
8 0 4 -1.6624 0.0782
8 0 5 2.5279 0.0421
8 0 6 1.5685 -0.0318
8 0 7 -0.8947 0.0130
8 0 8 4.1197 0.0238
8 0 9 2.8680 -0.0256
8 0 10 5.2791 -0.0208
8 0 11 1.2459 0.0044
8 0 12 -0.3724 0.0311
8 0 13 -2.8499 0.0413
8 0 14 -3.8709 -0.0038
8 0 15 -0.9770 -0.0305
8 0 16 -0.1610 -0.0037
8 0 17 -0.7039 0.0237
8 0 18 -0.5233 0.0166
8 1 0 -5.7304 0.1067
8 1 1 -1.5936 0.2493
8 1 2 1.5928 0.1647
8 1 3 -0.4201 -0.0474
8 1 4 5.1047 -0.0527
8 1 5 2.3063 0.0316
8 1 6 2.4836 -0.0380
8 1 7 2.6079 -0.0525
8 1 8 -1.1602 0.0467
8 1 9 5.4105 0.0568
8 1 10 2.1931 -0.0079
8 1 11 2.7454 -0.0226
8 1 12 -0.4912 0.0022
8 1 13 -2.1557 0.0148
8 1 14 -2.8374 0.0272
8 1 15 -1.5527 -0.0010
8 1 16 1.5656 -0.0318
8 1 17 -1.9141 -0.0025
8 1 18 -1.5457 0.0066
8 2 0 -1.0287 0.0403
8 2 1 -1.0561 -0.0635
8 2 2 -0.8516 0.0241
8 2 3 1.2765 0.0315
8 2 4 -2.3355 -0.0188
8 2 5 -1.2587 0.0228
8 2 6 -2.1631 0.0341
8 2 7 -1.8515 -0.0718
8 2 8 3.3043 -0.0569
8 2 9 -1.5709 0.0562
8 2 10 3.5519 0.0504
8 2 11 -0.2866 -0.0081
8 2 12 -1.7299 -0.0305
8 2 13 -3.1264 -0.0386
8 2 14 -3.6804 -0.0033
8 2 15 -1.7953 0.0282
8 2 16 -1.0870 0.0042
8 2 17 3.2764 -0.0050
8 3 0 1.2132 -0.1669
8 3 1 4.6520 0.0179
8 3 2 3.6274 -0.0731
8 3 3 -4.0303 -0.0775
8 3 4 -3.2499 -0.0561
8 3 5 -0.5358 -0.0094
8 3 6 0.1964 0.0730
8 3 7 1.2870 0.0595
8 3 8 -2.1154 -0.0615
8 3 9 3.2962 -0.0483
8 3 10 -0.1472 0.0347
8 3 11 0.7529 0.0057
8 3 12 -2.7324 -0.0170
8 3 13 -2.4696 0.0014
8 3 14 -2.4534 -0.0279
8 3 15 -3.2463 -0.0113
8 3 16 2.9556 -0.0132
8 3 17 0.1117 -0.0006
8 4 0 3.9871 -0.4243
8 4 1 -0.7345 -0.1231
8 4 2 0.3098 0.1191
8 4 3 1.3976 0.0453
8 4 4 -3.3550 -0.0588
8 4 5 -1.2027 -0.0732
8 4 6 2.9255 -0.0090
8 4 7 1.7679 0.0658
8 4 8 5.8257 0.0483
8 4 9 -1.1395 -0.0442
8 4 10 0.1910 -0.0260
8 4 11 0.5004 0.0321
8 4 12 1.1342 0.0083
8 4 13 0.5703 -0.0110
8 4 14 -0.0130 0.0267
8 4 15 -0.2473 -0.0182
8 4 16 -3.3821 -0.0484
8 5 0 1.5738 0.0338
8 5 1 2.1931 -0.2690
8 5 2 -0.1773 -0.0521
8 5 3 -2.5534 0.1565
8 5 4 -1.7455 0.0911
8 5 5 -0.5640 -0.0363
8 5 6 1.5159 -0.0655
8 5 7 4.8612 -0.0267
8 5 8 0.1777 0.0242
8 5 9 3.5276 0.0233
8 5 10 0.8266 -0.0095
8 5 11 -1.5840 0.0224
8 5 12 -1.5756 0.0213
8 5 13 0.5917 -0.0219
8 5 14 0.3170 -0.0235
8 5 15 -1.6266 0.0350
8 5 16 -0.4824 -0.0034
8 6 0 3.0422 0.4969
8 6 1 -1.0965 0.1662
8 6 2 -0.8657 -0.1843
8 6 3 3.9018 -0.0701
8 6 4 2.8798 0.0933
8 6 5 0.9616 0.0561
8 6 6 2.6380 -0.0135
8 6 7 1.6023 -0.0079
8 6 8 3.6277 -0.0088
8 6 9 -1.0572 -0.0125
8 6 10 -1.5670 -0.0207
8 6 11 -1.8370 -0.0165
8 6 12 -2.6721 0.0303
8 6 13 -3.6413 0.0049
8 6 14 -2.4425 -0.0560
8 6 15 -1.6217 -0.0249
8 7 0 1.0851 0.0753
8 7 1 0.8828 0.3299
8 7 2 -0.5042 0.1201
8 7 3 -1.5442 -0.1403
8 7 4 1.7419 -0.0592
8 7 5 1.5562 0.0400
8 7 6 -0.0002 0.0073
8 7 7 1.1162 -0.0169
8 7 8 -3.7505 0.0268
8 7 9 -3.7865 0.0267
8 7 10 -3.9887 -0.0250
8 7 11 -4.3845 -0.0520
8 7 12 -5.2684 -0.0103
8 7 13 -0.5935 0.0289
8 7 14 -1.3682 0.0131
8 8 0 1.3633 -0.2775
8 8 1 1.4604 -0.1068
8 8 2 -1.8818 0.1461
8 8 3 0.0769 0.0422
8 8 4 3.1208 -0.0751
8 8 5 1.1718 -0.0138
8 8 6 -2.3375 0.0032
8 8 7 -2.3931 -0.0411
8 8 8 0.0161 -0.0257
8 8 9 -4.5233 0.0443
8 8 10 -2.8374 0.0569
8 8 11 -2.5696 -0.0279
8 8 12 -0.2731 -0.1265
8 8 13 -1.0100 -0.0642
8 9 0 -2.1433 -0.1310
8 9 1 -0.0957 -0.2021
8 9 2 4.4125 -0.1055
8 9 3 1.2571 0.0468
8 9 4 0.3565 -0.0075
8 9 5 3.3158 -0.0083
8 9 6 0.0956 0.0524
8 9 7 -2.4231 0.0257
8 9 8 -2.4846 -0.0525
8 9 9 0.8362 -0.0305
8 9 10 -1.5729 0.0440
8 9 11 2.8689 0.0658
8 9 12 -0.3729 0.0174
8 10 0 0.1885 -0.0427
8 10 1 1.7192 -0.0067
8 10 2 1.7821 -0.0239
8 10 3 2.4888 0.0003
8 10 4 2.7617 0.0029
8 10 5 0.8533 -0.0586
8 10 6 1.3998 0.0155
8 10 7 -1.8859 0.0689
8 10 8 0.4651 0.0450
8 10 9 -0.6305 -0.0570
8 10 10 0.4143 -0.0695
8 10 11 -2.9558 0.0466
8 11 0 0.8410 0.0682
8 11 1 0.5822 -0.0052
8 11 2 0.5594 0.0461
8 11 3 1.4291 0.0719
8 11 4 -1.0487 0.0474
8 11 5 0.6212 -0.0345
8 11 6 1.7661 -0.0961
8 11 7 3.6255 0.0042
8 11 8 -0.9420 0.0661
8 11 9 1.8699 0.0617
8 11 10 0.2371 -0.0492
8 12 0 -2.1763 0.2583
8 12 1 -1.0781 0.0682
8 12 2 -0.8125 -0.0835
8 12 3 -2.8051 0.0065
8 12 4 1.8207 0.0601
8 12 5 -0.0060 0.0379
8 12 6 1.1443 -0.0219
8 12 7 -0.7993 -0.0899
8 12 8 0.8456 0.0188
8 12 9 0.0335 0.0901
8 13 0 -1.2920 0.0639
8 13 1 2.2097 0.1890
8 13 2 2.7991 0.0346
8 13 3 3.6540 -0.1183
8 13 4 1.1850 -0.0396
8 13 5 2.0416 0.0237
8 13 6 0.3479 0.0413
8 13 7 2.2898 -0.0280
8 13 8 -0.4226 -0.1007
8 14 0 1.4382 -0.2574
8 14 1 -0.5283 -0.0422
8 14 2 1.9395 0.1218
8 14 3 -1.4607 0.0657
8 14 4 1.1623 -0.0825
8 14 5 0.7511 -0.0618
8 14 6 1.2446 0.0070
8 15 0 0.9112 -0.1348
8 15 1 -0.5006 -0.1327
8 15 2 -0.7898 -0.0226
8 15 3 1.9653 0.0971
8 15 4 1.0982 0.0737
8 16 0 0.6151 0.1665
8 16 1 2.2507 -0.0007
8 16 2 4.0467 -0.0244
9 -19 0 0.6361 -0.0582
9 -19 1 0.8251 -0.0413
9 -19 2 2.9239 0.0079
9 -19 3 2.8677 -0.0118
9 -19 4 2.2738 0.0092
9 -19 5 0.9045 -0.0098
9 -19 6 0.5226 0.0053
9 -19 7 -0.9260 0.0095
9 -18 0 -1.5926 -0.1185
9 -18 1 0.4736 -0.0301
9 -18 2 0.8574 -0.0057
9 -18 3 2.2192 -0.0016
9 -18 4 0.5235 -0.0278
9 -18 5 2.5428 -0.0158
9 -18 6 1.7936 -0.0210
9 -18 7 -1.4741 0.0141
9 -18 8 -1.2610 -0.0091
9 -18 9 1.2232 -0.0565
9 -18 10 -1.1918 0.0298
9 -17 0 -0.0954 -0.0949
9 -17 1 -0.3894 -0.0508
9 -17 2 0.7929 0.0288
9 -17 3 -1.4465 -0.0142
9 -17 4 -1.3398 0.0225
9 -17 5 -3.5801 -0.0042
9 -17 6 -1.2569 -0.0120
9 -17 7 -0.7150 0.0376
9 -17 8 -1.6100 0.0264
9 -17 9 -0.9663 -0.0057
9 -17 10 -1.0846 -0.0294
9 -17 11 -1.2475 0.0100
9 -17 12 -0.3203 0.0224
9 -16 0 0.4884 0.0295
9 -16 1 2.1976 -0.0414
9 -16 2 3.2518 0.0016
9 -16 3 3.2083 0.0349
9 -16 4 -2.5131 -0.0047
9 -16 5 -2.9865 -0.0045
9 -16 6 -1.8580 -0.0147
9 -16 7 -1.7013 0.0208
9 -16 8 -2.0787 0.0322
9 -16 9 -1.0448 -0.0031
9 -16 10 1.6823 0.0245
9 -16 11 -0.2982 -0.0021
9 -16 12 -1.6384 -0.0262
9 -16 13 -2.2337 0.0115
9 -15 0 0.7654 0.2982
9 -15 1 -0.6652 0.0678
9 -15 2 1.0820 -0.0372
9 -15 3 2.0521 -0.0239
9 -15 4 2.6963 0.0409
9 -15 5 -1.2723 0.0200
9 -15 6 -2.1305 -0.0149
9 -15 7 -0.1864 -0.0062
9 -15 8 -0.8924 -0.0036
9 -15 9 0.4112 0.0103
9 -15 10 0.1117 -0.0024
9 -15 11 2.9417 -0.0018
9 -15 12 1.2002 0.0171
9 -15 13 1.2854 -0.0068
9 -15 14 -2.4893 -0.0324
9 -14 0 2.5091 0.1100
9 -14 1 1.9734 0.1859
9 -14 2 -1.4111 0.0098
9 -14 3 -2.3489 -0.0926
9 -14 4 -0.7494 -0.0100
9 -14 5 1.9939 0.0285
9 -14 6 0.9760 0.0022
9 -14 7 0.7100 0.0186
9 -14 8 1.2738 -0.0098
9 -14 9 -3.2520 -0.0321
9 -14 10 2.9477 0.0153
9 -14 11 3.7132 -0.0113
9 -14 12 1.5475 -0.0388
9 -14 13 -0.4935 0.0219
9 -14 14 2.1146 0.0275
9 -14 15 -1.2299 -0.0198
9 -13 0 0.0897 -0.2701
9 -13 1 -0.5180 -0.0153
9 -13 2 2.6080 0.0970
9 -13 3 0.4595 -0.0113
9 -13 4 -2.5589 -0.0629
9 -13 5 -0.4884 0.0004
9 -13 6 -1.0761 0.0035
9 -13 7 0.2553 -0.0042
9 -13 8 1.1357 0.0037
9 -13 9 0.0883 -0.0013
9 -13 10 -2.4353 0.0045
9 -13 11 2.9817 0.0078
9 -13 12 2.2848 -0.0095
9 -13 13 1.8837 -0.0057
9 -13 14 -1.1468 0.0171
9 -13 15 -1.6826 0.0047
9 -13 16 1.6612 0.0158
9 -12 0 1.6997 -0.2303
9 -12 1 1.5769 -0.2267
9 -12 2 1.6895 0.0020
9 -12 3 1.9250 0.0722
9 -12 4 -1.2758 0.0198
9 -12 5 -0.5467 -0.0122
9 -12 6 -1.2974 0.0147
9 -12 7 -4.6730 0.0188
9 -12 8 0.5324 -0.0100
9 -12 9 -1.1751 -0.0130
9 -12 10 -1.4724 0.0135
9 -12 11 1.0418 0.0208
9 -12 12 1.6528 -0.0112
9 -12 13 1.5583 -0.0186
9 -12 14 0.9347 0.0119
9 -12 15 0.2054 -0.0079
9 -12 16 -2.3042 -0.0421
9 -12 17 -0.8932 0.0165
9 -11 0 4.1943 0.0304
9 -11 1 -3.1049 -0.0756
9 -11 2 -0.8175 -0.1093
9 -11 3 3.8487 0.0145
9 -11 4 1.9812 0.0406
9 -11 5 1.6786 -0.0228
9 -11 6 1.9551 -0.0170
9 -11 7 0.9707 0.0444
9 -11 8 1.3655 0.0207
9 -11 9 1.2766 -0.0346
9 -11 10 -1.1248 -0.0322
9 -11 11 -0.6645 -0.0030
9 -11 12 0.2801 0.0131
9 -11 13 2.6877 0.0117
9 -11 14 4.4339 0.0093
9 -11 15 -3.9993 0.0067
9 -11 16 -0.3827 -0.0052
9 -11 17 -0.2859 -0.0014
9 -10 0 0.0436 0.1372
9 -10 1 0.6051 0.0922
9 -10 2 -2.5761 0.0316
9 -10 3 2.3095 -0.0116
9 -10 4 3.2609 0.0217
9 -10 5 2.7459 0.0078
9 -10 6 3.3944 -0.0459
9 -10 7 -0.8598 -0.0276
9 -10 8 -0.8953 0.0380
9 -10 9 2.1099 0.0261
9 -10 10 0.2207 -0.0227
9 -10 11 0.8465 -0.0095
9 -10 12 0.0313 -0.0038
9 -10 13 0.4488 -0.0143
9 -10 14 3.5629 0.0177
9 -10 15 8.4285 0.0032
9 -10 16 -1.1445 -0.0327
9 -10 17 -1.7920 -0.0199
9 -9 0 0.1690 0.2458
9 -9 1 -0.1973 0.0744
9 -9 2 0.7399 0.0227
9 -9 3 1.8458 0.0173
9 -9 4 3.2505 0.0197
9 -9 5 1.5644 0.0157
9 -9 6 -0.3027 -0.0090
9 -9 7 -1.5664 -0.0398
9 -9 8 0.7480 -0.0081
9 -9 9 0.3361 0.0430
9 -9 10 -0.7531 0.0226
9 -9 11 0.3948 0.0044
9 -9 12 1.9093 0.0161
9 -9 13 2.3179 -0.0059
9 -9 14 2.4847 -0.0179
9 -9 15 -3.0675 0.0107
9 -9 16 3.8530 -0.0081
9 -9 17 1.1308 -0.0122
9 -9 18 -4.3439 0.0157
9 -8 0 -2.3877 0.1019
9 -8 1 0.3856 0.1413
9 -8 2 0.1621 -0.0548
9 -8 3 2.8519 -0.0814
9 -8 4 0.4985 -0.0289
9 -8 5 0.7833 0.0206
9 -8 6 4.4730 0.0481
9 -8 7 1.4931 0.0005
9 -8 8 -2.1223 -0.0479
9 -8 9 2.3226 -0.0012
9 -8 10 2.8755 0.0178
9 -8 11 -0.3091 -0.0190
9 -8 12 -1.2919 -0.0017
9 -8 13 -1.6601 0.0132
9 -8 14 0.7604 0.0021
9 -8 15 3.6825 0.0182
9 -8 16 -2.7461 0.0263
9 -8 17 1.8225 -0.0201
9 -8 18 4.0695 -0.0104
9 -7 0 -1.7937 -0.3914
9 -7 1 -2.0727 0.0037
9 -7 2 0.9954 0.1055
9 -7 3 2.0718 -0.0514
9 -7 4 1.0644 -0.0734
9 -7 5 -2.2203 -0.0197
9 -7 6 -3.1778 0.0310
9 -7 7 -0.5197 0.0483
9 -7 8 -0.4718 -0.0006
9 -7 9 -0.6753 -0.0300
9 -7 10 -0.6666 0.0028
9 -7 11 -1.6058 -0.0045
9 -7 12 -0.7240 -0.0393
9 -7 13 3.1298 0.0059
9 -7 14 2.3943 0.0243
9 -7 15 1.2937 -0.0048
9 -7 16 3.8305 0.0125
9 -7 17 1.6799 -0.0115
9 -7 18 1.0806 -0.0504
9 -6 0 1.5917 -0.3452
9 -6 1 5.1987 -0.3243
9 -6 2 2.2679 0.0459
9 -6 3 0.8455 0.1339
9 -6 4 -0.7417 -0.0064
9 -6 5 -3.2342 -0.0529
9 -6 6 -0.9892 -0.0194
9 -6 7 -0.2941 0.0143
9 -6 8 -2.7686 0.0179
9 -6 9 -4.2282 -0.0103
9 -6 10 1.1588 0.0118
9 -6 11 3.4137 0.0274
9 -6 12 2.6338 -0.0129
9 -6 13 -0.0631 -0.0215
9 -6 14 2.2661 0.0186
9 -6 15 3.0553 0.0218
9 -6 16 -1.3954 -0.0073
9 -6 17 -1.9223 -0.0118
9 -6 18 0.2907 -0.0557
9 -5 0 1.1472 0.2901
9 -5 1 0.1279 -0.1228
9 -5 2 1.4448 -0.1914
9 -5 3 2.0751 0.0740
9 -5 4 -0.1248 0.1069
9 -5 5 -2.1747 -0.0052
9 -5 6 -3.9291 -0.0370
9 -5 7 0.1051 -0.0118
9 -5 8 0.1693 0.0023
9 -5 9 0.3497 -0.0088
9 -5 10 -0.0920 -0.0153
9 -5 11 -2.0034 0.0337
9 -5 12 -1.2005 0.0212
9 -5 13 4.6247 -0.0254
9 -5 14 1.3398 -0.0177
9 -5 15 -1.7239 -0.0013
9 -5 16 0.5221 0.0201
9 -5 17 1.6596 0.0239
9 -5 18 0.8940 0.0101
9 -4 0 3.3528 0.3323
9 -4 1 1.3239 0.3140
9 -4 2 -2.0610 -0.0108
9 -4 3 -3.8416 -0.1111
9 -4 4 -3.8895 0.0360
9 -4 5 -2.8818 0.0426
9 -4 6 -1.2157 -0.0242
9 -4 7 -0.2699 -0.0084
9 -4 8 1.6629 0.0427
9 -4 9 -5.0108 0.0064
9 -4 10 -4.9174 -0.0235
9 -4 11 1.6871 -0.0071
9 -4 12 -0.5036 0.0217
9 -4 13 -3.8695 0.0119
9 -4 14 1.7235 -0.0230
9 -4 15 3.0836 -0.0330
9 -4 16 -0.7316 -0.0083
9 -4 17 -1.8025 0.0298
9 -4 18 1.8547 0.0640
9 -3 0 8.5863 0.0084
9 -3 1 4.7162 0.1228
9 -3 2 -4.3439 0.1580
9 -3 3 -4.5341 -0.0207
9 -3 4 -2.9549 -0.0676
9 -3 5 -2.8825 0.0210
9 -3 6 -0.8931 -0.0019
9 -3 7 -1.2342 -0.0426
9 -3 8 -1.7968 0.0106
9 -3 9 1.1374 0.0590
9 -3 10 -0.2310 0.0025
9 -3 11 -1.7596 -0.0260
9 -3 12 0.0586 -0.0131
9 -3 13 -0.5191 0.0069
9 -3 14 -1.2472 0.0112
9 -3 15 -1.4438 0.0042
9 -3 16 -0.9290 -0.0279
9 -3 17 -0.1011 -0.0155
9 -3 18 -2.1379 0.0094
9 -2 0 1.7127 -0.0760
9 -2 1 2.2141 -0.0863
9 -2 2 1.9015 -0.0525
9 -2 3 -2.5229 0.0127
9 -2 4 -5.3980 -0.0439
9 -2 5 -1.6383 0.0011
9 -2 6 -1.5268 0.0590
9 -2 7 -0.1734 -0.0218
9 -2 8 1.9742 -0.0620
9 -2 9 -0.6959 0.0023
9 -2 10 -2.8249 0.0484
9 -2 11 0.7406 0.0033
9 -2 12 2.0591 -0.0194
9 -2 13 -0.5670 -0.0116
9 -2 14 -3.0602 0.0112
9 -2 15 0.5082 0.0123
9 -2 16 0.6701 0.0327
9 -2 17 -1.1078 -0.0065
9 -2 18 -0.7298 -0.0100
9 -1 0 -2.9382 -0.2429
9 -1 1 -2.5916 -0.0159
9 -1 2 -4.4229 -0.0065
9 -1 3 -3.3244 -0.0509
9 -1 4 1.1761 -0.0208
9 -1 5 -1.0418 -0.0280
9 -1 6 2.2780 0.0470
9 -1 7 -0.8179 0.0838
9 -1 8 -4.2763 -0.0246
9 -1 9 0.2510 -0.0742
9 -1 10 0.2644 -0.0043
9 -1 11 -2.1836 0.0286
9 -1 12 1.1382 -0.0091
9 -1 13 0.2930 -0.0085
9 -1 14 -0.2854 -0.0195
9 -1 15 -1.9692 0.0214
9 -1 16 -1.4749 0.0239
9 -1 17 0.3709 0.0389
9 0 0 -0.9234 -0.2940
9 0 1 -5.6381 -0.1763
9 0 2 -2.6891 0.1035
9 0 3 1.5271 0.1020
9 0 4 -1.4546 -0.0110
9 0 5 -0.2769 -0.0404
9 0 6 -1.7548 -0.0554
9 0 7 0.5958 0.0272
9 0 8 -0.2531 0.0625
9 0 9 -2.4518 -0.0256
9 0 10 0.3332 -0.0288
9 0 11 -1.4101 0.0261
9 0 12 -2.7087 0.0129
9 0 13 0.0816 -0.0125
9 0 14 -3.5036 0.0338
9 0 15 -2.5114 -0.0007
9 0 16 0.4740 0.0021
9 0 17 1.9897 0.0245
9 1 0 -2.6965 0.3179
9 1 1 0.4280 -0.1482
9 1 2 -1.1787 -0.1534
9 1 3 -2.5665 0.1031
9 1 4 2.9346 0.1081
9 1 5 2.1615 -0.0000
9 1 6 2.1707 -0.0573
9 1 7 1.2150 -0.0694
9 1 8 -0.2045 0.0233
9 1 9 0.9731 0.0502
9 1 10 0.0985 -0.0145
9 1 11 -0.2249 0.0081
9 1 12 -2.5452 0.0380
9 1 13 -2.0854 -0.0100
9 1 14 0.6585 -0.0473
9 1 15 -1.2908 0.0367
9 1 16 -0.7730 -0.0130
9 2 0 -4.8470 0.4498
9 2 1 -1.8825 0.3131
9 2 2 2.4483 -0.0941
9 2 3 3.5401 -0.1436
9 2 4 -1.0252 0.0505
9 2 5 0.1540 0.0671
9 2 6 0.0003 0.0025
9 2 7 0.3893 -0.0200
9 2 8 1.1991 -0.0256
9 2 9 -2.4548 0.0066
9 2 10 1.3112 -0.0001
9 2 11 0.7750 -0.0393
9 2 12 -2.5939 -0.0014
9 2 13 -1.8980 0.0146
9 2 14 1.5401 -0.0069
9 2 15 0.7063 -0.0101
9 2 16 -2.1972 0.0412
9 3 0 -0.8537 -0.1606
9 3 1 0.9456 0.2252
9 3 2 2.8828 0.1953
9 3 3 2.9021 -0.0911
9 3 4 1.1740 -0.1091
9 3 5 -2.6839 0.0240
9 3 6 -2.0789 0.0179
9 3 7 -0.7464 -0.0138
9 3 8 -1.2174 0.0125
9 3 9 0.7623 0.0232
9 3 10 -3.5026 0.0094
9 3 11 -1.1878 -0.0408
9 3 12 -2.5119 -0.0438
9 3 13 -4.2795 0.0302
9 3 14 -1.1523 0.0110
9 3 15 2.3869 0.0258
9 4 0 2.3236 -0.3120
9 4 1 -0.3079 -0.2547
9 4 2 -0.4406 0.0588
9 4 3 4.4514 0.1074
9 4 4 3.6155 -0.0542
9 4 5 0.9916 -0.0247
9 4 6 -0.3441 0.0384
9 4 7 -0.5584 -0.0105
9 4 8 1.7374 -0.0311
9 4 9 -1.9842 0.0166
9 4 10 -1.1746 0.0416
9 4 11 -0.6861 0.0280
9 4 12 0.0786 -0.0345
9 4 13 -2.1523 -0.0526
9 4 14 -0.7417 0.0153
9 4 15 0.5319 -0.0141
9 5 0 1.2881 -0.0419
9 5 1 4.5106 -0.1460
9 5 2 0.0777 -0.1334
9 5 3 -2.9280 0.0092
9 5 4 3.0845 0.0338
9 5 5 2.3366 -0.0318
9 5 6 0.2773 0.0383
9 5 7 1.4750 0.0469
9 5 8 -0.1612 -0.0480
9 5 9 2.3803 -0.0680
9 5 10 -0.1665 0.0168
9 5 11 -1.3489 0.0549
9 5 12 -0.2524 0.0412
9 5 13 0.9887 -0.0009
9 5 14 -1.1405 -0.0490
9 6 0 2.2989 -0.0080
9 6 1 0.7648 0.0604
9 6 2 0.4487 0.0311
9 6 3 1.5590 -0.0039
9 6 4 1.1513 0.0036
9 6 5 4.1460 -0.0262
9 6 6 2.8978 -0.0526
9 6 7 1.2362 0.0531
9 6 8 2.5937 0.0553
9 6 9 0.4879 -0.0409
9 6 10 0.1655 -0.0624
9 6 11 -1.2102 0.0083
9 6 12 -0.8919 0.0359
9 6 13 -1.4540 0.0004
9 7 0 1.0114 0.1586
9 7 1 3.0379 -0.0291
9 7 2 3.1798 0.0233
9 7 3 -2.4324 0.0806
9 7 4 2.3371 0.0544
9 7 5 4.0583 0.0055
9 7 6 1.5092 -0.0516
9 7 7 -0.2466 -0.0520
9 7 8 -2.7335 0.0344
9 7 9 -3.8110 0.0385
9 7 10 -2.8830 -0.0279
9 7 11 -1.2357 -0.0421
9 7 12 -3.9865 0.0199
9 7 13 -1.0718 0.0339
9 8 0 0.2003 0.3042
9 8 1 -0.2492 0.1167
9 8 2 1.0055 -0.1031
9 8 3 2.5889 -0.0849
9 8 4 -2.6434 0.0496
9 8 5 -0.2967 0.0670
9 8 6 0.4453 -0.0020
9 8 7 -2.0661 -0.0388
9 8 8 -1.6289 -0.0183
9 8 9 -3.7412 0.0076
9 8 10 -5.6414 0.0159
9 8 11 -4.6136 -0.0240
9 8 12 0.8367 -0.0217
9 9 0 -0.8954 -0.1171
9 9 1 -3.1273 0.1803
9 9 2 1.5392 0.0867
9 9 3 -0.0799 -0.1132
9 9 4 -0.5817 -0.1110
9 9 5 -1.6386 0.0309
9 9 6 -1.2025 0.0598
9 9 7 -1.7822 0.0263
9 9 8 -3.4946 0.0063
9 9 9 -0.3565 0.0474
9 9 10 -0.4476 0.0032
9 9 11 0.7207 -0.0543
9 10 0 0.5244 -0.3355
9 10 1 0.8198 -0.1706
9 10 2 0.3755 0.1095
9 10 3 3.8175 0.0922
9 10 4 1.6929 -0.0587
9 10 5 -0.9990 -0.0764
9 10 6 -0.7803 0.0254
9 10 7 -1.9265 0.0440
9 10 8 -2.0495 0.0247
9 10 9 -3.0173 0.0098
9 11 0 2.5554 0.0166
9 11 1 1.4948 -0.1871
9 11 2 2.8602 -0.0953
9 11 3 0.8942 0.0590
9 11 4 1.1937 0.0817
9 11 5 1.0149 -0.0247
9 11 6 -0.4320 -0.0414
9 11 7 2.5579 0.0455
9 11 8 -0.4417 0.0078
9 12 0 1.3702 0.1740
9 12 1 -0.4384 0.1118
9 12 2 -1.3236 -0.0660
9 12 3 -2.5338 -0.0449
9 12 4 -1.7113 0.0190
9 12 5 -0.3186 0.0108
9 12 6 -0.1379 -0.0395
9 12 7 -2.3258 0.0106
9 13 0 -0.6008 0.0876
9 13 1 -1.3814 0.1049
9 13 2 1.5247 0.0915
9 13 3 3.4932 -0.0495
9 13 4 1.0362 -0.0116
9 13 5 1.4731 -0.0142
9 14 0 0.8350 0.0251
9 14 1 0.0448 -0.0085
9 14 2 0.7194 0.0101
9 14 3 1.4296 0.0069
9 15 0 1.1976 -0.0561
9 15 1 -1.2086 0.0534
10 -18 0 -0.2248 -0.0685
10 -18 1 1.3979 0.0147
10 -18 2 4.2827 0.0255
10 -18 3 3.5331 -0.0154
10 -18 4 0.5076 -0.0456
10 -18 5 0.6472 0.0475
10 -18 6 1.2927 -0.0342
10 -17 0 -2.4977 -0.1938
10 -17 1 -2.6365 -0.0996
10 -17 2 -0.8813 0.0442
10 -17 3 2.4302 0.0149
10 -17 4 1.8343 -0.0139
10 -17 5 -3.9408 -0.0307
10 -17 6 -2.6736 0.0136
10 -17 7 1.5999 -0.0326
10 -17 8 -0.4726 0.0228
10 -17 9 -1.9495 -0.0093
10 -16 0 0.3946 -0.0640
10 -16 1 -0.7726 -0.1409
10 -16 2 -0.0923 -0.0587
10 -16 3 -0.4879 0.0439
10 -16 4 -1.1342 -0.0416
10 -16 5 0.5177 -0.0042
10 -16 6 -2.0584 -0.0114
10 -16 7 -2.2663 0.0081
10 -16 8 -0.8483 -0.0200
10 -16 9 -1.1508 -0.0047
10 -16 10 -0.5763 0.0016
10 -16 11 -1.2694 -0.0524
10 -15 0 0.6995 0.1074
10 -15 1 -0.1717 0.0277
10 -15 2 -0.5143 -0.0258
10 -15 3 0.2384 -0.0196
10 -15 4 0.7163 0.0423
10 -15 5 -1.9343 -0.0044
10 -15 6 -0.9459 -0.0250
10 -15 7 0.1314 -0.0031
10 -15 8 0.5296 0.0472
10 -15 9 -1.2930 -0.0131
10 -15 10 -3.7993 -0.0150
10 -15 11 1.1449 0.0356
10 -15 12 1.2569 -0.0273
10 -14 0 1.3357 0.1570
10 -14 1 1.8585 0.0840
10 -14 2 0.5892 0.0442
10 -14 3 0.6850 0.0057
10 -14 4 -1.8160 0.0005
10 -14 5 0.4356 0.0452
10 -14 6 -0.0126 -0.0111
10 -14 7 -1.6775 -0.0114
10 -14 8 -0.3647 0.0102
10 -14 9 -0.9627 0.0069
10 -14 10 -1.0519 0.0255
10 -14 11 -2.0749 -0.0003
10 -14 12 0.3197 -0.0042
10 -14 13 -0.6049 0.0008
10 -13 0 3.7189 0.1345
10 -13 1 2.1314 0.0438
10 -13 2 2.0227 -0.0070
10 -13 3 3.7703 -0.0124
10 -13 4 2.6783 -0.0103
10 -13 5 -1.1671 0.0326
10 -13 6 0.4631 -0.0134
10 -13 7 -0.2303 -0.0510
10 -13 8 1.3842 -0.0044
10 -13 9 3.9597 -0.0123
10 -13 10 -2.7497 -0.0249
10 -13 11 -0.9913 0.0281
10 -13 12 1.5385 -0.0101
10 -13 13 0.4377 -0.0225
10 -13 14 -1.1836 0.0118
10 -12 0 0.9980 -0.0918
10 -12 1 1.7902 0.0560
10 -12 2 -2.4262 0.0153
10 -12 3 1.1497 -0.0564
10 -12 4 1.4363 -0.0316
10 -12 5 -0.6054 0.0173
10 -12 6 -0.3154 0.0256
10 -12 7 -2.4890 0.0018
10 -12 8 -2.2922 -0.0095
10 -12 9 2.5958 -0.0235
10 -12 10 3.7288 0.0173
10 -12 11 -0.5570 0.0074
10 -12 12 -1.8324 -0.0135
10 -12 13 -1.5354 0.0007
10 -12 14 1.3298 0.0133
10 -12 15 2.5059 -0.0158
10 -11 0 0.2296 -0.3187
10 -11 1 0.7274 -0.1112
10 -11 2 -3.7413 0.0765
10 -11 3 -3.2866 0.0261
10 -11 4 1.3654 -0.0571
10 -11 5 -1.3727 -0.0148
10 -11 6 -1.4198 0.0061
10 -11 7 -0.6119 0.0274
10 -11 8 -1.4422 0.0379
10 -11 9 -0.9750 -0.0037
10 -11 10 -0.8565 -0.0233
10 -11 11 -1.8217 0.0268
10 -11 12 -0.8522 0.0114
10 -11 13 -1.4895 -0.0242
10 -11 14 -1.5185 0.0165
10 -11 15 -1.9645 0.0314
10 -10 0 2.8521 -0.0686
10 -10 1 1.0209 -0.2203
10 -10 2 -2.3694 -0.0365
10 -10 3 -4.7945 0.1127
10 -10 4 -1.9142 0.0313
10 -10 5 1.6441 -0.0212
10 -10 6 2.6824 -0.0117
10 -10 7 1.5918 -0.0102
10 -10 8 -1.8129 0.0153
10 -10 9 2.5794 0.0104
10 -10 10 1.5486 -0.0140
10 -10 11 -0.2330 0.0139
10 -10 12 -1.6518 0.0089
10 -10 13 -2.1666 -0.0237
10 -10 14 0.3350 -0.0012
10 -10 15 3.3469 0.0279
10 -10 16 -2.3767 -0.0257
10 -9 0 -1.8214 0.3090
10 -9 1 2.9274 0.0521
10 -9 2 0.5345 -0.1327
10 -9 3 -1.4016 -0.0198
10 -9 4 -0.1600 0.0928
10 -9 5 -2.6617 0.0005
10 -9 6 -1.2478 -0.0219
10 -9 7 0.8579 0.0078
10 -9 8 1.5742 -0.0029
10 -9 9 -1.2942 -0.0077
10 -9 10 2.1729 0.0041
10 -9 11 1.1259 0.0014
10 -9 12 1.1146 0.0416
10 -9 13 1.5670 -0.0045
10 -9 14 0.4928 -0.0483
10 -9 15 -1.6179 0.0192
10 -9 16 1.9303 0.0280
10 -8 0 -1.1361 0.1778
10 -8 1 1.5136 0.2620
10 -8 2 3.7966 0.0567
10 -8 3 2.4182 -0.1066
10 -8 4 -0.1367 -0.0243
10 -8 5 -0.6579 0.0389
10 -8 6 -0.0197 -0.0434
10 -8 7 1.1449 -0.0131
10 -8 8 -3.2234 0.0171
10 -8 9 -1.8086 0.0031
10 -8 10 -0.3490 -0.0210
10 -8 11 2.8539 -0.0224
10 -8 12 0.6603 -0.0106
10 -8 13 -2.0856 0.0120
10 -8 14 0.6723 -0.0081
10 -8 15 1.5963 0.0145
10 -8 16 -3.3275 0.0811
10 -7 0 -4.2595 -0.0662
10 -7 1 -2.9869 0.0215
10 -7 2 0.7095 0.1116
10 -7 3 1.5952 0.0008
10 -7 4 3.7241 -0.0495
10 -7 5 0.8608 0.0261
10 -7 6 -2.2656 0.0207
10 -7 7 -0.0578 -0.0438
10 -7 8 2.9886 -0.0001
10 -7 9 -0.6134 0.0176
10 -7 10 -2.7079 0.0164
10 -7 11 -2.2042 0.0030
10 -7 12 1.4417 -0.0148
10 -7 13 2.8567 0.0013
10 -7 14 0.5051 -0.0043
10 -7 15 0.8588 -0.0246
10 -7 16 2.2427 0.0447
10 -6 0 0.9241 -0.1486
10 -6 1 1.7421 -0.1056
10 -6 2 -0.8721 -0.0495
10 -6 3 1.1186 0.0026
10 -6 4 0.0842 -0.0226
10 -6 5 -1.5339 -0.0099
10 -6 6 0.3168 0.0495
10 -6 7 0.9828 0.0219
10 -6 8 0.0818 -0.0421
10 -6 9 -2.8639 -0.0132
10 -6 10 -0.1271 0.0242
10 -6 11 3.7702 0.0219
10 -6 12 1.1456 0.0168
10 -6 13 0.6431 0.0186
10 -6 14 3.7085 0.0219
10 -6 15 2.7822 -0.0276
10 -6 16 -0.0102 -0.0654
10 -5 0 2.7316 -0.2490
10 -5 1 2.2844 -0.0670
10 -5 2 3.4095 0.0075
10 -5 3 -0.9405 -0.0018
10 -5 4 -0.7057 -0.0276
10 -5 5 -0.2457 -0.0366
10 -5 6 -5.6162 -0.0109
10 -5 7 -3.3860 0.0413
10 -5 8 0.5796 0.0197
10 -5 9 2.6785 -0.0443
10 -5 10 -1.3037 -0.0441
10 -5 11 -0.5344 0.0167
10 -5 12 4.9141 0.0018
10 -5 13 3.4758 -0.0129
10 -5 14 -0.4986 0.0405
10 -5 15 -0.3446 0.0109
10 -5 16 1.7851 -0.0651
10 -4 0 -3.8310 -0.0563
10 -4 1 0.9073 -0.1606
10 -4 2 -0.5643 0.0214
10 -4 3 -1.2447 0.1088
10 -4 4 -2.3044 0.0440
10 -4 5 -4.5084 -0.0352
10 -4 6 -2.4118 -0.0445
10 -4 7 -2.3206 -0.0143
10 -4 8 1.2893 0.0512
10 -4 9 -1.3909 0.0273
10 -4 10 -1.5195 -0.0307
10 -4 11 1.2853 -0.0038
10 -4 12 -0.4500 0.0203
10 -4 13 1.2731 -0.0299
10 -4 14 2.4927 -0.0311
10 -4 15 0.9784 0.0371
10 -4 16 -0.6928 0.0035
10 -3 0 -0.0063 0.4362
10 -3 1 -2.1414 0.0494
10 -3 2 -3.4380 -0.1422
10 -3 3 -3.7375 0.0095
10 -3 4 -3.0302 0.1012
10 -3 5 0.4581 0.0329
10 -3 6 -0.4374 -0.0164
10 -3 7 -2.8479 -0.0334
10 -3 8 -2.9804 -0.0147
10 -3 9 3.1156 0.0457
10 -3 10 0.9434 0.0032
10 -3 11 -2.5568 -0.0326
10 -3 12 0.8941 0.0387
10 -3 13 -0.5347 0.0108
10 -3 14 1.1095 -0.0452
10 -3 15 -0.3082 -0.0013
10 -3 16 -1.2269 0.0404
10 -2 0 3.2607 0.2285
10 -2 1 -1.2812 0.3524
10 -2 2 -2.5378 0.0104
10 -2 3 -4.5943 -0.1671
10 -2 4 -4.3868 -0.0288
10 -2 5 -3.7326 0.0552
10 -2 6 -0.5850 0.0085
10 -2 7 0.9134 -0.0070
10 -2 8 0.3567 -0.0251
10 -2 9 -1.6724 -0.0184
10 -2 10 1.2518 0.0031
10 -2 11 3.4616 -0.0154
10 -2 12 -0.1472 -0.0181
10 -2 13 0.1309 0.0550
10 -2 14 -3.8265 0.0274
10 -2 15 0.8960 -0.0274
10 -2 16 1.4498 0.0438
10 -1 0 -0.9797 -0.3289
10 -1 1 -0.5545 0.0174
10 -1 2 -5.8568 0.1978
10 -1 3 -4.6471 -0.0186
10 -1 4 -3.0578 -0.1178
10 -1 5 -1.8334 -0.0057
10 -1 6 0.3620 0.0335
10 -1 7 1.9952 -0.0171
10 -1 8 -0.1055 0.0075
10 -1 9 -0.1183 0.0069
10 -1 10 0.6143 0.0105
10 -1 11 1.3991 -0.0102
10 -1 12 4.6590 -0.0446
10 -1 13 1.2840 -0.0216
10 -1 14 2.7729 0.0164
10 -1 15 -2.2702 0.0224
10 0 0 -1.5262 -0.2463
10 0 1 -3.5815 -0.2890
10 0 2 -2.3329 -0.0309
10 0 3 -2.8498 0.1149
10 0 4 -0.1733 -0.0064
10 0 5 -0.1544 -0.0303
10 0 6 -1.7374 0.0407
10 0 7 -1.7769 0.0063
10 0 8 0.3144 -0.0506
10 0 9 -0.7986 0.0070
10 0 10 0.0860 0.0343
10 0 11 0.4937 0.0435
10 0 12 -1.8158 -0.0015
10 0 13 3.2468 -0.0611
10 0 14 -0.4917 0.0083
10 0 15 0.1298 0.0130
10 1 0 -5.5655 0.0402
10 1 1 -1.7980 -0.0472
10 1 2 -2.4683 -0.1208
10 1 3 -2.6201 0.0096
10 1 4 -1.4852 0.0506
10 1 5 1.7451 -0.0313
10 1 6 0.3492 -0.0040
10 1 7 0.1613 0.0460
10 1 8 -0.9726 0.0005
10 1 9 -0.6603 -0.0599
10 1 10 -0.3108 -0.0149
10 1 11 0.6990 0.0537
10 1 12 -1.6433 0.0530
10 1 13 -6.4690 0.0129
10 1 14 1.4505 -0.0624
10 1 15 1.9916 0.0311
10 2 0 -3.6930 0.0392
10 2 1 -4.6256 0.0598
10 2 2 -1.9135 0.0612
10 2 3 -0.5688 0.0090
10 2 4 -0.4144 0.0220
10 2 5 -1.5032 -0.0225
10 2 6 1.3885 -0.0647
10 2 7 0.5624 0.0059
10 2 8 1.3050 0.0755
10 2 9 -1.7294 0.0206
10 2 10 -0.9001 -0.0712
10 2 11 2.7605 -0.0703
10 2 12 2.3991 -0.0007
10 2 13 0.0769 -0.0117
10 2 14 -3.0389 -0.0204
10 3 0 -2.4773 0.2397
10 3 1 0.9748 -0.0040
10 3 2 -0.3213 -0.0376
10 3 3 -0.9370 0.0236
10 3 4 -0.4875 0.0468
10 3 5 -1.9681 0.0382
10 3 6 -6.1047 -0.0370
10 3 7 -1.9021 -0.0729
10 3 8 0.3673 0.0034
10 3 9 1.9098 0.0737
10 3 10 -2.4261 0.0188
10 3 11 -2.1793 -0.0540
10 3 12 2.5488 -0.0484
10 3 13 0.6425 0.0244
10 3 14 -1.3245 -0.0047
10 4 0 -1.2716 0.1888
10 4 1 -0.1982 0.1796
10 4 2 1.7806 -0.0651
10 4 3 -0.7930 -0.0988
10 4 4 -0.7401 -0.0138
10 4 5 0.4569 0.0632
10 4 6 -2.2269 0.0596
10 4 7 -5.2453 -0.0241
10 4 8 -0.1295 -0.0424
10 4 9 0.4930 0.0096
10 4 10 0.3835 0.0435
10 4 11 -1.2813 0.0333
10 4 12 -1.1824 -0.0041
10 4 13 0.6603 -0.0039
10 5 0 1.1105 -0.3077
10 5 1 1.1162 0.0665
10 5 2 1.7631 0.1640
10 5 3 -0.6208 -0.0480
10 5 4 -0.3723 -0.1154
10 5 5 0.5874 -0.0319
10 5 6 -0.8965 0.0578
10 5 7 -2.5294 0.0427
10 5 8 -3.9616 -0.0201
10 5 9 0.7660 -0.0135
10 5 10 2.4401 0.0228
10 5 11 0.1567 -0.0066
10 5 12 -0.8516 0.0035
10 6 0 1.9894 -0.2732
10 6 1 0.1331 -0.2680
10 6 2 2.6090 0.0269
10 6 3 2.4165 0.1563
10 6 4 -3.8154 0.0043
10 6 5 0.4041 -0.0661
10 6 6 1.6456 -0.0289
10 6 7 -0.8461 0.0133
10 6 8 0.9797 -0.0053
10 6 9 -0.8541 -0.0219
10 6 10 -0.1725 0.0237
10 6 11 1.9511 0.0685
10 7 0 1.0037 0.1648
10 7 1 -1.2549 -0.1008
10 7 2 0.5653 -0.1548
10 7 3 1.3611 0.0424
10 7 4 2.3173 0.1080
10 7 5 -0.5783 0.0097
10 7 6 1.1857 -0.0260
10 7 7 1.3538 -0.0104
10 7 8 -1.6137 -0.0124
10 7 9 -1.4992 -0.0626
10 7 10 -1.0288 -0.0385
10 7 11 0.2527 0.0333
10 8 0 1.1795 0.1887
10 8 1 -1.0063 0.1630
10 8 2 -0.8204 -0.0156
10 8 3 3.9261 -0.0940
10 8 4 -0.1437 0.0128
10 8 5 0.8289 0.0512
10 8 6 1.1726 -0.0280
10 8 7 -1.1074 -0.0029
10 8 8 -0.6979 0.0657
10 8 9 -1.3123 -0.0113
10 8 10 -2.5317 -0.0941
10 9 0 0.4912 0.0212
10 9 1 -1.1751 0.0539
10 9 2 -1.8935 0.0655
10 9 3 -1.4830 0.0071
10 9 4 1.6457 -0.0360
10 9 5 -2.1372 0.0451
10 9 6 -1.5244 0.0395
10 9 7 1.4107 -0.0429
10 9 8 -0.6806 0.0440
10 10 0 0.3131 0.0193
10 10 1 0.1870 -0.0319
10 10 2 -1.2154 -0.0420
10 10 3 0.0778 0.0006
10 10 4 -0.5728 -0.0047
10 10 5 0.2348 0.0322
10 10 6 -2.8171 0.0725
10 10 7 -3.2025 0.0100
10 11 0 -0.7073 -0.1265
10 11 1 2.0715 -0.0097
10 11 2 2.9166 0.0239
10 11 3 1.6414 -0.0476
10 11 4 1.7484 -0.0491
10 11 5 0.7622 0.0025
10 11 6 0.3803 0.0671
10 12 0 0.3514 -0.1634
10 12 1 -0.0483 -0.1256
10 12 2 -0.8549 0.0020
10 12 3 -0.0424 0.0932
10 12 4 -1.5772 -0.0252
10 13 0 -1.8117 0.1109
10 13 1 -1.2584 -0.1013
10 13 2 -1.1737 -0.0867
10 14 0 -0.8060 0.1546
11 -17 0 0.4961 -0.0264
11 -17 1 -0.7705 0.0642
11 -17 2 -1.9020 0.0009
11 -17 3 2.3353 0.0790
11 -16 0 -0.7320 -0.0913
11 -16 1 1.9826 -0.0207
11 -16 2 -0.1260 0.0410
11 -16 3 -2.8344 -0.0093
11 -16 4 -0.0583 -0.0060
11 -16 5 2.0509 0.0178
11 -16 6 -0.6733 -0.0203
11 -16 7 -2.3595 -0.0378
11 -15 0 0.5896 -0.1713
11 -15 1 0.8132 -0.0779
11 -15 2 1.1360 -0.0140
11 -15 3 1.5917 0.0519
11 -15 4 0.6702 -0.0169
11 -15 5 -0.8946 -0.0394
11 -15 6 0.8228 -0.0121
11 -15 7 0.6618 -0.0368
11 -15 8 -0.0015 -0.0056
11 -15 9 -1.3973 -0.0612
11 -14 0 -1.8798 0.1039
11 -14 1 0.7199 -0.0711
11 -14 2 -1.3447 -0.0559
11 -14 3 -1.1333 0.0139
11 -14 4 0.4904 0.0069
11 -14 5 1.3450 -0.0030
11 -14 6 -0.9124 0.0071
11 -14 7 -2.2340 -0.0196
11 -14 8 -3.9463 -0.0181
11 -14 9 -1.4734 0.0212
11 -14 10 -0.3223 -0.0213
11 -13 0 1.8330 0.2363
11 -13 1 3.8654 0.1341
11 -13 2 1.5221 -0.0444
11 -13 3 -1.5588 -0.0169
11 -13 4 1.0376 0.0111
11 -13 5 -0.9007 0.0058
11 -13 6 -0.4405 -0.0104
11 -13 7 -0.0534 -0.0177
11 -13 8 -2.8169 0.0461
11 -13 9 -4.2732 0.0101
11 -13 10 -3.2741 -0.0287
11 -13 11 -1.4631 0.0390
11 -12 0 1.1461 0.0552
11 -12 1 4.0662 0.1524
11 -12 2 4.2122 0.0791
11 -12 3 -1.3936 -0.0191
11 -12 4 -1.8684 -0.0344
11 -12 5 -0.3550 0.0227
11 -12 6 -0.9387 0.0205
11 -12 7 1.2013 -0.0363
11 -12 8 1.0059 0.0185
11 -12 9 1.7732 0.0485
11 -12 10 1.6831 -0.0099
11 -12 11 -0.8105 -0.0199
11 -12 12 -1.0264 0.0197
11 -11 0 -2.7479 -0.1275
11 -11 1 -0.2250 -0.0711
11 -11 2 0.1266 0.0103
11 -11 3 0.3925 0.0086
11 -11 4 -0.8168 -0.0494
11 -11 5 -1.8959 -0.0139
11 -11 6 -3.3105 0.0411
11 -11 7 -0.8914 -0.0295
11 -11 8 1.8572 -0.0175
11 -11 9 -0.2649 0.0446
11 -11 10 -0.0034 -0.0374
11 -11 11 -3.4596 -0.0125
11 -11 12 -2.8986 0.0149
11 -11 13 -1.1078 -0.0480
11 -10 0 -0.9536 -0.1388
11 -10 1 -4.5207 -0.0815
11 -10 2 0.6188 -0.0426
11 -10 3 -3.3950 0.0204
11 -10 4 0.0035 -0.0209
11 -10 5 1.6317 -0.0303
11 -10 6 0.2607 0.0377
11 -10 7 -0.8099 0.0291
11 -10 8 -4.1818 -0.0078
11 -10 9 -1.6099 0.0065
11 -10 10 -2.8851 0.0016
11 -10 11 -2.8966 -0.0380
11 -10 12 -6.7585 -0.0046
11 -10 13 -5.0625 -0.0181
11 -9 0 -5.0686 -0.1247
11 -9 1 -3.9562 -0.0564
11 -9 2 -5.6556 0.0168
11 -9 3 -1.4191 0.0229
11 -9 4 -2.1651 0.0205
11 -9 5 0.4020 -0.0197
11 -9 6 -0.2216 -0.0058
11 -9 7 1.0165 0.0252
11 -9 8 4.2178 0.0128
11 -9 9 -2.5889 0.0199
11 -9 10 -0.4758 0.0160
11 -9 11 -1.4762 -0.0040
11 -9 12 -0.4146 0.0246
11 -9 13 -2.6255 0.0003
11 -9 14 -2.3976 -0.0674
11 -8 0 -1.3752 0.1156
11 -8 1 -5.7649 -0.0764
11 -8 2 0.3001 -0.0180
11 -8 3 -2.1156 0.0593
11 -8 4 -1.2824 0.0379
11 -8 5 -0.1267 0.0016
11 -8 6 1.4760 -0.0398
11 -8 7 1.2573 -0.0309
11 -8 8 -1.5898 0.0046
11 -8 9 1.9675 0.0080
11 -8 10 -2.3582 -0.0176
11 -8 11 -0.0058 -0.0186
11 -8 12 0.6408 -0.0035
11 -8 13 -0.9545 0.0202
11 -8 14 -1.5905 -0.0251
11 -7 0 0.5104 0.3583
11 -7 1 -1.8397 0.1466
11 -7 2 -2.6854 -0.0798
11 -7 3 1.3542 -0.0476
11 -7 4 3.2887 0.0382
11 -7 5 1.6485 0.0501
11 -7 6 -1.3528 0.0075
11 -7 7 -1.0334 -0.0316
11 -7 8 0.8966 -0.0214
11 -7 9 -2.4404 -0.0003
11 -7 10 -2.7004 0.0159
11 -7 11 -3.7404 -0.0234
11 -7 12 0.8575 -0.0198
11 -7 13 1.3952 0.0393
11 -7 14 -1.0158 0.0225
11 -6 0 -0.8982 -0.0180
11 -6 1 0.6624 0.2098
11 -6 2 -0.1894 0.0778
11 -6 3 1.0090 -0.1220
11 -6 4 1.3686 -0.0803
11 -6 5 2.5684 0.0213
11 -6 6 2.2690 0.0325
11 -6 7 0.3410 0.0049
11 -6 8 -0.3039 -0.0108
11 -6 9 -0.3002 -0.0010
11 -6 10 -1.7459 0.0066
11 -6 11 -1.6702 0.0051
11 -6 12 -0.5756 -0.0037
11 -6 13 2.1284 0.0311
11 -6 14 1.4875 0.0916
11 -5 0 1.6966 -0.3361
11 -5 1 2.0069 -0.1278
11 -5 2 4.6098 0.1205
11 -5 3 0.0956 0.0574
11 -5 4 2.0190 -0.0823
11 -5 5 3.2361 -0.0312
11 -5 6 -0.1835 0.0210
11 -5 7 -1.8926 0.0027
11 -5 8 -1.3081 0.0065
11 -5 9 1.8177 0.0023
11 -5 10 0.0978 -0.0171
11 -5 11 -1.2317 -0.0064
11 -5 12 0.6435 -0.0277
11 -5 13 0.8829 -0.0417
11 -5 14 0.9851 0.0422
11 -4 0 -1.7948 -0.0981
11 -4 1 2.0223 -0.2226
11 -4 2 1.1871 -0.0766
11 -4 3 2.2160 0.1038
11 -4 4 -2.2416 0.0450
11 -4 5 -2.6104 -0.0345
11 -4 6 -0.4666 0.0249
11 -4 7 -2.4789 0.0236
11 -4 8 -1.9125 -0.0278
11 -4 9 -1.2230 -0.0045
11 -4 10 2.0964 0.0184
11 -4 11 2.0524 0.0102
11 -4 12 0.4728 0.0083
11 -4 13 0.9608 -0.0375
11 -4 14 0.4108 -0.0833
11 -3 0 -0.4523 0.0954
11 -3 1 -0.7541 0.0514
11 -3 2 1.5116 -0.0713
11 -3 3 -0.5200 -0.0358
11 -3 4 -1.8365 0.0484
11 -3 5 -1.8463 -0.0158
11 -3 6 -0.0573 -0.0321
11 -3 7 0.1904 0.0483
11 -3 8 -3.0593 0.0235
11 -3 9 -0.6115 -0.0289
11 -3 10 -0.2601 -0.0165
11 -3 11 1.9097 -0.0013
11 -3 12 3.7491 0.0569
11 -3 13 0.4517 0.0073
11 -3 14 1.3453 -0.0795
11 -2 0 -0.9976 0.1058
11 -2 1 -0.1627 0.0707
11 -2 2 -0.9209 0.0618
11 -2 3 0.6769 -0.0056
11 -2 4 1.3759 0.0012
11 -2 5 -1.7250 0.0037
11 -2 6 -1.5174 -0.0668
11 -2 7 0.0568 -0.0337
11 -2 8 0.8175 0.0467
11 -2 9 -1.7563 0.0264
11 -2 10 -1.5802 -0.0267
11 -2 11 -0.8659 -0.0075
11 -2 12 0.6000 -0.0240
11 -2 13 1.8361 0.0634
11 -2 14 -3.5302 0.0432
11 -1 0 -1.7370 0.2329
11 -1 1 -1.7762 0.0504
11 -1 2 -3.2651 -0.0321
11 -1 3 -4.0205 -0.0091
11 -1 4 -1.1855 0.0209
11 -1 5 1.5221 0.0616
11 -1 6 0.2581 0.0171
11 -1 7 1.2923 -0.0733
11 -1 8 0.5584 -0.0409
11 -1 9 1.7000 0.0302
11 -1 10 0.1647 0.0448
11 -1 11 -0.9616 -0.0172
11 -1 12 0.2632 0.0125
11 -1 13 -0.6299 -0.0067
11 -1 14 3.2900 0.0323
11 0 0 0.6826 -0.0211
11 0 1 -2.6387 0.1456
11 0 2 -2.9251 0.0021
11 0 3 -4.1495 -0.1020
11 0 4 -2.2182 -0.0486
11 0 5 0.7661 0.0295
11 0 6 2.9652 0.0815
11 0 7 -0.6866 0.0269
11 0 8 0.4371 -0.0444
11 0 9 0.8021 -0.0063
11 0 10 2.8253 0.0098
11 0 11 2.2451 0.0447
11 0 12 0.1457 -0.0039
11 0 13 2.2286 -0.0468
11 1 0 -1.0360 -0.3854
11 1 1 -0.5091 -0.0815
11 1 2 -0.8371 0.1326
11 1 3 -1.8698 0.0313
11 1 4 -2.2711 -0.0857
11 1 5 -0.5413 -0.0550
11 1 6 -1.6550 0.0090
11 1 7 2.8901 0.0469
11 1 8 0.6828 0.0058
11 1 9 0.2752 -0.0112
11 1 10 -0.4137 0.0224
11 1 11 2.1780 -0.0130
11 1 12 2.4976 0.0187
11 1 13 -3.5295 0.0564
11 2 0 -2.1208 -0.0806
11 2 1 -1.4215 -0.2694
11 2 2 -0.5364 -0.0375
11 2 3 -1.0787 0.1487
11 2 4 -1.3643 0.0619
11 2 5 -0.5331 -0.0462
11 2 6 2.2416 -0.0259
11 2 7 -1.6743 -0.0143
11 2 8 2.8027 -0.0022
11 2 9 1.0696 -0.0172
11 2 10 0.0977 -0.0206
11 2 11 0.1634 -0.0092
11 2 12 1.2879 -0.0201
11 3 0 -5.8361 0.2770
11 3 1 -2.6986 0.0567
11 3 2 1.6619 -0.1542
11 3 3 1.0856 -0.0390
11 3 4 -1.4130 0.0900
11 3 5 -0.1890 0.0191
11 3 6 -3.3602 -0.0216
11 3 7 -1.7180 0.0440
11 3 8 -1.1859 -0.0073
11 3 9 3.3359 -0.0272
11 3 10 0.0916 -0.0327
11 3 11 -0.9542 -0.0472
11 3 12 1.4526 -0.0637
11 4 0 0.7286 0.1039
11 4 1 -4.9900 0.1895
11 4 2 -1.1738 0.0528
11 4 3 2.0172 -0.0798
11 4 4 -1.5241 -0.0202
11 4 5 -1.2004 0.0477
11 4 6 1.3365 -0.0088
11 4 7 -3.6321 -0.0176
11 4 8 -0.6297 0.0944
11 4 9 0.5217 0.0213
11 4 10 2.4112 -0.0487
11 4 11 0.3943 -0.0233
11 5 0 0.8342 -0.0288
11 5 1 -1.3166 -0.0071
11 5 2 -4.1100 0.0753
11 5 3 -0.2424 0.0196
11 5 4 0.0909 -0.0382
11 5 5 -1.1732 -0.0031
11 5 6 2.1288 0.0216
11 5 7 2.0363 -0.0446
11 5 8 -2.5587 -0.0669
11 5 9 0.9619 0.0834
11 5 10 1.1027 0.0541
11 6 0 3.0270 -0.0437
11 6 1 1.7187 -0.0202
11 6 2 -0.8540 -0.0576
11 6 3 0.5234 -0.0175
11 6 4 -2.0723 -0.0096
11 6 5 -2.7706 -0.0104
11 6 6 -1.1706 0.0216
11 6 7 0.5536 0.0183
11 6 8 3.5362 -0.0251
11 6 9 0.2429 -0.0460
11 7 0 -1.1759 -0.2182
11 7 1 2.4371 -0.0382
11 7 2 -0.0530 0.0562
11 7 3 -0.0675 0.0257
11 7 4 1.4976 -0.0318
11 7 5 -3.3492 -0.0296
11 7 6 -2.5697 0.0243
11 7 7 -0.4742 0.0145
11 7 8 -1.0866 -0.0047
11 8 0 -1.0668 -0.0467
11 8 1 -0.1871 -0.1486
11 8 2 -0.0648 -0.0162
11 8 3 1.3405 0.1109
11 8 4 1.8608 0.0704
11 8 5 2.1160 -0.0561
11 8 6 -1.1711 -0.0776
11 8 7 -3.1783 -0.0295
11 9 0 -1.5026 0.2203
11 9 1 0.0681 0.0374
11 9 2 0.3817 -0.1401
11 9 3 0.7047 -0.0258
11 9 4 2.0796 0.0912
11 9 5 0.8630 0.0616
11 9 6 0.4749 0.0295
11 10 0 -0.2522 0.1201
11 10 1 -0.2076 0.1641
11 10 2 0.0370 -0.0040
11 10 3 -0.4850 -0.0922
11 10 4 -1.0354 -0.0027
11 11 0 -2.1523 -0.1224
11 11 1 0.8864 0.0343
11 11 2 0.6750 0.0948
11 11 3 0.9306 -0.0079
11 12 0 1.3931 -0.1098
11 12 1 0.3871 -0.1071
12 -15 0 0.5093 -0.0840
12 -15 1 0.4309 0.0705
12 -15 2 1.4526 0.0326
12 -15 3 -1.4328 0.0806
12 -15 4 -1.5534 -0.0383
12 -14 0 -1.0495 -0.0572
12 -14 1 1.7175 -0.0248
12 -14 2 3.0379 0.0357
12 -14 3 0.7843 -0.0120
12 -14 4 -1.6829 0.0291
12 -14 5 0.2099 -0.0608
12 -14 6 0.4557 -0.0151
12 -14 7 -0.5498 -0.0463
12 -13 0 -2.6466 -0.0605
12 -13 1 -2.4929 -0.0158
12 -13 2 2.4505 -0.0370
12 -13 3 3.2375 0.0286
12 -13 4 0.7448 -0.0094
12 -13 5 -1.4665 -0.0394
12 -13 6 -2.8122 -0.0355
12 -13 7 -2.7445 -0.0218
12 -13 8 -2.5824 -0.0240
12 -12 0 2.6296 0.1848
12 -12 1 -2.3341 0.0362
12 -12 2 -0.9645 -0.0118
12 -12 3 0.4048 -0.0024
12 -12 4 1.3133 0.0382
12 -12 5 1.0043 -0.0062
12 -12 6 -1.4891 0.0236
12 -12 7 -4.4137 0.0169
12 -12 8 -2.5331 -0.0186
12 -12 9 -0.2809 0.0664
12 -11 0 2.8249 0.1308
12 -11 1 0.5952 0.1461
12 -11 2 -4.3764 -0.0223
12 -11 3 -2.1765 -0.0573
12 -11 4 -2.2609 0.0097
12 -11 5 1.8766 -0.0067
12 -11 6 0.5867 0.0319
12 -11 7 0.6757 0.0262
12 -11 8 0.2298 -0.0222
12 -11 9 -0.0835 0.0296
12 -11 10 3.0224 0.0021
12 -10 0 -1.7462 -0.1446
12 -10 1 0.1196 0.0481
12 -10 2 3.1471 0.0753
12 -10 3 -3.4108 -0.0153
12 -10 4 -1.0626 -0.0372
12 -10 5 0.5202 -0.0203
12 -10 6 4.6293 0.0142
12 -10 7 0.3828 0.0512
12 -10 8 -1.9231 -0.0160
12 -10 9 -2.9354 -0.0290
12 -10 10 -6.0757 0.0236
12 -10 11 -1.2694 -0.0916
12 -9 0 -1.4624 -0.2365
12 -9 1 -3.5081 -0.1675
12 -9 2 -2.0616 0.0125
12 -9 3 5.1853 0.0356
12 -9 4 -2.8909 -0.0023
12 -9 5 -0.3332 -0.0271
12 -9 6 -0.9980 -0.0074
12 -9 7 1.0032 0.0122
12 -9 8 -0.0728 -0.0326
12 -9 9 -4.5278 0.0111
12 -9 10 -4.0025 0.0280
12 -9 11 -7.2629 -0.0275
12 -8 0 -2.3999 -0.0049
12 -8 1 -5.0117 -0.1219
12 -8 2 -3.2705 -0.1039
12 -8 3 -3.3327 0.0212
12 -8 4 2.6717 0.0379
12 -8 5 -2.0153 -0.0307
12 -8 6 0.4559 -0.0186
12 -8 7 0.8174 0.0183
12 -8 8 0.7617 -0.0208
12 -8 9 2.0369 -0.0875
12 -8 10 -1.8504 0.0122
12 -8 11 -1.6662 0.0119
12 -8 12 -3.1334 -0.0791
12 -7 0 0.4271 0.1363
12 -7 1 0.1345 0.1015
12 -7 2 -3.3205 0.0095
12 -7 3 -0.9343 -0.0137
12 -7 4 -0.1441 0.0276
12 -7 5 4.6571 0.0326
12 -7 6 0.9292 -0.0259
12 -7 7 1.0558 0.0351
12 -7 8 0.9603 0.0580
12 -7 9 -0.6468 -0.0134
12 -7 10 1.7533 -0.0132
12 -7 11 -2.0601 0.0311
12 -7 12 -1.6458 -0.0569
12 -6 0 -1.5678 0.1330
12 -6 1 1.2288 0.0598
12 -6 2 3.5549 0.0448
12 -6 3 1.1294 -0.0052
12 -6 4 0.1944 -0.0086
12 -6 5 0.2960 0.0179
12 -6 6 2.0266 -0.0216
12 -6 7 1.0647 -0.0586
12 -6 8 1.1180 0.0456
12 -6 9 -0.0225 0.0448
12 -6 10 -0.2425 -0.0273
12 -6 11 1.4266 0.0543
12 -6 12 0.0664 0.0890
12 -5 0 0.9182 0.1116
12 -5 1 0.9815 0.0432
12 -5 2 4.3653 -0.0545
12 -5 3 4.4841 -0.0228
12 -5 4 1.8442 -0.0250
12 -5 5 1.2722 0.0203
12 -5 6 0.1466 0.0451
12 -5 7 -0.7307 -0.0480
12 -5 8 -1.1851 -0.0598
12 -5 9 -0.0745 0.0142
12 -5 10 0.6500 -0.0237
12 -5 11 1.0100 -0.0343
12 -5 12 0.2339 0.0603
12 -4 0 1.1484 -0.1737
12 -4 1 2.1404 0.0675
12 -4 2 0.5026 0.0540
12 -4 3 3.1146 -0.0437
12 -4 4 2.4361 -0.0547
12 -4 5 -0.0277 -0.0139
12 -4 6 -0.8634 0.0640
12 -4 7 -1.5449 0.0649
12 -4 8 -1.2144 -0.0184
12 -4 9 -1.4957 0.0009
12 -4 10 -0.6762 0.0202
12 -4 11 -0.0940 -0.0587
12 -4 12 1.0916 -0.0234
12 -3 0 2.3914 -0.2730
12 -3 1 1.5050 -0.1528
12 -3 2 2.4718 0.0818
12 -3 3 -1.1887 0.0865
12 -3 4 -2.5748 -0.0070
12 -3 5 -1.9616 -0.0549
12 -3 6 0.1160 -0.0203
12 -3 7 1.7591 0.0347
12 -3 8 -0.2696 0.0059
12 -3 9 0.0996 -0.0224
12 -3 10 1.3051 0.0157
12 -3 11 1.5165 0.0144
12 -3 12 1.0111 -0.0104
12 -2 0 0.9446 0.0812
12 -2 1 4.4207 -0.1721
12 -2 2 1.7469 -0.1146
12 -2 3 0.2971 0.0768
12 -2 4 -0.2092 0.0739
12 -2 5 -1.9552 -0.0030
12 -2 6 -3.2913 -0.0426
12 -2 7 -0.8683 -0.0264
12 -2 8 2.1671 -0.0095
12 -2 9 2.2719 -0.0463
12 -2 10 1.7815 -0.0031
12 -2 11 0.1585 0.0469
12 -1 0 0.4915 0.2825
12 -1 1 -0.5586 0.1492
12 -1 2 4.1184 -0.0894
12 -1 3 1.5289 -0.1017
12 -1 4 -0.6207 0.0286
12 -1 5 -1.5539 0.0560
12 -1 6 -2.3159 0.0107
12 -1 7 -0.8785 0.0118
12 -1 8 -1.8284 0.0149
12 -1 9 -1.5158 -0.0083
12 -1 10 1.1582 -0.0588
12 -1 11 1.9594 -0.0326
12 0 0 0.0326 0.0317
12 0 1 -1.2816 0.1529
12 0 2 -2.2017 0.1091
12 0 3 1.6719 -0.0364
12 0 4 1.0670 -0.0438
12 0 5 1.9294 0.0300
12 0 6 -0.7161 0.0185
12 0 7 -4.0952 -0.0268
12 0 8 -1.0851 0.0320
12 0 9 -1.7963 0.0448
12 0 10 -1.7568 -0.0090
12 0 11 -0.1798 -0.0235
12 1 0 -2.2462 -0.0784
12 1 1 -3.0714 -0.0694
12 1 2 -0.7403 0.0221
12 1 3 -1.2740 0.0449
12 1 4 2.4704 -0.0317
12 1 5 2.0299 -0.0185
12 1 6 0.3182 0.0189
12 1 7 -0.2539 -0.0347
12 1 8 -1.9276 -0.0812
12 1 9 0.2417 0.0659
12 1 10 -1.2832 0.1277
12 2 0 0.9494 -0.0877
12 2 1 -2.0388 -0.0513
12 2 2 -2.4430 -0.0541
12 2 3 1.0280 -0.0297
12 2 4 -1.8899 0.0052
12 2 5 2.7909 -0.0020
12 2 6 5.8287 0.0195
12 2 7 -0.1239 0.0321
12 2 8 0.0580 -0.0307
12 2 9 1.2686 -0.1219
12 2 10 2.0205 0.0127
12 3 0 -0.9857 -0.1654
12 3 1 -0.8674 -0.0406
12 3 2 -1.8832 0.0668
12 3 3 -0.8512 0.0397
12 3 4 0.5206 -0.0277
12 3 5 -2.8792 -0.0331
12 3 6 0.7085 -0.0023
12 3 7 3.0369 0.0266
12 3 8 -0.7016 -0.0163
12 3 9 1.6671 -0.0321
12 4 0 5.4275 0.0801
12 4 1 -0.9107 -0.1236
12 4 2 -2.1700 -0.0421
12 4 3 1.2973 0.0967
12 4 4 -0.7524 0.0697
12 4 5 -3.3102 -0.0154
12 4 6 -2.1584 -0.0360
12 4 7 -0.8229 0.0075
12 4 8 -0.6608 0.0700
12 5 0 0.7594 0.2795
12 5 1 7.2638 0.0931
12 5 2 -1.5935 -0.1238
12 5 3 -1.9785 -0.0814
12 5 4 3.8256 0.0455
12 5 5 0.1853 0.0461
12 5 6 -0.5223 0.0111
12 5 7 0.4817 -0.0015
12 6 0 1.1426 0.0228
12 6 1 2.4193 0.1951
12 6 2 3.7410 0.0635
12 6 3 -0.7131 -0.1132
12 6 4 -0.4599 -0.0846
12 6 5 1.6173 -0.0419
12 6 6 0.6613 -0.0593
12 7 0 -4.3717 -0.2195
12 7 1 3.2711 -0.0741
12 7 2 3.3618 0.1021
12 7 3 1.1648 0.0564
12 7 4 -0.2875 -0.0460
12 7 5 -2.3469 -0.0158
12 8 0 1.6518 -0.0631
12 8 1 -2.5328 -0.1140
12 8 2 0.4779 -0.0445
12 8 3 0.9978 0.0609
12 8 4 0.7536 0.0900
12 9 0 0.8888 0.0344
12 9 1 1.2232 0.0703
12 9 2 -0.4988 0.0233
12 9 3 0.1850 -0.0307
12 10 0 1.2615 0.0290
12 10 1 1.2461 -0.0296
13 -13 0 -0.4236 -0.0919
13 -13 1 -0.7858 0.0121
13 -13 2 -0.5048 0.0255
13 -13 3 2.1810 0.0413
13 -12 0 1.3371 0.0531
13 -12 1 -0.3208 -0.0539
13 -12 2 -1.6195 0.0394
13 -12 3 -0.4827 0.0018
13 -12 4 1.7601 0.0395
13 -12 5 -0.0133 -0.0441
13 -11 0 2.2411 0.0547
13 -11 1 0.6436 0.0498
13 -11 2 -2.2611 -0.0245
13 -11 3 -2.9607 -0.0277
13 -11 4 -3.0356 0.0223
13 -11 5 0.6084 0.0090
13 -11 6 -0.3874 -0.0717
13 -10 0 -2.1603 0.1010
13 -10 1 1.0123 0.0148
13 -10 2 -0.7172 0.0321
13 -10 3 -3.2250 -0.0102
13 -10 4 -2.7835 0.0122
13 -10 5 -2.4594 0.0679
13 -10 6 4.5253 -0.0007
13 -10 7 1.7052 0.0081
13 -9 0 0.7100 -0.0077
13 -9 1 -0.1266 0.0400
13 -9 2 1.8921 0.0177
13 -9 3 3.4028 -0.0501
13 -9 4 -1.7689 -0.0181
13 -9 5 -1.0864 0.0508
13 -9 6 -2.1160 0.0254
13 -9 7 3.0221 -0.0027
13 -9 8 -0.0097 0.0125
13 -8 0 -4.5503 -0.1789
13 -8 1 -0.5027 -0.0467
13 -8 2 0.7626 0.0351
13 -8 3 1.2722 0.0143
13 -8 4 1.8860 -0.0779
13 -8 5 -5.2862 -0.0529
13 -8 6 -3.5315 -0.0170
13 -8 7 -3.4460 -0.0306
13 -8 8 1.2324 -0.0215
13 -7 0 -0.8473 -0.1079
13 -7 1 -6.4729 -0.1306
13 -7 2 -4.2378 0.0198
13 -7 3 0.5360 0.0921
13 -7 4 0.0868 0.0139
13 -7 5 3.3209 -0.0049
13 -7 6 -2.5267 -0.0088
13 -7 7 -2.8217 -0.0204
13 -7 8 -1.1023 0.0196
13 -7 9 1.1241 0.0275
13 -6 0 0.8639 0.1827
13 -6 1 -1.4770 -0.0127
13 -6 2 -5.0515 -0.1225
13 -6 3 -2.0335 -0.0026
13 -6 4 3.3612 0.0426
13 -6 5 2.5576 -0.0286
13 -6 6 4.5415 0.0186
13 -6 7 0.4883 0.0032
13 -6 8 0.9529 0.0203
13 -6 9 -0.0703 0.0823
13 -5 0 -0.3431 0.1680
13 -5 1 2.8647 0.1821
13 -5 2 1.8810 -0.0093
13 -5 3 -0.9353 -0.0569
13 -5 4 -2.6226 0.0047
13 -5 5 3.3593 -0.0007
13 -5 6 4.2442 0.0001
13 -5 7 2.2163 0.0049
13 -5 8 -0.1205 -0.0528
13 -5 9 1.9631 -0.0123
13 -4 0 -2.4478 -0.0633
13 -4 1 -0.0975 0.0741
13 -4 2 0.3320 0.1008
13 -4 3 2.0232 -0.0051
13 -4 4 1.2497 0.0131
13 -4 5 -3.5550 0.0296
13 -4 6 -0.0105 0.0033
13 -4 7 1.3758 0.0360
13 -4 8 1.3600 0.0203
13 -4 9 0.2571 0.0091
13 -3 0 -1.1723 -0.0996
13 -3 1 -3.0808 -0.1039
13 -3 2 -0.1824 -0.0288
13 -3 3 -0.9595 -0.0208
13 -3 4 -1.4687 -0.0315
13 -3 5 0.8093 0.0141
13 -3 6 -0.8683 0.0384
13 -3 7 0.7213 0.0184
13 -3 8 -0.2477 0.0034
13 -3 9 -0.6706 -0.0126
13 -2 0 1.7423 -0.1180
13 -2 1 0.8382 -0.0509
13 -2 2 -3.2440 -0.0185
13 -2 3 -1.4606 0.0115
13 -2 4 0.2169 -0.0384
13 -2 5 0.2826 -0.0273
13 -2 6 0.6555 0.0061
13 -2 7 0.2363 -0.0056
13 -2 8 2.9186 -0.0435
13 -2 9 1.5794 -0.0932
13 -1 0 0.9827 -0.0470
13 -1 1 -0.3622 -0.0413
13 -1 2 1.6460 0.0390
13 -1 3 -1.8067 0.0673
13 -1 4 -2.2419 0.0275
13 -1 5 -0.0255 -0.0386
13 -1 6 1.4704 -0.0205
13 -1 7 1.8648 0.0104
13 -1 8 1.0975 0.0118
13 0 0 1.4894 0.1723
13 0 1 1.0887 -0.0328
13 0 2 -1.3397 -0.0926
13 0 3 1.0252 0.0332
13 0 4 -2.2946 0.0834
13 0 5 0.2130 0.0202
13 0 6 0.1219 0.0037
13 0 7 -2.6750 0.0237
13 0 8 -0.8291 0.0108
13 1 0 -1.3125 0.1757
13 1 1 -0.6066 0.1670
13 1 2 0.4605 -0.0347
13 1 3 -1.2980 -0.1023
13 1 4 0.2718 -0.0071
13 1 5 -4.5375 0.0246
13 1 6 -0.9796 -0.0372
13 1 7 -0.4077 -0.0503
13 2 0 1.5645 -0.1206
13 2 1 -0.4643 0.0681
13 2 2 0.0257 0.1148
13 2 3 3.3800 -0.0229
13 2 4 0.0495 -0.0734
13 2 5 0.8332 -0.0395
13 2 6 -1.4918 -0.0381
13 2 7 -0.4085 -0.0209
13 3 0 -1.1883 -0.1972
13 3 1 3.8981 -0.1706
13 3 2 0.1568 0.0268
13 3 3 0.2908 0.1193
13 3 4 5.9685 0.0129
13 3 5 -0.4749 -0.0030
13 3 6 -0.0982 0.0363
13 4 0 -0.4919 0.0455
13 4 1 -2.4811 -0.0651
13 4 2 0.1604 -0.1081
13 4 3 -2.4168 0.0591
13 4 4 -1.3212 0.1233
13 4 5 2.1601 -0.0122
13 5 0 -4.2822 0.0448
13 5 1 2.9011 0.0545
13 5 2 -0.2881 -0.0333
13 5 3 -1.8225 -0.0830
13 5 4 0.1064 0.0217
13 6 0 0.7746 0.0896
13 6 1 -3.3108 -0.0003
13 6 2 4.0018 -0.0420
13 6 3 0.3722 -0.0514
13 7 0 1.8821 0.0647
13 7 1 1.1779 0.0595
13 7 2 -1.4702 -0.0261
13 8 0 3.3865 -0.0976
14 -10 0 -1.7843 0.1561
14 -10 1 -0.1678 -0.0007
14 -9 0 -2.0713 0.0618
14 -9 1 -3.4770 0.0948
14 -9 2 -0.7587 -0.0112
14 -9 3 -1.4938 -0.0086
14 -8 0 -0.3708 -0.0582
14 -8 1 -0.3433 0.0055
14 -8 2 -2.3744 0.0003
14 -8 3 1.2895 0.0080
14 -8 4 0.8447 -0.0592
14 -7 0 2.2024 -0.0676
14 -7 1 -1.1545 0.0341
14 -7 2 -3.6126 0.0484
14 -7 3 -4.0718 0.0337
14 -7 4 -0.4108 0.0312
14 -7 5 0.4281 -0.0191
14 -6 0 -1.1042 -0.1030
14 -6 1 0.1024 -0.0200
14 -6 2 -3.5354 0.0079
14 -6 3 -4.1734 0.0064
14 -6 4 -2.9810 0.0029
14 -6 5 -2.2997 -0.0832
14 -5 0 -2.8147 -0.0290
14 -5 1 1.0396 -0.1052
14 -5 2 2.3266 -0.0410
14 -5 3 -0.7925 -0.0229
14 -5 4 -2.0121 0.0033
14 -5 5 -0.6555 -0.0348
14 -4 0 -1.7667 0.2113
14 -4 1 -1.2451 0.0374
14 -4 2 0.8292 -0.0277
14 -4 3 3.4399 0.0052
14 -4 4 2.6129 0.0976
14 -4 5 -2.7530 0.1212
14 -3 0 -2.5649 0.1129
14 -3 1 -3.1477 0.1613
14 -3 2 -1.0304 0.0243
14 -3 3 -1.3801 -0.0694
14 -3 4 0.0482 -0.0488
14 -3 5 2.1145 0.0723
14 -2 0 0.4824 -0.2336
14 -2 1 -1.1111 -0.0485
14 -2 2 -3.2931 0.0524
14 -2 3 -0.7909 -0.0044
14 -2 4 -0.2622 -0.1076
14 -2 5 0.1558 -0.0756
14 -1 0 0.3116 -0.1152
14 -1 1 0.3833 -0.1160
14 -1 2 -0.1427 0.0005
14 -1 3 -2.4070 0.1072
14 -1 4 -1.5257 0.0916
14 -1 5 -0.9654 -0.0585
14 0 0 -0.2119 0.0709
14 0 1 -0.1155 0.0129
14 0 2 -0.1025 -0.0324
14 0 3 1.6799 0.0184
14 0 4 -0.0657 0.0989
14 1 0 -0.7470 0.0467
14 1 1 0.4752 0.0036
14 1 2 -0.6584 -0.0290
14 1 3 -0.4568 -0.0774
14 1 4 2.4029 -0.0006
14 2 0 -0.3061 0.1131
14 2 1 -2.4459 -0.0168
14 2 2 -0.6740 -0.0583
14 2 3 -1.5281 -0.0187
14 3 0 -0.3167 0.0582
14 3 1 3.3261 0.1265
14 3 2 1.5103 -0.0395
14 4 0 1.0123 -0.1308
14 4 1 -1.2962 0.0770
0 0 0 0.0 0.0
;
_shelx_fab_checksum              91341
_olex2_submission_special_instructions 'No special instructions were received'
loop_
_space_group_symop_operation_xyz
'x, y, z'
'-x, -y, -z'
loop_
_atom_site_label
_atom_site_type_symbol
_atom_site_fract_x
_atom_site_fract_y
_atom_site_fract_z
_atom_site_U_iso_or_equiv
_atom_site_adp_type
_atom_site_occupancy
_atom_site_site_symmetry_order
_atom_site_calc_flag
_atom_site_refinement_flags_posn
_atom_site_refinement_flags_adp
_atom_site_refinement_flags_occupancy
_atom_site_disorder_assembly
_atom_site_disorder_group
Fe01 Fe 0.19291(7) 0.82040(5) 0.45392(5) 0.0619(3) Uani 1 1 d . . . . .
Fe02 Fe 0.67842(8) 0.69120(6) 0.94999(5) 0.0764(4) Uani 1 1 d . . . . .
O003 O 0.6312(4) 0.5766(2) 0.4365(2) 0.0691(12) Uani 1 1 d . . . . .
F1 F 0.8410(4) 0.9919(3) 0.6851(3) 0.1092(17) Uani 1 1 d . . . . .
O005 O 0.5823(4) 0.5689(3) 0.5464(2) 0.0739(13) Uani 1 1 d . . . . .
O006 O 0.2159(4) 0.5059(3) 0.6816(3) 0.0831(14) Uani 1 1 d . . . . .
O007 O 0.8147(4) 0.7856(3) 0.6721(2) 0.0789(14) Uani 1 1 d . . . . .
F13 F 0.6030(5) 0.8049(3) 0.4504(3) 0.123(2) Uani 1 1 d . . . . .
N19 N 0.5368(4) 0.5564(3) 0.6328(2) 0.0618(14) Uani 1 1 d . . . . .
H19 H 0.492067 0.517180 0.611000 0.074 Uiso 1 1 calc R . . . .
F12 F 0.6485(4) 0.7024(2) 0.3951(3) 0.1129(17) Uani 1 1 d . . . . .
N22 N 0.2763(4) 0.7392(3) 0.4583(3) 0.0590(13) Uani 1 1 d . . . . .
N18 N 0.5431(4) 0.5772(3) 0.6941(3) 0.0626(14) Uani 1 1 d . . . . .
N23 N 0.2566(5) 0.5449(3) 0.6034(3) 0.0728(16) Uani 1 1 d . . . . .
N00E N 0.2638(4) 0.5981(3) 0.5721(3) 0.0645(14) Uani 1 1 d . . . . .
N00F N 0.3078(5) 0.8955(3) 0.5104(2) 0.0630(14) Uani 1 1 d . . . . .
N00G N 0.6980(5) 0.8556(3) 0.6393(3) 0.0741(16) Uani 1 1 d . . . . .
H00G H 0.746806 0.894459 0.654717 0.089 Uiso 1 1 calc R . . . .
N00H N 0.0720(4) 0.7503(3) 0.3980(3) 0.0690(15) Uani 1 1 d . . . . .
N00I N 0.5996(4) 0.8634(3) 0.6093(3) 0.0716(16) Uani 1 1 d . . . . .
N00J N 0.2678(4) 0.8252(3) 0.3871(3) 0.0623(14) Uani 1 1 d . . . . .
F5 F 0.7806(4) 0.5952(4) 1.1807(3) 0.1213(19) Uani 1 1 d . . . . .
F3 F 0.9547(5) 1.0951(3) 0.7316(3) 0.1246(19) Uani 1 1 d . . . . .
N00M N 0.1211(5) 0.9064(3) 0.4481(3) 0.0720(16) Uani 1 1 d . . . . .
N00N N 0.1143(5) 0.8025(3) 0.5163(3) 0.0718(16) Uani 1 1 d . . . . .
N00O N 0.5688(4) 0.6223(3) 0.8855(3) 0.0671(15) Uani 1 1 d . . . . .
N00Q N 0.1948(6) 0.8880(4) 0.7093(3) 0.0850(19) Uani 1 1 d . . . . .
C00R C 0.3249(5) 0.6336(3) 0.4905(3) 0.0625(17) Uani 1 1 d . . . . .
N00S N 0.7761(5) 0.6187(4) 0.9419(3) 0.0795(18) Uani 1 1 d . . . . .
C40 C 0.4837(5) 0.5553(4) 0.7814(3) 0.0635(17) Uani 1 1 d . . . . .
C00U C 0.3399(5) 0.7774(4) 0.3782(3) 0.0672(18) Uani 1 1 d . . . . .
C42 C 0.2696(5) 0.6943(3) 0.4938(3) 0.0590(16) Uani 1 1 d . . . . .
H42 H 0.224921 0.703534 0.523035 0.071 Uiso 1 1 calc R . . . .
C41 C 0.4020(5) 0.8859(4) 0.5410(3) 0.0636(17) Uani 1 1 d . . . . .
H41 H 0.415218 0.837290 0.539371 0.076 Uiso 1 1 calc R . . . .
N00X N 0.2861(5) 0.7687(4) 0.8482(3) 0.0802(18) Uani 1 1 d . . . . .
N00Y N 0.6925(6) 0.8930(4) 0.8107(3) 0.0844(19) Uani 1 1 d . . . . .
N00Z N 0.7532(4) 0.7230(4) 0.8914(3) 0.0753(18) Uani 1 1 d . . . . .
N010 N 0.1835(5) 0.7661(4) 0.8171(3) 0.0850(19) Uani 1 1 d . . . . .
O011 O 0.3191(6) 0.9757(3) 0.8637(3) 0.112(2) Uani 1 1 d . . . . .
N012 N 0.5887(5) 0.7703(3) 0.9572(3) 0.0746(17) Uani 1 1 d . . . . .
C43 C 0.3109(5) 0.5842(4) 0.5279(3) 0.0644(17) Uani 1 1 d . . . . .
H43 H 0.338525 0.539031 0.518678 0.077 Uiso 1 1 calc R . . . .
F14 F 0.7193(5) 0.7426(4) 0.4959(3) 0.147(2) Uani 1 1 d . . . . .
F2 F 0.8824(5) 1.0363(4) 0.7874(3) 0.146(3) Uani 1 1 d . . . . .
O016 O 0.0472(5) 0.7162(5) 0.7370(3) 0.121(3) Uani 1 1 d . . . . .
N017 N 0.5987(5) 0.6519(4) 1.0047(3) 0.0790(18) Uani 1 1 d . . . . .
C018 C 0.3417(5) 0.7251(3) 0.4163(3) 0.0626(17) Uani 1 1 d . . . . .
C019 C 0.1397(6) 0.8346(4) 0.5771(4) 0.0697(19) Uani 1 1 d . . . . .
H019 H 0.200311 0.871302 0.593640 0.084 Uiso 1 1 calc R . . . .
C01A C 0.7250(6) 0.7903(4) 0.6466(4) 0.074(2) Uani 1 1 d . . . . .
C01B C 0.7756(5) 0.7649(5) 1.0194(3) 0.074(2) Uani 1 1 d . . . . .
C01C C 0.4805(5) 0.5386(4) 0.7155(3) 0.0597(16) Uani 1 1 d . . . . .
H01C H 0.431673 0.498677 0.687964 0.072 Uiso 1 1 calc R . . . .
N20 N 0.2118(6) 0.9201(4) 0.7711(3) 0.088(2) Uani 1 1 d . . . . .
H20 H 0.156135 0.921318 0.788810 0.106 Uiso 1 1 calc R . . . .
C01E C 0.2151(6) 0.5558(4) 0.6543(3) 0.0717(19) Uani 1 1 d . . . . .
C01F C 0.1865(6) 0.9722(4) 0.4775(4) 0.0714(19) Uani 1 1 d . . . . .
C01G C 0.5943(6) 0.5917(4) 0.6028(3) 0.0652(17) Uani 1 1 d . . . . .
F6 F 0.7984(5) 0.5190(5) 1.0912(3) 0.161(3) Uani 1 1 d . . . . .
C01I C 0.8257(5) 0.6788(5) 0.8710(4) 0.078(2) Uani 1 1 d . . . . .
C01J C 0.5630(5) 0.6057(4) 0.8245(3) 0.0631(17) Uani 1 1 d . . . . .
H01J H 0.616554 0.629966 0.809756 0.076 Uiso 1 1 calc R . . . .
F11 F 0.7701(6) 0.8054(3) 0.4307(4) 0.170(3) Uani 1 1 d . . . . .
N21 N 0.6815(6) 0.9551(5) 0.7899(4) 0.104(2) Uani 1 1 d . . . . .
H21 H 0.736065 0.974365 0.777734 0.125 Uiso 1 1 calc R . . . .
C01M C 0.8387(6) 0.6195(5) 0.8994(4) 0.078(2) Uani 1 1 d . . . . .
C01N C 0.4923(5) 0.5871(4) 0.9063(3) 0.0677(18) Uani 1 1 d . . . . .
F4 F 1.0059(6) 0.9906(4) 0.7395(4) 0.170(3) Uani 1 1 d . . . . .
C01P C 0.3899(6) 0.6220(4) 0.4471(4) 0.081(2) Uani 1 1 d . . . . .
H01P H 0.426947 0.580562 0.442129 0.097 Uiso 1 1 calc R . . . .
C01Q C 0.4805(6) 0.9406(4) 0.5742(4) 0.073(2) Uani 1 1 d . . . . .
O01R O 0.5887(7) 1.0401(5) 0.7665(5) 0.148(3) Uani 1 1 d . . . . .
C01S C 0.5830(7) 0.9284(4) 0.6067(4) 0.083(2) Uani 1 1 d . . . . .
H01S H 0.638247 0.968371 0.626167 0.100 Uiso 1 1 calc R . . . .
C01T C 0.2901(6) 0.9656(4) 0.5122(4) 0.073(2) Uani 1 1 d . . . . .
C01U C 0.3994(6) 0.7748(4) 0.3327(4) 0.0733(19) Uani 1 1 d . . . . .
H01U H 0.450130 0.741397 0.327561 0.088 Uiso 1 1 calc R . . . .
C01V C 0.6330(6) 0.8334(5) 1.0025(4) 0.083(2) Uani 1 1 d . . . . .
C01W C 0.4925(6) 0.7693(4) 0.9242(3) 0.072(2) Uani 1 1 d . . . . .
H01W H 0.463272 0.726764 0.891534 0.087 Uiso 1 1 calc R . . . .
C01X C 0.7751(6) 0.8639(4) 0.8045(4) 0.077(2) Uani 1 1 d . . . . .
H01X H 0.826470 0.884177 0.785860 0.092 Uiso 1 1 calc R . . . .
C01Y C 0.4050(6) 0.5197(4) 0.8039(3) 0.0700(18) Uani 1 1 d . . . . .
H01Y H 0.348801 0.484868 0.776131 0.084 Uiso 1 1 calc R . . . .
C01Z C 0.4009(6) 0.6695(4) 0.4116(3) 0.0731(19) Uani 1 1 d . . . . .
H01Z H 0.449121 0.663418 0.384188 0.088 Uiso 1 1 calc R . . . .
C020 C 0.4366(7) 0.5789(5) 1.0062(4) 0.081(2) Uani 1 1 d . . . . .
H020 H 0.374118 0.545496 0.983993 0.097 Uiso 1 1 calc R . . . .
C021 C 0.3086(6) 0.8690(4) 0.3041(4) 0.0733(19) Uani 1 1 d . . . . .
H021 H 0.295183 0.901046 0.278358 0.088 Uiso 1 1 calc R . . . .
C022 C 0.2543(6) 0.8696(4) 0.3504(3) 0.0666(18) Uani 1 1 d . . . . .
H022 H 0.204474 0.903427 0.356616 0.080 Uiso 1 1 calc R . . . .
C023 C 0.3225(6) 0.8203(5) 0.8954(4) 0.082(2) Uani 1 1 d . . . . .
H023 H 0.278670 0.856917 0.906760 0.098 Uiso 1 1 calc R . . . .
C024 C 0.8513(7) 0.5132(6) 0.9611(4) 0.099(3) Uani 1 1 d . . . . .
H024 H 0.855061 0.477773 0.984082 0.118 Uiso 1 1 calc R . . . .
C025 C 0.0265(6) 0.7512(4) 0.4922(4) 0.078(2) Uani 1 1 d . . . . .
C026 C 0.0768(7) 0.8142(5) 0.6174(4) 0.088(2) Uani 1 1 d . . . . .
C027 C 0.7929(6) 0.7995(5) 0.8255(4) 0.087(3) Uani 1 1 d . . . . .
C028 C 0.6399(6) 0.7249(4) 0.6198(4) 0.081(2) Uani 1 1 d . . . . .
H02A H 0.573010 0.736351 0.633929 0.098 Uiso 1 1 calc R . . . .
H02B H 0.624036 0.714251 0.574066 0.098 Uiso 1 1 calc R . . . .
C029 C 0.4288(6) 0.8264(4) 0.9332(4) 0.077(2) Uani 1 1 d . . . . .
C02A C 0.8835(6) 0.6934(6) 0.8269(4) 0.092(3) Uani 1 1 d . . . . .
H02C H 0.933711 0.662848 0.813036 0.110 Uiso 1 1 calc R . . . .
C02B C 0.0028(6) 0.7226(4) 0.4260(4) 0.077(2) Uani 1 1 d . . . . .
C02C C 0.5055(6) 0.6067(4) 0.9743(3) 0.075(2) Uani 1 1 d . . . . .
C02D C 0.7396(7) 0.8286(6) 1.0355(4) 0.101(3) Uani 1 1 d . . . . .
C02E C 0.0554(7) 0.7272(5) 0.3362(4) 0.086(2) Uani 1 1 d . . . . .
H02E H 0.104969 0.746850 0.316052 0.103 Uiso 1 1 calc R . . . .
C02F C 0.6728(7) 0.6591(5) 0.6383(4) 0.084(2) Uani 1 1 d . . . . .
H02D H 0.676767 0.666538 0.683248 0.100 Uiso 1 1 calc R . . . .
H02F H 0.745299 0.652092 0.630381 0.100 Uiso 1 1 calc R . . . .
C02G C 0.7386(6) 0.7816(4) 0.8683(3) 0.0698(19) Uani 1 1 d . . . . .
H02G H 0.688138 0.811936 0.882178 0.084 Uiso 1 1 calc R . . . .
C02H C 0.3836(7) 0.8213(5) 0.2949(4) 0.085(2) Uani 1 1 d . . . . .
H02H H 0.423185 0.820659 0.263412 0.102 Uiso 1 1 calc R . . . .
C02I C 0.4595(8) 1.0120(4) 0.5761(5) 0.094(3) Uani 1 1 d . . . . .
H02I H 0.512134 1.052325 0.599059 0.113 Uiso 1 1 calc R . . . .
C02J C 0.4106(6) 0.5359(4) 0.8660(4) 0.074(2) Uani 1 1 d . . . . .
H02J H 0.358305 0.512015 0.881811 0.089 Uiso 1 1 calc R . . . .
C02K C 0.8649(6) 0.7533(5) 0.8047(4) 0.079(2) Uani 1 1 d . . . . .
H02K H 0.902011 0.763347 0.774560 0.095 Uiso 1 1 calc R . . . .
C02L C 0.3091(8) 0.9500(5) 0.8065(4) 0.088(2) Uani 1 1 d . . . . .
C02M C 0.9128(7) 0.5136(6) 0.9173(5) 0.105(3) Uani 1 1 d . . . . .
H02M H 0.959678 0.478163 0.909115 0.126 Uiso 1 1 calc R . . . .
C02N C 0.1041(8) 0.8512(5) 0.6835(5) 0.095(3) Uani 1 1 d . . . . .
H02N H 0.051877 0.847460 0.707724 0.114 Uiso 1 1 calc R . . . .
C02O C 0.1384(8) 0.7175(6) 0.7645(4) 0.105(3) Uani 1 1 d . . . . .
C02P C 0.1692(8) 0.6238(5) 0.6762(4) 0.092(2) Uani 1 1 d . . . . .
H02L H 0.189484 0.659473 0.653758 0.111 Uiso 1 1 calc R . . . .
H02O H 0.089750 0.612926 0.666420 0.111 Uiso 1 1 calc R . . . .
C02Q C 0.0242(7) 0.9069(5) 0.4157(4) 0.084(2) Uani 1 1 d . . . . .
H02Q H -0.020006 0.861501 0.395994 0.101 Uiso 1 1 calc R . . . .
C02R C 0.9045(6) 0.5670(5) 0.8855(4) 0.085(2) Uani 1 1 d . . . . .
H02R H 0.944114 0.567463 0.854162 0.102 Uiso 1 1 calc R . . . .
B1 B 0.9229(8) 1.0274(6) 0.7367(5) 0.080(3) Uani 1 1 d . . . . .
C02T C 0.4745(8) 0.8904(5) 0.9802(5) 0.100(3) Uani 1 1 d . . . . .
H02T H 0.436850 0.931326 0.988273 0.120 Uiso 1 1 calc R . . . .
C02U C -0.0170(8) 0.9712(6) 0.4089(4) 0.102(3) Uani 1 1 d . . . . .
H02U H -0.086680 0.970125 0.384715 0.122 Uiso 1 1 calc R . . . .
C02V C 0.1476(8) 1.0369(5) 0.4725(4) 0.093(3) Uani 1 1 d . . . . .
H02V H 0.190752 1.082450 0.492939 0.112 Uiso 1 1 calc R . . . .
C02W C 0.4585(8) 0.5994(6) 1.0686(4) 0.097(3) Uani 1 1 d . . . . .
H02W H 0.408565 0.584273 1.090690 0.117 Uiso 1 1 calc R . . . .
C02X C -0.0363(7) 0.7311(6) 0.5317(5) 0.104(3) Uani 1 1 d . . . . .
H02X H -0.097479 0.694881 0.514600 0.125 Uiso 1 1 calc R . . . .
C02Y C 0.3657(8) 1.0229(4) 0.5458(5) 0.096(3) Uani 1 1 d . . . . .
H02Y H 0.351101 1.071235 0.547560 0.116 Uiso 1 1 calc R . . . .
C02Z C 0.5923(8) 0.9871(6) 0.7873(5) 0.107(3) Uani 1 1 d . . . . .
C030 C 0.5768(8) 0.8910(5) 1.0141(5) 0.108(3) Uani 1 1 d . . . . .
H030 H 0.609021 0.933095 1.046619 0.130 Uiso 1 1 calc R . . . .
C031 C 0.7850(7) 0.5654(6) 0.9701(4) 0.092(3) Uani 1 1 d . . . . .
H031 H 0.741192 0.563593 0.999326 0.111 Uiso 1 1 calc R . . . .
B2 B 0.6865(11) 0.7665(6) 0.4419(7) 0.115(4) Uani 1 1 d . . . . .
C034 C 0.0475(10) 1.0343(6) 0.4383(5) 0.109(3) Uani 1 1 d . . . . .
H034 H 0.021955 1.078782 0.435049 0.131 Uiso 1 1 calc R . . . .
C036 C -0.0295(7) 0.6767(6) 0.3006(5) 0.104(3) Uani 1 1 d . . . . .
H036 H -0.038512 0.662058 0.256827 0.125 Uiso 1 1 calc R . . . .
C037 C 0.2059(8) 0.6549(6) 0.7407(4) 0.116(4) Uani 1 1 d . . . . .
H03A H 0.282899 0.675158 0.749663 0.139 Uiso 1 1 calc R . . . .
H03B H 0.198736 0.616723 0.762902 0.139 Uiso 1 1 calc R . . . .
C038 C -0.0106(7) 0.7631(6) 0.5949(5) 0.109(3) Uani 1 1 d . . . . .
H038 H -0.053044 0.749470 0.621468 0.130 Uiso 1 1 calc R . . . .
C03A C 0.8737(8) 0.7586(7) 1.0457(4) 0.123(4) Uani 1 1 d . . . . .
H03C H 0.900338 0.713841 1.032241 0.148 Uiso 1 1 calc R . . . .
C03B C 0.6186(7) 0.6707(6) 1.0664(4) 0.099(3) Uani 1 1 d . . . . .
H03D H 0.679998 0.705024 1.088691 0.118 Uiso 1 1 calc R . . . .
C03C C -0.0855(7) 0.6710(6) 0.3913(5) 0.102(3) Uani 1 1 d . . . . .
H03E H -0.135260 0.651998 0.411680 0.123 Uiso 1 1 calc R . . . .
C03F C 0.5523(8) 0.6416(6) 1.0995(4) 0.105(3) Uani 1 1 d . . . . .
H03F H 0.573047 0.651509 1.143301 0.126 Uiso 1 1 calc R . . . .
C03G C 0.4031(10) 0.9575(8) 0.7760(5) 0.146(5) Uani 1 1 d . . . . .
H03G H 0.392642 0.916220 0.738445 0.176 Uiso 1 1 calc R . . . .
H03H H 0.403016 1.002919 0.762357 0.176 Uiso 1 1 calc R . . . .
C03H C 0.5071(8) 0.9590(7) 0.8147(6) 0.118(4) Uani 1 1 d . . . . .
H03I H 0.517144 0.909230 0.818242 0.142 Uiso 1 1 calc R . . . .
H03J H 0.511435 0.990677 0.856773 0.142 Uiso 1 1 calc R . . . .
C03I C 0.8017(9) 0.8915(7) 1.0800(7) 0.164(6) Uani 1 1 d . . . . .
H03K H 0.775009 0.936938 1.089767 0.197 Uiso 1 1 calc R . . . .
C03J C -0.1000(8) 0.6480(6) 0.3285(6) 0.114(3) Uani 1 1 d . . . . .
H03L H -0.158876 0.612388 0.304746 0.136 Uiso 1 1 calc R . . . .
C03M C 0.9047(11) 0.8817(12) 1.1082(8) 0.218(10) Uani 1 1 d . . . . .
H03M H 0.950112 0.921165 1.138445 0.261 Uiso 1 1 calc R . . . .
C03Q C 0.9407(11) 0.8142(9) 1.0922(7) 0.178(7) Uani 1 1 d . . . . .
H03Q H 1.009070 0.806314 1.112393 0.214 Uiso 1 1 calc R . . . .
F23 F 0.9254(8) 0.5345(14) 1.1790(5) 0.52(2) Uani 1 1 d . . . . .
F10 F 0.8964(11) 0.6286(9) 1.1277(5) 0.345(11) Uani 1 1 d . . . . .
B6 B 0.8483(13) 0.5696(14) 1.1436(7) 0.189(11) Uani 1 1 d . . . . .
F24 F 0.6085(14) 0.3396(9) 0.8005(6) 0.278(6) Uani 1 1 d . U . . .
F27 F 0.7293(10) 0.3834(8) 0.7559(6) 0.270(6) Uani 1 1 d . U . . .
F25 F 0.6539(8) 0.4570(6) 0.8254(5) 0.202(4) Uani 1 1 d . U . . .
F26 F 0.5560(11) 0.3991(6) 0.7297(5) 0.232(5) Uani 1 1 d . U . . .
B7 B 0.646(2) 0.4036(15) 0.7779(12) 0.188(9) Uani 1 1 d . U . . .
loop_
_atom_site_aniso_label
_atom_site_aniso_U_11
_atom_site_aniso_U_22
_atom_site_aniso_U_33
_atom_site_aniso_U_23
_atom_site_aniso_U_13
_atom_site_aniso_U_12
Fe01 0.0619(6) 0.0489(5) 0.0741(7) 0.0125(4) 0.0157(5) 0.0112(4)
Fe02 0.0651(6) 0.0848(8) 0.0655(7) -0.0011(5) 0.0122(5) 0.0000(5)
O003 0.081(3) 0.045(2) 0.075(3) 0.009(2) 0.011(2) 0.008(2)
F1 0.100(3) 0.076(3) 0.126(4) 0.028(3) -0.026(3) -0.017(3)
O005 0.092(3) 0.063(3) 0.064(3) 0.008(2) 0.017(2) 0.014(2)
O006 0.085(3) 0.079(4) 0.091(4) 0.032(3) 0.025(3) 0.001(3)
O007 0.061(3) 0.083(3) 0.082(3) 0.008(3) 0.013(3) 0.001(2)
F13 0.116(4) 0.059(3) 0.172(5) 0.015(3) -0.002(4) 0.018(3)
N19 0.073(3) 0.055(3) 0.051(3) 0.003(2) 0.014(3) 0.006(3)
F12 0.123(4) 0.058(3) 0.148(5) 0.013(3) 0.030(3) 0.000(3)
N22 0.055(3) 0.048(3) 0.073(4) 0.010(3) 0.018(3) 0.009(2)
N18 0.068(3) 0.052(3) 0.059(3) 0.004(3) 0.007(3) 0.009(3)
N23 0.072(4) 0.070(4) 0.072(4) 0.018(3) 0.011(3) 0.000(3)
N00E 0.064(3) 0.054(3) 0.073(4) 0.016(3) 0.010(3) 0.007(3)
N00F 0.077(4) 0.046(3) 0.060(3) 0.004(2) 0.015(3) 0.011(3)
N00G 0.068(4) 0.052(3) 0.088(4) 0.000(3) 0.010(3) -0.002(3)
N00H 0.065(3) 0.060(3) 0.080(4) 0.020(3) 0.012(3) 0.002(3)
N00I 0.055(3) 0.071(4) 0.072(4) 0.003(3) -0.001(3) -0.006(3)
N00J 0.067(3) 0.042(3) 0.074(4) 0.016(3) 0.009(3) 0.002(2)
F5 0.094(3) 0.146(5) 0.107(4) 0.009(3) 0.021(3) -0.006(3)
F3 0.116(4) 0.098(4) 0.135(5) 0.029(3) -0.016(3) -0.023(3)
N00M 0.075(4) 0.072(4) 0.073(4) 0.017(3) 0.019(3) 0.036(3)
N00N 0.066(4) 0.065(4) 0.083(4) 0.016(3) 0.014(3) 0.020(3)
N00O 0.062(3) 0.067(4) 0.068(4) 0.010(3) 0.016(3) 0.008(3)
N00Q 0.107(5) 0.072(4) 0.085(5) 0.014(4) 0.046(4) 0.026(4)
C00R 0.071(4) 0.047(4) 0.066(4) 0.011(3) 0.012(3) 0.009(3)
N00S 0.066(4) 0.106(5) 0.058(4) 0.025(4) -0.002(3) -0.009(3)
C40 0.060(4) 0.055(4) 0.074(4) 0.011(3) 0.018(3) 0.006(3)
C00U 0.066(4) 0.060(4) 0.065(4) 0.005(3) 0.009(3) -0.003(3)
C42 0.062(4) 0.048(4) 0.065(4) 0.006(3) 0.019(3) 0.009(3)
C41 0.068(4) 0.051(4) 0.067(4) 0.008(3) 0.011(3) 0.010(3)
N00X 0.080(4) 0.084(4) 0.075(4) 0.009(4) 0.023(3) 0.020(3)
N00Y 0.085(5) 0.078(5) 0.089(5) 0.011(4) 0.035(4) 0.001(4)
N00Z 0.057(3) 0.082(4) 0.072(4) -0.011(3) 0.024(3) -0.001(3)
N010 0.085(4) 0.093(5) 0.078(4) 0.011(4) 0.021(4) 0.041(4)
O011 0.146(6) 0.084(4) 0.101(5) -0.004(3) 0.056(4) 0.008(4)
N012 0.064(4) 0.082(4) 0.068(4) -0.003(3) 0.022(3) 0.000(3)
C43 0.069(4) 0.045(3) 0.076(5) 0.005(3) 0.017(4) 0.012(3)
F14 0.135(5) 0.137(5) 0.147(6) 0.027(4) -0.016(4) 0.035(4)
F2 0.114(4) 0.197(7) 0.104(4) 0.018(4) 0.023(3) -0.038(4)
O016 0.093(4) 0.192(7) 0.075(4) 0.014(4) 0.014(3) 0.079(5)
N017 0.068(4) 0.101(5) 0.059(4) 0.006(3) 0.013(3) 0.010(3)
C018 0.066(4) 0.048(4) 0.074(4) 0.014(3) 0.014(3) 0.015(3)
C019 0.075(4) 0.047(4) 0.087(5) 0.013(4) 0.021(4) 0.018(3)
C01A 0.055(4) 0.076(5) 0.080(5) 0.001(4) 0.014(4) 0.012(4)
C01B 0.046(4) 0.097(6) 0.059(4) -0.014(4) 0.006(3) 0.004(4)
C01C 0.063(4) 0.058(4) 0.053(4) 0.010(3) 0.006(3) 0.013(3)
N20 0.100(5) 0.083(5) 0.092(5) 0.017(4) 0.051(4) 0.019(4)
C01E 0.065(4) 0.078(5) 0.064(4) 0.008(4) 0.013(3) -0.003(4)
C01F 0.087(5) 0.046(4) 0.080(5) 0.013(3) 0.015(4) 0.019(3)
C01G 0.083(5) 0.050(4) 0.060(4) 0.011(3) 0.010(4) 0.019(3)
F6 0.116(4) 0.256(9) 0.077(4) 0.022(4) 0.002(3) -0.057(5)
C01I 0.053(4) 0.098(6) 0.075(5) 0.010(4) 0.010(4) 0.005(4)
C01J 0.061(4) 0.069(4) 0.056(4) 0.006(3) 0.019(3) 0.007(3)
F11 0.141(5) 0.073(4) 0.266(9) 0.022(5) 0.022(5) -0.025(4)
N21 0.100(5) 0.095(6) 0.129(7) 0.025(5) 0.059(5) 0.007(4)
C01M 0.070(5) 0.092(6) 0.064(5) 0.009(4) 0.012(4) 0.014(4)
C01N 0.058(4) 0.072(4) 0.069(4) 0.013(4) 0.009(3) 0.011(3)
F4 0.126(5) 0.150(6) 0.189(7) 0.003(5) -0.039(5) 0.053(5)
C01P 0.090(5) 0.072(5) 0.086(5) 0.008(4) 0.038(4) 0.035(4)
C01Q 0.075(5) 0.053(4) 0.081(5) 0.004(4) 0.010(4) 0.006(3)
O01R 0.144(6) 0.132(7) 0.220(9) 0.102(7) 0.087(6) 0.030(5)
C01S 0.087(5) 0.042(4) 0.104(6) 0.004(4) 0.008(5) -0.007(4)
C01T 0.086(5) 0.047(4) 0.085(5) 0.010(3) 0.020(4) 0.015(3)
C01U 0.079(5) 0.070(5) 0.076(5) 0.017(4) 0.028(4) 0.015(4)
C01V 0.069(5) 0.084(5) 0.077(5) -0.012(4) 0.013(4) 0.001(4)
C01W 0.068(5) 0.069(5) 0.072(5) -0.001(4) 0.026(4) 0.001(4)
C01X 0.073(5) 0.073(5) 0.092(6) 0.021(4) 0.041(4) 0.002(4)
C01Y 0.066(4) 0.070(4) 0.065(4) 0.012(3) 0.007(3) -0.001(3)
C01Z 0.090(5) 0.072(5) 0.071(5) 0.025(4) 0.033(4) 0.032(4)
C020 0.080(5) 0.082(5) 0.084(6) 0.021(4) 0.026(4) 0.012(4)
C021 0.079(5) 0.064(4) 0.083(5) 0.033(4) 0.020(4) 0.005(4)
C022 0.073(4) 0.057(4) 0.066(4) 0.009(3) 0.017(3) 0.004(3)
C023 0.078(5) 0.075(5) 0.095(6) 0.015(5) 0.029(4) 0.020(4)
C024 0.091(6) 0.128(8) 0.087(6) 0.030(5) 0.031(5) 0.041(6)
C025 0.056(4) 0.081(5) 0.103(6) 0.028(5) 0.029(4) 0.009(4)
C026 0.084(6) 0.092(6) 0.100(6) 0.027(5) 0.038(5) 0.036(5)
C027 0.057(4) 0.102(7) 0.081(5) -0.004(5) 0.009(4) -0.010(4)
C028 0.073(5) 0.052(4) 0.105(6) 0.007(4) 0.000(4) 0.011(3)
C029 0.086(5) 0.069(5) 0.077(5) 0.009(4) 0.037(4) 0.008(4)
C02A 0.065(5) 0.113(7) 0.077(5) -0.010(5) 0.011(4) 0.008(5)
C02B 0.059(4) 0.071(5) 0.100(6) 0.029(4) 0.006(4) 0.010(4)
C02C 0.067(4) 0.084(5) 0.067(5) 0.008(4) 0.009(4) 0.015(4)
C02D 0.081(6) 0.110(7) 0.082(6) -0.017(5) 0.012(5) -0.004(5)
C02E 0.079(5) 0.088(6) 0.080(6) 0.009(4) 0.007(4) 0.010(4)
C02F 0.082(5) 0.086(6) 0.067(5) 0.007(4) 0.006(4) -0.009(4)
C02G 0.064(4) 0.065(5) 0.073(5) 0.005(4) 0.018(4) -0.002(3)
C02H 0.089(5) 0.085(6) 0.079(5) 0.013(4) 0.030(4) -0.009(5)
C02I 0.100(6) 0.040(4) 0.122(7) 0.000(4) 0.006(5) -0.001(4)
C02J 0.072(4) 0.072(5) 0.082(5) 0.017(4) 0.030(4) 0.005(4)
C02K 0.071(5) 0.089(6) 0.075(5) 0.015(4) 0.020(4) 0.011(4)
C02L 0.112(7) 0.071(5) 0.091(6) 0.013(5) 0.051(5) 0.029(5)
C02M 0.075(5) 0.105(7) 0.123(8) 0.020(6) 0.002(5) 0.017(5)
C02N 0.089(6) 0.094(6) 0.111(7) 0.029(6) 0.037(5) 0.026(5)
C02O 0.094(6) 0.163(10) 0.059(5) 0.014(6) 0.021(5) 0.061(6)
C02P 0.109(6) 0.083(6) 0.089(6) 0.021(5) 0.035(5) 0.009(5)
C02Q 0.082(5) 0.078(5) 0.088(5) 0.018(4) 0.002(4) 0.038(4)
C02R 0.071(5) 0.100(6) 0.077(5) 0.010(5) 0.009(4) 0.025(4)
B1 0.069(6) 0.081(6) 0.086(7) 0.025(5) 0.008(5) -0.001(5)
C02T 0.099(6) 0.074(5) 0.111(7) -0.015(5) 0.041(6) 0.003(5)
C02U 0.102(7) 0.117(8) 0.090(6) 0.027(6) 0.012(5) 0.057(6)
C02V 0.112(7) 0.077(5) 0.086(6) 0.012(4) 0.012(5) 0.034(5)
C02W 0.101(7) 0.117(7) 0.072(6) 0.025(5) 0.018(5) 0.013(6)
C02X 0.075(5) 0.116(8) 0.124(8) 0.031(7) 0.031(5) 0.010(5)
C02Y 0.108(7) 0.049(4) 0.125(7) 0.016(5) 0.012(6) 0.018(4)
C02Z 0.103(7) 0.102(7) 0.133(9) 0.042(7) 0.048(6) 0.019(6)
C030 0.107(7) 0.079(6) 0.105(7) -0.028(5) 0.018(6) -0.004(5)
C031 0.076(5) 0.130(8) 0.062(5) 0.004(5) 0.019(4) 0.022(5)
B2 0.126(10) 0.054(6) 0.141(11) 0.017(6) -0.018(8) 0.009(6)
C034 0.138(9) 0.088(7) 0.110(7) 0.030(6) 0.022(7) 0.060(7)
C036 0.082(6) 0.106(7) 0.105(7) 0.023(6) -0.007(5) -0.014(5)
C037 0.094(6) 0.138(9) 0.093(7) -0.015(6) 0.009(5) 0.050(6)
C038 0.070(5) 0.129(8) 0.129(9) 0.020(7) 0.047(6) 0.010(5)
C03A 0.098(7) 0.146(10) 0.088(6) -0.019(6) -0.003(5) 0.001(6)
C03B 0.093(6) 0.120(8) 0.066(5) 0.004(5) 0.012(4) -0.005(5)
C03C 0.071(5) 0.120(8) 0.110(8) 0.032(6) 0.010(5) -0.001(5)
C03F 0.098(7) 0.151(9) 0.057(5) 0.010(5) 0.014(5) 0.031(6)
C03G 0.145(10) 0.190(13) 0.086(7) 0.001(7) 0.048(7) -0.028(9)
C03H 0.098(7) 0.132(9) 0.163(10) 0.072(8) 0.067(7) 0.043(6)
C03I 0.086(7) 0.149(11) 0.186(12) -0.065(9) -0.001(8) 0.011(7)
C03J 0.096(7) 0.103(7) 0.125(9) 0.030(7) -0.006(6) -0.010(6)
C03M 0.110(10) 0.26(2) 0.177(14) -0.098(14) -0.029(9) 0.019(11)
C03Q 0.116(9) 0.185(14) 0.161(12) -0.054(11) -0.024(8) 0.036(9)
F23 0.144(7) 1.00(5) 0.167(8) -0.290(18) -0.075(7) 0.256(16)
F10 0.284(13) 0.48(2) 0.146(8) -0.026(10) 0.021(8) -0.275(16)
B6 0.104(10) 0.30(3) 0.084(9) -0.045(12) 0.024(8) -0.094(14)
F24 0.394(18) 0.233(13) 0.221(11) 0.047(10) 0.122(12) 0.034(13)
F27 0.209(10) 0.274(13) 0.257(12) -0.049(10) 0.043(9) 0.016(9)
F25 0.203(8) 0.203(9) 0.175(8) 0.010(7) 0.039(7) 0.022(7)
F26 0.280(12) 0.188(9) 0.184(8) -0.007(7) -0.012(9) 0.095(8)
B7 0.195(18) 0.193(19) 0.155(16) -0.026(15) 0.051(15) 0.090(16)
loop_
_atom_type_symbol
_atom_type_description
_atom_type_scat_dispersion_real
_atom_type_scat_dispersion_imag
_atom_type_scat_source
C C 0.0033 0.0016 'International Tables Vol C Tables 4.2.6.8 and 6.1.1.4'
H H 0.0000 0.0000 'International Tables Vol C Tables 4.2.6.8 and 6.1.1.4'
N N 0.0061 0.0033 'International Tables Vol C Tables 4.2.6.8 and 6.1.1.4'
O O 0.0106 0.0060 'International Tables Vol C Tables 4.2.6.8 and 6.1.1.4'
Fe Fe 0.3463 0.8444 'International Tables Vol C Tables 4.2.6.8 and 6.1.1.4'
F F 0.0171 0.0103 'International Tables Vol C Tables 4.2.6.8 and 6.1.1.4'
B B 0.0013 0.0007 'International Tables Vol C Tables 4.2.6.8 and 6.1.1.4'
loop_
_geom_angle_atom_site_label_1
_geom_angle_atom_site_label_2
_geom_angle_atom_site_label_3
_geom_angle
_geom_angle_site_symmetry_1
_geom_angle_site_symmetry_3
_geom_angle_publ_flag
N22 Fe01 N00F 94.4(2) . . ?
N22 Fe01 N00H 89.2(2) . . ?
N22 Fe01 N00M 174.8(2) . . ?
N00H Fe01 N00F 176.3(2) . . ?
N00H Fe01 N00M 94.3(3) . . ?
N00J Fe01 N22 81.8(2) . . ?
N00J Fe01 N00F 88.0(2) . . ?
N00J Fe01 N00H 93.2(2) . . ?
N00J Fe01 N00M 94.2(2) . . ?
N00J Fe01 N00N 172.9(2) . . ?
N00M Fe01 N00F 82.1(2) . . ?
N00N Fe01 N22 93.2(2) . . ?
N00N Fe01 N00F 97.5(2) . . ?
N00N Fe01 N00H 81.6(3) . . ?
N00N Fe01 N00M 91.1(2) . . ?
N00O Fe02 N00Z 94.4(2) . . ?
N00O Fe02 N012 93.7(2) . . ?
N00O Fe02 N017 81.8(3) . . ?
N00O Fe02 C01B 173.5(3) . . ?
N00S Fe02 N00O 89.1(2) . . ?
N00S Fe02 N00Z 81.4(3) . . ?
N00S Fe02 N012 175.3(3) . . ?
N00S Fe02 N017 96.6(3) . . ?
N00S Fe02 C01B 96.4(3) . . ?
N00Z Fe02 N012 94.6(3) . . ?
N00Z Fe02 N017 175.7(3) . . ?
N00Z Fe02 C01B 90.0(3) . . ?
N012 Fe02 N017 87.6(3) . . ?
N012 Fe02 C01B 81.1(3) . . ?
C01B Fe02 N017 94.0(3) . . ?
N18 N19 H19 118.0 . . ?
C01G N19 H19 118.0 . . ?
C01G N19 N18 124.0(6) . . ?
C42 N22 Fe01 126.7(4) . . ?
C42 N22 C018 117.6(5) . . ?
C018 N22 Fe01 115.5(5) . . ?
C01C N18 N19 116.3(5) . . ?
C01E N23 N00E 121.2(6) . . ?
C43 N00E N23 115.7(6) . . ?
C41 N00F Fe01 127.9(4) . . ?
C41 N00F C01T 117.5(6) . . ?
C01T N00F Fe01 114.2(5) . . ?
N00I N00G H00G 118.5 . . ?
N00I N00G C01A 122.9(6) . . ?
C01A N00G H00G 118.5 . . ?
C02B N00H Fe01 115.0(5) . . ?
C02B N00H C02E 118.2(7) . . ?
C02E N00H Fe01 126.8(5) . . ?
C01S N00I N00G 117.1(6) . . ?
C00U N00J Fe01 115.3(5) . . ?
C022 N00J Fe01 126.6(5) . . ?
C022 N00J C00U 118.1(6) . . ?
C01F N00M Fe01 113.7(5) . . ?
C02Q N00M Fe01 126.9(5) . . ?
C02Q N00M C01F 119.1(6) . . ?
C019 N00N Fe01 126.8(5) . . ?
C019 N00N C025 120.0(7) . . ?
C025 N00N Fe01 113.2(5) . . ?
C01J N00O Fe02 127.1(5) . . ?
C01J N00O C01N 117.7(6) . . ?
C01N N00O Fe02 115.2(5) . . ?
C02N N00Q N20 117.1(8) . . ?
C42 C00R C43 121.5(6) . . ?
C01P C00R C42 116.5(7) . . ?
C01P C00R C43 121.9(6) . . ?
C01M N00S Fe02 116.4(6) . . ?
C031 N00S Fe02 127.6(6) . . ?
C031 N00S C01M 115.8(8) . . ?
C01J C40 C01C 122.3(6) . . ?
C01J C40 C01Y 117.4(6) . . ?
C01Y C40 C01C 120.3(6) . . ?
N00J C00U C018 114.6(6) . . ?
N00J C00U C01U 121.7(7) . . ?
C01U C00U C018 123.5(7) . . ?
N22 C42 C00R 123.5(6) . . ?
N22 C42 H42 118.3 . . ?
C00R C42 H42 118.3 . . ?
N00F C41 H41 117.9 . . ?
N00F C41 C01Q 124.2(7) . . ?
C01Q C41 H41 117.9 . . ?
C023 N00X N010 118.1(7) . . ?
C01X N00Y N21 117.0(7) . . ?
C01I N00Z Fe02 114.6(6) . . ?
C02G N00Z Fe02 127.2(5) . . ?
C02G N00Z C01I 118.2(7) . . ?
C02O N010 N00X 123.9(6) . . ?
C01V N012 Fe02 115.4(5) . . ?
C01W N012 Fe02 127.4(5) . . ?
C01W N012 C01V 117.3(7) . . ?
N00E C43 C00R 122.7(6) . . ?
N00E C43 H43 118.7 . . ?
C00R C43 H43 118.7 . . ?
C02C N017 Fe02 114.5(5) . . ?
C03B N017 Fe02 127.8(6) . . ?
C03B N017 C02C 117.1(7) . . ?
N22 C018 C00U 112.6(6) . . ?
C01Z C018 N22 122.9(7) . . ?
C01Z C018 C00U 124.5(7) . . ?
N00N C019 H019 119.7 . . ?
N00N C019 C026 120.6(7) . . ?
C026 C019 H019 119.7 . . ?
O007 C01A N00G 120.6(7) . . ?
O007 C01A C028 122.1(7) . . ?
N00G C01A C028 117.3(6) . . ?
C02D C01B Fe02 114.9(6) . . ?
C03A C01B Fe02 126.1(7) . . ?
C03A C01B C02D 118.7(8) . . ?
N18 C01C C40 120.4(6) . . ?
N18 C01C H01C 119.8 . . ?
C40 C01C H01C 119.8 . . ?
N00Q N20 H20 118.3 . . ?
C02L N20 N00Q 123.4(7) . . ?
C02L N20 H20 118.3 . . ?
O006 C01E N23 117.2(7) . . ?
O006 C01E C02P 122.3(7) . . ?
N23 C01E C02P 120.5(8) . . ?
N00M C01F C01T 114.6(6) . . ?
N00M C01F C02V 119.1(7) . . ?
C02V C01F C01T 126.3(7) . . ?
O005 C01G N19 119.3(6) . . ?
O005 C01G C02F 120.7(7) . . ?
N19 C01G C02F 120.0(6) . . ?
N00Z C01I C01M 114.4(7) . . ?
N00Z C01I C02A 121.1(9) . . ?
C02A C01I C01M 124.4(8) . . ?
N00O C01J C40 124.0(6) . . ?
N00O C01J H01J 118.0 . . ?
C40 C01J H01J 118.0 . . ?
N00Y N21 H21 118.3 . . ?
C02Z N21 N00Y 123.3(8) . . ?
C02Z N21 H21 118.3 . . ?
N00S C01M C01I 112.9(7) . . ?
N00S C01M C02R 122.0(9) . . ?
C02R C01M C01I 125.1(8) . . ?
N00O C01N C02C 114.7(6) . . ?
N00O C01N C02J 121.6(7) . . ?
C02J C01N C02C 123.7(7) . . ?
C00R C01P H01P 119.6 . . ?
C01Z C01P C00R 120.8(7) . . ?
C01Z C01P H01P 119.6 . . ?
C41 C01Q C01S 123.1(7) . . ?
C41 C01Q C02I 117.0(7) . . ?
C02I C01Q C01S 119.9(7) . . ?
N00I C01S C01Q 120.1(6) . . ?
N00I C01S H01S 119.9 . . ?
C01Q C01S H01S 119.9 . . ?
N00F C01T C01F 114.7(6) . . ?
C02Y C01T N00F 120.8(7) . . ?
C02Y C01T C01F 124.6(7) . . ?
C00U C01U H01U 120.5 . . ?
C02H C01U C00U 119.1(7) . . ?
C02H C01U H01U 120.5 . . ?
N012 C01V C02D 112.4(7) . . ?
C030 C01V N012 121.1(7) . . ?
C030 C01V C02D 126.4(8) . . ?
N012 C01W H01W 117.4 . . ?
N012 C01W C029 125.3(7) . . ?
C029 C01W H01W 117.4 . . ?
N00Y C01X H01X 119.8 . . ?
N00Y C01X C027 120.4(7) . . ?
C027 C01X H01X 119.8 . . ?
C40 C01Y H01Y 120.5 . . ?
C02J C01Y C40 119.0(7) . . ?
C02J C01Y H01Y 120.5 . . ?
C018 C01Z C01P 118.6(7) . . ?
C018 C01Z H01Z 120.7 . . ?
C01P C01Z H01Z 120.7 . . ?
C02C C020 H020 120.1 . . ?
C02W C020 H020 120.1 . . ?
C02W C020 C02C 119.7(8) . . ?
C022 C021 H021 120.2 . . ?
C022 C021 C02H 119.6(7) . . ?
C02H C021 H021 120.2 . . ?
N00J C022 C021 123.2(7) . . ?
N00J C022 H022 118.4 . . ?
C021 C022 H022 118.4 . . ?
N00X C023 H023 118.8 . . ?
N00X C023 C029 122.4(7) . . ?
C029 C023 H023 118.8 . . ?
C02M C024 H024 121.2 . . ?
C031 C024 H024 121.2 . . ?
C031 C024 C02M 117.7(10) . . ?
N00N C025 C02B 115.7(7) . . ?
N00N C025 C02X 119.7(8) . . ?
C02X C025 C02B 124.5(8) . . ?
C019 C026 C02N 119.9(9) . . ?
C038 C026 C019 120.8(9) . . ?
C038 C026 C02N 119.2(9) . . ?
C02G C027 C01X 120.4(8) . . ?
C02G C027 C02K 117.2(9) . . ?
C02K C027 C01X 122.4(8) . . ?
C01A C028 H02A 109.1 . . ?
C01A C028 H02B 109.1 . . ?
H02A C028 H02B 107.8 . . ?
C02F C028 C01A 112.5(6) . . ?
C02F C028 H02A 109.1 . . ?
C02F C028 H02B 109.1 . . ?
C01W C029 C023 121.8(7) . . ?
C01W C029 C02T 117.0(8) . . ?
C02T C029 C023 121.2(8) . . ?
C01I C02A H02C 120.9 . . ?
C02K C02A C01I 118.2(8) . . ?
C02K C02A H02C 120.9 . . ?
N00H C02B C025 114.3(7) . . ?
N00H C02B C03C 120.4(8) . . ?
C03C C02B C025 125.3(8) . . ?
N017 C02C C01N 113.1(7) . . ?
N017 C02C C020 121.7(7) . . ?
C020 C02C C01N 125.1(7) . . ?
C01B C02D C01V 116.2(7) . . ?
C01B C02D C03I 123.8(9) . . ?
C03I C02D C01V 119.9(10) . . ?
N00H C02E H02E 118.4 . . ?
N00H C02E C036 123.2(9) . . ?
C036 C02E H02E 118.4 . . ?
C01G C02F H02D 109.4 . . ?
C01G C02F H02F 109.4 . . ?
C028 C02F C01G 111.4(6) . . ?
C028 C02F H02D 109.4 . . ?
C028 C02F H02F 109.4 . . ?
H02D C02F H02F 108.0 . . ?
N00Z C02G C027 123.8(7) . . ?
N00Z C02G H02G 118.1 . . ?
C027 C02G H02G 118.1 . . ?
C01U C02H C021 118.4(7) . . ?
C01U C02H H02H 120.8 . . ?
C021 C02H H02H 120.8 . . ?
C01Q C02I H02I 120.1 . . ?
C02Y C02I C01Q 119.7(7) . . ?
C02Y C02I H02I 120.1 . . ?
C01N C02J H02J 119.8 . . ?
C01Y C02J C01N 120.3(7) . . ?
C01Y C02J H02J 119.8 . . ?
C027 C02K H02K 119.2 . . ?
C02A C02K C027 121.5(8) . . ?
C02A C02K H02K 119.2 . . ?
O011 C02L N20 119.6(8) . . ?
O011 C02L C03G 120.9(10) . . ?
N20 C02L C03G 119.2(8) . . ?
C024 C02M H02M 120.7 . . ?
C02R C02M C024 118.5(9) . . ?
C02R C02M H02M 120.7 . . ?
N00Q C02N C026 121.9(9) . . ?
N00Q C02N H02N 119.0 . . ?
C026 C02N H02N 119.0 . . ?
N010 C02O C037 116.7(8) . . ?
O016 C02O N010 123.2(8) . . ?
O016 C02O C037 119.9(9) . . ?
C01E C02P H02L 109.2 . . ?
C01E C02P H02O 109.2 . . ?
H02L C02P H02O 107.9 . . ?
C037 C02P C01E 112.0(8) . . ?
C037 C02P H02L 109.2 . . ?
C037 C02P H02O 109.2 . . ?
N00M C02Q H02Q 118.4 . . ?
N00M C02Q C02U 123.3(8) . . ?
C02U C02Q H02Q 118.4 . . ?
C01M C02R C02M 119.9(9) . . ?
C01M C02R H02R 120.0 . . ?
C02M C02R H02R 120.0 . . ?
F3 B1 F1 108.6(8) . . ?
F2 B1 F1 108.6(7) . . ?
F2 B1 F3 107.0(9) . . ?
F4 B1 F1 110.7(8) . . ?
F4 B1 F3 109.6(8) . . ?
F4 B1 F2 112.4(9) . . ?
C029 C02T H02T 121.5 . . ?
C030 C02T C029 117.0(8) . . ?
C030 C02T H02T 121.5 . . ?
C02Q C02U H02U 121.8 . . ?
C034 C02U C02Q 116.4(9) . . ?
C034 C02U H02U 121.8 . . ?
C01F C02V H02V 120.3 . . ?
C034 C02V C01F 119.5(9) . . ?
C034 C02V H02V 120.3 . . ?
C020 C02W H02W 120.3 . . ?
C03F C02W C020 119.4(9) . . ?
C03F C02W H02W 120.3 . . ?
C025 C02X H02X 119.4 . . ?
C038 C02X C025 121.2(9) . . ?
C038 C02X H02X 119.4 . . ?
C01T C02Y H02Y 119.6 . . ?
C02I C02Y C01T 120.7(8) . . ?
C02I C02Y H02Y 119.6 . . ?
N21 C02Z C03H 117.2(10) . . ?
O01R C02Z N21 118.7(10) . . ?
O01R C02Z C03H 123.9(10) . . ?
C01V C030 C02T 122.4(7) . . ?
C01V C030 H030 118.8 . . ?
C02T C030 H030 118.8 . . ?
N00S C031 C024 126.0(9) . . ?
N00S C031 H031 117.0 . . ?
C024 C031 H031 117.0 . . ?
F13 B2 F12 108.9(9) . . ?
F13 B2 F14 107.5(12) . . ?
F12 B2 F14 104.3(9) . . ?
F11 B2 F13 113.1(9) . . ?
F11 B2 F12 112.1(12) . . ?
F11 B2 F14 110.5(10) . . ?
C02U C034 C02V 122.6(9) . . ?
C02U C034 H034 118.7 . . ?
C02V C034 H034 118.7 . . ?
C02E C036 H036 120.4 . . ?
C03J C036 C02E 119.2(10) . . ?
C03J C036 H036 120.4 . . ?
C02O C037 H03A 109.6 . . ?
C02O C037 H03B 109.6 . . ?
C02P C037 C02O 110.5(8) . . ?
C02P C037 H03A 109.6 . . ?
C02P C037 H03B 109.6 . . ?
H03A C037 H03B 108.1 . . ?
C026 C038 C02X 117.6(9) . . ?
C026 C038 H038 121.2 . . ?
C02X C038 H038 121.2 . . ?
C01B C03A H03C 118.3 . . ?
C01B C03A C03Q 123.5(12) . . ?
C03Q C03A H03C 118.3 . . ?
N017 C03B H03D 118.9 . . ?
N017 C03B C03F 122.2(8) . . ?
C03F C03B H03D 118.9 . . ?
C02B C03C H03E 119.9 . . ?
C03J C03C C02B 120.1(10) . . ?
C03J C03C H03E 119.9 . . ?
C02W C03F C03B 119.4(8) . . ?
C02W C03F H03F 120.3 . . ?
C03B C03F H03F 120.3 . . ?
C02L C03G H03G 108.5 . . ?
C02L C03G H03H 108.5 . . ?
H03G C03G H03H 107.5 . . ?
C03H C03G C02L 114.9(10) . . ?
C03H C03G H03G 108.5 . . ?
C03H C03G H03H 108.5 . . ?
C02Z C03H H03I 109.8 . . ?
C02Z C03H H03J 109.8 . . ?
C03G C03H C02Z 109.6(10) . . ?
C03G C03H H03I 109.8 . . ?
C03G C03H H03J 109.8 . . ?
H03I C03H H03J 108.2 . . ?
C02D C03I H03K 122.3 . . ?
C03M C03I C02D 115.4(12) . . ?
C03M C03I H03K 122.3 . . ?
C036 C03J C03C 118.9(10) . . ?
C036 C03J H03L 120.6 . . ?
C03C C03J H03L 120.6 . . ?
C03I C03M H03M 119.8 . . ?
C03Q C03M C03I 120.3(12) . . ?
C03Q C03M H03M 119.8 . . ?
C03A C03Q H03Q 121.0 . . ?
C03M C03Q C03A 118.1(12) . . ?
C03M C03Q H03Q 121.0 . . ?
F5 B6 F23 106.8(14) . . ?
F5 B6 F10 108(2) . . ?
F6 B6 F5 113.4(10) . . ?
F6 B6 F23 107(2) . . ?
F6 B6 F10 108.5(14) . . ?
F10 B6 F23 113.3(14) . . ?
F27 B7 F24 103.0(19) . . ?
F27 B7 F26 111(2) . . ?
F25 B7 F24 102(2) . . ?
F25 B7 F27 122(2) . . ?
F25 B7 F26 114.5(18) . . ?
F26 B7 F24 99(2) . . ?
loop_
_geom_bond_atom_site_label_1
_geom_bond_atom_site_label_2
_geom_bond_distance
_geom_bond_site_symmetry_2
_geom_bond_publ_flag
Fe01 N22 1.967(5) . ?
Fe01 N00F 1.976(5) . ?
Fe01 N00H 1.969(6) . ?
Fe01 N00J 1.958(6) . ?
Fe01 N00M 1.968(6) . ?
Fe01 N00N 1.964(7) . ?
Fe02 N00O 1.956(6) . ?
Fe02 N00S 1.940(8) . ?
Fe02 N00Z 1.957(7) . ?
Fe02 N012 1.968(7) . ?
Fe02 N017 1.987(7) . ?
Fe02 C01B 1.975(7) . ?
F1 B1 1.402(10) . ?
O005 C01G 1.227(8) . ?
O006 C01E 1.257(9) . ?
O007 C01A 1.206(8) . ?
F13 B2 1.362(14) . ?
N19 H19 0.8800 . ?
N19 N18 1.340(7) . ?
N19 C01G 1.337(9) . ?
F12 B2 1.393(12) . ?
N22 C42 1.320(8) . ?
N22 C018 1.378(8) . ?
N18 C01C 1.280(8) . ?
N23 N00E 1.381(8) . ?
N23 C01E 1.343(9) . ?
N00E C43 1.254(8) . ?
N00F C41 1.324(8) . ?
N00F C01T 1.368(9) . ?
N00G H00G 0.8800 . ?
N00G N00I 1.352(8) . ?
N00G C01A 1.362(10) . ?
N00H C02B 1.328(10) . ?
N00H C02E 1.337(10) . ?
N00I C01S 1.291(9) . ?
N00J C00U 1.359(9) . ?
N00J C022 1.329(9) . ?
F5 B6 1.358(17) . ?
F3 B1 1.361(11) . ?
N00M C01F 1.387(9) . ?
N00M C02Q 1.320(9) . ?
N00N C019 1.334(9) . ?
N00N C025 1.355(9) . ?
N00O C01J 1.333(8) . ?
N00O C01N 1.359(9) . ?
N00Q N20 1.358(9) . ?
N00Q C02N 1.259(11) . ?
C00R C42 1.401(9) . ?
C00R C43 1.437(10) . ?
C00R C01P 1.396(10) . ?
N00S C01M 1.366(10) . ?
N00S C031 1.332(12) . ?
C40 C01C 1.448(9) . ?
C40 C01J 1.385(9) . ?
C40 C01Y 1.407(10) . ?
C00U C018 1.471(10) . ?
C00U C01U 1.390(10) . ?
C42 H42 0.9500 . ?
C41 H41 0.9500 . ?
C41 C01Q 1.350(9) . ?
N00X N010 1.360(9) . ?
N00X C023 1.249(10) . ?
N00Y N21 1.389(10) . ?
N00Y C01X 1.249(10) . ?
N00Z C01I 1.374(10) . ?
N00Z C02G 1.360(10) . ?
N010 C02O 1.318(11) . ?
O011 C02L 1.254(10) . ?
N012 C01V 1.376(9) . ?
N012 C01W 1.311(9) . ?
C43 H43 0.9500 . ?
F14 B2 1.418(15) . ?
F2 B1 1.332(11) . ?
O016 C02O 1.210(10) . ?
N017 C02C 1.365(9) . ?
N017 C03B 1.333(10) . ?
C018 C01Z 1.352(9) . ?
C019 H019 0.9500 . ?
C019 C026 1.426(11) . ?
C01A C028 1.503(10) . ?
C01B C02D 1.330(12) . ?
C01B C03A 1.313(12) . ?
C01C H01C 0.9500 . ?
N20 H20 0.8800 . ?
N20 C02L 1.342(11) . ?
C01E C02P 1.484(12) . ?
C01F C01T 1.442(10) . ?
C01F C02V 1.392(11) . ?
C01G C02F 1.511(10) . ?
F6 B6 1.347(15) . ?
C01I C01M 1.441(12) . ?
C01I C02A 1.418(12) . ?
C01J H01J 0.9500 . ?
F11 B2 1.347(16) . ?
N21 H21 0.8800 . ?
N21 C02Z 1.337(12) . ?
C01M C02R 1.378(11) . ?
C01N C02C 1.476(10) . ?
C01N C02J 1.385(10) . ?
F4 B1 1.321(12) . ?
C01P H01P 0.9500 . ?
C01P C01Z 1.368(11) . ?
C01Q C01S 1.445(11) . ?
C01Q C02I 1.404(11) . ?
O01R C02Z 1.219(12) . ?
C01S H01S 0.9500 . ?
C01T C02Y 1.360(11) . ?
C01U H01U 0.9500 . ?
C01U C02H 1.381(11) . ?
C01V C02D 1.449(12) . ?
C01V C030 1.364(12) . ?
C01W H01W 0.9500 . ?
C01W C029 1.413(11) . ?
C01X H01X 0.9500 . ?
C01X C027 1.444(12) . ?
C01Y H01Y 0.9500 . ?
C01Y C02J 1.358(10) . ?
C01Z H01Z 0.9500 . ?
C020 H020 0.9500 . ?
C020 C02C 1.389(11) . ?
C020 C02W 1.348(11) . ?
C021 H021 0.9500 . ?
C021 C022 1.363(10) . ?
C021 C02H 1.387(11) . ?
C022 H022 0.9500 . ?
C023 H023 0.9500 . ?
C023 C029 1.445(11) . ?
C024 H024 0.9500 . ?
C024 C02M 1.380(13) . ?
C024 C031 1.366(13) . ?
C025 C02B 1.436(11) . ?
C025 C02X 1.408(12) . ?
C026 C02N 1.461(13) . ?
C026 C038 1.349(13) . ?
C027 C02G 1.385(11) . ?
C027 C02K 1.396(11) . ?
C028 H02A 0.9900 . ?
C028 H02B 0.9900 . ?
C028 C02F 1.487(11) . ?
C029 C02T 1.411(11) . ?
C02A H02C 0.9500 . ?
C02A C02K 1.379(12) . ?
C02B C03C 1.402(12) . ?
C02D C03I 1.430(13) . ?
C02E H02E 0.9500 . ?
C02E C036 1.370(11) . ?
C02F H02D 0.9900 . ?
C02F H02F 0.9900 . ?
C02G H02G 0.9500 . ?
C02H H02H 0.9500 . ?
C02I H02I 0.9500 . ?
C02I C02Y 1.327(12) . ?
C02J H02J 0.9500 . ?
C02K H02K 0.9500 . ?
C02L C03G 1.508(13) . ?
C02M H02M 0.9500 . ?
C02M C02R 1.387(13) . ?
C02N H02N 0.9500 . ?
C02O C037 1.582(12) . ?
C02P H02L 0.9900 . ?
C02P H02O 0.9900 . ?
C02P C037 1.415(12) . ?
C02Q H02Q 0.9500 . ?
C02Q C02U 1.409(12) . ?
C02R H02R 0.9500 . ?
C02T H02T 0.9500 . ?
C02T C030 1.386(13) . ?
C02U H02U 0.9500 . ?
C02U C034 1.345(14) . ?
C02V H02V 0.9500 . ?
C02V C034 1.358(13) . ?
C02W H02W 0.9500 . ?
C02W C03F 1.351(13) . ?
C02X H02X 0.9500 . ?
C02X C038 1.383(14) . ?
C02Y H02Y 0.9500 . ?
C02Z C03H 1.474(13) . ?
C030 H030 0.9500 . ?
C031 H031 0.9500 . ?
C034 H034 0.9500 . ?
C036 H036 0.9500 . ?
C036 C03J 1.345(14) . ?
C037 H03A 0.9900 . ?
C037 H03B 0.9900 . ?
C038 H038 0.9500 . ?
C03A H03C 0.9500 . ?
C03A C03Q 1.393(15) . ?
C03B H03D 0.9500 . ?
C03B C03F 1.397(13) . ?
C03C H03E 0.9500 . ?
C03C C03J 1.363(14) . ?
C03F H03F 0.9500 . ?
C03G H03G 0.9900 . ?
C03G H03H 0.9900 . ?
C03G C03H 1.445(15) . ?
C03H H03I 0.9900 . ?
C03H H03J 0.9900 . ?
C03I H03K 0.9500 . ?
C03I C03M 1.402(18) . ?
C03J H03L 0.9500 . ?
C03M H03M 0.9500 . ?
C03M C03Q 1.39(2) . ?
C03Q H03Q 0.9500 . ?
F23 B6 1.47(3) . ?
F10 B6 1.39(3) . ?
F24 B7 1.51(3) . ?
F27 B7 1.31(2) . ?
F25 B7 1.27(2) . ?
F26 B7 1.41(3) . ?
loop_
_geom_torsion_atom_site_label_1
_geom_torsion_atom_site_label_2
_geom_torsion_atom_site_label_3
_geom_torsion_atom_site_label_4
_geom_torsion
_geom_torsion_site_symmetry_1
_geom_torsion_site_symmetry_2
_geom_torsion_site_symmetry_3
_geom_torsion_site_symmetry_4
_geom_torsion_publ_flag
Fe01 N22 C42 C00R 174.2(5) . . . . ?
Fe01 N22 C018 C00U 3.1(7) . . . . ?
Fe01 N22 C018 C01Z -177.3(6) . . . . ?
Fe01 N00F C41 C01Q 173.5(6) . . . . ?
Fe01 N00F C01T C01F 5.8(8) . . . . ?
Fe01 N00F C01T C02Y -175.6(7) . . . . ?
Fe01 N00H C02B C025 2.3(8) . . . . ?
Fe01 N00H C02B C03C -178.7(6) . . . . ?
Fe01 N00H C02E C036 178.2(7) . . . . ?
Fe01 N00J C00U C018 5.8(7) . . . . ?
Fe01 N00J C00U C01U -179.7(5) . . . . ?
Fe01 N00J C022 C021 -179.1(5) . . . . ?
Fe01 N00M C01F C01T -6.4(8) . . . . ?
Fe01 N00M C01F C02V 175.1(6) . . . . ?
Fe01 N00M C02Q C02U -173.1(7) . . . . ?
Fe01 N00N C019 C026 -177.9(5) . . . . ?
Fe01 N00N C025 C02B -3.6(8) . . . . ?
Fe01 N00N C025 C02X 178.3(6) . . . . ?
Fe02 N00O C01J C40 178.9(5) . . . . ?
Fe02 N00O C01N C02C -0.3(8) . . . . ?
Fe02 N00O C01N C02J -178.9(6) . . . . ?
Fe02 N00S C01M C01I 4.2(8) . . . . ?
Fe02 N00S C01M C02R -174.4(6) . . . . ?
Fe02 N00S C031 C024 176.7(7) . . . . ?
Fe02 N00Z C01I C01M -3.8(8) . . . . ?
Fe02 N00Z C01I C02A 177.9(5) . . . . ?
Fe02 N00Z C02G C027 -178.2(5) . . . . ?
Fe02 N012 C01V C02D 0.9(9) . . . . ?
Fe02 N012 C01V C030 -176.9(8) . . . . ?
Fe02 N012 C01W C029 176.6(6) . . . . ?
Fe02 N017 C02C C01N 9.2(8) . . . . ?
Fe02 N017 C02C C020 -175.3(6) . . . . ?
Fe02 N017 C03B C03F 176.3(7) . . . . ?
Fe02 C01B C02D C01V 3.2(11) . . . . ?
Fe02 C01B C02D C03I -173.3(10) . . . . ?
Fe02 C01B C03A C03Q 176.2(12) . . . . ?
O005 C01G C02F C028 64.3(10) . . . . ?
O006 C01E C02P C037 47.6(12) . . . . ?
O007 C01A C028 C02F 10.2(11) . . . . ?
N19 N18 C01C C40 178.1(6) . . . . ?
N19 C01G C02F C028 -115.4(8) . . . . ?
N22 C018 C01Z C01P 4.6(11) . . . . ?
N18 N19 C01G O005 -179.3(6) . . . . ?
N18 N19 C01G C02F 0.4(10) . . . . ?
N23 N00E C43 C00R 179.8(6) . . . . ?
N23 C01E C02P C037 -133.2(9) . . . . ?
N00E N23 C01E O006 -176.9(6) . . . . ?
N00E N23 C01E C02P 3.9(10) . . . . ?
N00F C41 C01Q C01S -179.4(7) . . . . ?
N00F C41 C01Q C02I 0.1(12) . . . . ?
N00F C01T C02Y C02I 2.0(14) . . . . ?
N00G N00I C01S C01Q 178.7(7) . . . . ?
N00G C01A C028 C02F -171.8(7) . . . . ?
N00H C02B C03C C03J 0.9(14) . . . . ?
N00H C02E C036 C03J -0.4(15) . . . . ?
N00I N00G C01A O007 177.9(7) . . . . ?
N00I N00G C01A C028 -0.2(11) . . . . ?
N00J C00U C018 N22 -5.8(8) . . . . ?
N00J C00U C018 C01Z 174.7(7) . . . . ?
N00J C00U C01U C02H -0.9(10) . . . . ?
N00M C01F C01T N00F 0.4(10) . . . . ?
N00M C01F C01T C02Y -178.2(8) . . . . ?
N00M C01F C02V C034 -1.1(13) . . . . ?
N00M C02Q C02U C034 -1.0(14) . . . . ?
N00N C019 C026 C02N -178.4(7) . . . . ?
N00N C019 C026 C038 -1.1(12) . . . . ?
N00N C025 C02B N00H 0.9(10) . . . . ?
N00N C025 C02B C03C -178.0(8) . . . . ?
N00N C025 C02X C038 0.4(14) . . . . ?
N00O C01N C02C N017 -5.9(10) . . . . ?
N00O C01N C02C C020 178.8(7) . . . . ?
N00O C01N C02J C01Y -0.2(11) . . . . ?
N00Q N20 C02L O011 -176.8(7) . . . . ?
N00Q N20 C02L C03G 8.0(14) . . . . ?
C00R C01P C01Z C018 -4.6(12) . . . . ?
N00S C01M C02R C02M -3.4(12) . . . . ?
C40 C01Y C02J C01N 0.5(11) . . . . ?
C00U N00J C022 C021 0.6(10) . . . . ?
C00U C018 C01Z C01P -175.9(7) . . . . ?
C00U C01U C02H C021 0.0(11) . . . . ?
C42 N22 C018 C00U 178.2(5) . . . . ?
C42 N22 C018 C01Z -2.2(10) . . . . ?
C42 C00R C43 N00E -12.1(10) . . . . ?
C42 C00R C01P C01Z 2.3(11) . . . . ?
C41 N00F C01T C01F 179.4(6) . . . . ?
C41 N00F C01T C02Y -2.0(11) . . . . ?
C41 C01Q C01S N00I -6.1(13) . . . . ?
C41 C01Q C02I C02Y -0.2(13) . . . . ?
N00X N010 C02O O016 -179.3(10) . . . . ?
N00X N010 C02O C037 6.0(15) . . . . ?
N00X C023 C029 C01W -8.8(13) . . . . ?
N00X C023 C029 C02T 169.8(8) . . . . ?
N00Y N21 C02Z O01R -177.7(10) . . . . ?
N00Y N21 C02Z C03H 7.0(15) . . . . ?
N00Y C01X C027 C02G -19.3(12) . . . . ?
N00Y C01X C027 C02K 161.3(8) . . . . ?
N00Z C01I C01M N00S -0.2(9) . . . . ?
N00Z C01I C01M C02R 178.3(7) . . . . ?
N00Z C01I C02A C02K -0.2(11) . . . . ?
N010 N00X C023 C029 177.2(7) . . . . ?
N010 C02O C037 C02P -158.7(10) . . . . ?
O011 C02L C03G C03H 30.8(17) . . . . ?
N012 C01V C02D C01B -2.7(12) . . . . ?
N012 C01V C02D C03I 173.9(10) . . . . ?
N012 C01V C030 C02T -2.0(16) . . . . ?
N012 C01W C029 C023 -178.9(7) . . . . ?
N012 C01W C029 C02T 2.4(12) . . . . ?
C43 C00R C42 N22 -176.8(6) . . . . ?
C43 C00R C01P C01Z 179.2(7) . . . . ?
O016 C02O C037 C02P 26.5(16) . . . . ?
N017 C03B C03F C02W -7.6(16) . . . . ?
C018 N22 C42 C00R -0.2(9) . . . . ?
C018 C00U C01U C02H 173.1(7) . . . . ?
C019 N00N C025 C02B 176.8(6) . . . . ?
C019 N00N C025 C02X -1.2(11) . . . . ?
C019 C026 C02N N00Q -17.3(13) . . . . ?
C019 C026 C038 C02X 0.3(14) . . . . ?
C01A N00G N00I C01S 178.3(7) . . . . ?
C01A C028 C02F C01G -170.8(7) . . . . ?
C01B C02D C03I C03M -2(2) . . . . ?
C01B C03A C03Q C03M -5(3) . . . . ?
C01C C40 C01J N00O -179.8(6) . . . . ?
C01C C40 C01Y C02J 179.3(7) . . . . ?
N20 N00Q C02N C026 -179.9(7) . . . . ?
N20 C02L C03G C03H -154.0(10) . . . . ?
C01E N23 N00E C43 175.1(6) . . . . ?
C01E C02P C037 C02O -168.7(9) . . . . ?
C01F N00M C02Q C02U 0.3(12) . . . . ?
C01F C01T C02Y C02I -179.6(9) . . . . ?
C01F C02V C034 C02U 0.4(16) . . . . ?
C01G N19 N18 C01C 178.2(6) . . . . ?
C01I N00Z C02G C027 -0.4(10) . . . . ?
C01I C01M C02R C02M 178.1(8) . . . . ?
C01I C02A C02K C027 1.2(11) . . . . ?
C01J N00O C01N C02C 178.3(6) . . . . ?
C01J N00O C01N C02J -0.3(10) . . . . ?
C01J C40 C01C N18 -9.4(10) . . . . ?
C01J C40 C01Y C02J -0.3(10) . . . . ?
N21 N00Y C01X C027 179.5(7) . . . . ?
N21 C02Z C03H C03G -140.4(11) . . . . ?
C01M N00S C031 C024 1.0(12) . . . . ?
C01M C01I C02A C02K -178.3(7) . . . . ?
C01N N00O C01J C40 0.4(10) . . . . ?
C01P C00R C42 N22 0.2(10) . . . . ?
C01P C00R C43 N00E 171.1(7) . . . . ?
C01Q C02I C02Y C01T -0.8(15) . . . . ?
O01R C02Z C03H C03G 44.5(18) . . . . ?
C01S C01Q C02I C02Y 179.4(9) . . . . ?
C01T N00F C41 C01Q 1.0(11) . . . . ?
C01T C01F C02V C034 -179.5(9) . . . . ?
C01U C00U C018 N22 179.9(6) . . . . ?
C01U C00U C018 C01Z 0.3(11) . . . . ?
C01V N012 C01W C029 -3.1(11) . . . . ?
C01V C02D C03I C03M -178.5(14) . . . . ?
C01W N012 C01V C02D -179.4(7) . . . . ?
C01W N012 C01V C030 2.8(12) . . . . ?
C01W C029 C02T C030 -1.3(13) . . . . ?
C01X N00Y N21 C02Z 172.4(9) . . . . ?
C01X C027 C02G N00Z -178.2(7) . . . . ?
C01X C027 C02K C02A 177.8(7) . . . . ?
C01Y C40 C01C N18 170.9(6) . . . . ?
C01Y C40 C01J N00O -0.1(11) . . . . ?
C020 C02W C03F C03B 7.9(15) . . . . ?
C022 N00J C00U C018 -173.9(6) . . . . ?
C022 N00J C00U C01U 0.6(9) . . . . ?
C022 C021 C02H C01U 1.1(11) . . . . ?
C023 N00X N010 C02O 175.1(9) . . . . ?
C023 C029 C02T C030 180.0(8) . . . . ?
C024 C02M C02R C01M 2.1(13) . . . . ?
C025 N00N C019 C026 1.5(10) . . . . ?
C025 C02B C03C C03J 179.8(9) . . . . ?
C025 C02X C038 C026 0.0(15) . . . . ?
C029 C02T C030 C01V 1.3(15) . . . . ?
C02A C01I C01M N00S 178.0(7) . . . . ?
C02A C01I C01M C02R -3.5(12) . . . . ?
C02B N00H C02E C036 0.2(12) . . . . ?
C02B C025 C02X C038 -177.4(9) . . . . ?
C02B C03C C03J C036 -1.2(16) . . . . ?
C02C N017 C03B C03F 4.8(14) . . . . ?
C02C C01N C02J C01Y -178.6(7) . . . . ?
C02C C020 C02W C03F -5.9(14) . . . . ?
C02D C01B C03A C03Q 3.5(18) . . . . ?
C02D C01V C030 C02T -179.5(10) . . . . ?
C02D C03I C03M C03Q 0(3) . . . . ?
C02E N00H C02B C025 -179.4(7) . . . . ?
C02E N00H C02B C03C -0.4(11) . . . . ?
C02E C036 C03J C03C 0.9(16) . . . . ?
C02G N00Z C01I C01M 178.1(6) . . . . ?
C02G N00Z C01I C02A -0.2(10) . . . . ?
C02G C027 C02K C02A -1.7(11) . . . . ?
C02H C021 C022 N00J -1.4(11) . . . . ?
C02I C01Q C01S N00I 174.4(8) . . . . ?
C02J C01N C02C N017 172.7(7) . . . . ?
C02J C01N C02C C020 -2.6(12) . . . . ?
C02K C027 C02G N00Z 1.3(11) . . . . ?
C02L C03G C03H C02Z -163.9(10) . . . . ?
C02M C024 C031 N00S -2.2(14) . . . . ?
C02N N00Q N20 C02L 168.2(8) . . . . ?
C02N C026 C038 C02X 177.7(9) . . . . ?
C02Q N00M C01F C01T 179.3(7) . . . . ?
C02Q N00M C01F C02V 0.8(11) . . . . ?
C02Q C02U C034 C02V 0.6(16) . . . . ?
C02V C01F C01T N00F 178.8(8) . . . . ?
C02V C01F C01T C02Y 0.3(14) . . . . ?
C02W C020 C02C N017 3.3(13) . . . . ?
C02W C020 C02C C01N 178.2(8) . . . . ?
C02X C025 C02B N00H 178.8(8) . . . . ?
C02X C025 C02B C03C -0.1(14) . . . . ?
C030 C01V C02D C01B 175.0(10) . . . . ?
C030 C01V C02D C03I -8.4(17) . . . . ?
C031 N00S C01M C01I -179.5(6) . . . . ?
C031 N00S C01M C02R 1.9(11) . . . . ?
C031 C024 C02M C02R 0.5(13) . . . . ?
C038 C026 C02N N00Q 165.3(9) . . . . ?
C03A C01B C02D C01V 176.7(9) . . . . ?
C03A C01B C02D C03I 0.2(17) . . . . ?
C03B N017 C02C C01N -178.2(7) . . . . ?
C03B N017 C02C C020 -2.7(12) . . . . ?
C03I C03M C03Q C03A 3(3) . . . . ?
loop_
_smtbx_masks_void_nr
_smtbx_masks_void_average_x
_smtbx_masks_void_average_y
_smtbx_masks_void_average_z
_smtbx_masks_void_volume
_smtbx_masks_void_count_electrons
_smtbx_masks_void_content
1 0.406 -0.847 -0.847 1404.3 262.7 ?
2 0.433 0.765 0.707 78.9 0.0 ?
3 0.567 0.235 0.293 78.9 0.0 ?
