#------------------------------------------------------------------------------
#$Date: 2022-01-27 00:50:31 +0200 (Thu, 27 Jan 2022) $
#$Revision: 272254 $
#$URL: file:///home/coder/svn-repositories/cod/cif/7/12/96/7129622.cif $
#------------------------------------------------------------------------------
#
# This file is available in the Crystallography Open Database (COD),
# http://www.crystallography.net/
#
# All data on this site have been placed in the public domain by the
# contributors.
#
data_7129622
loop_
_publ_author_name
'Lai, Qiuxue'
'Chu, Zhao-Qin'
'Xiao, Xinyi'
'Dai, Dejun'
'Song, Ting'
'Luo, Tian-Yi'
'Tang, Wenlei'
'Feng, Xuan'
'Zhang, Zhiyuan'
'Li, Tao'
'Xiao, Hai'
'Su, Jing'
'Liu, Chong'
_publ_section_title
;
 Two-Dimensional Zr/Hf-Hydroxamate Metal-Organic Frameworks
;
_journal_name_full               'Chemical Communications'
_journal_paper_doi               10.1039/D2CC00213B
_journal_year                    2022
_chemical_formula_moiety         '0.33(C48 H36 Hf3 N12 O24)'
_chemical_formula_sum            'C16 H12 Hf N4 O8'
_chemical_formula_weight         566.79
_space_group_crystal_system      hexagonal
_space_group_IT_number           191
_space_group_name_Hall           '-P 6 2'
_space_group_name_H-M_alt        'P 6/m m m'
_atom_sites_solution_hydrogens   geom
_audit_creation_date             2021-11-11
_audit_creation_method
;
Olex2 1.5
(compiled 2021.08.20 svn.r13c46975 for OlexSys, GUI svn.r6405)
;
_audit_update_record
;
2021-12-08 deposited with the CCDC.	2022-01-26 downloaded from the CCDC.
;
_cell_angle_alpha                90
_cell_angle_beta                 90
_cell_angle_gamma                120
_cell_formula_units_Z            3
_cell_length_a                   23.1152(8)
_cell_length_b                   23.1152(8)
_cell_length_c                   8.1157(5)
_cell_measurement_reflns_used    5916
_cell_measurement_temperature    150.0
_cell_measurement_theta_max      25.319
_cell_measurement_theta_min      2.510
_cell_volume                     3755.4(3)
_computing_cell_refinement       'SAINT V8.40B (?, 2016)'
_computing_data_reduction        'SAINT V8.40B (?, 2016)'
_computing_molecular_graphics    'Olex2 1.5 (Dolomanov et al., 2009)'
_computing_publication_material  'Olex2 1.5 (Dolomanov et al., 2009)'
_computing_structure_refinement  'ShelXL (Sheldrick, 2015)'
_computing_structure_solution    'SHELXT 2018/2 (Sheldrick, 2018)'
_diffrn_ambient_temperature      150.0
_diffrn_measured_fraction_theta_full 0.999
_diffrn_measured_fraction_theta_max 0.998
_diffrn_measurement_device_type  'Bruker APEX-II CCD'
_diffrn_measurement_method       '\f and \w scans'
_diffrn_radiation_type           MoK\a
_diffrn_radiation_wavelength     0.71073
_diffrn_reflns_av_R_equivalents  0.1241
_diffrn_reflns_av_unetI/netI     0.0385
_diffrn_reflns_Laue_measured_fraction_full 0.999
_diffrn_reflns_Laue_measured_fraction_max 0.998
_diffrn_reflns_limit_h_max       30
_diffrn_reflns_limit_h_min       -28
_diffrn_reflns_limit_k_max       29
_diffrn_reflns_limit_k_min       -22
_diffrn_reflns_limit_l_max       10
_diffrn_reflns_limit_l_min       -10
_diffrn_reflns_number            33357
_diffrn_reflns_point_group_measured_fraction_full 0.999
_diffrn_reflns_point_group_measured_fraction_max 0.998
_diffrn_reflns_theta_full        25.242
_diffrn_reflns_theta_max         27.495
_diffrn_reflns_theta_min         2.035
_exptl_absorpt_coefficient_mu    2.103
_exptl_absorpt_correction_T_max  0.7456
_exptl_absorpt_correction_T_min  0.5862
_exptl_absorpt_correction_type   multi-scan
_exptl_absorpt_process_details
;
SADABS-2016/2 (Bruker,2016/2) was used for absorption correction.
wR2(int) was 0.0979 before and 0.0784 after correction.
The Ratio of minimum to maximum transmission is 0.7862.
The \l/2 correction factor is Not present.
;
_exptl_crystal_colour            colourless
_exptl_crystal_colour_primary    colourless
_exptl_crystal_density_diffrn    0.752
_exptl_crystal_description       block
_exptl_crystal_F_000             816
_exptl_crystal_size_max          0.08
_exptl_crystal_size_mid          0.02
_exptl_crystal_size_min          0.02
_refine_diff_density_max         1.591
_refine_diff_density_min         -4.466
_refine_diff_density_rms         0.200
_refine_ls_extinction_method     none
_refine_ls_goodness_of_fit_ref   1.058
_refine_ls_hydrogen_treatment    constr
_refine_ls_matrix_type           full
_refine_ls_number_parameters     64
_refine_ls_number_reflns         1723
_refine_ls_number_restraints     0
_refine_ls_restrained_S_all      1.058
_refine_ls_R_factor_all          0.0618
_refine_ls_R_factor_gt           0.0562
_refine_ls_shift/su_max          0.000
_refine_ls_shift/su_mean         0.000
_refine_ls_structure_factor_coef Fsqd
_refine_ls_weighting_details
'w=1/[\s^2^(Fo^2^)+(0.1054P)^2^] where P=(Fo^2^+2Fc^2^)/3'
_refine_ls_weighting_scheme      calc
_refine_ls_wR_factor_gt          0.1386
_refine_ls_wR_factor_ref         0.1413
_reflns_Friedel_coverage         0.000
_reflns_number_gt                1507
_reflns_number_total             1723
_reflns_threshold_expression     'I > 2\s(I)'
_iucr_refine_instructions_details
;
TITL mo_lc_lqx_hf_150k_0m_a.res in P6/mmm
CELL 0.71073 23.1152 23.1152 8.1157 90 90 120
ZERR 3 0.0008 0.0008 0.0005 0 0 0
LATT 1
SYMM -Y,+X-Y,+Z
SYMM +Y-X,-X,+Z
SYMM -X,-Y,+Z
SYMM +Y,-X+Y,+Z
SYMM -Y+X,+X,+Z
SYMM +Y,+X,-Z
SYMM -Y+X,-Y,-Z
SYMM -X,-X+Y,-Z
SYMM -Y,-X,-Z
SYMM +Y-X,+Y,-Z
SYMM +X,+X-Y,-Z
SFAC C H Hf N O
UNIT 48 36 3 12 24
EQIV $1 +X,+Y,2-Z
EQIV $2 1-Y,1-X,+Z
 
L.S. 4
PLAN  -10 0 0
SIZE 0.02 0.02 0.08
TEMP -123.15
FREE C3 C3_$1
FREE C3 C4_$2
FREE C4 C4_$1
FREE C4 C3_$2
fmap 2
acta
ABIN
REM <olex2.extras>
REM <HklSrc "%.\\mo_lc_lqx_hf_150k_0m_a.hkl">
REM </olex2.extras>
 
WGHT    0.105400
FVAR       0.24158
HF    3    1.000000    0.500000    1.000000    10.12500    0.00251    0.04484 =
         0.03048    0.00000    0.00000    0.00126
C2    1    0.817975    0.298934    1.000000    10.50000    0.03702    0.04057 =
         0.09777    0.00000    0.00000    0.00574
O2    5    0.916724    0.403187    0.933373    10.50000    0.04391    0.03692 =
         0.03462    0.00134    0.00531   -0.01340
O1    5    0.963317    0.439400    0.780800    10.50000    0.02878    0.04182 =
         0.03554   -0.00220    0.00809   -0.01159
N1    4    0.905057    0.380930    0.799236    10.50000    0.02444    0.05246 =
         0.04432   -0.00354    0.00517   -0.00501
AFIX  13
H1    2    0.874045    0.397259    0.765927    10.50000   -1.20000
AFIX   0
PART 1
C3    1    0.771136    0.287850    0.883784    10.50000    0.05374    0.05167 =
         0.05529    0.02194    0.01052    0.01073
AFIX  43
H3    2    0.779455    0.320949    0.803240    10.50000   -1.20000
AFIX   0
PART 0
PART 2
C4    1    0.806614    0.251946    0.885214    10.50000    0.11613    0.09798 =
         0.06983    0.02021    0.05250    0.05438
AFIX  43
H4    2    0.839683    0.260044    0.804766    10.50000   -1.20000
AFIX   0
PART 0
C1    1    0.883653    0.363470    0.948096    10.50000    0.03629    0.04863 =
         0.03105   -0.00630   -0.00365    0.01810
HKLF 4
 
REM  mo_lc_lqx_hf_150k_0m_a.res in P6/mmm
REM R1 =  0.0562 for    1507 Fo > 4sig(Fo)  and  0.0618 for all    1723 data
REM     64 parameters refined using      0 restraints
 
END  
     
WGHT      0.1054      0.0000 

REM Highest difference peak  1.591,  deepest hole -4.466,  1-sigma level  0.200
Q1    1   0.4289  0.4715  0.5000  10.50000  0.05    1.59
Q2    1   0.4037  0.5002  0.5000  10.50000  0.05    1.58
Q3    1   0.8145  0.4072  1.0473  10.50000  0.05    1.08
Q4    1   0.4031  0.2815  0.0000  10.50000  0.05    0.93
Q5    1   0.9357  0.4679  1.0479  10.50000  0.05    0.91
Q6    1   0.7771  0.3662  1.0000  10.50000  0.05    0.91
Q7    1   1.0000  0.3978  1.0000  10.25000  0.05    0.60
Q8    1   1.0000  0.4320  1.0000  10.25000  0.05    0.50
Q9    1   0.7915  0.3234  1.0000  10.50000  0.05    0.46
Q10   1   1.0151  0.4090  1.0567  11.00000  0.05    0.43

  REM The information below was added by Olex2.
  REM
  REM R1 = 0.0562 for 1507 Fo > 4sig(Fo) and 0.0618 for all 33357 data
  REM n/a parameters refined using n/a restraints
  REM Highest difference peak 1.59, deepest hole -4.47
  REM Mean Shift 0, Max Shift 0.000.

  REM +++ Tabular Listing of Refinement Information +++
  REM R1_all = 0.0618
  REM R1_gt = 0.0562
  REM wR_ref = 0.1413
  REM GOOF = 1.058
  REM Shift_max = 0.000
  REM Shift_mean = 0
  REM Reflections_all = 33357
  REM Reflections_gt = 1507
  REM Parameters = n/a
  REM Hole = -4.47
  REM Peak = 1.59
  REM Flack = n/a
;
_cod_data_source_file            d2cc00213b2.cif
_cod_data_source_block           SUM-1Hf
_cod_database_code               7129622
_shelxl_version_number           2014/6
_shelx_space_group_comment
;
The symmetry employed for this shelxl refinement is uniquely defined
by the following loop, which should always be used as a source of
symmetry information in preference to the above space-group names.
They are only intended as comments.
;
_shelx_estimated_absorpt_t_max   0.959
_shelx_estimated_absorpt_t_min   0.850
_olex2_refinement_description
;
1. Others
 Fixed Sof: O2(0.5) O1(0.5) N1(0.5) H1(0.5) C3(0.5) H3(0.5) C4(0.5) H4(0.5)
 C1(0.5)
2.a Ternary CH refined with riding coordinates:
 N1(H1)
2.b Aromatic/amide H refined with riding coordinates:
 C3(H3), C4(H4)
;
_shelx_fab_file
;
0 0 1 -105.5334 2.0490
0 0 2 142.9546 1.8140
0 0 3 -82.8562 1.5590
0 0 4 85.5779 1.4737
0 0 5 -56.5410 0.8072
0 0 6 31.7397 0.5469
0 0 7 -28.2869 0.8403
0 0 8 19.0701 0.2499
0 0 9 -11.8720 0.1648
0 0 10 5.8436 0.0821
1 0 1 46.0646 -0.7376
1 0 2 -19.2167 0.7536
1 0 3 30.6830 0.0058
1 0 4 -16.8213 -0.0837
1 0 5 11.6726 0.1370
1 0 6 -5.9791 -0.0290
1 0 7 1.8039 -0.1069
1 0 8 2.0842 0.0821
1 0 9 0.6660 0.0246
1 0 10 11.3488 -0.0283
1 1 1 -28.5525 -2.9249
1 1 2 -17.0193 -1.3749
1 1 3 0.7719 -1.7219
1 1 4 -2.2394 -1.4384
1 1 5 -4.4133 -0.9504
1 1 6 2.6361 -0.7313
1 1 7 2.3803 -0.7355
1 1 8 -3.7441 -0.6418
1 1 9 3.8460 -0.4872
1 1 10 6.4899 -0.2360
2 0 0 -81.0420 -1.2501
2 0 1 2.3000 2.2010
2 0 2 -10.0933 -1.3998
2 0 3 4.2556 0.4517
2 0 4 -7.6172 0.4333
2 0 5 3.7613 -0.1352
2 0 6 0.4184 0.1106
2 0 7 2.8624 0.2812
2 0 8 -2.3755 -0.0277
2 0 9 3.1870 0.0917
2 0 10 7.4356 0.0388
2 1 0 -16.8587 0.3043
2 1 1 -19.6693 3.6048
2 1 2 13.1546 4.4959
2 1 3 -20.5187 3.9065
2 1 4 11.3901 3.4431
2 1 5 -6.6953 3.1882
2 1 6 4.4046 2.8535
2 1 7 -3.1697 2.4186
2 1 8 3.7230 2.1149
2 1 9 -1.4066 2.1100
2 1 10 9.9605 0.9848
2 2 0 10.5901 -0.0410
2 2 1 -8.3367 -8.7373
2 2 2 -30.4437 -9.0187
2 2 3 4.0417 -7.6310
2 2 4 -7.9787 -8.0956
2 2 5 1.8957 -7.1089
2 2 6 -3.6154 -6.1391
2 2 7 1.5917 -5.7959
2 2 8 -0.8590 -4.7611
2 2 9 2.6522 -3.9517
2 2 10 7.5306 -3.1433
3 0 0 54.6935 -2.1626
3 0 1 16.3324 -2.0502
3 0 2 -4.6366 0.3076
3 0 3 9.2987 -0.8876
3 0 4 -7.3791 -0.6665
3 0 5 2.4916 -0.1506
3 0 6 -0.5626 -0.4456
3 0 7 -2.6321 -0.4443
3 0 8 -1.7822 -0.1125
3 0 9 4.7099 -0.3960
3 0 10 -4.3166 -0.5175
3 1 0 12.5418 5.1174
3 1 1 13.6672 7.0595
3 1 2 -4.1364 4.8546
3 1 3 1.3595 4.6854
3 1 4 -4.0003 5.1416
3 1 5 1.0143 4.2108
3 1 6 -2.1855 3.6494
3 1 7 1.7407 3.4038
3 1 8 -0.5018 2.9042
3 1 9 5.7102 2.2344
3 1 10 4.4717 1.8175
3 2 0 -14.6571 -2.6147
3 2 1 -10.5011 -2.1559
3 2 2 0.8038 -2.1369
3 2 3 -4.9989 -2.1356
3 2 4 -1.9384 -1.5552
3 2 5 -2.4901 -1.4128
3 2 6 0.7275 -1.5717
3 2 7 0.3917 -1.1258
3 2 8 2.5947 -1.0249
3 2 9 1.3944 -1.4867
3 2 10 8.9374 -0.3909
3 3 0 -20.0277 -0.1264
3 3 1 24.9799 2.4204
3 3 2 -12.3667 2.9928
3 3 3 10.3600 3.3737
3 3 4 -11.7487 2.8111
3 3 5 3.9907 2.7696
3 3 6 -4.8026 2.6152
3 3 7 1.3159 2.0860
3 3 8 -0.2864 2.0367
3 3 9 4.0667 1.7504
3 3 10 5.7756 1.2846
4 0 0 -15.3876 -5.3204
4 0 1 34.4355 -5.3248
4 0 2 -8.5429 -3.2693
4 0 3 5.1470 -3.3151
4 0 4 -8.1108 -3.4227
4 0 5 2.4520 -2.7427
4 0 6 -3.5920 -2.4952
4 0 7 3.1274 -2.1021
4 0 8 0.2961 -1.7716
4 0 9 4.0483 -1.5067
4 0 10 4.8442 -1.1905
4 1 0 -13.5048 1.6992
4 1 1 -20.3852 0.2872
4 1 2 -1.5089 -1.3818
4 1 3 -12.2689 -0.1976
4 1 4 5.5374 -0.4640
4 1 5 -9.9288 -0.8842
4 1 6 3.2019 -0.2198
4 1 7 -3.0460 -0.1225
4 1 8 3.1343 -0.6674
4 1 9 0.1013 -0.0317
4 1 10 3.7954 0.0651
4 2 0 -26.2750 0.3641
4 2 1 -9.3637 -1.4508
4 2 2 5.1049 0.3521
4 2 3 -0.9686 -1.7610
4 2 4 -0.7985 -1.2647
4 2 5 -2.4928 -0.4421
4 2 6 -1.2809 -0.9567
4 2 7 -3.4662 -1.0939
4 2 8 3.8305 -0.7878
4 2 9 1.3301 -0.6734
4 2 10 4.0928 -1.5028
4 3 0 -13.2892 -0.1301
4 3 1 4.9558 -1.6129
4 3 2 4.0931 -3.3089
4 3 3 -6.8881 -1.7083
4 3 4 -1.6181 -1.5651
4 3 5 -0.0019 -2.1429
4 3 6 -2.2353 -1.4465
4 3 7 -0.0356 -1.1465
4 3 8 -0.0045 -1.2019
4 3 9 2.4443 -0.9511
4 3 10 10.1168 -0.7729
4 4 0 -6.6775 0.6544
4 4 1 -6.8272 -10.0347
4 4 2 -8.8499 -8.1587
4 4 3 -5.4147 -8.7865
4 4 4 -6.0293 -8.0302
4 4 5 2.9954 -7.1086
4 4 6 -2.6233 -6.7145
4 4 7 2.0867 -5.8673
4 4 8 -3.2781 -4.8847
4 4 9 4.0083 -4.1877
4 4 10 5.4264 -3.6808
5 0 0 -38.2977 -2.8336
5 0 1 -34.2368 -6.0658
5 0 2 4.7294 -5.1892
5 0 3 -9.9926 -4.5112
5 0 4 -4.1328 -4.5904
5 0 5 -0.4822 -4.2613
5 0 6 -3.1953 -3.6830
5 0 7 3.4572 -3.4168
5 0 8 0.2058 -2.6314
5 0 9 1.1827 -2.2719
5 0 10 -2.1076 -1.5023
5 1 0 -39.7782 2.8855
5 1 1 -16.2867 3.4254
5 1 2 -7.8403 3.1669
5 1 3 4.8891 3.8180
5 1 4 -10.3841 2.8192
5 1 5 4.6758 2.3576
5 1 6 -6.6113 2.5697
5 1 7 2.4727 2.0829
5 1 8 -1.8789 1.9464
5 1 9 3.7023 1.9378
5 1 10 -4.9186 1.8133
5 2 0 -7.1534 -1.6265
5 2 1 -5.8143 3.3414
5 2 2 -17.1950 2.9531
5 2 3 -1.7668 2.4377
5 2 4 -0.2523 2.5263
5 2 5 -3.4238 2.4194
5 2 6 -2.2022 1.6990
5 2 7 -1.6177 1.7252
5 2 8 -2.4474 1.5663
5 2 9 -0.7836 0.5246
5 2 10 2.6191 0.6674
5 3 0 12.8808 0.3241
5 3 1 -26.2647 -1.3767
5 3 2 5.6311 -0.6720
5 3 3 -18.2671 -0.5097
5 3 4 7.4560 -1.2646
5 3 5 -9.2113 -0.9300
5 3 6 5.4002 -0.5259
5 3 7 -4.8050 -0.6217
5 3 8 3.3421 -0.3812
5 3 9 -3.5843 -0.1914
5 3 10 4.9079 0.5733
5 4 0 -16.2444 0.1893
5 4 1 -1.6797 3.8186
5 4 2 -10.1069 1.4338
5 4 3 -1.0573 2.3002
5 4 4 -6.8683 2.3745
5 4 5 1.4345 1.9239
5 4 6 -3.2647 1.6656
5 4 7 -1.1180 1.7699
5 4 8 1.7181 1.3853
5 4 9 2.9855 1.3239
5 4 10 -1.7000 1.3994
5 5 0 7.2928 -0.4908
5 5 1 -16.9414 3.4286
5 5 2 2.3865 3.7801
5 5 3 -15.7785 3.0773
5 5 4 1.5529 3.4482
5 5 5 -4.2501 3.0531
5 5 6 -1.8134 2.3541
5 5 7 -4.1723 2.4010
5 5 8 -1.1456 2.0561
5 5 9 0.3255 1.8108
6 0 0 15.4123 -6.7560
6 0 1 -18.9468 -6.4466
6 0 2 3.7690 -5.9488
6 0 3 -14.0012 -7.7127
6 0 4 5.0993 -5.4844
6 0 5 -9.7766 -5.0327
6 0 6 5.4426 -5.3546
6 0 7 -2.8558 -4.0585
6 0 8 3.8329 -3.4636
6 0 9 -3.3808 -2.7623
6 0 10 -1.8696 -2.3235
6 1 0 20.1579 2.9660
6 1 1 -6.6715 1.8034
6 1 2 -2.0025 1.4713
6 1 3 -1.9728 2.1714
6 1 4 -1.3821 1.5282
6 1 5 -2.6921 1.6230
6 1 6 -0.1616 1.5645
6 1 7 0.8538 1.2911
6 1 8 0.7760 1.0673
6 1 9 0.1939 0.7863
6 1 10 -0.2267 1.0998
6 2 0 6.2948 -1.5159
6 2 1 -4.0523 0.4722
6 2 2 -10.9355 0.8309
6 2 3 1.8609 0.1757
6 2 4 -8.1154 1.2818
6 2 5 2.9777 0.7433
6 2 6 -4.7585 0.7901
6 2 7 2.6643 0.5873
6 2 8 -0.9243 0.0712
6 2 9 1.5035 0.8955
6 2 10 0.1948 -1.3362
6 3 0 10.7719 0.2620
6 3 1 1.6823 -2.3923
6 3 2 -13.4787 -2.0961
6 3 3 0.1609 -1.7194
6 3 4 -7.6940 -2.1197
6 3 5 0.3500 -1.6092
6 3 6 -4.4440 -1.4592
6 3 7 1.2458 -1.4231
6 3 8 -0.1799 -1.0949
6 3 9 4.5827 -0.8669
6 3 10 -2.9451 0.9264
6 4 0 -2.9055 1.0776
6 4 1 0.0106 -0.0913
6 4 2 -6.4382 0.6621
6 4 3 -7.5733 0.0823
6 4 4 -2.1828 0.1012
6 4 5 -3.6205 -0.2003
6 4 6 -2.6297 0.1850
6 4 7 -1.3706 -0.0767
6 4 8 -1.8464 -0.0111
6 4 9 3.8563 -0.6442
6 5 0 -5.3162 -0.3657
6 5 1 -2.4825 -1.6314
6 5 2 -4.3469 -1.6790
6 5 3 -3.1944 -1.5246
6 5 4 -4.5146 -1.3435
6 5 5 -2.1257 -0.8342
6 5 6 -1.3407 -0.9820
6 5 7 -4.2855 -1.0110
6 5 8 -0.4990 -0.6901
6 5 9 -1.1332 -0.5269
6 6 0 16.6020 0.3759
6 6 1 -12.4175 -9.5597
6 6 2 8.8764 -8.4184
6 6 3 -10.8636 -8.8612
6 6 4 5.6839 -8.0527
6 6 5 -9.1725 -7.3701
6 6 6 0.4776 -6.7731
6 6 7 -3.7504 -5.9078
6 6 8 1.9541 -4.8027
6 6 9 0.6476 -4.9096
7 0 0 17.9203 -4.0830
7 0 1 9.8653 -7.1383
7 0 2 9.8283 -5.6151
7 0 3 -11.3451 -4.6853
7 0 4 2.9731 -5.4334
7 0 5 -6.3875 -4.4702
7 0 6 3.7621 -3.5885
7 0 7 2.0150 -3.7485
7 0 8 2.3232 -2.9362
7 0 9 -3.5139 -2.4482
7 0 10 5.1224 -1.4076
7 1 0 -8.7739 3.1703
7 1 1 16.4079 -0.2688
7 1 2 -16.1826 -0.0109
7 1 3 4.0490 0.7090
7 1 4 -9.2189 0.0213
7 1 5 3.0159 -0.2828
7 1 6 -4.5862 0.1362
7 1 7 2.7695 0.2388
7 1 8 -0.6515 0.0835
7 1 9 2.3983 -0.3106
7 1 10 0.6688 -0.1525
7 2 0 10.4533 -1.4403
7 2 1 -13.8420 0.6926
7 2 2 5.1774 -0.4190
7 2 3 -10.5748 -0.7007
7 2 4 5.2235 -0.3055
7 2 5 -7.5641 -0.0642
7 2 6 1.9721 -0.5750
7 2 7 -5.7159 -0.2774
7 2 8 6.9195 0.0935
7 2 9 5.4051 -0.5157
7 2 10 -2.6849 0.4261
7 3 0 -4.8665 0.0702
7 3 1 3.5300 -0.7600
7 3 2 -4.9125 0.8074
7 3 3 -3.3104 -0.0180
7 3 4 -4.4947 0.0402
7 3 5 -0.8999 0.4841
7 3 6 -3.1645 0.0939
7 3 7 -1.7990 0.0519
7 3 8 2.5647 0.0353
7 3 9 -1.3727 0.6283
7 4 0 5.3702 -0.1334
7 4 1 -12.4771 2.6466
7 4 2 -5.1321 1.0816
7 4 3 -7.0861 1.9192
7 4 4 -3.6843 1.6353
7 4 5 -3.5674 1.0795
7 4 6 -1.5176 1.1166
7 4 7 -3.0469 1.1863
7 4 8 -1.0248 0.7412
7 4 9 0.3205 0.5050
7 5 0 -12.1473 -0.9959
7 5 1 -0.8384 -2.0514
7 5 2 -12.9547 -1.7840
7 5 3 0.7476 -1.7953
7 5 4 -8.1948 -1.8064
7 5 5 -0.2319 -1.7378
7 5 6 -5.6156 -1.5668
7 5 7 0.6184 -1.0641
7 5 8 -0.0004 -1.4259
7 5 9 6.9010 -0.4600
7 6 0 -8.4556 1.0093
7 6 1 -4.9252 2.4585
7 6 2 -3.8158 1.4237
7 6 3 -8.5247 2.4653
7 6 4 -1.4133 1.6238
7 6 5 -3.8218 1.4584
7 6 6 -2.8361 1.8737
7 6 7 -0.1410 1.3765
7 6 8 -1.0335 0.8515
7 6 9 3.3987 1.3527
7 7 0 -7.5910 -0.0794
7 7 1 -9.6863 4.8400
7 7 2 -8.3096 3.7340
7 7 3 -7.3930 3.9575
7 7 4 -2.8002 3.9261
7 7 5 -1.9390 3.4164
7 7 6 -2.0018 3.0884
7 7 7 -2.5766 2.9128
7 7 8 -0.5427 2.2762
7 7 9 0.7463 2.1188
8 0 0 -9.6091 -7.1347
8 0 1 -8.5228 -2.0995
8 0 2 -2.7072 -3.8722
8 0 3 -5.1913 -4.5776
8 0 4 -4.9440 -2.8798
8 0 5 -3.3397 -3.5897
8 0 6 -1.1621 -3.3036
8 0 7 -0.9530 -2.4045
8 0 8 1.2009 -2.5629
8 0 9 -0.5540 -1.6859
8 0 10 -1.6959 -2.5883
8 1 0 -12.4075 3.8655
8 1 1 -17.8224 3.9543
8 1 2 -0.6765 5.0761
8 1 3 -8.6863 4.0410
8 1 4 -0.7495 3.6449
8 1 5 -7.9372 3.9993
8 1 6 1.9637 2.8896
8 1 7 -5.0599 2.7058
8 1 8 4.4429 2.7400
8 1 9 1.4947 2.1556
8 2 0 -10.1487 -1.6138
8 2 1 -5.6679 -0.0014
8 2 2 -7.8846 -2.6659
8 2 3 -6.4062 -0.5099
8 2 4 -2.1140 -0.5057
8 2 5 -1.7089 -1.7204
8 2 6 -2.0705 -0.3446
8 2 7 -1.7150 -0.6454
8 2 8 -0.8352 -0.8006
8 2 9 2.0212 -0.5495
8 3 0 -5.1657 0.0511
8 3 1 -8.2137 -2.6040
8 3 2 -1.9950 -0.4621
8 3 3 -9.2697 -1.3053
8 3 4 -0.4987 -1.5901
8 3 5 -3.5101 -0.9426
8 3 6 -0.0684 -1.2065
8 3 7 -2.5970 -0.7384
8 3 8 -1.4858 -0.7932
8 3 9 -2.2015 -0.6611
8 4 0 -5.9171 1.1080
8 4 1 -14.1133 4.5540
8 4 2 -5.3561 3.4462
8 4 3 -9.9993 3.6601
8 4 4 -3.3930 3.7279
8 4 5 -6.1157 3.4805
8 4 6 0.5097 3.4113
8 4 7 -3.8387 2.1162
8 4 8 3.9889 2.8847
8 4 9 4.2689 1.6757
8 5 0 -11.4114 -0.3941
8 5 1 -8.2563 -1.7225
8 5 2 -14.2055 -0.8077
8 5 3 -6.1844 -1.4786
8 5 4 -7.4690 -0.8693
8 5 5 0.0434 -0.7209
8 5 6 -6.0630 -1.1340
8 5 7 0.7388 -0.6038
8 5 8 0.5880 -0.4506
8 5 9 8.0100 0.0203
8 6 0 -10.4869 -0.0709
8 6 1 -5.4916 -0.2754
8 6 2 -7.4290 1.3106
8 6 3 -4.3404 0.3007
8 6 4 -4.7846 0.1323
8 6 5 0.0088 0.3744
8 6 6 -3.2223 0.1556
8 6 7 -0.2539 -0.2920
8 6 8 -2.8620 0.6267
8 6 9 2.9439 -1.1003
8 7 0 -8.3045 -0.4239
8 7 1 -9.1071 0.7047
8 7 2 -7.7031 0.3704
8 7 3 -6.3368 -0.0265
8 7 4 -4.9454 0.5787
8 7 5 -2.4210 0.3687
8 7 6 -2.1877 0.2789
8 7 7 -0.7147 0.4086
8 7 8 -0.5785 0.4194
8 7 9 4.3188 0.6402
8 8 0 -5.6805 -0.1416
8 8 1 -14.0836 -8.0601
8 8 2 -7.4385 -6.8376
8 8 3 -9.7462 -7.0035
8 8 4 -2.0795 -6.6140
8 8 5 -6.5048 -6.1312
8 8 6 -2.5573 -5.4050
8 8 7 -2.3275 -4.4796
8 8 8 1.8923 -4.7810
9 0 0 -9.8889 -3.3288
9 0 1 -5.8927 -6.3198
9 0 2 -14.1277 -4.6794
9 0 3 -2.8120 -4.2921
9 0 4 -8.2261 -4.8990
9 0 5 -3.0337 -4.0426
9 0 6 -4.8726 -3.4000
9 0 7 1.2764 -3.2688
9 0 8 -3.7507 -2.9900
9 0 9 5.0875 -2.1555
9 1 0 0.7306 3.1454
9 1 1 -9.3237 0.6059
9 1 2 -5.8097 2.1009
9 1 3 -6.9671 1.3915
9 1 4 -3.5434 1.1355
9 1 5 -1.8412 1.6836
9 1 6 -3.0897 1.4563
9 1 7 -0.4100 0.7925
9 1 8 -0.8155 0.7608
9 1 9 1.5929 1.0173
9 2 0 -13.7700 -1.4292
9 2 1 1.4940 -0.5806
9 2 2 -12.6449 -1.2522
9 2 3 2.5467 -1.5143
9 2 4 -11.7129 -0.8360
9 2 5 2.7611 -0.7761
9 2 6 -2.5239 -0.9234
9 2 7 0.2638 -0.4640
9 2 8 -1.8449 -0.3624
9 2 9 -2.8291 -0.5883
9 3 0 -3.4089 0.1412
9 3 1 -0.6583 -2.0868
9 3 2 -7.1402 -1.1955
9 3 3 -4.2815 -1.7471
9 3 4 -5.4745 -1.4889
9 3 5 -1.6586 -1.2978
9 3 6 -3.4337 -1.5321
9 3 7 1.6893 -0.9512
9 3 8 -4.6202 -1.4262
9 3 9 7.1565 -0.9039
9 4 0 -3.2620 0.1659
9 4 1 -9.0164 -0.2828
9 4 2 -8.1632 -1.4575
9 4 3 -8.8350 -0.5485
9 4 4 -4.9860 -0.6247
9 4 5 -3.6369 -0.9231
9 4 6 -0.7985 -0.4991
9 4 7 -3.0713 -0.3872
9 4 8 1.9441 -0.6604
9 4 9 6.3745 -0.5329
9 5 0 -7.9311 -0.8327
9 5 1 -9.0745 -0.7460
9 5 2 -5.9950 -1.2368
9 5 3 -8.5852 -0.9945
9 5 4 -2.0530 -0.8869
9 5 5 -5.2643 -0.9831
9 5 6 0.3363 -0.7761
9 5 7 -3.5656 -0.1734
9 5 8 2.2373 -0.9678
9 5 9 -1.7745 -0.0299
9 6 0 -1.9440 1.1246
9 6 1 -7.0996 -0.1375
9 6 2 -5.0568 -0.3351
9 6 3 -4.8810 0.2755
9 6 4 -1.7653 -0.4214
9 6 5 -4.1102 -0.1747
9 6 6 -2.3091 -0.0338
9 6 7 0.0266 -0.4262
9 6 8 -3.3022 -0.8167
9 6 9 0.7912 -0.3090
9 7 0 -7.4756 -0.7501
9 7 1 -9.6497 -2.1390
9 7 2 -8.6334 -3.5404
9 7 3 -6.7405 -2.0131
9 7 4 -5.3845 -2.2093
9 7 5 -5.0100 -2.2569
9 7 6 -0.5773 -1.7045
9 7 7 -1.8955 -1.6255
9 7 8 -2.2573 -0.5731
9 8 0 -11.5828 0.4548
9 8 1 -4.4411 -0.9151
9 8 2 -10.6462 -0.1004
9 8 3 -1.1848 -0.2649
9 8 4 -7.7012 -0.6693
9 8 5 -1.0849 -0.1619
9 8 6 -6.0181 -0.3016
9 8 7 1.6484 -0.3469
9 8 8 -3.4927 0.2588
9 9 0 -6.6051 0.2535
9 9 1 -3.5806 4.2090
9 9 2 -9.4867 3.0380
9 9 3 -2.4785 3.3236
9 9 4 -4.9446 3.0442
9 9 5 -3.2869 2.8541
9 9 6 -3.1975 2.7633
9 9 7 2.5153 2.0709
9 9 8 -3.1144 2.1839
10 0 0 5.9088 -8.1253
10 0 1 2.6080 -2.4200
10 0 2 0.5269 -5.0535
10 0 3 -3.7843 -4.0100
10 0 4 -4.1763 -3.2943
10 0 5 -2.8958 -3.5555
10 0 6 -1.7826 -3.1630
10 0 7 -1.0544 -2.7416
10 0 8 -0.9060 -2.2630
10 0 9 -3.9613 -2.6069
10 1 0 1.3924 3.3028
10 1 1 -2.4535 1.9924
10 1 2 -5.3489 2.7792
10 1 3 -5.5102 2.0783
10 1 4 -3.6276 2.2782
10 1 5 -3.5400 1.8492
10 1 6 1.5903 1.4335
10 1 7 -4.9618 1.9094
10 1 8 -0.4344 1.1549
10 1 9 -1.9797 1.1635
10 2 0 -4.3158 -1.3176
10 2 1 -5.3802 1.6884
10 2 2 -6.9509 -0.4174
10 2 3 -6.3826 1.4966
10 2 4 -3.1699 0.1621
10 2 5 -1.3683 0.0641
10 2 6 -2.1204 0.7214
10 2 7 -3.1332 -0.2806
10 2 8 1.8822 0.9635
10 2 9 -0.8989 0.2634
10 3 0 -4.4775 0.3943
10 3 1 -0.6763 0.3962
10 3 2 -4.6385 2.3182
10 3 3 -2.6512 0.9814
10 3 4 -4.6215 1.1278
10 3 5 -2.0920 1.1032
10 3 6 -4.3279 0.8784
10 3 7 -2.2596 0.8617
10 3 8 0.1683 0.0391
10 3 9 -2.8480 0.9289
10 4 0 -1.4529 0.7017
10 4 1 -9.9383 1.4729
10 4 2 -8.8801 1.0267
10 4 3 -6.1932 1.3129
10 4 4 -5.2622 0.6683
10 4 5 -5.0478 1.3662
10 4 6 -1.8857 1.0058
10 4 7 -3.0909 0.2993
10 4 8 -2.7641 2.0412
10 4 9 -0.1539 -0.2189
10 5 0 -11.0301 -0.9234
10 5 1 -7.3267 -1.1631
10 5 2 -10.1214 -0.5705
10 5 3 -7.1976 -0.9931
10 5 4 -6.6499 -0.3321
10 5 5 -2.1588 -0.9199
10 5 6 -3.8795 -0.7136
10 5 7 0.0126 -0.4662
10 5 8 -1.6606 -0.6330
10 5 9 -2.7195 0.8233
10 6 0 -12.5666 1.0363
10 6 1 -6.0190 3.9951
10 6 2 -10.1428 4.5547
10 6 3 -5.2960 3.4115
10 6 4 -6.1591 3.7484
10 6 5 -2.8053 3.5748
10 6 6 -3.0912 2.7092
10 6 7 -0.1962 2.9381
10 6 8 -4.4572 1.4256
10 7 0 -4.7469 -0.5542
10 7 1 -12.9603 1.3519
10 7 2 -8.8084 0.9449
10 7 3 -7.9440 0.6115
10 7 4 -2.6107 1.0769
10 7 5 -5.7389 0.7318
10 7 6 -0.6729 0.8437
10 7 7 -2.0154 0.7859
10 7 8 -4.2620 1.3671
10 8 0 -7.7383 -0.0923
10 8 1 -7.5640 -0.3943
10 8 2 -6.6025 0.5744
10 8 3 -7.3047 -0.0049
10 8 4 -4.0162 0.2125
10 8 5 -4.9221 -0.0579
10 8 6 0.3758 -0.1351
10 8 7 -1.3737 0.4763
10 8 8 0.6390 -1.4254
10 9 0 -9.2042 0.0304
10 9 1 -7.6290 2.3090
10 9 2 -7.3992 1.4537
10 9 3 -8.3515 1.7931
10 9 4 -6.8240 1.4737
10 9 5 -3.2470 1.3139
10 9 6 -0.5507 1.3759
10 9 7 3.2167 0.9842
10 9 8 -0.5401 1.2522
10 10 0 -9.5906 -0.2484
10 10 1 -6.4614 -6.8338
10 10 2 -7.7905 -5.3637
10 10 3 -4.7441 -5.5529
10 10 4 -6.5178 -5.4440
10 10 5 -2.7242 -4.7614
10 10 6 -0.6583 -4.1388
10 10 7 4.2973 -4.4929
11 0 0 -7.3173 -2.3155
11 0 1 -0.8852 -5.6949
11 0 2 -6.1432 -4.1879
11 0 3 -4.8857 -4.5124
11 0 4 -4.5150 -4.5098
11 0 5 0.3883 -3.6588
11 0 6 -2.6884 -3.3753
11 0 7 -1.9396 -3.1447
11 0 8 -3.7453 -2.8884
11 0 9 -1.0817 -1.5588
11 1 0 -8.4595 2.8956
11 1 1 -12.9538 2.3817
11 1 2 -8.9224 3.7264
11 1 3 -6.3980 2.7621
11 1 4 -3.4903 2.7339
11 1 5 -3.4156 2.9272
11 1 6 0.3390 2.3357
11 1 7 -1.9408 1.9799
11 1 8 -1.9619 1.7174
11 1 9 1.0435 1.4343
11 2 0 -5.2033 -1.3883
11 2 1 -8.5348 -1.3786
11 2 2 -7.7612 -1.8376
11 2 3 -6.3144 -2.0057
11 2 4 -2.5911 -0.9847
11 2 5 -0.3591 -1.3392
11 2 6 -5.2249 -1.4292
11 2 7 -2.9478 -0.8554
11 2 8 -0.6052 -0.8738
11 2 9 -4.2001 -0.8270
11 3 0 -2.1278 -0.2856
11 3 1 -7.8212 -1.9058
11 3 2 -1.7695 -1.9639
11 3 3 -9.7769 -1.7742
11 3 4 -2.6581 -1.4066
11 3 5 -4.3081 -1.6237
11 3 6 -2.5250 -1.3412
11 3 7 -6.1842 -0.7367
11 3 8 -1.9590 -1.7142
11 3 9 -5.8801 -0.6601
11 4 0 -14.2381 0.3308
11 4 1 -3.3942 1.4039
11 4 2 -12.5654 1.2917
11 4 3 -4.8859 1.4045
11 4 4 -9.7066 1.1760
11 4 5 -3.8745 1.0899
11 4 6 -2.8780 1.1863
11 4 7 -1.8707 1.0085
11 4 8 -2.6923 0.9025
11 4 9 -1.6371 0.6726
11 5 0 -7.6566 -0.8643
11 5 1 -9.7524 -2.0433
11 5 2 -8.9711 -2.4700
11 5 3 -6.3572 -1.9928
11 5 4 -4.3649 -2.1442
11 5 5 -3.7193 -1.7256
11 5 6 -3.0319 -1.4843
11 5 7 -2.5106 -1.8786
11 5 8 -1.9213 -0.6360
11 6 0 -9.8106 0.8129
11 6 1 -5.8807 -1.3249
11 6 2 -8.8142 -1.2140
11 6 3 -5.4133 -0.7880
11 6 4 -3.3130 -1.1097
11 6 5 -3.0043 -0.5946
11 6 6 -2.1140 -0.6448
11 6 7 -2.8583 -1.0016
11 6 8 -3.0221 -0.6151
11 7 0 -7.8248 -0.5597
11 7 1 -6.5177 -0.1791
11 7 2 -7.2443 -0.3497
11 7 3 -4.4978 -0.1032
11 7 4 -6.2143 -0.5722
11 7 5 -1.3504 -0.3941
11 7 6 -3.0166 -0.2851
11 7 7 0.8429 -0.5278
11 7 8 -2.6146 0.1686
11 8 0 -9.2272 0.3133
11 8 1 -9.3619 -1.9643
11 8 2 -6.1478 -1.1763
11 8 3 -6.3262 -1.3914
11 8 4 -3.1764 -1.4594
11 8 5 -6.0682 -1.1456
11 8 6 3.0974 -1.2303
11 8 7 -3.7807 -1.4721
11 8 8 3.7872 -0.9854
11 9 0 -10.8044 0.2725
11 9 1 -7.3996 -0.9695
11 9 2 -8.0090 -1.8720
11 9 3 -4.7802 -1.0840
11 9 4 -5.8659 -0.8807
11 9 5 -3.6781 -0.7754
11 9 6 0.3960 -1.2151
11 9 7 0.3931 0.1661
11 10 0 -6.1857 -0.3270
11 10 1 -7.0121 -0.8878
11 10 2 -3.5157 -1.1049
11 10 3 -3.9267 -1.4486
11 10 4 -4.5911 -0.5597
11 10 5 -1.7469 -1.1219
11 10 6 -3.3043 -0.9683
11 10 7 4.6998 -0.0404
11 11 0 -7.1083 0.1393
11 11 1 -9.8825 3.1792
11 11 2 -4.1679 2.4646
11 11 3 -5.8489 2.9953
11 11 4 -2.7104 2.5775
11 11 5 -4.1006 2.6704
11 11 6 3.9168 2.2052
11 11 7 -0.6123 2.2199
12 0 0 -16.9866 -7.8910
12 0 1 -0.3696 -4.1223
12 0 2 -15.8091 -6.5228
12 0 3 -1.2790 -5.1742
12 0 4 -6.7164 -4.7825
12 0 5 2.0761 -4.4097
12 0 6 -1.2003 -4.0726
12 0 7 0.6875 -3.4052
12 0 8 -3.3592 -2.3976
12 0 9 1.4199 -3.3386
12 1 0 -4.4258 2.7720
12 1 1 -9.8177 1.1453
12 1 2 -4.9764 1.6480
12 1 3 -9.8603 1.7445
12 1 4 -1.0678 1.5736
12 1 5 0.6092 0.9800
12 1 6 -0.9120 1.5061
12 1 7 -1.6309 1.2892
12 1 8 -0.9718 0.1246
12 1 9 -1.3721 1.1058
12 2 0 -9.6471 -0.4939
12 2 1 -5.0838 0.5045
12 2 2 -7.8836 -0.4905
12 2 3 -5.7446 0.1543
12 2 4 -6.2820 -0.9079
12 2 5 -2.0952 0.2450
12 2 6 -3.7488 -0.1718
12 2 7 -2.8393 -0.5677
12 2 8 -1.8054 1.0067
12 2 9 -5.2343 -1.3618
12 3 0 -10.0526 0.1249
12 3 1 -1.5193 -0.5911
12 3 2 -9.6168 0.0137
12 3 3 -6.5953 -0.2406
12 3 4 -7.5747 0.1104
12 3 5 -4.7339 -0.1877
12 3 6 -2.7504 0.1892
12 3 7 -2.3179 -0.3111
12 3 8 -4.1750 -0.5824
12 4 0 -6.7915 1.1049
12 4 1 -6.2853 0.7717
12 4 2 -7.2061 0.5854
12 4 3 -9.2609 0.7011
12 4 4 -4.3846 0.5908
12 4 5 -3.6091 0.4528
12 4 6 -2.2994 -0.2545
12 4 7 -1.8925 1.1072
12 4 8 -2.8972 -0.1506
12 5 0 -6.4279 -1.0562
12 5 1 -8.4838 -0.5934
12 5 2 -6.5046 -0.1962
12 5 3 -6.5935 -0.6631
12 5 4 -2.3983 -0.6748
12 5 5 -4.0682 -0.8037
12 5 6 -3.5334 -0.2162
12 5 7 -2.3010 -0.5018
12 5 8 -2.2687 0.0808
12 6 0 -1.9395 0.7126
12 6 1 -8.8121 0.6735
12 6 2 -5.9445 0.6113
12 6 3 -4.9322 0.6800
12 6 4 -3.8484 1.0723
12 6 5 -5.0190 0.4913
12 6 6 -0.9619 0.4772
12 6 7 -2.6994 1.4621
12 6 8 -1.5059 -0.8995
12 7 0 -5.7247 -0.3254
12 7 1 -6.3801 0.5180
12 7 2 -5.7475 -0.3447
12 7 3 -4.5863 -0.1037
12 7 4 -5.5673 0.1425
12 7 5 -3.4834 0.0565
12 7 6 -0.8946 -0.0852
12 7 7 -1.3301 -0.1852
12 7 8 -0.5125 1.1684
12 8 0 -12.2478 -0.1610
12 8 1 -4.8318 1.1235
12 8 2 -8.8724 1.4794
12 8 3 -2.7925 1.0839
12 8 4 -7.0172 1.0579
12 8 5 -0.6447 0.8140
12 8 6 -4.0051 1.5929
12 8 7 -0.7029 -0.1866
12 9 0 -5.8204 0.0194
12 9 1 -9.4096 2.1005
12 9 2 -6.5315 1.2163
12 9 3 -5.7784 1.7603
12 9 4 -5.0017 1.2783
12 9 5 -3.0119 1.1655
12 9 6 -1.0684 1.2386
12 9 7 -3.2483 1.7986
12 10 0 -8.8090 -0.0522
12 10 1 -4.7713 -0.5163
12 10 2 -8.3310 1.1025
12 10 3 -4.4673 0.1411
12 10 4 -6.2402 -0.1291
12 10 5 -1.1946 0.1540
12 10 6 -1.6642 0.7200
12 10 7 0.2283 -1.7759
12 11 0 -6.6191 -0.0449
12 11 1 -7.0000 0.7071
12 11 2 -5.1210 -0.3433
12 11 3 -6.8873 0.1380
12 11 4 -3.5378 0.1549
12 11 5 -5.0081 0.2775
12 11 6 6.5275 -0.1247
12 12 0 -4.2976 0.5767
12 12 1 -7.2900 -5.4885
12 12 2 -1.0184 -4.2535
12 12 3 -6.5847 -5.2573
12 12 4 -5.7714 -4.3217
12 12 5 -3.1301 -3.6325
12 12 6 2.8587 -4.5296
13 0 0 0.3325 -3.2856
13 0 1 -3.0825 -6.0544
13 0 2 0.2029 -3.7641
13 0 3 -3.7288 -3.9939
13 0 4 0.1340 -4.1501
13 0 5 -5.2526 -3.5418
13 0 6 3.5197 -2.9581
13 0 7 -2.4079 -3.1518
13 0 8 -1.0605 -2.7154
13 0 9 -4.0654 -0.4930
13 1 0 -4.6354 2.9926
13 1 1 -3.7108 3.7472
13 1 2 -6.5140 3.7407
13 1 3 -4.7068 3.0908
13 1 4 -5.7738 3.3503
13 1 5 -4.0190 2.7409
13 1 6 -1.9778 2.1009
13 1 7 -2.1929 2.4779
13 1 8 -2.1220 1.9188
13 1 9 -2.8520 1.5279
13 2 0 -10.7751 -1.7288
13 2 1 -6.5991 -0.4170
13 2 2 -6.2308 -0.5520
13 2 3 -9.8203 -1.0075
13 2 4 -6.9511 -0.2960
13 2 5 -4.0179 -0.5930
13 2 6 -2.1515 -0.6769
13 2 7 -3.5871 -0.4317
13 2 8 0.2846 0.0585
13 3 0 -7.1053 -0.1775
13 3 1 -7.2645 0.1459
13 3 2 -3.8817 0.8662
13 3 3 -7.5495 0.8558
13 3 4 -3.4389 0.4034
13 3 5 -4.2925 0.4343
13 3 6 -4.5618 0.7551
13 3 7 0.7624 -0.0316
13 3 8 -3.7043 0.2764
13 4 0 -8.6982 0.5232
13 4 1 -7.7006 2.5706
13 4 2 -10.9716 1.5623
13 4 3 -7.5740 1.3771
13 4 4 -3.1181 1.6060
13 4 5 -5.7281 1.5825
13 4 6 -2.5408 1.2424
13 4 7 -2.4947 0.8284
13 4 8 -3.1189 1.1487
13 5 0 -12.1296 -1.1422
13 5 1 -6.1172 -1.8697
13 5 2 -10.5242 -1.3812
13 5 3 -5.4404 -1.2620
13 5 4 -8.0240 -1.2611
13 5 5 -3.3510 -0.8781
13 5 6 -2.7538 -0.7906
13 5 7 -2.9287 -1.3659
13 5 8 -0.4446 -0.2324
13 6 0 -5.1960 0.8540
13 6 1 -8.4094 1.4063
13 6 2 -2.8044 1.5260
13 6 3 -7.1171 1.6941
13 6 4 -5.0371 1.3089
13 6 5 -4.6687 1.1817
13 6 6 -2.7570 1.1141
13 6 7 -0.7566 1.1125
13 6 8 -4.8803 1.0808
13 7 0 -6.1641 -0.0289
13 7 1 -7.2643 -0.1974
13 7 2 -4.5394 0.1203
13 7 3 -8.7216 -0.4914
13 7 4 -2.4965 -0.2665
13 7 5 -5.7674 0.1800
13 7 6 -2.5498 -0.6952
13 7 7 -3.3006 0.6851
13 8 0 -6.0209 -0.0142
13 8 1 -7.7403 -1.3505
13 8 2 -5.7153 -0.5035
13 8 3 -7.1324 -0.7145
13 8 4 -3.4583 -0.6390
13 8 5 -5.5102 -0.4567
13 8 6 -2.6989 -0.4816
13 8 7 -5.8317 -0.2656
13 9 0 -5.4386 0.3554
13 9 1 -7.4403 0.9330
13 9 2 -6.6394 0.6997
13 9 3 -5.8552 0.5967
13 9 4 -5.9935 0.7449
13 9 5 -1.7405 0.7306
13 9 6 -3.4427 -0.3367
13 9 7 -5.0254 0.9415
13 10 0 -5.4966 -0.3200
13 10 1 -6.3574 -1.5186
13 10 2 -2.9836 -0.9131
13 10 3 -3.7296 -1.1071
13 10 4 -6.7816 -0.9876
13 10 5 0.8926 -1.3046
13 10 6 -3.3035 -1.3272
13 11 0 -7.0538 -0.0283
13 11 1 -1.8627 0.0111
13 11 2 -2.9302 -1.0113
13 11 3 -1.1733 -0.0248
13 11 4 -5.8189 -0.3391
13 11 5 -2.0664 -0.7871
13 11 6 -1.4900 0.5243
13 12 0 -4.9299 -0.1026
13 12 1 -6.2538 1.0569
13 12 2 -3.7771 -0.0132
13 12 3 -4.2807 0.0023
13 12 4 -4.7221 0.5245
13 12 5 -4.4734 0.3069
13 13 0 -10.7675 -0.5128
13 13 1 -6.6502 3.0662
13 13 2 -2.3917 2.7678
13 13 3 -3.4039 2.8556
13 13 4 -0.7578 2.3788
13 13 5 -3.8719 2.5559
14 0 0 -9.5027 -6.2206
14 0 1 -2.3099 -3.1315
14 0 2 -7.6367 -5.1698
14 0 3 -7.5843 -4.1776
14 0 4 -9.3407 -3.5791
14 0 5 -4.2768 -3.8702
14 0 6 -3.9407 -3.4276
14 0 7 -2.0627 -2.3111
14 0 8 -2.1755 -3.0452
14 1 0 -10.3737 2.9569
14 1 1 -10.9893 1.4596
14 1 2 -7.3056 2.2106
14 1 3 -8.8144 1.9855
14 1 4 -8.0608 1.2767
14 1 5 -8.5355 1.6080
14 1 6 -2.0653 1.7851
14 1 7 -2.0387 0.6751
14 1 8 -0.5061 0.8399
14 2 0 -10.7420 -0.9377
14 2 1 -7.2037 -2.2839
14 2 2 -4.2295 -2.9372
14 2 3 -0.9087 -2.0190
14 2 4 -6.1478 -2.1073
14 2 5 -4.3380 -1.7308
14 2 6 -2.7080 -1.6908
14 2 7 -0.6400 -0.4561
14 2 8 -2.2793 -1.8555
14 3 0 -15.0295 0.0732
14 3 1 -5.5732 -1.9203
14 3 2 -8.7185 -1.5856
14 3 3 -2.7891 -1.5815
14 3 4 -8.3662 -1.3241
14 3 5 -0.2948 -1.1038
14 3 6 -5.5338 -1.0538
14 3 7 -0.0935 -1.3694
14 3 8 -1.9872 -0.1609
14 4 0 -9.1773 1.3392
14 4 1 -13.0534 0.7653
14 4 2 -5.5373 0.8055
14 4 3 -9.7245 0.9489
14 4 4 -3.2183 0.7077
14 4 5 -6.8465 0.4216
14 4 6 -1.9350 0.3305
14 4 7 -2.5868 1.1928
14 4 8 0.5975 -1.6588
14 5 0 -10.0568 -0.9876
14 5 1 -6.6147 -1.6944
14 5 2 -5.4959 -1.5785
14 5 3 -1.6290 -1.6148
14 5 4 -4.2208 -1.4332
14 5 5 -4.4161 -1.1646
14 5 6 -2.2867 -1.2065
14 5 7 -2.1750 -0.9748
14 6 0 -9.2625 0.5619
14 6 1 -8.2174 -0.1425
14 6 2 -6.7250 -0.5354
14 6 3 -4.4861 -0.4535
14 6 4 -7.2695 -0.4793
14 6 5 -3.3971 -0.5671
14 6 6 -2.6236 0.2349
14 6 7 -3.4039 -1.4990
14 7 0 -10.3326 -0.6283
14 7 1 -8.4975 -0.1155
14 7 2 -3.8441 -0.7850
14 7 3 -8.3169 -0.1820
14 7 4 -5.0605 -0.3745
14 7 5 -6.1842 -0.7415
14 7 6 -0.5056 -0.6768
14 7 7 -7.1151 -0.1185
14 8 0 -10.1655 -0.1916
14 8 1 -8.1537 -1.5116
14 8 2 -6.0784 -1.4354
14 8 3 -4.1457 -0.9300
14 8 4 -4.7698 -0.9366
14 8 5 -3.7103 -0.8990
14 8 6 -3.4643 -0.0485
14 8 7 -1.7253 -2.7506
14 9 0 -8.7837 0.3520
14 9 1 -8.6413 0.8620
14 9 2 -8.3587 -0.2808
14 9 3 -3.7972 0.2304
14 9 4 -5.0051 -0.0755
14 9 5 -3.6532 -0.0913
14 9 6 -3.6214 0.6591
14 10 0 -8.5061 -0.1079
14 10 1 -6.7406 -0.1238
14 10 2 -1.2989 0.4616
14 10 3 -4.2505 -0.0291
14 10 4 -2.1860 0.4378
14 10 5 -5.0435 0.8495
14 10 6 -1.6290 -0.9551
14 11 0 -6.7093 -0.1071
14 11 1 -7.7806 0.1274
14 11 2 -2.0910 0.5379
14 11 3 -4.6115 0.8001
14 11 4 -5.6696 0.6253
14 11 5 -3.1994 1.4900
14 12 0 -7.1338 0.5351
14 12 1 -6.5911 -0.0541
14 12 2 -4.5050 0.6429
14 12 3 -5.2761 0.2351
14 12 4 -4.8227 0.0598
14 12 5 -3.4861 -1.5642
14 13 0 -11.4157 -0.3065
14 13 1 -2.6812 -1.1786
14 13 2 -3.1630 -1.0816
14 13 3 -2.3177 -1.2116
14 13 4 2.8704 -0.1684
14 14 0 -1.9771 0.1460
14 14 1 -4.9634 -4.2238
14 14 2 -3.6105 -3.9459
14 14 3 -2.9573 -4.4870
15 0 0 -13.2971 -3.6383
15 0 1 -10.4423 -5.3294
15 0 2 -8.8654 -4.1430
15 0 3 -13.7733 -4.1711
15 0 4 -8.4001 -3.6930
15 0 5 -6.6657 -3.2299
15 0 6 -6.3717 -2.9828
15 0 7 2.9013 -3.1539
15 0 8 -3.4132 -1.7396
15 1 0 -13.0958 2.6917
15 1 1 -7.5357 2.7196
15 1 2 -4.3093 3.0153
15 1 3 -5.0715 2.5858
15 1 4 -6.6149 2.1997
15 1 5 -4.5641 2.0564
15 1 6 -0.6352 2.0060
15 1 7 -1.9297 1.3634
15 1 8 0.1313 1.2257
15 2 0 -8.2479 -1.7515
15 2 1 -12.7822 0.9257
15 2 2 0.5940 0.0584
15 2 3 1.3461 0.0891
15 2 4 -6.2001 0.5698
15 2 5 -5.2114 -0.2547
15 2 6 -0.4038 -0.2034
15 2 7 -1.0538 0.6703
15 2 8 -2.1204 1.4575
15 3 0 -13.2482 -0.0094
15 3 1 -10.4045 0.1297
15 3 2 -8.5993 1.1298
15 3 3 -2.7959 0.5208
15 3 4 -7.6126 0.3562
15 3 5 -5.3848 0.6491
15 3 6 -2.8218 0.7110
15 3 7 -0.5450 -0.0878
15 3 8 1.1570 0.9807
15 4 0 -8.6270 0.2158
15 4 1 -10.4060 2.3076
15 4 2 -5.9250 0.7805
15 4 3 -5.1284 1.1458
15 4 4 -0.9045 1.1485
15 4 5 -5.9464 0.8488
15 4 6 -2.9410 0.8211
15 4 7 0.4930 0.6496
15 5 0 -11.7825 -0.7940
15 5 1 -10.9556 -0.5979
15 5 2 -4.5755 0.4192
15 5 3 -3.9372 -0.1661
15 5 4 -3.4534 0.1601
15 5 5 -3.2689 0.0494
15 5 6 -2.6006 -0.4060
15 5 7 -0.5271 0.8078
15 6 0 -11.6365 0.7391
15 6 1 -11.8065 1.6810
15 6 2 -8.2189 1.8410
15 6 3 -3.5765 1.9421
15 6 4 -8.6974 1.1902
15 6 5 -4.7857 1.3319
15 6 6 0.7691 1.4133
15 6 7 -1.1468 1.1400
15 7 0 -8.7666 0.0844
15 7 1 -10.0703 0.5480
15 7 2 -5.2142 0.3834
15 7 3 -4.3637 -0.1239
15 7 4 -5.4599 0.6010
15 7 5 -3.9709 0.3147
15 7 6 -1.1687 0.2106
15 8 0 -12.5573 -0.0685
15 8 1 -7.2462 0.1098
15 8 2 -5.8649 1.0537
15 8 3 -5.8960 0.2406
15 8 4 -4.1021 0.3887
15 8 5 -3.3323 1.1215
15 8 6 0.9591 0.0710
15 9 0 -12.1255 0.2214
15 9 1 -6.9254 1.3321
15 9 2 -6.7642 0.8436
15 9 3 -2.1972 0.9275
15 9 4 -6.5035 0.7220
15 9 5 -2.5474 -0.2511
15 9 6 -1.3753 1.0828
15 10 0 -4.5203 -0.1350
15 10 1 -11.4635 -0.6730
15 10 2 0.8110 0.2063
15 10 3 -7.4858 -0.3052
15 10 4 -1.6520 -0.4809
15 10 5 -5.4059 -0.3629
15 11 0 -6.2898 -0.2521
15 11 1 -4.8884 0.9959
15 11 2 -2.8344 0.7495
15 11 3 -6.8922 0.4384
15 11 4 -6.3437 0.1075
15 11 5 -3.1346 1.0639
15 12 0 -10.1498 0.5334
15 12 1 -2.5352 -0.8356
15 12 2 -3.6578 -1.3048
15 12 3 -3.4557 -0.8794
15 12 4 -7.8962 -1.0747
15 13 0 -6.2068 -0.0126
15 13 1 -5.3866 -0.0112
15 13 2 -3.5621 -0.9503
15 13 3 -4.5119 0.3787
15 14 0 -0.0130 0.3826
15 14 1 0.4757 1.7984
15 14 2 -4.1219 0.9375
15 15 0 -4.0489 1.8620
16 0 0 -9.1543 -5.9849
16 0 1 -5.3971 -3.2365
16 0 2 -5.2306 -4.5961
16 0 3 -1.6732 -4.1902
16 0 4 -5.7137 -3.5825
16 0 5 -3.6315 -3.6720
16 0 6 -3.3619 -3.1045
16 0 7 1.6618 -2.4637
16 0 8 -3.7094 -3.4493
16 1 0 -5.5233 3.3964
16 1 1 -7.1049 2.6176
16 1 2 0.6925 3.2521
16 1 3 0.4308 2.6795
16 1 4 -3.9242 2.6454
16 1 5 -5.0271 2.9201
16 1 6 -0.3916 1.9634
16 1 7 0.4338 1.5305
16 1 8 -4.1981 2.2282
16 2 0 -13.0817 -0.8099
16 2 1 -7.9886 -1.3136
16 2 2 -1.8396 -1.4868
16 2 3 -1.1104 -0.8548
16 2 4 -5.5331 -1.2488
16 2 5 -5.1653 -0.9265
16 2 6 -1.1526 -0.5149
16 2 7 -0.6418 -1.3973
16 3 0 -10.9608 -0.0578
16 3 1 -7.8277 -1.4102
16 3 2 -5.9855 -0.5609
16 3 3 -1.1925 -0.8460
16 3 4 -4.1968 -0.8929
16 3 5 -4.9015 -0.7977
16 3 6 -3.6831 -1.0015
16 3 7 -1.1266 0.1883
16 4 0 -9.5174 1.1323
16 4 1 -8.9611 0.0810
16 4 2 -5.9420 -0.0101
16 4 3 -3.8994 0.4480
16 4 4 -3.7949 0.2168
16 4 5 -5.7616 0.4308
16 4 6 -1.4640 1.0398
16 4 7 -2.0543 -1.0310
16 5 0 -14.6404 -0.8596
16 5 1 -8.2133 -1.2309
16 5 2 -5.8518 -1.4048
16 5 3 -4.3005 -1.3652
16 5 4 -5.5347 -0.8615
16 5 5 -4.2916 -0.8189
16 5 6 -2.5695 -1.1072
16 5 7 0.9516 0.2886
16 6 0 -6.7508 0.5149
16 6 1 -6.0978 -0.3158
16 6 2 -3.0583 -0.0995
16 6 3 -3.2578 -0.2085
16 6 4 -1.8969 -0.1818
16 6 5 -3.0239 0.1407
16 6 6 -0.8370 -0.9684
16 7 0 -3.5935 -0.4892
16 7 1 -2.4648 -0.5135
16 7 2 -5.9306 -0.9914
16 7 3 -1.8464 -0.1802
16 7 4 -2.1380 -0.4743
16 7 5 -3.8875 -1.0198
16 7 6 1.6024 0.0498
16 8 0 -1.9416 -0.0132
16 8 1 -5.2218 -0.4649
16 8 2 -2.4352 -0.1020
16 8 3 -2.3121 -0.3170
16 8 4 -4.0116 -0.4301
16 8 5 -2.0574 -0.0045
16 8 6 -0.9718 -1.8545
16 9 0 -3.3155 -0.0246
16 9 1 -3.2366 -0.3966
16 9 2 -1.9709 -1.2440
16 9 3 -0.9360 -0.6670
16 9 4 -3.2082 -0.4363
16 9 5 0.2003 -0.1983
16 10 0 -4.5656 0.0816
16 10 1 -2.0824 -0.9201
16 10 2 -1.3718 -1.3210
16 10 3 -1.5498 -0.3787
16 10 4 -3.9659 -0.2530
16 10 5 -1.0396 -2.3457
16 11 0 -5.0854 -0.0895
16 11 1 -0.9585 0.4228
16 11 2 0.2267 0.5510
16 11 3 -3.5578 0.3806
16 11 4 -3.7538 0.8011
16 12 0 -5.9046 -0.5941
16 12 1 -5.0766 -0.0891
16 12 2 -3.2000 0.8542
16 12 3 -4.3267 -0.9736
16 13 0 -15.0050 -0.3698
16 13 1 0.0785 1.1904
16 13 2 -4.0901 2.5688
16 14 0 -7.0560 -2.9436
17 0 0 -18.5260 -4.0614
17 0 1 6.8684 -5.3615
17 0 2 -7.8260 -4.7993
17 0 3 -2.6036 -4.3403
17 0 4 -5.6332 -4.4150
17 0 5 -0.7035 -4.0381
17 0 6 -3.9462 -3.3893
17 0 7 1.2997 -2.8680
17 1 0 -8.2662 2.7799
17 1 1 -4.7455 0.9143
17 1 2 -1.0938 1.2402
17 1 3 -2.0228 1.1955
17 1 4 -3.4711 1.1349
17 1 5 -5.0801 0.8177
17 1 6 0.5419 0.9316
17 1 7 -3.0759 1.3984
17 2 0 -0.3826 -1.6822
17 2 1 -9.5043 0.8211
17 2 2 2.0892 -0.6036
17 2 3 2.0929 -0.3368
17 2 4 -2.1786 -0.1096
17 2 5 -3.9051 -0.2943
17 2 6 -0.7181 -0.1453
17 2 7 -1.8918 0.0534
17 3 0 -8.7516 -0.0672
17 3 1 -7.2959 -1.2329
17 3 2 -2.0677 -0.7266
17 3 3 -5.3186 -1.4013
17 3 4 -3.8721 -0.6356
17 3 5 -4.1642 -0.5984
17 3 6 -2.1652 -1.2625
17 3 7 -2.8844 -0.2378
17 4 0 -11.1440 0.1883
17 4 1 -9.2117 1.4215
17 4 2 3.8847 0.5507
17 4 3 -10.6923 1.4525
17 4 4 -5.5696 0.6212
17 4 5 -0.3654 0.2477
17 4 6 -8.6664 0.6480
17 4 7 -0.3092 0.3925
17 5 0 -4.0528 -0.6177
17 5 1 -2.2896 -0.4889
17 5 2 -2.1264 -0.1497
17 5 3 1.6868 -0.6357
17 5 4 -0.6770 -0.2910
17 5 5 -3.4871 -0.7269
17 5 6 -2.5691 0.3757
17 6 0 0.2070 0.6881
17 6 1 0.0676 0.3383
17 6 2 -8.5575 -0.0330
17 6 3 2.9504 -0.0748
17 6 4 -1.0876 -0.5104
17 6 5 -3.3590 0.5150
17 6 6 -1.2514 0.9937
17 7 0 -1.0953 -0.3648
17 7 1 -2.3899 0.6138
17 7 2 -1.9981 0.7934
17 7 3 -2.2480 0.9748
17 7 4 -3.0693 0.7776
17 7 5 -1.7980 -0.1271
17 7 6 -3.3334 1.6168
17 8 0 1.4208 0.1534
17 8 1 -2.9788 -0.9470
17 8 2 -1.5629 -0.0581
17 8 3 0.7274 -0.2275
17 8 4 -2.1823 0.0659
17 8 5 -1.9904 0.6959
17 9 0 -0.3535 0.1628
17 9 1 -1.2046 1.1342
17 9 2 -2.1635 0.4197
17 9 3 -2.9569 -0.2379
17 9 4 0.4658 0.0153
17 9 5 -2.2447 1.6929
17 10 0 -5.7435 -0.0440
17 10 1 2.0951 0.0698
17 10 2 0.0724 0.9577
17 10 3 -5.4750 0.3359
17 10 4 3.2925 0.4231
17 11 0 -0.7714 0.4119
17 11 1 -4.2526 -0.3751
17 11 2 0.3067 -1.5087
17 11 3 -4.7086 0.8073
17 12 0 -5.6275 0.3201
17 12 1 -2.8172 0.0666
17 12 2 -2.1487 -0.2229
18 0 0 -3.7235 -6.2593
18 0 1 -8.4041 -4.1113
18 0 2 -2.9608 -4.8173
18 0 3 -9.1304 -4.5987
18 0 4 -4.8399 -4.0326
18 0 5 -3.9534 -3.4126
18 0 6 -1.3828 -2.8924
18 0 7 -2.8296 -3.6259
18 1 0 -9.0773 3.0840
18 1 1 -4.9896 2.8233
18 1 2 -7.9026 3.3906
18 1 3 0.0967 2.7506
18 1 4 -4.8196 2.7935
18 1 5 -0.0440 2.3689
18 1 6 -3.2171 1.4504
18 1 7 -0.7160 1.9084
18 2 0 -10.3855 -0.6114
18 2 1 -6.7954 0.2039
18 2 2 -6.8877 0.2940
18 2 3 -0.1398 0.7880
18 2 4 -1.2697 0.2661
18 2 5 -1.2416 0.3236
18 2 6 -1.3009 0.7181
18 2 7 -1.1302 -1.5552
18 3 0 -9.4336 -0.1607
18 3 1 -8.9240 -0.3935
18 3 2 -5.6189 0.5391
18 3 3 -7.6294 -0.0056
18 3 4 -5.6103 -0.2244
18 3 5 -3.5904 0.1007
18 3 6 -2.3974 0.6453
18 4 0 -5.4172 1.3114
18 4 1 -6.4304 1.8738
18 4 2 -6.1505 1.6739
18 4 3 -1.1904 1.0516
18 4 4 -4.9290 1.4115
18 4 5 -2.0011 1.6148
18 4 6 -2.4886 -0.6458
18 5 0 -0.3402 -1.2640
18 5 1 -5.2888 -1.0470
18 5 2 -4.6094 -0.5503
18 5 3 -0.2833 -0.3558
18 5 4 -0.3721 -0.3797
18 5 5 0.1400 -0.0917
18 5 6 -1.7634 0.6250
18 6 0 -3.7882 0.8145
18 6 1 -2.5814 0.4677
18 6 2 -3.9852 0.4466
18 6 3 -0.8575 0.3418
18 6 4 -3.2075 0.9840
18 6 5 -4.8951 -0.5679
18 7 0 -2.7424 -0.0353
18 7 1 -6.6148 1.1625
18 7 2 0.1324 0.1927
18 7 3 -0.3851 -0.2812
18 7 4 -3.5307 0.1453
18 7 5 -4.4886 1.3454
18 8 0 -3.3832 -0.3695
18 8 1 -1.2183 -0.6288
18 8 2 -3.3636 0.1722
18 8 3 -1.4356 0.6564
18 8 4 -1.7956 -1.0640
18 9 0 -1.6329 0.3193
18 9 1 -0.3241 0.4841
18 9 2 -0.8073 0.2596
18 9 3 -3.1426 0.5998
18 9 4 -1.0136 1.2015
18 10 0 -2.5970 -0.9409
18 10 1 -2.1133 0.1738
18 10 2 1.8490 0.5848
18 10 3 -5.4614 -2.0113
18 11 0 5.6952 0.8400
18 11 1 -3.7984 0.6348
18 11 2 0.1318 0.6070
19 0 0 -5.0371 -3.9486
19 0 1 -10.7721 -5.0920
19 0 2 -12.2777 -4.7181
19 0 3 3.4208 -3.9524
19 0 4 -12.3810 -4.5184
19 0 5 2.7179 -4.0097
19 0 6 -2.2810 -2.9929
19 0 7 -7.8378 -1.9005
19 1 0 -7.0611 3.0460
19 1 1 -9.0892 1.4635
19 1 2 -9.1391 1.9425
19 1 3 -2.8285 1.7284
19 1 4 -2.4911 1.7925
19 1 5 -0.3224 1.6905
19 1 6 -1.4696 1.7807
19 2 0 -12.7385 -1.5330
19 2 1 -9.3200 -0.5832
19 2 2 -11.4951 -1.9278
19 2 3 -9.4066 -1.6016
19 2 4 1.1446 -1.2538
19 2 5 -2.3717 -0.6795
19 2 6 -1.4647 -1.1303
19 3 0 -5.3851 -0.1545
19 3 1 -9.8978 -2.2349
19 3 2 -7.5820 -1.6421
19 3 3 -6.7664 -1.1491
19 3 4 -1.0621 -1.2028
19 3 5 -1.8311 -2.0010
19 3 6 -1.8747 -0.4207
19 4 0 4.5008 0.4919
19 4 1 -9.2337 0.7526
19 4 2 -8.0465 -0.3475
19 4 3 0.8197 0.5312
19 4 4 -2.4659 0.4812
19 4 5 -4.9635 0.2241
19 4 6 8.2588 -0.1823
19 5 0 -3.4136 -0.8677
19 5 1 -5.9670 -1.0647
19 5 2 -3.2689 -0.5666
19 5 3 -3.4262 -0.9495
19 5 4 -2.3021 -1.4009
19 5 5 -3.1873 -0.0831
19 6 0 -13.2742 0.5039
19 6 1 3.5027 -1.3085
19 6 2 -1.3966 -1.0401
19 6 3 -0.6652 -0.1863
19 6 4 -3.8977 -0.7888
19 6 5 -0.7251 -0.6764
19 7 0 -2.0177 -0.4019
19 7 1 -2.0786 0.3014
19 7 2 -0.6197 -0.6994
19 7 3 1.8627 -1.1132
19 7 4 -4.0780 0.6386
19 8 0 -0.1019 0.2333
19 8 1 -1.3953 -0.7586
19 8 2 -1.1326 0.2564
19 8 3 1.2892 0.4054
19 8 4 -0.5800 -0.1198
19 9 0 -0.4879 0.2519
19 9 1 -1.3020 -0.8841
19 9 2 -1.2323 -1.3787
19 9 3 0.1824 1.7670
19 10 0 -0.0387 -0.0265
19 10 1 -2.0928 -0.3782
19 10 2 1.1906 -0.1003
20 0 0 -10.6984 -5.9630
20 0 1 -5.3443 -4.1200
20 0 2 -7.4877 -4.4777
20 0 3 -7.9082 -4.5074
20 0 4 -4.9518 -3.8644
20 0 5 -0.7851 -3.2799
20 0 6 -1.7590 -4.4403
20 1 0 -5.0311 2.4019
20 1 1 -8.2254 2.0184
20 1 2 -8.4837 1.9247
20 1 3 -5.9812 1.6049
20 1 4 -3.1522 1.6545
20 1 5 -0.3320 0.6308
20 1 6 -1.6725 1.2924
20 2 0 -0.8780 -0.5255
20 2 1 -6.3732 0.7124
20 2 2 -7.1519 0.6955
20 2 3 -3.2257 0.4850
20 2 4 -0.8056 0.5453
20 2 5 1.6901 0.3851
20 2 6 -4.1296 -1.7897
20 3 0 -0.1760 -0.4913
20 3 1 -5.0404 -0.4298
20 3 2 -4.7331 0.1779
20 3 3 -0.4406 -0.6047
20 3 4 -1.7342 -0.7053
20 3 5 -0.9794 0.7629
20 4 0 -2.9853 1.2194
20 4 1 -4.9345 1.6649
20 4 2 -4.8793 1.7162
20 4 3 -0.6784 1.5434
20 4 4 -2.6576 1.4927
20 4 5 -2.6665 -1.1567
20 5 0 -7.7070 -0.8017
20 5 1 1.4766 0.0636
20 5 2 -2.4252 0.1491
20 5 3 -3.4451 -0.1068
20 5 4 -1.6242 0.6577
20 6 0 -0.7386 0.4589
20 6 1 -0.4224 1.0558
20 6 2 0.3329 1.3354
20 6 3 -1.3154 0.6915
20 6 4 -3.1396 -1.1560
20 7 0 -0.9347 0.2155
20 7 1 0.0422 0.5141
20 7 2 -1.2320 1.0228
20 7 3 1.4098 1.6411
20 8 0 -1.0027 -0.8834
20 8 1 -1.7712 0.6574
20 8 2 -1.2214 -1.9014
20 9 0 -2.9660 1.1777
20 9 1 -0.8890 1.8350
21 0 0 -10.0582 -3.9276
21 0 1 6.1607 -4.9236
21 0 2 -9.9150 -4.4233
21 0 3 -7.0441 -4.0269
21 0 4 -3.7882 -4.2375
21 0 5 -4.6555 -2.9554
21 0 6 -2.2415 -1.5101
21 1 0 -0.2114 2.8975
21 1 1 -2.9147 2.2531
21 1 2 -8.4719 3.0805
21 1 3 -1.8790 3.0511
21 1 4 -3.6478 2.0007
21 1 5 -0.7921 2.2700
21 2 0 -3.2450 -1.0635
21 2 1 2.1576 -0.5595
21 2 2 -8.7816 -1.1198
21 2 3 4.8869 -0.2625
21 2 4 -0.4024 0.3452
21 2 5 -0.1214 -0.2462
21 3 0 -1.2272 -0.1155
21 3 1 1.5573 -0.7667
21 3 2 -2.7840 -0.6864
21 3 3 1.0519 -1.2113
21 3 4 -2.1671 -1.0692
21 3 5 -1.5453 1.4043
21 4 0 0.2395 0.8694
21 4 1 -8.2164 1.4321
21 4 2 -2.5765 0.2633
21 4 3 -1.2131 0.8540
21 4 4 -4.2525 0.6876
21 5 0 -2.6412 -1.0441
21 5 1 -1.3847 -1.6674
21 5 2 -4.9300 -1.2803
21 5 3 0.0756 -0.7310
21 5 4 -2.3281 0.7498
21 6 0 1.8906 0.5210
21 6 1 0.6910 0.0169
21 6 2 2.7002 -0.2348
21 6 3 -2.1480 -0.1916
21 7 0 -3.4733 0.0741
21 7 1 -1.5436 -1.1551
21 7 2 0.4462 0.9755
21 8 0 -1.8527 -0.3917
22 0 0 1.0679 -5.1999
22 0 1 -2.4595 -3.6437
22 0 2 -6.3517 -4.4198
22 0 3 -1.5256 -4.0341
22 0 4 -3.0686 -3.0242
22 0 5 -3.0148 -4.2008
22 1 0 0.8135 2.1988
22 1 1 -1.6125 1.3710
22 1 2 -1.7755 1.4459
22 1 3 -4.1538 0.8611
22 1 4 0.6837 1.2013
22 1 5 -0.1893 1.9704
22 2 0 1.9274 -0.6423
22 2 1 -2.0208 -0.1868
22 2 2 -2.8777 -0.6886
22 2 3 -3.6431 -0.3665
22 2 4 -0.0377 -1.5108
22 3 0 -0.4360 -0.5954
22 3 1 -2.2106 -2.0770
22 3 2 -5.5331 -0.8314
22 3 3 -1.3331 -0.4985
22 3 4 -0.4859 0.7959
22 4 0 -5.9825 0.1459
22 4 1 -2.2396 0.2993
22 4 2 -3.2872 0.6289
22 4 3 -2.8505 -1.1040
22 5 0 -0.5929 0.4079
22 5 1 -2.5241 -0.3312
22 5 2 0.5485 -0.5609
22 5 3 0.5615 0.5987
22 6 0 -3.2359 -1.6703
22 6 1 2.4691 -0.0656
22 6 2 -3.2289 -2.3132
23 0 0 -11.1746 -4.1003
23 0 1 0.9606 -4.7881
23 0 2 -0.9738 -3.9341
23 0 3 -5.2515 -3.8230
23 0 4 -1.5543 -3.7421
23 1 0 -2.4604 2.5251
23 1 1 -4.3511 2.6474
23 1 2 -4.5378 2.2230
23 1 3 -3.0035 1.1399
23 1 4 -0.4488 1.4425
23 2 0 0.9954 -0.6798
23 2 1 -1.3177 0.5569
23 2 2 -7.7723 0.8683
23 2 3 -3.4425 1.4234
23 2 4 -4.2384 0.3782
23 3 0 -6.6424 -0.1696
23 3 1 -1.3223 -0.0600
23 3 2 -8.0722 0.1425
23 3 3 -0.2322 1.8983
23 4 0 -1.3123 0.9955
23 4 1 -8.9496 2.5696
23 4 2 0.5743 0.6764
23 5 0 -3.7803 1.1772
23 5 1 0.2039 1.0009
24 0 0 -4.0130 -5.0761
24 0 1 -2.4295 -4.1746
24 0 2 1.2927 -4.4645
24 0 3 -3.3871 -3.8084
24 0 4 -1.4474 -4.0974
24 1 0 -1.3881 2.7586
24 1 1 -2.9084 1.0695
24 1 2 -5.4212 1.7161
24 1 3 -0.2695 2.5512
24 2 0 0.0110 -1.2208
24 2 1 -4.4746 -0.1679
24 2 2 -8.5262 -2.9750
24 3 0 -0.6482 1.5561
24 3 1 -3.9662 0.2119
25 0 0 5.3910 -3.5955
25 0 1 -3.9051 -2.8794
25 0 2 3.2765 -2.3929
25 1 0 2.1893 1.6819
25 1 1 0.6719 0.8191
25 1 2 1.8576 2.8241
0 0 0 0.0 0.0
;
_olex2_submission_special_instructions 'No special instructions were received'
loop_
_space_group_symop_operation_xyz
'x, y, z'
'-y, x-y, z'
'-x+y, -x, z'
'-x, -y, z'
'y, -x+y, z'
'x-y, x, z'
'y, x, -z'
'x-y, -y, -z'
'-x, -x+y, -z'
'-y, -x, -z'
'-x+y, y, -z'
'x, x-y, -z'
'-x, -y, -z'
'y, -x+y, -z'
'x-y, x, -z'
'x, y, -z'
'-y, x-y, -z'
'-x+y, -x, -z'
'-y, -x, z'
'-x+y, y, z'
'x, x-y, z'
'y, x, z'
'x-y, -y, z'
'-x, -x+y, z'
loop_
_atom_site_label
_atom_site_type_symbol
_atom_site_fract_x
_atom_site_fract_y
_atom_site_fract_z
_atom_site_U_iso_or_equiv
_atom_site_adp_type
_atom_site_occupancy
_atom_site_site_symmetry_order
_atom_site_calc_flag
_atom_site_refinement_flags_posn
_atom_site_refinement_flags_adp
_atom_site_refinement_flags_occupancy
_atom_site_disorder_assembly
_atom_site_disorder_group
Hf Hf 1.0000 0.5000 1.0000 0.0306(2) Uani 1 8 d S T P A .
C2 C 0.8180(4) 0.2989(5) 1.0000 0.065(2) Uani 1 2 d S T P . .
O2 O 0.9167(4) 0.4032(4) 0.9334(9) 0.053(2) Uani 0.5 1 d . . . . .
O1 O 0.9633(3) 0.4394(4) 0.7808(9) 0.0484(18) Uani 0.5 1 d . . . A .
N1 N 0.9051(4) 0.3809(5) 0.7992(11) 0.051(2) Uani 0.5 1 d . . . A .
H1 H 0.8740 0.3973 0.7659 0.061 Uiso 0.5 1 calc R . . . .
C3 C 0.7711(6) 0.2878(6) 0.8838(15) 0.061(3) Uani 0.5 1 d . . . A 1
H3 H 0.7795 0.3209 0.8032 0.073 Uiso 0.5 1 calc R . . A 1
C4 C 0.8066(8) 0.2519(8) 0.8852(16) 0.094(5) Uani 0.5 1 d . . . A 2
H4 H 0.8397 0.2600 0.8048 0.113 Uiso 0.5 1 calc R . . A 2
C1 C 0.8837(6) 0.3635(6) 0.9481(11) 0.040(2) Uani 0.5 1 d . . . A .
loop_
_atom_site_aniso_label
_atom_site_aniso_U_11
_atom_site_aniso_U_22
_atom_site_aniso_U_33
_atom_site_aniso_U_23
_atom_site_aniso_U_13
_atom_site_aniso_U_12
Hf 0.0025(2) 0.0448(3) 0.0305(3) 0.000 0.000 0.00126(11)
C2 0.037(4) 0.041(4) 0.098(7) 0.000 0.000 0.006(4)
O2 0.044(4) 0.037(4) 0.035(3) 0.001(3) 0.005(3) -0.013(4)
O1 0.029(3) 0.042(4) 0.036(4) -0.002(3) 0.008(2) -0.012(3)
N1 0.024(4) 0.052(5) 0.044(5) -0.004(4) 0.005(3) -0.005(4)
C3 0.054(7) 0.052(7) 0.055(7) 0.022(6) 0.011(6) 0.011(6)
C4 0.116(12) 0.098(11) 0.070(9) 0.020(8) 0.053(9) 0.054(10)
C1 0.036(5) 0.049(6) 0.031(5) -0.006(4) -0.004(3) 0.018(5)
loop_
_atom_type_symbol
_atom_type_description
_atom_type_scat_dispersion_real
_atom_type_scat_dispersion_imag
_atom_type_scat_source
C C 0.0033 0.0016 'International Tables Vol C Tables 4.2.6.8 and 6.1.1.4'
H H 0.0000 0.0000 'International Tables Vol C Tables 4.2.6.8 and 6.1.1.4'
Hf Hf -0.5830 6.1852 'International Tables Vol C Tables 4.2.6.8 and 6.1.1.4'
N N 0.0061 0.0033 'International Tables Vol C Tables 4.2.6.8 and 6.1.1.4'
O O 0.0106 0.0060 'International Tables Vol C Tables 4.2.6.8 and 6.1.1.4'
loop_
_geom_angle_atom_site_label_1
_geom_angle_atom_site_label_2
_geom_angle_atom_site_label_3
_geom_angle
_geom_angle_site_symmetry_1
_geom_angle_site_symmetry_3
_geom_angle_publ_flag
O2 Hf O2 180.0 . 13_767 ?
O2 Hf O2 180.0 16_557 4_765 ?
O2 Hf O2 151.1(4) . 4_765 ?
O2 Hf O2 151.1(4) 13_767 16_557 ?
O2 Hf O2 28.9(4) . 16_557 ?
O2 Hf O2 28.9(4) 13_767 4_765 ?
O1 Hf O2 101.6(3) 9_767 . ?
O1 Hf O2 101.6(3) 24_765 16_557 ?
O1 Hf O2 71.2(3) 13_767 4_765 ?
O1 Hf O2 102.1(3) 9_767 4_765 ?
O1 Hf O2 42.8(3) 16_557 16_557 ?
O1 Hf O2 102.1(3) 21 16_557 ?
O1 Hf O2 108.8(3) . 4_765 ?
O1 Hf O2 71.2(3) 16_557 . ?
O1 Hf O2 101.6(3) 12_557 4_765 ?
O1 Hf O2 78.4(3) 12_557 16_557 ?
O1 Hf O2 71.2(3) . 16_557 ?
O1 Hf O2 78.4(3) 24_765 4_765 ?
O1 Hf O2 102.1(3) 24_765 13_767 ?
O1 Hf O2 108.8(3) 4_765 . ?
O1 Hf O2 77.9(3) 12_557 13_767 ?
O1 Hf O2 77.9(3) 24_765 . ?
O1 Hf O2 108.8(3) 16_557 13_767 ?
O1 Hf O2 137.2(3) . 13_767 ?
O1 Hf O2 71.2(3) 4_765 13_767 ?
O1 Hf O2 102.1(3) 12_557 . ?
O1 Hf O2 42.8(3) . . ?
O1 Hf O2 42.8(3) 13_767 13_767 ?
O1 Hf O2 137.2(3) 13_767 . ?
O1 Hf O2 137.2(3) 4_765 16_557 ?
O1 Hf O2 78.4(3) 21 . ?
O1 Hf O2 101.6(3) 21 13_767 ?
O1 Hf O2 77.9(3) 9_767 16_557 ?
O1 Hf O2 77.9(3) 21 4_765 ?
O1 Hf O2 108.8(3) 13_767 16_557 ?
O1 Hf O2 78.4(3) 9_767 13_767 ?
O1 Hf O2 137.2(3) 16_557 4_765 ?
O1 Hf O2 42.8(3) 4_765 4_765 ?
O1 Hf O1 140.2(3) . 12_557 ?
O1 Hf O1 180.0(4) 16_557 4_765 ?
O1 Hf O1 111.0(4) 13_767 4_765 ?
O1 Hf O1 126.2(5) 12_557 4_765 ?
O1 Hf O1 53.8(5) 12_557 16_557 ?
O1 Hf O1 39.8(3) . 24_765 ?
O1 Hf O1 111.0(4) 9_767 24_765 ?
O1 Hf O1 39.8(3) 13_767 12_557 ?
O1 Hf O1 126.2(5) 24_765 16_557 ?
O1 Hf O1 126.2(5) 13_767 21 ?
O1 Hf O1 69.0(4) . 4_765 ?
O1 Hf O1 111.0(4) 21 12_557 ?
O1 Hf O1 53.8(5) 24_765 4_765 ?
O1 Hf O1 140.2(3) 9_767 4_765 ?
O1 Hf O1 140.2(3) 21 16_557 ?
O1 Hf O1 69.0(4) 9_767 12_557 ?
O1 Hf O1 39.8(3) 9_767 16_557 ?
O1 Hf O1 180.0 . 13_767 ?
O1 Hf O1 126.2(5) . 9_767 ?
O1 Hf O1 180.0 24_765 12_557 ?
O1 Hf O1 180.0 21 9_767 ?
O1 Hf O1 53.8(5) 13_767 9_767 ?
O1 Hf O1 140.2(3) 13_767 24_765 ?
O1 Hf O1 111.0(4) . 16_557 ?
O1 Hf O1 39.8(3) 21 4_765 ?
O1 Hf O1 69.0(4) 21 24_765 ?
O1 Hf O1 69.0(4) 13_767 16_557 ?
O1 Hf O1 53.8(5) . 21 ?
C3 C2 C3 87.8(12) . 16_557 ?
C3 C2 C1 107.1(7) 16_557 16_557 ?
C3 C2 C1 132.0(9) 16_557 . ?
C3 C2 C1 132.0(9) . 16_557 ?
C3 C2 C1 107.1(7) . . ?
C4 C2 C4 87.0(13) . 16_557 ?
C4 C2 C1 131.1(9) . 16_557 ?
C4 C2 C1 106.7(8) . . ?
C4 C2 C1 131.1(9) 16_557 . ?
C4 C2 C1 106.7(8) 16_557 16_557 ?
C1 C2 C1 31.3(7) . 16_557 ?
O2 O2 Hf 75.6(2) 16_557 . ?
O2 O2 O1 141.7(4) 16_557 . ?
O2 O2 N1 157.7(6) 16_557 . ?
O2 O2 C1 41.5(5) 16_557 16_557 ?
O1 O2 Hf 68.3(4) . . ?
N1 O2 Hf 125.0(7) . . ?
N1 O2 O1 56.8(5) . . ?
N1 O2 C1 117.1(8) . 16_557 ?
C1 O2 Hf 157.5(10) . . ?
C1 O2 Hf 117.1(6) 16_557 . ?
C1 O2 O2 82.0(8) . 16_557 ?
C1 O2 O1 133.0(10) . . ?
C1 O2 O1 166.1(9) 16_557 . ?
C1 O2 N1 77.0(10) . . ?
C1 O2 C1 40.5(10) . 16_557 ?
O2 O1 Hf 68.9(4) . . ?
O1 O1 Hf 70.11(16) 24_765 . ?
O1 O1 O2 126.2(4) 24_765 . ?
N1 O1 Hf 115.3(5) . . ?
N1 O1 O2 46.5(5) . . ?
N1 O1 O1 149.2(6) . 24_765 ?
O2 N1 O1 76.7(7) . . ?
O2 N1 C1 40.5(6) . . ?
C1 N1 O1 116.7(9) . . ?
C2 C3 C3 119.5(6) . 19_665 ?
C2 C4 C4 119.9(7) . 19_665 ?
O2 C1 C2 167.7(13) . . ?
O2 C1 C2 115.3(7) 16_557 . ?
O2 C1 O2 56.5(10) . 16_557 ?
O2 C1 N1 118.6(10) 16_557 . ?
O2 C1 N1 62.6(9) . . ?
N1 C1 C2 126.0(8) . . ?
C1 C1 C2 74.4(3) 16_557 . ?
C1 C1 O2 98.0(8) 16_557 . ?
C1 C1 O2 41.5(5) 16_557 16_557 ?
C1 C1 N1 159.3(6) 16_557 . ?
loop_
_geom_bond_atom_site_label_1
_geom_bond_atom_site_label_2
_geom_bond_distance
_geom_bond_site_symmetry_2
_geom_bond_publ_flag
Hf O2 2.168(8) 13_767 ?
Hf O2 2.167(8) . ?
Hf O2 2.168(8) 4_765 ?
Hf O2 2.168(8) 16_557 ?
Hf O1 2.158(7) 24_765 ?
Hf O1 2.158(7) 9_767 ?
Hf O1 2.158(7) 21 ?
Hf O1 2.158(7) 16_557 ?
Hf O1 2.158(7) 12_557 ?
Hf O1 2.158(7) 13_767 ?
Hf O1 2.158(7) 4_765 ?
Hf O1 2.158(7) . ?
C2 C3 1.360(14) 16_557 ?
C2 C3 1.360(14) . ?
C2 C4 1.353(15) 16_557 ?
C2 C4 1.353(15) . ?
C2 C1 1.563(14) . ?
C2 C1 1.563(14) 16_557 ?
O2 O2 1.081(15) 16_557 ?
O2 O1 1.579(10) . ?
O2 N1 1.176(11) . ?
O2 C1 0.860(12) . ?
O2 C1 1.285(10) 16_557 ?
O1 O1 1.469(12) 24_765 ?
O1 N1 1.357(10) . ?
N1 C1 1.291(13) . ?
C3 C3 1.36(2) 19_665 ?
C4 C4 1.35(3) 19_665 ?
C1 O2 1.285(10) 16_557 ?
C1 C1 0.842(17) 16_557 ?
loop_
_refln_index_h
_refln_index_k
_refln_index_l
_refln_F_squared_meas
_refln_F_squared_sigma
2 0 0 2067.89 95.59
-2 2 0 2317.47 92.89
0 2 0 1957.1 92.69
2 -2 0 2173.78 93.99
-3 1 0 117.39 8.7
1 2 0 113.59 7.7
-1 -2 0 99.99 7.4
3 -1 0 106.79 8.5
2 1 0 110.99 8.5
-3 2 0 121.79 8.2
3 -2 0 111.19 7.8
-2 -1 0 99.89 8.3
3 0 0 558.24 27.2
-3 3 0 533.85 24.7
3 -3 0 516.65 24.1
0 3 0 512.65 24.3
-3 0 0 526.65 27.1
1 3 0 308.47 16.9
-4 1 0 314.27 19.8
4 -1 0 300.47 18.6
-1 -3 0 319.77 16.6
2 2 0 1318.97 64.29
-4 2 0 1384.56 64.79
-2 -2 0 1428.26 64.39
4 -2 0 1507.45 64.89
3 1 0 313.47 19
-4 3 0 325.37 17.8
4 -3 0 322.57 17.4
-3 -1 0 331.47 20.6
-4 4 0 2620.64 116.99
4 0 0 2744.53 120.29
4 -4 0 2547.65 116.09
0 4 0 2650.53 116.69
-4 0 0 2792.72 120.39
-5 1 0 28.4 8
1 4 0 28.8 6.1
-4 5 0 18.7 3.5
-4 5 0 37.1 4.1
5 -1 0 22 7.5
-1 -4 0 29.5 6
2 3 0 150.98 12
-5 2 0 127.59 12.5
5 -2 0 137.99 12.4
-5 3 0 133.79 12.2
3 2 0 139.69 12.2
5 -3 0 128.69 11.2
-3 -2 0 118.39 11.9
-5 4 0 30.5 6.5
4 1 0 28.4 7.6
5 -4 0 25.3 5.6
-4 -1 0 28.3 8
5 0 0 1458.25 66.29
-5 5 0 1255.07 61.69
0 5 0 1315.17 61.49
5 -5 0 1342.97 60.49
-5 0 0 1479.25 66.19
1 5 0 653.53 33.6
-6 1 0 596.34 35.9
6 -1 0 739.13 37.5
-5 6 0 724.53 31
-1 -5 0 684.43 32.7
-5 6 0 619.34 31.3
-6 2 0 412.16 26.5
2 4 0 455.25 25.2
-2 -4 0 459.85 26.1
6 -2 0 459.25 26.7
-6 3 0 493.85 28.6
3 3 0 531.85 28.8
-3 -3 0 536.85 28.5
6 -3 0 483.85 28.1
4 2 0 450.05 27.1
-6 4 0 463.25 26.1
6 -4 0 455.85 25.2
-4 -2 0 471.95 27.1
-6 5 0 684.53 35.7
5 1 0 736.53 37.3
-1 6 0 616.64 30.6
-5 -1 0 640.84 36.2
6 -5 0 667.53 32.7
-6 6 0 1583.24 73.29
6 0 0 1384.36 76.49
6 -6 0 1586.34 70.99
6 -6 0 1852.81 70.99
-6 0 0 1642.64 77.69
0 6 0 1568.04 72.69
-7 1 0 129.69 15.4
1 6 0 89.59 10.5
7 -1 0 117.59 15.1
-6 7 0 97.29 8.9
2 5 0 211.28 15.9
-7 2 0 187.58 17.7
7 -2 0 208.88 17.9
-5 7 0 194.28 10.5
-5 7 0 218.98 10.4
-2 -5 0 198.38 15.4
3 4 0 9.8 7.1
-7 3 0 16.9 8.1
-3 -4 0 13.6 7.6
7 -3 0 12.1 7.8
4 3 0 9.1 7.2
-7 4 0 9.6 7.2
-4 -3 0 10.3 7.5
7 -4 0 18.2 7.3
5 2 0 211.38 17.9
-7 5 0 192.88 15.5
7 -5 0 199.08 15.1
-5 -2 0 198.88 17.4
-7 6 0 114.19 12.1
6 1 0 98.79 14.3
-6 -1 0 112.39 14.4
7 -6 0 117.99 10.3
-1 7 0 100.29 8.5
-7 7 0 480.95 27.1
7 0 0 432.26 29.4
0 7 0 463.55 25.2
7 -7 0 456.45 22.5
-7 0 0 482.55 30.4
7 -7 0 516.25 22.5
1 7 0 473.25 26.1
-8 1 0 453.25 30.1
-7 8 0 450.55 24.1
8 -1 0 422.46 29.6
2 6 0 1108.59 53.99
-8 2 0 931.41 55.49
-6 8 0 1203.88 49.1
-6 8 0 1070.49 49.3
8 -2 0 1093.89 56.59
-2 -6 0 1106.49 52.29
3 5 0 369.56 24.6
-8 3 0 437.76 27.3
-3 -5 0 402.76 24.4
8 -3 0 400.56 26.3
4 4 0 707.53 37.8
-8 4 0 660.13 37.3
-4 -4 0 650.93 36.2
8 -4 0 654.13 36.6
-8 5 0 445.96 26.6
5 3 0 402.36 26.9
8 -5 0 397.66 24.7
-5 -3 0 411.36 26.5
-8 6 0 1017.2 52.69
6 2 0 1157.48 56.39
-2 8 0 1019.6 47.5
8 -6 0 1115.69 51.79
-6 -2 0 1035.2 54.99
7 1 0 431.16 29.8
-8 7 0 477.65 26.7
-1 8 0 454.15 23.5
8 -7 0 441.16 24
-7 -1 0 465.25 30
8 0 0 1897.01 88.59
-8 8 0 1747.03 82.39
-8 0 0 1874.01 88.19
8 -8 0 1771.52 78.19
0 8 0 1782.52 81.89
8 -8 0 1685.83 78.19
-9 1 0 45.5 12.1
1 8 0 71.19 10.9
9 -1 0 74.09 13.9
-8 9 0 54.79 8.6
2 7 0 129.09 14.3
-9 2 0 150.78 17.6
-7 9 0 174.98 10.7
-7 9 0 167.18 11.1
9 -2 0 165.28 18.1
3 6 0 54.29 10.4
-9 3 0 42.3 11.6
9 -3 0 35.1 10.3
-3 -6 0 48.8 9.8
-6 9 0 40.4 4.2
4 5 0 83.39 13.1
-9 4 0 104.29 15.2
-4 -5 0 77.39 12.3
9 -4 0 94.89 14.1
5 4 0 77.39 12.9
-9 5 0 95.89 13.8
9 -5 0 82.59 12.8
-5 -4 0 77.29 12.6
6 3 0 55.19 12.4
-9 6 0 46.1 10.1
-6 -3 0 49.99 11.5
9 -6 0 51.19 9.7
7 2 0 132.89 17.2
-9 7 0 131.79 14.3
-2 9 0 143.89 9.7
-7 -2 0 137.99 16.5
9 -7 0 162.38 13.3
-9 8 0 60.49 10.5
8 1 0 59.59 15.6
-1 9 0 59.79 8.2
9 -8 0 58.49 8
-8 -1 0 79.19 14.4
-9 9 0 395.66 23.6
9 0 0 396.96 29.6
0 9 0 367.96 22.8
-9 0 0 364.86 28.2
1 9 0 610.94 34.2
-10 1 0 586.24 39
10 -1 0 541.35 38.6
-9 10 0 587.64 32.5
-1 -9 0 702.13 32.9
-10 2 0 1608.34 86.09
2 8 0 1763.22 82.79
10 -2 0 1933.91 92.29
-8 10 0 1636.54 83.19
-10 3 0 899.31 51.89
3 7 0 948.81 49.5
-3 -7 0 910.91 47.2
-7 10 0 986.2 42.7
-7 10 0 933.41 43
10 -3 0 931.51 51.99
4 6 0 1163.48 57.79
-10 4 0 1038 58.29
-4 -6 0 1073.49 55.49
10 -4 0 1145.59 58.39
-10 5 0 457.25 30.7
5 5 0 476.85 30.8
-5 -5 0 472.65 30.1
10 -5 0 478.15 30.3
-10 6 0 1085.39 57.49
6 4 0 1081.09 58.79
-6 -4 0 1115.69 57.89
10 -6 0 1162.48 56.79
-10 7 0 988.6 48.4
10 -7 0 851.81 45.3
-3 10 0 836.02 39.9
-7 -3 0 899.71 49.3
8 2 0 1769.42 85.29
-10 8 0 1648.24 80.79
10 -8 0 1642.24 77.99
-8 -2 0 1677.33 83.89
-2 10 0 1672.13 75.79
-10 9 0 554.24 32.8
9 1 0 538.85 37.5
-1 10 0 584.34 30.4
10 -9 0 578.94 29
-9 -1 0 586.74 37.5
10 0 0 2687.33 125.29
-10 10 0 2521.25 118.09
0 10 0 2652.43 117.79
-10 0 0 2456.05 123.79
1 10 0 207.38 18.2
-11 1 0 257.77 24.8
11 -1 0 221.38 23.2
-1 -10 0 241.68 17.7
-10 11 0 208.68 16.9
-11 2 0 153.08 19.6
2 9 0 133.29 15.1
11 -2 0 140.69 20
-9 11 0 143.09 12.4
3 8 0 24.6 9.4
-11 3 0 13.6 10.7
-8 11 0 21.1 5.3
-8 11 0 27.7 5.5
11 -3 0 18.1 10.3
4 7 0 18.3 9.2
-11 4 0 20.6 11.4
-4 -7 0 10.9 8.8
-7 11 0 19.2 3.7
5 6 0 67.59 13.7
-11 5 0 65.79 14
11 -5 0 74.89 14
-5 -6 0 65.09 13.1
-11 6 0 73.39 14
-6 -5 0 58.69 13.2
11 -6 0 76.49 13.4
7 4 0 31.3 11.1
-11 7 0 16.4 9.1
11 -7 0 43 9.9
-7 -4 0 35.8 12.2
8 3 0 27.8 12
-11 8 0 19 9.2
-3 11 0 23.1 4.8
11 -8 0 22.3 8.3
-8 -3 0 22.4 11.2
9 2 0 158.68 22.3
-11 9 0 146.59 17.7
-2 11 0 123.09 11.3
11 -9 0 121.29 12.6
-9 -2 0 146.59 19
-11 10 0 194.58 18.4
10 1 0 204.38 22
11 -10 0 225.28 13.8
-10 -1 0 242.08 23.7
-1 11 0 212.58 16.2
-11 11 0 32.2 9.1
11 0 0 52.29 14.5
0 11 0 39.9 9.5
-11 0 0 16.2 12
-12 1 0 344.17 29.6
1 11 0 331.77 23.9
-11 12 0 315.77 22.1
12 -1 0 364.16 30.2
-12 2 0 1088.39 59.99
2 10 0 1001.6 53.99
-10 12 0 1040.2 50.69
12 -2 0 1039.4 59.29
-2 -10 0 992.6 51.89
-12 3 0 326.57 28.3
3 9 0 283.37 24
-9 12 0 331.77 18.7
12 -3 0 382.36 29.2
-12 4 0 562.84 38.1
4 8 0 598.14 36.3
12 -4 0 568.44 37.6
-8 12 0 524.85 27.5
-8 12 0 542.15 27.3
-4 -8 0 642.64 34.4
-12 5 0 106.09 17.9
-5 -7 0 138.49 17
12 -5 0 126.59 18.2
-12 6 0 748.53 46.1
6 6 0 824.82 46.9
12 -6 0 754.72 45.2
-6 -6 0 824.42 45.5
-12 7 0 112.89 17.2
7 5 0 125.89 19.2
-7 -5 0 102.29 17
12 -7 0 115.59 16
8 4 0 566.74 36.9
-12 8 0 502.95 33.6
-8 -4 0 507.55 35.7
-4 12 0 516.05 25.3
12 -8 0 575.64 32.5
9 3 0 322.27 27.2
-12 9 0 252.57 23.1
-9 -3 0 347.77 27.9
12 -9 0 277.97 20.6
-3 12 0 307.47 17.5
10 2 0 1044 58.79
-12 10 0 957.3 53.09
-10 -2 0 981.1 57.29
-2 12 0 1014.2 48.8
12 -10 0 974.8 48.8
12 -10 0 1039 48.6
-12 11 0 308.77 23.3
11 1 0 308.77 28.3
12 -11 0 311.67 16.8
-11 -1 0 320.17 28.7
12 -11 0 285.97 17.1
-1 12 0 360.06 21.7
-12 12 0 551.04 33.4
12 0 0 561.84 40
0 12 0 560.54 33.2
-12 0 0 585.54 40.4
1 12 0 77.19 13.3
-13 1 0 74.79 17.3
-12 13 0 71.99 11.6
13 -1 0 39.1 15.2
-13 2 0 27.2 13.9
2 11 0 46.7 11.4
-11 13 0 44 9.1
-2 -11 0 35.1 10.5
13 -2 0 30.1 12.9
3 10 0 53.99 19
-13 3 0 48.7 14.5
-10 13 0 43.1 8.1
13 -3 0 57.49 15
4 9 0 96.89 15.4
-13 4 0 76.89 17.3
-9 13 0 62.29 8.4
13 -4 0 61.39 15
-9 13 0 74.59 10.8
-13 5 0 168.98 23
5 8 0 159.48 19
-8 13 0 117.89 8.9
-8 13 0 119.49 8.8
13 -5 0 145.59 20.9
-5 -8 0 150.98 17.9
-13 6 0 121.89 19.7
6 7 0 106.79 18
13 -6 0 120.69 18.6
-6 -7 0 118.99 17.5
-13 7 0 103.29 18.3
7 6 0 121.19 18.8
-7 -6 0 98.29 17.1
-13 8 0 154.58 20.2
8 5 0 141.69 20.6
13 -8 0 163.68 17.4
-8 -5 0 132.49 20.6
-13 9 0 65.79 13.7
9 4 0 61.59 15.7
13 -9 0 96.69 14.1
-9 -4 0 71.29 16.8
-4 13 0 59.99 7.3
-13 10 0 26.5 10.8
10 3 0 50.79 13.8
-3 13 0 27.8 6.5
-10 -3 0 35.4 14
13 -10 0 27.3 8.5
-13 11 0 48.5 12
11 2 0 30.6 12.7
-2 13 0 50.19 9.2
-11 -2 0 33.5 14.6
13 -11 0 43.7 8.2
13 -11 0 31.3 7.5
12 1 0 108.09 20.2
-13 12 0 52.39 12.3
-12 -1 0 100.59 19.5
-1 13 0 67.09 11.4
13 0 0 11.5 11.8
-13 13 0 39.3 10.9
0 13 0 43.4 10.6
-13 0 0 47.6 16.2
1 13 0 149.39 19.4
14 -1 0 181.18 27.1
-13 14 0 205.18 18.5
-14 2 0 586.04 43.2
-12 14 0 583.24 34.5
14 -2 0 658.43 44.3
-2 -12 0 629.14 35.5
-14 3 0 397.66 34.1
3 11 0 411.86 30.2
14 -3 0 468.65 35.3
-11 14 0 408.46 25.1
-3 -11 0 411.56 28.8
4 10 0 888.01 49.99
-14 4 0 923.31 53.99
-10 14 0 822.82 41
-10 14 0 789.92 41.7
14 -4 0 882.61 52.69
5 9 0 152.68 19.8
-14 5 0 169.08 23.9
-9 14 0 172.38 11.4
-9 14 0 137.99 11.3
14 -5 0 171.98 23.2
6 8 0 627.24 40.6
-14 6 0 623.04 42
14 -6 0 653.13 41.3
-6 -8 0 638.94 38.8
-8 14 0 627.74 29.4
-8 14 0 599.74 29.5
-14 7 0 178.58 22.2
7 7 0 157.38 22.1
-7 -7 0 152.68 20.4
14 -7 0 205.88 21.4
-14 8 0 662.93 42.9
8 6 0 686.63 44.4
14 -8 0 714.23 45
-8 -6 0 654.93 42.8
9 5 0 157.78 22.9
-14 9 0 194.88 21.4
-5 14 0 151.68 10.8
-9 -5 0 144.19 21.4
14 -9 0 178.88 18.4
10 4 0 820.32 52.99
-14 10 0 853.71 50.09
-10 -4 0 822.02 51.89
-4 14 0 881.11 41.6
14 -10 0 893.21 46.3
11 3 0 413.06 33.8
-14 11 0 423.96 30.2
14 -11 0 414.36 25.3
-3 14 0 391.46 23.6
-11 -3 0 362.96 33.1
-14 12 0 631.74 38
12 2 0 598.14 43
-12 -2 0 556.34 42.2
14 -12 0 601.94 31.2
14 -12 0 563.44 30.2
-2 14 0 593.84 33.1
-14 13 0 157.18 17.8
13 1 0 163.38 25.4
-13 -1 0 156.68 24.7
-1 14 0 156.08 16.3
14 0 0 361.96 34
-14 14 0 405.46 28.7
-14 0 0 448.76 36.8
0 14 0 407.46 28.3
-15 1 0 28.4 16.6
1 14 0 28.5 11.2
15 -1 0 73.89 19
-14 15 0 62.69 12.5
-15 2 0 70.39 19.6
2 13 0 104.99 17.2
15 -2 0 60.89 18.4
-13 15 0 90.99 13.7
-15 3 0 44.6 16.8
3 12 0 45.7 12.6
15 -3 0 55.09 16.7
-12 15 0 51.49 9.7
-3 -12 0 28.8 12.1
-15 4 0 77.99 19.9
4 11 0 83.29 16.8
15 -4 0 82.69 19.7
-11 15 0 85.99 11.4
5 10 0 147.49 21.5
-15 5 0 119.69 21.2
15 -5 0 161.18 23.6
-10 15 0 146.09 16.9
-10 15 0 159.58 12.5
6 9 0 57.39 15.4
-15 6 0 74.19 18
-9 15 0 82.99 8.3
15 -6 0 96.99 18.5
-9 15 0 82.49 8.8
7 8 0 98.49 18.4
-15 7 0 103.79 20.2
-8 15 0 86.69 7.5
-7 -8 0 74.29 16.4
-8 15 0 81.29 7.9
15 -7 0 117.69 18.6
-15 8 0 81.99 17.7
8 7 0 89.89 18.9
-8 -7 0 107.89 18.3
15 -8 0 110.09 18.3
-15 9 0 66.89 16.1
9 6 0 86.69 18.2
-6 15 0 76.99 7.5
15 -9 0 87.69 15.5
-9 -6 0 84.39 18.2
-15 10 0 136.69 21.1
10 5 0 153.98 24.5
-5 15 0 153.68 11.7
-10 -5 0 199.48 26.2
15 -10 0 136.49 17.6
-15 11 0 86.69 17.5
11 4 0 80.69 20
-4 15 0 76.69 10.1
15 -11 0 76.89 12.6
-11 -4 0 83.79 19.3
-15 12 0 29.9 12.2
12 3 0 57.89 16.8
-12 -3 0 30.1 16.3
15 -12 0 27.8 8.7
-3 15 0 25.3 7.6
15 -12 0 25.7 8.4
-15 13 0 72.99 15.4
13 2 0 78.79 20
-2 15 0 105.89 13.7
-13 -2 0 72.19 31.8
15 -13 0 72.39 8.8
14 1 0 31.9 15.7
-15 14 0 59.09 13.5
-1 15 0 49.7 11.6
-14 -1 0 53.49 18.1
15 0 0 182.58 28.1
-15 15 0 120.99 18.3
-15 0 0 168.58 27.9
-16 1 0 90.49 22.6
1 15 0 138.19 19.2
-15 16 0 149.39 18.2
16 -1 0 127.69 24.1
2 14 0 446.76 32.8
-16 2 0 453.85 39.8
16 -2 0 505.05 40.2
-14 16 0 442.96 29.8
3 13 0 343.87 28.3
-16 3 0 317.87 32.7
16 -3 0 380.76 34.5
-3 -13 0 336.17 27
-13 16 0 333.67 23.8
-16 4 0 737.23 50.29
4 12 0 768.12 46.3
-12 16 0 712.83 38.5
16 -4 0 682.63 48.7
-4 -12 0 696.43 43.4
-16 5 0 251.67 28.4
5 11 0 228.58 24.3
-11 16 0 268.77 18
16 -5 0 239.98 27.5
-11 16 0 240.58 16.9
6 10 0 672.23 43
-10 16 0 605.44 31.1
16 -6 0 595.64 42.8
7 9 0 189.08 23.8
-16 7 0 186.68 26.6
-9 16 0 202.08 13.2
-7 -9 0 204.58 23.7
16 -7 0 218.18 24.3
-9 16 0 218.98 14.1
-16 8 0 670.83 45.9
8 8 0 727.03 46.9
-8 16 0 668.73 31.9
16 -8 0 642.94 43
-8 -8 0 658.33 43.6
-16 9 0 203.58 24.5
9 7 0 232.68 25.9
16 -9 0 213.38 22.5
-7 16 0 191.78 12.4
-9 -7 0 190.48 25.4
-16 10 0 616.84 43.1
10 6 0 692.13 46.4
-6 16 0 647.64 32.1
16 -10 0 627.64 40.2
-10 -6 0 669.53 45.5
-16 11 0 201.38 24.8
11 5 0 252.97 28.7
-5 16 0 275.97 17.5
-11 -5 0 292.87 30.4
16 -11 0 305.77 23.6
12 4 0 753.12 49.99
-16 12 0 707.23 45.2
-12 -4 0 683.03 53.39
-4 16 0 691.13 36.8
16 -12 0 675.13 38.9
13 3 0 354.56 33.7
-16 13 0 342.17 28.7
-13 -3 0 313.57 33.7
-3 16 0 330.87 22.7
16 -13 0 308.57 21
16 -13 0 339.47 21.7
-16 14 0 484.65 33.9
14 2 0 432.26 38.7
-14 -2 0 423.86 38.7
-2 16 0 457.45 29.1
15 1 0 141.39 25.2
-16 15 0 176.18 21.6
-1 16 0 145.19 19
-15 -1 0 175.88 29
-16 16 0 460.75 32.2
16 0 0 389.86 37.4
-16 0 0 344.07 37.6
0 16 0 417.56 30.1
1 16 0 99.89 18.3
-17 1 0 113.49 25.5
-16 17 0 105.29 17.7
17 -1 0 99.99 22.7
2 15 0 57.99 15.7
-17 2 0 80.19 22.6
17 -2 0 76.39 20.8
-15 17 0 97.99 15.6
3 14 0 89.29 17.2
-17 3 0 91.19 22.6
-3 -14 0 70.59 15.3
-14 17 0 78.69 14
17 -3 0 101.69 22.7
-17 4 0 38.7 17.8
4 13 0 56.09 15
17 -4 0 42.4 16.2
-4 -13 0 14.1 13.1
-13 17 0 43.1 10.1
5 12 0 122.09 20.2
-17 5 0 156.68 27
-12 17 0 102.69 13.3
-5 -12 0 131.89 21.1
17 -5 0 116.49 22.3
-17 6 0 34.7 17
6 11 0 55.99 16.7
17 -6 0 25.9 13.9
-11 17 0 37.9 8.9
-11 17 0 40.3 8.3
7 10 0 83.09 18.4
-17 7 0 89.79 20.6
17 -7 0 102.79 19
-10 17 0 74.69 9.2
-17 8 0 120.79 25.9
8 9 0 109.29 21
-9 17 0 79.69 8.9
-8 -9 0 100.09 19.7
17 -8 0 142.79 21.8
-17 9 0 108.09 27.1
9 8 0 93.29 20.4
-9 -8 0 109.89 20.5
17 -9 0 128.29 19.9
-8 17 0 87.49 8.7
10 7 0 89.89 19.7
-17 10 0 90.99 19.3
-10 -7 0 108.69 21.2
-7 17 0 77.89 8.8
17 -10 0 91.79 17.1
11 6 0 46.6 16.6
-17 11 0 17.3 13.9
-6 17 0 36.9 7.1
-11 -6 0 35 17.1
17 -11 0 18.2 10.9
12 5 0 134.59 25.1
-17 12 0 137.39 22.2
17 -12 0 139.29 17.7
-5 17 0 128.79 12.7
-12 -5 0 153.48 28.7
13 4 0 30.9 15.3
-17 13 0 44.6 15
-13 -4 0 52.29 18.3
-4 17 0 39.7 9.3
17 -13 0 45.2 10.7
17 -13 0 37.1 10
14 3 0 85.59 20.6
-17 14 0 85.09 17.8
-3 17 0 71.79 12.4
17 -14 0 108.49 10.9
17 -14 0 66.99 10
-14 -3 0 89.69 23.6
-17 15 0 50.59 15.9
15 2 0 92.79 22.1
-2 17 0 69.09 13.6
-15 -2 0 44.8 19.9
-17 16 0 111.49 19.2
16 1 0 50.99 19.3
-16 -1 0 115.69 25.5
-1 17 0 114.19 17
-17 17 0 26.9 13.4
17 0 0 28.2 17.3
-17 0 0 11.4 16
0 17 0 22.1 11.5
-18 1 0 265.07 33.5
1 17 0 137.59 21.2
18 -1 0 185.98 30.9
-17 18 0 175.38 23.3
2 16 0 420.96 32.5
-18 2 0 365.66 38.6
18 -2 0 366.46 37.6
-16 18 0 359.46 29.6
-18 3 0 239.38 33.4
3 15 0 211.88 24.9
18 -3 0 211.78 32.6
-15 18 0 176.18 20.7
4 14 0 586.24 40.8
-18 4 0 579.24 46.4
-14 18 0 601.64 35
-4 -14 0 499.35 37.1
18 -4 0 546.35 44.8
-18 5 0 320.77 34.8
5 13 0 355.16 31.1
-13 18 0 297.27 23.2
18 -5 0 431.76 37.3
-5 -13 0 312.67 29.3
6 12 0 748.33 50.19
-18 6 0 742.33 53.79
18 -6 0 850.71 54.19
-12 18 0 758.82 40.4
-18 7 0 321.37 34.3
7 11 0 396.16 33.8
-11 18 0 327.07 20.8
-11 18 0 372.86 22.3
18 -7 0 366.46 33.1
-18 8 0 707.93 50.29
8 10 0 739.53 49.7
18 -8 0 790.72 49.2
-10 18 0 661.93 35.1
-18 9 0 249.88 29.4
9 9 0 266.37 29.4
-9 -9 0 294.47 29.5
18 -9 0 338.57 29.2
-9 18 0 243.28 16.2
10 8 0 737.23 51.09
-18 10 0 705.13 49.8
-10 -8 0 758.72 48.9
18 -10 0 764.52 47.6
-8 18 0 713.53 35.9
-18 11 0 359.56 43.5
11 7 0 342.07 34
-7 18 0 367.56 20.9
18 -11 0 364.96 29.3
-11 -7 0 314.87 37
12 6 0 788.22 53.59
-18 12 0 749.23 61.09
-6 18 0 733.83 38
18 -12 0 711.23 44
-12 -6 0 746.03 52.49
-18 13 0 337.87 31.6
13 5 0 327.17 33.9
-13 -5 0 323.37 36.1
-5 18 0 351.66 22.2
18 -13 0 285.97 24.4
14 4 0 583.94 45.9
-18 14 0 567.34 41.5
18 -14 0 558.04 31.9
-14 -4 0 518.45 45.7
18 -14 0 549.45 31.9
-4 18 0 565.84 33.1
15 3 0 199.98 31.3
-18 15 0 184.98 24.8
-3 18 0 217.38 19.7
-15 -3 0 181.88 30.2
16 2 0 310.27 36.6
-18 16 0 407.06 33.4
-16 -2 0 377.46 38.9
-2 18 0 378.56 33.4
-18 17 0 165.98 24.3
17 1 0 127.79 27.5
-1 18 0 151.58 19.3
-17 -1 0 220.38 32.2
18 0 0 310.17 35.2
-18 18 0 267.07 28.1
-18 0 0 319.47 41.8
0 18 0 264.27 25.7
-19 1 0 105.09 25.7
1 18 0 70.79 17.2
-18 19 0 59.49 16.9
19 -1 0 62.49 24.6
2 17 0 16.3 12.3
-17 19 0 20.2 12.5
19 -2 0 13.4 16.4
3 16 0 59.49 16.8
-16 19 0 74.79 15.2
19 -3 0 83.99 22.9
4 15 0 58.89 17.9
-19 4 0 92.19 24.2
19 -4 0 99.09 23.8
-4 -15 0 100.69 18.3
-15 19 0 82.59 14.8
5 14 0 90.89 20.2
-19 5 0 78.79 22.9
-14 19 0 112.29 15.3
-5 -14 0 109.49 20.3
19 -5 0 95.99 22.2
6 13 0 7 13.1
-19 6 0 0.6 15.1
-6 -13 0 26.8 14.3
-13 19 0 17.6 9
19 -6 0 11.9 14.2
-19 7 0 111.59 25.3
7 12 0 73.89 19.6
19 -7 0 98.89 22.1
-12 19 0 62.19 10.3
8 11 0 21.3 14.9
-19 8 0 49.2 19.2
19 -8 0 47 16.5
-11 19 0 42.3 8.1
9 10 0 67.69 19
-19 9 0 68.19 20.5
19 -9 0 108.39 20.9
-10 19 0 74.59 9.6
10 9 0 51.49 19
-19 10 0 98.89 22.8
-9 19 0 74.09 9.6
-10 -9 0 68.79 19.6
19 -10 0 83.09 17.8
11 8 0 39.4 17
-19 11 0 33.7 17.5
19 -11 0 38.5 14.4
-8 19 0 46.3 7.9
12 7 0 106.79 24.8
-19 12 0 102.09 22.1
-7 19 0 90.29 11.1
19 -12 0 91.09 17
-12 -7 0 82.49 21.1
13 6 0 17.4 15.4
-19 13 0 10.7 14.9
-13 -6 0 12 17.3
19 -13 0 -3.6 11.5
-6 19 0 15.6 7.3
-19 14 0 70.39 21.2
14 5 0 86.99 22.5
19 -14 0 78.79 13.6
19 -14 0 89.79 13.7
-14 -5 0 166.28 28.5
-5 19 0 102.69 13.3
15 4 0 50.89 20.6
19 -15 0 86.69 11.3
-15 -4 0 97.39 24.2
19 -15 0 79.49 11.8
-4 19 0 93.29 14
16 3 0 72.59 22.6
-19 16 0 65.49 17.8
-16 -3 0 53.29 21.9
17 2 0 10.9 16
-19 17 0 8.2 13.7
-17 -2 0 -22.6 14.1
-2 19 0 19.7 10.8
-19 18 0 25.1 16
-18 -1 0 46 21.7
-1 19 0 63.59 14.4
-19 19 0 -6.5 12.6
19 0 0 11 15.3
-19 0 0 30.7 17.6
0 19 0 14.2 11.8
1 19 0 176.48 22.9
20 -1 0 124.19 27.3
-19 20 0 145.59 23.9
2 18 0 382.56 32.2
20 -2 0 322.57 46
-18 20 0 266.77 29
3 17 0 257.77 27.6
-17 20 0 282.87 26.4
20 -3 0 228.48 35.3
4 16 0 408.56 36.4
-16 20 0 453.25 32.3
20 -4 0 474.95 42.8
-20 5 0 211.88 34
5 15 0 202.48 26.7
-15 20 0 217.68 21.8
-5 -15 0 234.48 26.3
20 -5 0 244.38 31
6 14 0 507.35 40.6
-20 6 0 570.04 46.5
-14 20 0 511.55 31.8
20 -6 0 529.55 43.6
-6 -14 0 418.16 36.9
7 13 0 306.77 31.8
-20 7 0 330.87 36.1
20 -7 0 327.37 34
-7 -13 0 310.87 32.2
-20 8 0 599.64 47.8
8 12 0 549.05 44
20 -8 0 632.74 45.9
-12 20 0 569.54 31.6
9 11 0 336.27 34
-20 9 0 413.06 39.5
-11 20 0 342.87 21.4
20 -9 0 369.66 34.2
-20 10 0 535.55 45
10 10 0 538.25 44.7
20 -10 0 638.74 43.7
-10 20 0 564.34 30.1
11 9 0 356.16 36
-20 11 0 327.17 35.5
-11 -9 0 355.46 37.6
-9 20 0 359.96 21.5
20 -11 0 412.76 33.1
-20 12 0 583.74 45.5
12 8 0 590.74 46.9
-12 -8 0 524.15 43.9
20 -12 0 609.44 41
-8 20 0 583.24 31.3
-20 13 0 302.17 32.8
13 7 0 345.67 35.9
20 -13 0 302.37 27.4
-13 -7 0 302.97 35.6
-7 20 0 318.07 21.3
14 6 0 443.76 42.3
-20 14 0 464.75 41
20 -14 0 494.75 32.4
-6 20 0 487.15 29.2
-14 -6 0 498.65 43.7
-20 15 0 214.38 30.2
15 5 0 200.88 32.5
-15 -5 0 220.38 33.1
20 -15 0 214.88 19.6
-5 20 0 211.98 19
20 -15 0 247.88 19.4
-20 16 0 469.85 38.9
16 4 0 491.15 72.79
-4 20 0 453.35 36.7
-16 -4 0 440.06 44.5
17 3 0 301.27 44.4
-20 17 0 265.87 30.8
-17 -3 0 280.67 36.7
-3 20 0 255.97 23.5
18 2 0 324.57 38.1
-20 18 0 349.47 51.99
-2 20 0 333.57 27.4
-18 -2 0 304.37 38.6
19 1 0 116.19 26
-1 20 0 115.09 19.4
-20 20 0 242.28 37.7
20 0 0 173.78 31.8
0 20 0 187.68 23.4
1 20 0 87.39 19.3
-20 21 0 99.29 21.1
21 -1 0 85.39 25
2 19 0 30.3 15.4
21 -2 0 0.4 15.9
-19 21 0 12.6 13.5
3 18 0 100.39 21.2
-18 21 0 90.49 18.2
21 -3 0 116.69 26.3
4 17 0 14 13.5
-17 21 0 38.4 13.3
5 16 0 79.39 20.7
-16 21 0 131.19 18.3
21 -5 0 163.18 28.8
-5 -16 0 90.79 20.8
6 15 0 24.9 15
-21 6 0 38.3 20
-6 -15 0 25.2 15.6
21 -6 0 3.5 15.3
7 14 0 83.59 20.8
-21 7 0 132.59 27
21 -7 0 103.79 24
-7 -14 0 129.39 24.7
8 13 0 16.4 13.7
-21 8 0 44.5 19.1
-13 21 0 19.7 11.9
21 -8 0 -13.4 12.4
-13 21 0 5.3 8
-8 -13 0 19.8 14.8
9 12 0 50.29 19.2
-21 9 0 64.49 21.4
-12 21 0 72.89 10.5
21 -9 0 59.69 19
10 11 0 10 15.8
-21 10 0 10.4 17.5
-11 21 0 27 7.7
21 -10 0 12.7 15.2
-21 11 0 2.6 14.9
11 10 0 17.8 15.7
21 -11 0 39 16.2
-10 21 0 39.1 8
12 9 0 61.79 20.3
-21 12 0 62.29 21.6
-9 21 0 67.79 10.2
21 -12 0 72.69 17
-21 13 0 -16.1 14.2
13 8 0 16.1 15.3
-13 -8 0 6.8 17.7
-8 21 0 24.1 7.5
21 -13 0 6 11.1
14 7 0 111.29 26.8
-21 14 0 97.59 23.4
-7 21 0 87.89 12.9
21 -14 0 103.39 17.1
-14 -7 0 150.68 27.9
-21 15 0 63.49 20.8
-6 21 0 33.3 10
21 -15 0 22.6 16.1
-15 -6 0 36.7 20.4
21 -15 0 26.6 11.7
-21 16 0 91.29 22.8
16 5 0 88.49 25.7
-5 21 0 98.19 16.1
21 -16 0 111.69 14.4
-16 -5 0 138.39 28.8
21 -16 0 109.19 13.3
17 4 0 -15.8 14.4
-21 17 0 -8.9 14.6
-17 -4 0 45 21.6
-4 21 0 0.6 8.5
18 3 0 122.99 27.2
-21 18 0 42.8 20
-3 21 0 81.79 15.2
-18 -3 0 116.79 27.7
-21 19 0 29.8 17.2
19 2 0 0.7 15.1
-2 21 0 10.7 10.7
-21 20 0 133.89 23.7
20 1 0 68.59 23.4
-1 21 0 72.19 16.8
21 0 0 -1.7 16.7
-21 21 0 13.2 15.7
0 21 0 -2.2 10.5
-21 0 0 27.2 23.5
1 21 0 137.09 23.9
-22 1 0 175.78 35.5
-21 22 0 167.78 26.6
22 -1 0 139.59 31.2
2 20 0 259.07 29.8
-22 2 0 267.57 41.9
22 -2 0 314.47 44
-20 22 0 311.67 31
3 19 0 198.88 28.4
-19 22 0 159.08 23.7
22 -3 0 164.28 32.2
4 18 0 348.27 35
22 -4 0 369.86 40.5
-18 22 0 381.36 31.6
5 17 0 239.78 29.6
22 -5 0 219.98 35.4
-5 -17 0 225.68 26.5
-17 22 0 272.07 25.5
-22 6 0 324.97 41.6
6 16 0 342.37 34.9
-6 -16 0 310.17 32.2
22 -6 0 397.16 44
7 15 0 212.58 28.4
-22 7 0 264.37 39.2
-7 -15 0 225.38 29.7
22 -7 0 228.18 33.9
-22 8 0 498.45 46.7
8 14 0 543.25 43.3
22 -8 0 526.25 43.1
-14 22 0 385.16 34.2
-8 -14 0 457.05 39.7
9 13 0 385.56 37
-22 9 0 353.36 39.8
22 -9 0 341.47 36.3
-13 22 0 325.57 22.2
-9 -13 0 260.77 33.1
-13 22 0 315.17 26.6
10 12 0 504.65 44.1
-22 10 0 604.84 49
22 -10 0 579.24 44.3
-12 22 0 499.65 29.8
-22 11 0 362.36 39.3
11 11 0 433.36 40
-11 22 0 372.26 23.7
22 -11 0 434.26 36.5
12 10 0 591.54 51.69
-22 12 0 586.44 47.7
22 -12 0 505.25 40.2
-10 22 0 509.35 29.8
-22 13 0 338.67 37.3
22 -13 0 394.56 32.5
-9 22 0 350.56 23.3
-22 14 0 562.74 46.7
14 8 0 506.95 45.8
22 -14 0 510.25 36.6
-8 22 0 475.15 29.4
-14 -8 0 472.45 44.9
-22 15 0 256.17 35.6
15 7 0 170.08 31.5
-15 -7 0 251.37 35.4
22 -15 0 239.68 23.4
-7 22 0 211.28 19.3
22 -15 0 256.67 23.3
16 6 0 318.37 38.4
-22 16 0 255.17 35.3
22 -16 0 392.66 25.4
-16 -6 0 338.17 40.1
-6 22 0 329.87 25.6
22 -16 0 357.86 24.9
17 5 0 249.68 38.9
-22 17 0 272.77 32.8
-5 22 0 186.28 20.7
-17 -5 0 268.37 38.7
-22 18 0 380.96 37.8
18 4 0 331.27 45.2
-4 22 0 325.57 27.2
19 3 0 118.79 28.9
-22 19 0 123.79 25.5
-3 22 0 163.08 20.8
-22 20 0 372.66 36.6
20 2 0 310.17 39.8
-2 22 0 306.67 28.3
21 1 0 136.19 31.4
-22 21 0 138.19 26.4
-21 -1 0 196.28 36.7
-1 22 0 101.49 20.5
-22 22 0 236.38 33.1
22 0 0 256.17 40.7
0 22 0 218.88 26.9
-22 0 0 293.97 44.3
-23 1 0 88.09 35.3
1 22 0 102.29 22.1
23 -1 0 104.59 29.5
-22 23 0 106.99 23.7
2 21 0 20.6 14.3
-23 2 0 51.89 25
-21 23 0 10.7 16.1
23 -2 0 22.1 18.1
3 20 0 71.19 19.7
-23 3 0 106.39 29.7
-20 23 0 85.79 20.4
23 -3 0 90.89 26.1
4 19 0 11.9 15.2
23 -4 0 16.1 18.2
5 18 0 113.39 23.8
23 -5 0 65.39 23.1
-23 6 0 6.7 20.9
6 17 0 9 13
-6 -17 0 12.6 16.8
23 -6 0 32.4 18.5
7 16 0 60.79 20.5
-23 7 0 55.69 39.5
-7 -16 0 8.3 16
-23 8 0 24.1 20.1
8 15 0 41 17.5
-8 -15 0 38.9 16.9
23 -8 0 26.1 17.7
-15 23 0 7.3 13
-23 9 0 62.49 24.8
9 14 0 72.99 21.8
23 -9 0 52.29 20
-9 -14 0 27.1 17
10 13 0 4.6 17.6
-23 10 0 8.6 18.5
-10 -13 0 -4.1 14
23 -10 0 30.5 16.9
-13 23 0 -1.5 7.5
-23 11 0 7.1 17.9
23 -11 0 40.5 16.1
-12 23 0 18.1 8.2
12 11 0 39.8 19.2
-23 12 0 50.99 22.1
23 -12 0 36.7 15.6
-11 23 0 20 8.3
-23 13 0 0.4 17.7
13 10 0 18.7 17.2
-10 23 0 21.2 8
23 -13 0 9 12.5
-23 14 0 95.49 24.2
14 9 0 109.99 27.4
-9 23 0 71.89 12.4
23 -14 0 61.69 16.5
15 8 0 21.6 17.9
-23 15 0 54.09 20.4
23 -15 0 14.2 12.2
-8 23 0 34.3 10.2
-23 16 0 39.4 19.9
16 7 0 81.39 24.2
23 -16 0 38.6 12.9
-16 -7 0 73.19 25.3
-7 23 0 61.09 12.5
-23 17 0 21.6 18.5
17 6 0 7.2 15.3
23 -17 0 11.6 9
-17 -6 0 47.2 20.6
-6 23 0 -2.8 8.5
23 -17 0 11.2 8.1
-23 18 0 88.29 24.6
18 5 0 66.19 22.8
-5 23 0 60.39 15.2
-23 19 0 -17.9 14.9
19 4 0 -10.1 17.2
-19 -4 0 57.29 33.3
-4 23 0 26.1 11.7
20 3 0 53.59 23.7
-23 20 0 45.3 21.9
-20 -3 0 103.89 31.2
-3 23 0 114.29 18.7
-23 21 0 14.7 17.6
21 2 0 -0.3 16.6
-2 23 0 7.2 12.2
-21 -2 0 43.1 24.9
22 1 0 56.39 22.5
-23 22 0 82.09 23.7
-1 23 0 98.29 20.6
-22 -1 0 89.39 33
23 0 0 24.5 18.6
-23 23 0 40.6 20.5
0 23 0 -15.3 12.3
1 23 0 91.39 21.7
24 -1 0 99.79 28.1
-23 24 0 71.79 23.5
2 22 0 199.68 29.6
24 -2 0 157.38 31.7
3 21 0 92.99 21
24 -3 0 157.88 31.2
4 20 0 214.68 31.9
-24 4 0 257.27 48.7
24 -4 0 217.38 37.6
-24 5 0 132.59 33.2
5 19 0 146.09 26
24 -5 0 81.89 25.7
-24 6 0 232.28 42.3
6 18 0 246.78 35.1
24 -6 0 244.58 38.5
7 17 0 150.78 39.6
-24 7 0 137.09 32.6
-17 24 0 172.48 26.8
24 -7 0 130.69 29
-7 -17 0 150.38 27.1
-24 8 0 280.37 41.9
-8 -16 0 264.07 34.7
24 -8 0 167.98 32
-16 24 0 244.28 31.3
-24 9 0 136.89 37.4
9 15 0 166.58 33
24 -9 0 174.18 35
-9 -15 0 213.48 31.8
10 14 0 310.97 36.6
-10 -14 0 280.97 38.2
24 -10 0 253.87 33.8
11 13 0 294.77 35.6
-24 11 0 277.87 41.5
-11 -13 0 218.98 53.69
24 -11 0 285.07 33.4
-13 24 0 237.68 19.6
-24 12 0 356.76 43.1
12 12 0 420.16 41.6
24 -12 0 275.47 34.3
-12 24 0 349.17 23.1
-24 13 0 237.78 36.6
13 11 0 227.78 35.1
24 -13 0 240.98 28.7
-11 24 0 241.08 18.9
14 10 0 296.47 42
-24 14 0 298.57 41.1
24 -14 0 341.77 31.5
-10 24 0 261.17 21.1
-24 15 0 129.49 29.1
15 9 0 147.69 30.7
24 -15 0 213.28 23.8
-9 24 0 164.88 17
16 8 0 179.98 33.2
-24 16 0 294.17 40.2
-8 24 0 232.78 20.5
24 -16 0 219.78 23.3
24 -16 0 199.38 22.6
17 7 0 136.79 30.2
-24 17 0 179.08 32.1
-7 24 0 162.18 21.4
24 -17 0 178.58 19.1
24 -17 0 164.28 19
18 6 0 160.08 32.6
-24 18 0 241.78 35.6
-6 24 0 210.28 20.8
19 5 0 66.99 24.5
-24 19 0 157.38 28.4
-19 -5 0 115.69 35.4
-5 24 0 109.49 17.7
-24 20 0 212.78 33.5
20 4 0 196.78 35.2
-20 -4 0 329.37 45.2
-4 24 0 210.18 24.4
21 3 0 137.29 29.8
-24 21 0 146.79 28.5
-3 24 0 113.19 20.8
-21 -3 0 98.29 31.2
-24 22 0 219.28 35.8
22 2 0 206.18 36.6
-22 -2 0 351.06 79.29
-2 24 0 231.08 27.1
-24 23 0 92.49 25.3
23 1 0 66.49 24.9
-1 24 0 125.79 22.6
24 0 0 84.89 26.4
-24 24 0 132.69 28.7
0 24 0 122.19 24.2
1 24 0 56.29 23.2
25 -1 0 77.99 28.2
2 23 0 48.5 22.9
25 -2 0 13.6 19.9
25 -3 0 53.79 24.5
25 -4 0 7.9 20.1
5 20 0 28.3 24.9
25 -5 0 52.09 24.2
6 19 0 -4.6 13.9
-19 25 0 -11.9 13.6
25 -6 0 -3.6 17.1
7 18 0 37.3 18.5
-25 7 0 53.09 26.2
-18 25 0 -3.9 15.9
-7 -18 0 22.2 17.6
25 -7 0 25.1 20.4
-25 8 0 39.2 22.8
8 17 0 4.7 14.5
-8 -17 0 7.8 17.4
-17 25 0 10.1 13.5
-17 25 0 -6.5 11.7
25 -8 0 5.1 17.5
-25 9 0 18.2 24.2
9 16 0 -7.8 16.6
-9 -16 0 46.9 21.1
25 -9 0 11.8 17.5
-16 25 0 31.8 13.6
10 15 0 1.9 13.9
-25 10 0 8.2 21.9
-10 -15 0 22.5 18.7
-25 11 0 26.8 21.6
11 14 0 36.7 19.1
-11 -14 0 30.6 18.8
-14 25 0 16.7 9.9
25 -11 0 35.6 19.1
12 13 0 12.6 16.5
-25 12 0 15.1 22
-13 25 0 -2.8 7.5
25 -12 0 11.6 15.3
-12 -13 0 19.8 17.2
-25 13 0 -8.1 31.6
13 12 0 24 18.5
-12 25 0 15.5 8.4
25 -13 0 22.9 16.2
14 11 0 15.7 17.4
-11 25 0 30.5 10
25 -14 0 52.19 18.3
-25 15 0 13.2 18
15 10 0 -4.5 16.6
25 -15 0 19.8 13.3
-10 25 0 -0.1 8
16 9 0 16.3 18
-25 16 0 -12.8 17.5
-9 25 0 37.5 10.3
25 -16 0 48.5 14.7
25 -16 0 23.1 12.5
-25 17 0 1.8 19.4
17 8 0 23.6 19.1
25 -17 0 10.7 11.3
-8 25 0 9.5 10.8
18 7 0 42.9 20.5
-25 18 0 68.59 24.7
-7 25 0 62.79 13.4
25 -18 0 35 12.1
25 -18 0 43.8 9.1
-25 19 0 21.1 19.3
19 6 0 1.1 18.3
-6 25 0 9.7 10.3
-19 -6 0 26.7 25.1
20 5 0 58.59 24.3
-25 20 0 84.19 25
-5 25 0 87.09 16.2
-20 -5 0 75.89 31.1
-25 21 0 28.4 20.9
21 4 0 -1.4 16.8
-21 -4 0 -6.6 25.4
-4 25 0 11.7 12.5
-25 22 0 58.99 24.8
22 3 0 64.59 24.3
-3 25 0 58.99 16.9
23 2 0 27.3 19.7
-25 23 0 9.7 20
-2 25 0 12 13.9
-25 24 0 62.39 25.6
24 1 0 86.39 30.3
-1 25 0 90.29 20.8
0 25 0 44.8 17.6
1 25 0 36.2 19.7
26 -1 0 62.29 28.9
2 24 0 115.99 26.2
26 -2 0 110.99 33.5
3 23 0 131.29 26.5
26 -3 0 22.4 24.8
4 22 0 109.19 25.4
26 -4 0 122.79 30.1
5 21 0 92.09 23.8
26 -5 0 104.09 29.5
-21 26 0 108.59 26.7
6 20 0 175.58 31.2
-20 26 0 165.08 32.8
26 -6 0 158.28 33
7 19 0 77.09 22.3
26 -7 0 120.19 29.7
-19 26 0 88.99 23.8
8 18 0 137.49 29.2
-18 26 0 173.28 27.2
-8 -18 0 127.79 26.2
-18 26 0 142.19 24.1
26 -8 0 102.09 27.9
9 17 0 125.09 27.9
-17 26 0 130.39 21.4
-17 26 0 104.99 19.9
-9 -17 0 97.69 25.3
26 -9 0 117.99 27.1
-26 10 0 127.49 43.1
10 16 0 182.88 31.9
-10 -16 0 103.49 27
26 -10 0 132.69 29
-26 11 0 199.48 38.6
11 15 0 156.88 31.2
26 -11 0 131.89 28.3
-11 -15 0 130.59 28.5
12 14 0 180.88 34.4
-26 12 0 215.48 40.2
-12 -14 0 227.98 35.1
-14 26 0 204.78 18.9
26 -12 0 171.18 30.4
13 13 0 196.48 35.8
-26 13 0 221.28 37.6
-13 -13 0 157.48 32.6
26 -13 0 165.28 28.4
-13 26 0 203.38 18.6
-26 14 0 245.38 38.7
14 12 0 201.18 36.1
-12 26 0 210.88 19.7
26 -14 0 232.58 30.6
-14 -12 0 171.78 33.2
15 11 0 168.08 32.7
-26 15 0 177.18 34.4
-11 26 0 135.89 16.8
26 -15 0 113.99 21.9
16 10 0 163.18 31.8
-26 16 0 170.88 36.2
-10 26 0 151.18 20.9
26 -16 0 157.88 22.8
17 9 0 73.99 25.4
-26 17 0 194.68 42.6
26 -17 0 103.59 18.8
-9 26 0 118.29 21.1
26 -17 0 158.88 20.5
18 8 0 103.29 27.9
26 -18 0 155.58 18.2
-8 26 0 146.19 18.9
26 -18 0 149.39 19
19 7 0 94.39 25.8
-7 26 0 77.49 16.5
-26 20 0 135.69 36.1
20 6 0 137.19 31.4
-6 26 0 162.08 21
-26 21 0 135.69 31.4
21 5 0 76.59 25.9
-5 26 0 98.09 19.5
-26 22 0 112.39 30.2
22 4 0 71.29 25.3
-4 26 0 158.78 23.8
23 3 0 124.39 42.7
-26 23 0 113.69 29.8
-3 26 0 54.59 18.9
-26 24 0 112.19 32.3
24 2 0 146.19 50.19
-2 26 0 130.79 24.7
25 1 0 38.7 24.5
-1 26 0 64.39 20.7
3 24 0 63.99 21.5
-24 27 0 38.7 22.8
4 23 0 -15.4 16.6
27 -4 0 -16.9 20.3
-23 27 0 17.6 19.1
5 22 0 65.59 22.1
-22 27 0 8.6 19.4
27 -5 0 40.6 25.3
6 21 0 -20.9 14.9
27 -6 0 46.6 23.4
-21 27 0 8.1 20.8
7 20 0 37.5 19.4
-20 27 0 41.9 16.6
-20 27 0 14.3 18.3
27 -7 0 6.5 19.6
8 19 0 -13.3 16.3
-8 -19 0 -6.8 17.5
-19 27 0 -0.1 13.2
27 -8 0 16.9 19.5
-19 27 0 20.1 16.5
9 18 0 69.39 23.9
-9 -18 0 15.9 19.6
-18 27 0 25.8 16.5
27 -9 0 22 21.3
10 17 0 3.1 17.4
-10 -17 0 -44.6 15.8
27 -10 0 -10 16.9
11 16 0 31.3 19.1
-11 -16 0 20.3 21.5
27 -11 0 -10 16
12 15 0 27.6 19.7
27 -12 0 46 19.5
-12 -15 0 31.1 22.1
13 14 0 20.9 17.9
-13 -14 0 40.4 20.7
-14 27 0 25 10.2
27 -13 0 22.2 17.9
14 13 0 38.5 20.8
-27 14 0 22.4 24.1
-13 27 0 22.1 9.6
-14 -13 0 25.3 21.3
27 -14 0 0.4 15.4
-27 15 0 42.4 23.9
15 12 0 28.5 18.6
-15 -12 0 1.4 20.9
27 -15 0 -0.4 14.2
-12 27 0 15.3 9.6
-27 16 0 16.7 24
16 11 0 4.9 17.3
27 -16 0 7.5 13.6
-27 17 0 45.8 24.8
17 10 0 -13.8 14.8
27 -17 0 4.4 13.2
-10 27 0 1.6 9.3
27 -17 0 -13.6 11.2
-27 18 0 -12.4 22.3
18 9 0 9.7 18.1
-9 27 0 46.9 13.3
27 -18 0 30.4 13.1
-27 19 0 5.9 22.7
19 8 0 8.5 16.8
-8 27 0 16.2 12.3
20 7 0 66.19 25
-27 20 0 59.99 28.5
-7 27 0 53.49 13.3
-27 21 0 36.9 26.3
21 6 0 46.9 26.3
-27 22 0 8.1 26.5
-5 27 0 53.59 16.8
23 4 0 -8.8 16.3
-27 23 0 24.1 25.6
-4 27 0 23.6 15.1
24 3 0 36.4 25.1
-27 24 0 87.59 35.5
-3 27 0 36.8 18.4
5 23 0 75.39 24.2
-23 28 0 40.5 25.2
6 22 0 76.09 24.9
28 -6 0 58.69 28
-22 28 0 51.99 24.3
7 21 0 49.7 22.5
-21 28 0 58.99 24
28 -7 0 62.49 28.3
-21 28 0 126.19 23.5
8 20 0 103.69 25.5
-20 28 0 88.79 25.1
-20 28 0 102.49 21.2
28 -8 0 24.2 22.4
9 19 0 50.59 22.6
-9 -19 0 52.09 22.8
28 -9 0 59.79 25.2
10 18 0 92.59 26.9
28 -10 0 46.7 25.2
-10 -18 0 109.49 27
11 17 0 77.69 24.3
28 -11 0 120.49 27.7
12 16 0 99.29 27.3
-12 -16 0 186.78 33.8
28 -12 0 108.59 26.6
28 -13 0 133.49 28
-13 -15 0 99.09 28.5
14 14 0 97.39 29.1
28 -14 0 123.29 26.7
-14 -14 0 92.59 28.5
15 13 0 88.89 27.2
28 -15 0 95.69 23
-15 -13 0 88.69 29.5
16 12 0 89.69 26.6
28 -16 0 109.19 23
-16 -12 0 51.29 26.9
17 11 0 44.7 22.6
-11 28 0 55.79 14.4
28 -17 0 78.19 18.2
18 10 0 74.19 26.1
-10 28 0 95.39 16.1
28 -18 0 104.69 17
28 -18 0 60.49 15.9
19 9 0 42.6 35.8
28 -19 0 33.8 12.4
-9 28 0 42.3 13.3
28 -19 0 52.79 10.1
20 8 0 107.69 49.1
-28 20 0 131.99 42.5
-8 28 0 92.99 18
21 7 0 26.6 21.4
-28 21 0 113.09 34.6
-7 28 0 84.59 18.5
22 6 0 143.79 34.9
-28 22 0 81.29 33.1
-6 28 0 90.59 19.2
23 5 0 122.79 33
-28 23 0 87.29 30.6
-5 28 0 50.09 18.7
8 21 0 35.4 21.1
29 -8 0 -10.7 22.1
-21 29 0 36.6 21.1
-21 29 0 0.2 15
9 20 0 13.7 18.4
29 -9 0 27.1 22.8
10 19 0 12.5 19.9
29 -10 0 16.5 20.7
-10 -19 0 -22.6 22.4
11 18 0 -16 15.9
29 -11 0 -25.2 17.8
12 17 0 11 18.3
29 -12 0 17.4 19.7
-12 -17 0 48.7 24.1
13 16 0 22.5 19.7
29 -13 0 7.1 21.7
-13 -16 0 45.5 23.4
14 15 0 31.9 20.5
-14 -15 0 -50.09 17.9
29 -14 0 -7.5 18.1
15 14 0 -22.4 16.9
-14 29 0 -8.8 10.5
-15 -14 0 75.59 26.4
29 -15 0 13.9 19
16 13 0 22.3 27
29 -16 0 33.4 18
29 -17 0 13.7 15.9
29 -17 0 -1.9 15.6
18 11 0 -7 20
29 -18 0 3.6 16.8
-11 29 0 3.3 11.9
-18 -11 0 12.4 24.6
29 -18 0 22 13.7
19 10 0 13.6 20
-19 -10 0 -5.5 26.9
29 -19 0 -21.9 14
-10 29 0 -5.5 10.1
29 -19 0 13.8 11.5
20 9 0 44.8 23.7
-9 29 0 7.2 12.8
21 8 0 -8.3 19.3
-8 29 0 -16.7 13
-14 -16 0 44.4 27.3
15 15 0 72.19 31.3
30 -15 0 86.99 25.2
-15 -15 0 93.69 29.4
0 0 -1 6762.82 288.17
0 0 -1 6536.25 286.07
0 0 1 6549.65 286.17
1 -1 -1 472.15 22.9
0 1 -1 398.56 23.1
0 1 -1 512.95 25.5
1 -1 -1 489.15 25.3
-1 0 -1 460.95 25.7
0 -1 1 534.95 25.6
1 0 1 497.15 26
-1 1 1 490.75 25.4
0 -1 1 460.05 23.5
-1 1 1 482.35 23.1
-1 1 -1 501.65 26
-1 1 -1 459.55 23.3
0 -1 -1 509.65 25.9
1 0 -1 497.25 25.2
1 -1 1 472.25 25.6
0 1 1 470.55 25.5
1 -1 1 467.25 23.4
-1 0 1 519.35 25.5
-1 0 1 437.36 23.4
2 -1 -1 400.56 21.2
-1 -1 -1 438.46 24.2
-1 2 -1 407.46 21.2
-1 2 -1 450.45 23.4
1 1 1 427.56 23.9
-2 1 1 374.96 21.1
1 -2 1 445.46 23.4
-2 1 1 401.66 22.7
1 -2 1 447.66 21.5
3 -2 -1 106.39 8.5
-1 3 -1 103.99 10.8
-2 -1 -1 70.29 18.6
-1 3 -1 90.29 8.8
2 1 1 105.59 13.9
-3 2 1 96.49 8.7
1 -3 1 120.89 11.3
1 -3 1 97.29 8.7
2 -2 -1 2696.73 113.19
0 2 -1 2235.68 114.09
0 2 -1 2763.12 115.39
2 -2 -1 2612.04 115.49
-2 2 1 2634.94 115.69
-2 2 1 2702.83 113.49
0 -2 1 2319.47 114.19
0 -2 1 2798.22 115.59
2 0 1 2541.15 116.89
-2 1 -1 399.26 24.3
1 1 -1 432.86 22.7
1 1 -1 389.36 21.8
1 -2 -1 463.25 23.7
-1 -1 1 441.36 23
-1 -1 1 394.76 22.1
-1 2 1 394.16 20.1
2 -1 1 428.06 24.2
-1 2 1 484.15 23.9
2 0 -1 2206.78 111.59
-2 2 -1 2729.33 111.39
0 -2 -1 2614.84 113.39
-2 2 -1 2430.86 113.49
-2 0 1 2358.76 112.49
2 -2 1 2698.43 111.49
-2 0 1 2273.47 113.19
0 2 1 2803.92 113.69
2 -2 1 2580.94 113.69
3 -1 -1 91.09 9.2
-2 3 -1 113.09 8.9
-1 -2 -1 75.39 11.5
-2 3 -1 85.69 11.4
2 -3 1 107.19 8.7
1 2 1 124.19 12.2
2 -3 1 103.69 11.3
-2 4 -1 885.01 41.4
-2 -2 -1 873.61 45.8
4 -2 -1 760.02 41.6
-2 4 -1 904.21 43.2
2 2 1 905.51 45
2 -4 1 851.81 40.9
2 -4 1 930.31 43.2
-4 2 1 902.01 42.8
-3 -2 -1 163.88 17.5
-2 5 -1 125.39 10.8
5 -3 -1 147.29 12.1
-2 5 -1 127.39 13.6
2 -5 1 143.59 13.7
-5 3 1 149.09 12.5
2 -5 1 126.39 10.2
-1 4 -1 162.68 12.6
4 -3 -1 192.08 12.4
-3 -1 -1 186.48 17.8
-1 4 -1 236.68 15
-4 3 1 183.18 12.9
1 -4 1 218.08 15.2
1 -4 1 186.28 12.8
-3 0 -1 590.34 36.1
0 3 -1 586.54 32.6
0 3 -1 686.03 32.9
3 -3 -1 701.83 30.7
-3 3 1 707.53 31.4
0 -3 1 700.63 33.5
3 0 1 661.63 36.3
2 -3 -1 99.69 10.4
-3 1 -1 81.99 12
1 2 -1 86.79 9.1
-2 3 1 94.69 10.8
-2 3 1 103.99 6.5
-1 -2 1 84.69 10.1
3 -1 1 92.29 11.9
2 1 -1 76.39 9.2
-3 2 -1 91.79 15.2
1 -3 -1 87.09 11
-2 -1 1 80.39 9.4
-1 3 1 116.59 11.5
3 -2 1 89.39 11.7
3 -2 1 89.89 15.3
-3 3 -1 705.23 31.9
0 -3 -1 664.43 34.1
3 -3 1 625.14 34
0 3 1 708.83 34.3
3 -3 1 653.23 34.8
-3 0 1 561.24 32.7
-3 4 -1 219.98 13.5
-1 -3 -1 190.88 20.6
-3 4 -1 174.08 17
1 3 1 227.38 17.2
3 -4 1 227.88 13.5
-4 1 1 188.98 14.9
3 -4 1 213.88 16.5
-2 -3 -1 145.99 17.1
5 -2 -1 144.79 13.3
-3 5 -1 154.88 11.4
-3 5 -1 132.09 15.1
2 3 1 150.48 15.5
3 -5 1 152.48 14.3
-5 2 1 150.68 13.3
3 -5 1 133.89 10.6
-3 -3 -1 89.09 14.7
-3 6 -1 76.79 11.8
-3 6 -1 81.39 9.1
6 -3 -1 89.19 11.3
3 -6 1 62.59 7.7
-6 3 1 76.89 10.8
3 -6 1 86.59 11.2
-3 7 -1 27.1 6.6
-4 -3 -1 31.3 11.2
7 -4 -1 33.7 8.4
-3 7 -1 44 8.8
-7 4 1 20.3 7.9
3 -7 1 33.6 5.1
4 3 1 52.79 10.4
6 -4 -1 991.3 47.5
-2 6 -1 982 47.1
-2 6 -1 994.7 47.5
-4 -2 -1 1020.9 53.39
-6 4 1 985.7 48.2
4 2 1 975 49.8
2 -6 1 1015.6 47.5
2 -6 1 961.7 45.9
5 -4 -1 108.09 9.5
-1 5 -1 100.69 10.4
-1 5 -1 122.29 12.2
-4 -1 -1 127.39 17.1
4 1 1 102.99 12.8
1 -5 1 138.99 13.3
1 -5 1 110.69 10.1
4 -4 -1 3599.44 148.19
0 4 -1 2964.9 150.58
-4 0 -1 3505.95 155.88
0 4 -1 3468.55 150.08
0 -4 1 3712.43 150.98
-4 4 1 3423.26 149.19
4 0 1 3225.08 152.18
-4 1 -1 179.48 18.2
1 3 -1 157.48 13.6
-3 4 1 222.18 10.5
-1 -3 1 190.28 14.3
4 -1 1 184.68 15.3
-3 4 1 213.48 15.3
-1 -3 1 164.58 13.8
-4 2 -1 880.71 45.1
2 -4 -1 917.31 41.3
2 2 -1 769.82 41.4
-2 4 1 921.71 42
4 -2 1 790.02 41.5
-2 -2 1 769.32 41.1
3 1 -1 169.88 14.6
1 -4 -1 196.48 15.6
-4 3 -1 169.48 17.5
-3 -1 1 147.49 13.8
4 -3 1 169.88 14.1
-1 4 1 211.28 15.7
4 -3 1 216.78 13.7
-4 4 -1 3309.87 153.18
4 0 -1 3037.3 151.58
0 -4 -1 3690.73 151.98
-4 4 -1 3560.44 149.88
0 4 1 3728.93 151.98
4 -4 1 3037.7 149.88
4 -4 1 3446.96 151.58
-4 5 -1 111.39 13.9
5 -1 -1 105.99 13.2
-4 5 -1 123.79 10.7
-5 1 1 138.89 13.3
4 -5 1 111.19 11.6
1 4 1 103.99 13.5
4 -5 1 107.39 11.2
-4 6 -1 964.6 44.8
6 -2 -1 938.11 47.8
-4 6 -1 794.92 55.49
-2 -4 -1 957.1 49.4
4 -6 1 976.6 44.3
-6 2 1 979.7 48
4 -6 1 942.51 43.8
-3 -4 -1 23.9 10.3
-4 7 -1 60.09 11.9
7 -3 -1 41.7 10.2
-7 3 1 36 9.3
3 4 1 35.1 9.8
4 -7 1 52.29 6.4
8 -4 -1 953.8 50.49
-4 8 -1 989.7 49.3
-4 -4 -1 1027.4 54.69
-4 8 -1 1007.1 47.5
-8 4 1 1010.3 51.49
4 4 1 1015.9 51.49
9 -5 -1 111.49 14.1
-5 -4 -1 114.99 18.1
-4 9 -1 95.19 10.6
-4 9 -1 116.99 13
-9 5 1 103.79 14.2
5 4 1 108.59 14.5
-3 8 -1 535.95 27.9
-3 8 -1 556.04 28.2
8 -5 -1 534.05 29.5
5 3 1 530.35 31.8
3 -8 1 464.55 24.2
-8 5 1 574.14 31
7 -5 -1 183.78 13.9
-2 7 -1 181.58 13.6
-2 7 -1 178.68 14.1
2 -7 1 180.18 11.8
2 -7 1 190.68 14.4
-7 5 1 196.48 15.2
5 2 1 173.48 16.9
-1 6 -1 434.46 22.8
-1 6 -1 417.86 24.1
6 -5 -1 398.46 22.1
5 1 1 434.96 27.2
-6 5 1 440.06 24
1 -6 1 416.76 23.8
1 -6 1 480.15 24.7
0 5 -1 957.7 48.5
5 -5 -1 1078.79 44.6
-5 5 1 985.9 46.3
5 0 1 956 50.49
0 -5 1 916.71 48.6
0 -5 1 1092.69 48.2
1 4 -1 93.59 11.5
5 -1 1 107.49 13.8
-1 -4 1 112.59 11.7
-1 -4 1 125.59 12.5
-4 5 1 131.49 7.8
2 3 -1 159.48 13.9
-2 -3 1 140.59 13.1
5 -2 1 148.59 14.8
-3 5 1 159.18 14.4
3 2 -1 157.98 14.4
2 -5 -1 128.29 13.2
5 -3 1 136.29 13.8
-2 5 1 179.38 15.2
-3 -2 1 137.89 13.4
4 1 -1 124.79 14.5
1 -5 -1 130.69 14.1
-4 -1 1 88.69 11.4
5 -4 1 118.99 11.6
5 -4 1 101.79 11.9
-1 5 1 147.39 14.8
0 -5 -1 1083.19 50.79
-5 5 -1 1016.7 52.69
5 0 -1 984.5 51.29
-5 5 -1 1007.5 48
5 -5 1 881.71 48.1
0 5 1 1089.39 50.49
5 -5 1 1027.7 47.9
-5 0 1 1033.8 51.29
-1 -5 -1 462.15 30.9
6 -1 -1 416.06 26.9
-5 6 -1 459.75 23.8
-5 6 -1 397.06 27.7
5 -6 1 501.85 29.8
-6 1 1 379.66 26.2
5 -6 1 393.86 23.2
1 5 1 460.95 26.6
-2 -5 -1 209.38 20
-5 7 -1 232.98 19
7 -2 -1 160.18 16.8
5 -7 1 185.38 12.3
-7 2 1 176.68 16.8
-5 8 -1 555.24 31.3
8 -3 -1 512.45 31.7
-3 -5 -1 532.25 33.8
-5 8 -1 564.54 27.8
3 5 1 556.74 31
-8 3 1 516.75 31.8
5 -8 1 515.45 24.9
5 -8 1 508.05 24.8
-4 -5 -1 123.99 18.7
9 -4 -1 90.79 13.7
-5 9 -1 94.79 10.2
-5 9 -1 106.69 19.7
4 5 1 103.29 14.1
-9 4 1 114.99 15.3
10 -5 -1 456.75 30.4
-5 10 -1 511.35 30.4
-5 10 -1 492.35 26.6
-5 -5 -1 548.35 35.9
5 5 1 536.05 32.4
-10 5 1 448.16 30.9
11 -6 -1 149.99 16.9
-5 11 -1 132.79 15.1
-5 11 -1 141.39 12.7
-11 6 1 129.49 16.2
10 -6 -1 1429.06 69.39
-4 10 -1 1537.95 66.29
-4 10 -1 1407.06 66.49
6 4 1 1366.66 71.59
-10 6 1 1372.16 70.49
9 -6 -1 18.3 7.4
-3 9 -1 25.3 6.9
6 3 1 18.7 9.1
-9 6 1 19.7 7.9
8 -6 -1 1176.08 55.49
-2 8 -1 1196.68 56.09
-8 6 1 1146.19 56.99
2 -8 1 1239.78 54.39
2 -8 1 1123.29 52.89
6 2 1 1157.68 59.89
-1 7 -1 31 7.5
7 -6 -1 41.6 6
1 -7 1 14.5 7.7
-7 6 1 28 7
1 -7 1 23.4 6.3
6 1 1 19.4 9.1
0 6 -1 1312.97 64.69
-6 6 1 1372.76 62.59
0 -6 1 1278.27 63.39
0 -6 1 1505.75 63.69
6 0 1 1356.86 67.29
-6 1 -1 403.36 27.9
1 5 -1 390.46 25.1
-1 -5 1 392.76 24
-1 -5 1 449.86 24.2
6 -1 1 428.36 27.1
-5 6 1 458.05 20.8
2 4 -1 967.3 49.2
-6 2 -1 999.6 50.89
-2 -4 1 961.9 48.5
6 -2 1 978.6 49.99
-4 6 1 998.2 48.5
-6 3 -1 72.39 12.6
3 3 -1 72.29 11.8
-3 6 1 101.09 12.3
-3 -3 1 86.99 12.3
6 -3 1 79.49 12.1
4 2 -1 1021.8 50.69
2 -6 -1 974.3 47.4
-6 4 -1 940.81 49.6
-4 -2 1 965.7 49.7
-2 6 1 990.9 48.4
6 -4 1 996.6 48.9
1 -6 -1 428.36 25.5
5 1 -1 371.56 26.6
6 -5 1 445.56 23.8
6 -5 1 408.36 24.5
-5 -1 1 409.06 26.6
-1 6 1 453.65 25.8
0 -6 -1 1515.15 67.99
6 0 -1 1363.46 68.39
-6 0 1 1184.08 66.89
6 -6 1 1436.46 63.89
0 6 1 1460.05 66.09
6 -6 1 1330.27 64.49
-6 7 -1 32.2 11.2
-1 -6 -1 38.5 11.2
-6 7 -1 35.7 7.3
7 -1 -1 11.5 9.1
6 -7 1 22.5 6.2
-7 1 1 43 10.7
8 -2 -1 1081.19 60.99
-6 8 -1 1267.17 56.89
-2 -6 -1 1291.67 61.39
-6 8 -1 1268.97 61.49
-8 2 1 1226.38 61.89
6 -8 1 1139.29 54.79
2 6 1 1215.68 58.49
6 -8 1 1179.28 54.49
-3 -6 -1 10.9 9.8
9 -3 -1 21.1 10.3
-6 9 -1 30.7 6.7
-6 9 -1 27.2 9.9
3 6 1 26.8 9.2
-9 3 1 45 10.7
-6 10 -1 1512.05 72.69
-4 -6 -1 1490.15 76.39
10 -4 -1 1394.26 74.39
-6 10 -1 1513.35 69.49
4 6 1 1566.14 74.19
-10 4 1 1522.05 75.69
11 -5 -1 159.48 19.3
-6 11 -1 157.58 13
-5 -6 -1 158.68 21.4
-6 11 -1 118.19 16.4
-11 5 1 142.89 17.4
5 6 1 142.69 17.1
-6 -6 -1 787.02 48.9
-6 12 -1 743.63 38.9
12 -6 -1 781.82 44.7
6 6 1 777.22 45.5
-12 6 1 808.52 46.3
13 -7 -1 120.29 18.1
-6 13 -1 100.49 11.8
-13 7 1 120.59 18.4
7 6 1 113.79 18.3
12 -7 -1 70.19 13
-5 12 -1 93.89 11.2
-12 7 1 71.39 14.3
7 5 1 73.69 14.3
11 -7 -1 123.39 15.2
-4 11 -1 120.79 12.1
7 4 1 128.79 18.4
-11 7 1 136.49 17.5
-3 10 -1 500.85 27.2
10 -7 -1 468.15 27.8
-10 7 1 504.85 30.2
7 3 1 447.26 38.7
9 -7 -1 295.57 17.7
-2 9 -1 277.87 18.4
-9 7 1 307.57 20
7 2 1 295.17 23.4
2 -9 1 240.98 13.5
-1 8 -1 189.08 15
-7 -1 -1 141.49 18.5
8 -7 -1 170.78 11.4
1 -8 1 165.08 12.3
1 -8 1 220.28 14.5
-8 7 1 167.98 14.2
7 1 1 150.08 17.7
0 7 -1 308.47 20.5
-7 0 -1 240.98 22.4
0 -7 1 345.67 19.6
0 -7 1 307.47 18.7
7 0 1 319.37 23.6
-7 1 -1 29.5 11.1
1 6 -1 30.3 8.8
-6 7 1 34.3 5.2
-1 -6 1 22.5 7.5
-1 -6 1 19.1 7
7 -1 1 27 10.1
-7 2 -1 217.68 19.7
2 5 -1 176.48 16.3
-2 -5 1 182.38 15.1
7 -2 1 207.18 18.1
3 4 -1 34.6 9.3
7 -3 1 66.49 11
-4 7 1 37 9.2
-3 -4 1 36.7 9.1
-7 4 -1 22.4 10.2
4 3 -1 21.7 9.2
-3 7 1 33.2 9.8
-4 -3 1 57.49 10.2
7 -4 1 26.8 9.1
2 -7 -1 198.08 16.1
-7 5 -1 231.58 19.2
5 2 -1 202.18 18.5
7 -5 1 203.08 16.5
-2 7 1 219.98 18
-5 -2 1 206.38 18
6 1 -1 26 9.7
-7 6 -1 28.7 9.7
1 -7 -1 34.1 9.5
-1 7 1 32.7 9.3
7 -6 1 23.4 7.7
-6 -1 1 26.8 9.5
7 -6 1 26.4 7
7 0 -1 334.17 25.1
0 -7 -1 337.07 34.1
-7 0 1 336.47 24.8
0 7 1 361.56 22.4
7 -7 1 348.87 19.8
7 -7 1 325.37 20.4
8 -1 -1 177.08 18.7
-7 8 -1 183.18 14.1
-1 -7 -1 182.28 18.8
7 -8 1 164.78 12.7
-8 1 1 197.08 18.9
-7 9 -1 258.27 18.3
-7 9 -1 303.47 23.8
9 -2 -1 283.77 23.9
-2 -7 -1 340.87 24.3
-9 2 1 342.77 24.7
2 7 1 316.27 21.1
7 -9 1 275.47 15.2
7 -9 1 282.57 15.5
-7 10 -1 493.05 31.7
-3 -7 -1 508.45 33.3
-7 10 -1 499.65 27
10 -3 -1 506.25 33.4
3 7 1 490.85 30.2
-10 3 1 444.76 32.1
-4 -7 -1 118.09 18.5
-7 11 -1 123.69 16.6
-7 11 -1 100.69 11.6
-11 4 1 119.79 18.1
4 7 1 113.59 16.2
-7 12 -1 108.39 11.4
-7 12 -1 90.59 14.2
-5 -7 -1 86.39 17
12 -5 -1 76.89 15.6
-12 5 1 69.19 15.2
-7 13 -1 101.29 12
13 -6 -1 126.99 18.8
-6 -7 -1 166.58 23.7
-7 13 -1 116.59 15.9
-13 6 1 117.99 18.7
6 7 1 120.79 18.5
-7 -7 -1 230.08 27.3
14 -7 -1 233.68 23.4
-7 14 -1 233.88 16.9
-14 7 1 251.37 24.3
7 7 1 230.58 23.7
15 -8 -1 81.89 16.4
-7 15 -1 101.29 12.6
8 7 1 108.09 19.6
-15 8 1 105.99 19.1
-6 14 -1 843.42 43.2
-14 8 1 838.92 50.39
8 6 1 872.51 51.59
-5 13 -1 149.69 14.3
13 -8 -1 183.38 18.2
-13 8 1 190.18 19.8
8 5 1 178.18 21.5
-4 12 -1 635.74 34.9
12 -8 -1 645.34 36.9
-12 8 1 686.13 40.1
8 4 1 718.93 42.9
-3 11 -1 106.59 12.2
11 -8 -1 111.89 12.9
-11 8 1 111.59 15.2
8 3 1 126.59 18.3
10 -8 -1 1637.14 77.19
-8 -2 -1 1599.24 84.39
-2 10 -1 1747.23 79.49
-10 8 1 1735.83 80.89
8 2 1 1712.53 85.09
-8 -1 -1 153.48 19.9
9 -8 -1 160.78 10.3
-1 9 -1 155.58 14.5
1 -9 1 137.19 10.8
-9 8 1 121.59 13.2
8 1 1 167.28 21.3
-8 0 -1 1692.33 82.99
0 8 -1 1665.13 78.89
0 -8 1 1623.34 76.19
-8 8 1 1611.34 76.29
0 -8 1 1667.23 75.89
8 0 1 1730.63 83.29
1 7 -1 166.18 15.7
-8 1 -1 136.29 18.4
-1 -7 1 187.18 14.3
8 -1 1 140.09 16.2
-7 8 1 170.18 11.3
-1 -7 1 158.88 13.9
-8 2 -1 972.9 59.29
2 6 -1 1159.88 58.79
8 -2 1 1199.48 60.49
-2 -6 1 1193.68 57.49
-6 8 1 1292.07 51.69
3 5 -1 558.34 32.9
-8 3 -1 554.34 33.8
8 -3 1 505.65 32.5
-3 -5 1 539.15 31.5
-5 8 1 558.24 31
4 4 -1 996.7 52.29
-8 4 -1 962.5 52.19
-4 -4 1 982 51.19
8 -4 1 1006 51.59
-4 8 1 1011 49.2
5 3 -1 550.84 34.1
-8 5 -1 525.35 33.2
8 -5 1 579.84 32.7
-3 8 1 589.14 31.3
-5 -3 1 533.15 33
2 -8 -1 1241.18 56.39
6 2 -1 1246.08 62.39
-8 6 -1 1057.19 59.09
8 -6 1 1205.68 58.79
-2 8 1 1277.67 57.59
-6 -2 1 1116.49 60.59
-8 7 -1 176.78 17.1
1 -8 -1 147.59 15.7
7 1 -1 152.08 18.4
-1 8 1 213.68 15.9
-7 -1 1 181.68 18.4
8 -7 1 154.68 14.4
8 -7 1 205.58 14.5
-8 8 -1 1640.14 78.29
8 0 -1 1530.45 81.49
-8 0 1 1762.82 82.49
8 -8 1 1624.14 75.09
8 -8 1 1658.23 76.09
-1 -8 -1 140.19 17.8
8 -9 1 140.99 11.5
-9 1 1 172.18 18.7
-2 -8 -1 1720.13 83.49
10 -2 -1 1747.63 86.89
-8 10 -1 1669.53 79.09
-10 2 1 1677.53 85.99
2 8 1 1747.73 81.49
-8 11 -1 136.69 19
11 -3 -1 118.59 18.5
-8 11 -1 122.79 12.9
-3 -8 -1 104.49 18
3 8 1 119.79 15.4
-11 3 1 134.89 20
-8 12 -1 684.53 40.4
12 -4 -1 702.43 42.5
-4 -8 -1 659.63 42.6
-8 12 -1 648.64 35.1
-12 4 1 681.03 43
4 8 1 685.93 40
-8 13 -1 196.28 19.6
-8 13 -1 167.68 14.6
-5 -8 -1 210.58 25.7
13 -5 -1 179.18 20.8
-13 5 1 174.58 20.8
5 8 1 144.19 18.3
-8 14 -1 807.12 43.2
-6 -8 -1 881.11 53.89
14 -6 -1 896.71 51.69
-8 14 -1 911.41 47.4
6 8 1 876.01 50.69
-14 6 1 815.72 51.69
-8 15 -1 100.29 15.3
-7 -8 -1 119.29 23.5
15 -7 -1 94.19 17.9
-8 15 -1 109.19 12.7
-15 7 1 119.19 20.2
7 8 1 92.99 18.4
16 -8 -1 539.55 38.2
-8 16 -1 545.25 31.4
-8 -8 -1 515.85 43.3
8 8 1 593.14 41
-16 8 1 593.54 41.1
17 -9 -1 63.49 15.4
-9 -8 -1 45.9 20.9
-8 17 -1 68.59 11.2
9 8 1 72.09 17.9
-17 9 1 77.29 28.5
-7 16 -1 196.98 16.9
16 -9 -1 191.48 21.7
9 7 1 196.08 24.3
-16 9 1 185.68 23
-6 15 -1 102.49 12.8
-15 9 1 94.89 17.6
9 6 1 118.19 20.5
-5 14 -1 172.58 15.1
14 -9 -1 145.29 17.4
9 5 1 199.38 22.6
-14 9 1 175.68 21
13 -9 -1 86.59 13.2
-4 13 -1 101.09 12.6
9 4 1 109.19 18.8
-13 9 1 94.39 15.7
12 -9 -1 211.48 16.5
-9 -3 -1 265.67 25.8
-3 12 -1 187.88 16.7
-12 9 1 204.78 19.4
9 3 1 221.58 23.1
-9 -2 -1 60.29 16.4
-2 11 -1 68.09 11
11 -9 -1 73.39 9.4
9 2 1 68.69 15
-11 9 1 53.79 11.2
-1 10 -1 538.85 31
10 -9 -1 510.45 25
-9 -1 -1 528.35 36.7
1 -10 1 522.85 25.7
-10 9 1 519.75 30.4
9 1 1 594.84 36.8
0 9 -1 291.47 20.9
-9 0 -1 262.07 25.4
9 0 1 284.27 24.7
0 -9 1 288.77 18.3
-9 9 1 286.87 18.7
1 8 -1 146.69 15.9
-9 1 -1 176.88 20.4
9 -1 1 168.38 22.8
-1 -8 1 169.88 14.5
-1 -8 1 130.99 13.4
-9 2 -1 248.18 23.1
2 7 -1 278.17 21.2
9 -2 1 281.17 23.6
-2 -7 1 310.27 20.6
-7 9 1 288.97 14.8
-9 3 -1 42 12.2
3 6 -1 28.3 9.2
-3 -6 1 11.4 8
9 -3 1 35.6 10.6
4 5 -1 117.49 15.9
-9 4 -1 98.79 15.6
-4 -5 1 107.69 14.6
-5 9 1 117.49 14
9 -4 1 109.39 15.7
-9 5 -1 112.79 16.1
5 4 -1 89.59 15.1
9 -5 1 102.19 14.5
-5 -4 1 120.79 15.3
-4 9 1 124.39 14.3
6 3 -1 15.4 10.3
-9 6 -1 27.2 10.5
-6 -3 1 15.5 9.1
9 -6 1 15.5 8.3
2 -9 -1 273.77 18.6
7 2 -1 306.57 27.4
-9 7 -1 283.17 22.8
-7 -2 1 291.47 23.6
9 -7 1 313.97 20.1
-2 9 1 298.77 20.2
9 -7 1 279.47 20.7
-9 8 -1 139.69 16.7
8 1 -1 164.68 23.4
-8 -1 1 156.78 18.1
9 -8 1 162.98 14.6
9 -8 1 149.88 13.6
0 -9 -1 362.06 28.4
-9 9 -1 292.67 22.8
9 0 -1 332.17 26.6
9 -9 1 265.67 18.2
9 -9 1 301.17 19.2
-9 0 1 336.67 26.2
-1 -9 -1 512.45 33.1
-9 10 -1 532.45 32.1
10 -1 -1 576.74 36.9
9 -10 1 522.25 26.9
1 9 1 533.95 30.6
9 -10 1 542.45 28.8
-10 1 1 545.95 36.3
11 -2 -1 89.19 17
-9 11 -1 76.99 11.3
-2 -9 -1 68.79 15.4
-11 2 1 90.89 17.1
12 -3 -1 213.98 23.4
-9 12 -1 234.48 17.4
-3 -9 -1 209.28 23.6
-12 3 1 218.98 23.3
3 9 1 247.38 20.8
-9 13 -1 117.49 13.5
-4 -9 -1 120.99 19.9
13 -4 -1 115.59 19.1
-9 13 -1 95.59 17.2
-13 4 1 108.89 19.3
4 9 1 74.59 19
-9 14 -1 222.98 21.8
-5 -9 -1 252.67 25.6
14 -5 -1 158.88 23.2
-9 14 -1 167.38 15.4
-14 5 1 169.88 23.9
5 9 1 153.88 18.9
-9 15 -1 97.29 12.6
-6 -9 -1 110.19 21.8
15 -6 -1 74.49 17.3
-9 15 -1 116.09 18.5
-15 6 1 102.89 19.6
6 9 1 123.39 19
-9 16 -1 209.68 17.3
-7 -9 -1 214.18 29.7
-9 16 -1 213.68 22.1
16 -7 -1 238.48 25.7
7 9 1 202.58 24.8
-16 7 1 180.98 25.8
-8 -9 -1 23.6 17.1
17 -8 -1 55.59 15.7
-9 17 -1 50.79 10.5
-17 8 1 61.79 19.1
8 9 1 63.79 17.2
-9 -9 -1 152.38 28.6
-9 18 -1 129.89 15
18 -9 -1 128.99 20.8
-18 9 1 154.28 24.4
9 9 1 142.49 23.9
19 -10 -1 80.29 17.5
-10 -9 -1 18 18.8
-9 19 -1 46.9 11.3
-19 10 1 56.39 18.7
10 9 1 90.59 20.8
-10 -8 -1 499.45 44.3
18 -10 -1 509.45 36
-8 18 -1 459.95 28.9
-18 10 1 499.35 39.4
10 8 1 458.05 39.1
-7 17 -1 115.89 14.1
17 -10 -1 118.19 17.8
-17 10 1 109.49 20.4
10 7 1 161.58 24.4
-6 16 -1 636.04 37.1
10 6 1 699.93 47.1
-16 10 1 735.03 46
15 -10 -1 187.28 17.9
-5 15 -1 164.98 15.8
10 5 1 152.58 23.1
-15 10 1 187.98 22.3
-4 14 -1 829.82 42.7
14 -10 -1 825.02 43.1
-14 10 1 781.32 47.2
10 4 1 774.12 50.49
13 -10 -1 83.39 11
-3 13 -1 73.89 11.6
-10 -3 -1 88.19 19.5
-13 10 1 89.39 14.6
10 3 1 108.59 18.7
-10 -2 -1 1124.29 62.19
12 -10 -1 1076.79 50.59
-2 12 -1 1081.29 54.69
-12 10 1 1010.2 55.69
10 2 1 1134.49 62.29
-1 11 -1 304.37 21.8
10 1 1 361.76 28.5
-11 10 1 256.07 20.7
-10 0 -1 2246.78 110.79
0 10 -1 2260.07 105.39
-10 10 1 2173.78 102.79
10 0 1 2315.07 110.89
1 9 -1 523.85 32.7
-10 1 -1 552.64 37.8
10 -1 1 555.74 36.8
-9 10 1 538.55 28.6
-1 -9 1 526.85 29.5
-1 -9 1 541.25 29.7
-10 2 -1 1636.04 83.69
2 8 -1 1691.83 80.69
-2 -8 1 1631.64 77.69
10 -2 1 1548.55 82.29
-8 10 1 1666.03 73.39
3 7 -1 545.05 33
-10 3 -1 485.75 34.6
-3 -7 1 504.05 30.4
10 -3 1 467.85 36.5
-10 4 -1 1506.15 76.19
4 6 -1 1416.96 74.39
-6 10 1 1594.74 71.69
10 -4 1 1425.26 74.69
-4 -6 1 1453.75 72.89
-10 5 -1 500.55 33.1
5 5 -1 447.86 31.9
10 -5 1 463.85 31
-5 -5 1 458.15 30.6
-5 10 1 529.65 29.2
-10 6 -1 1371.06 73.89
10 -6 1 1565.04 73.69
-4 10 1 1555.74 70.19
-6 -4 1 1385.86 73.59
-10 7 -1 433.56 30.7
7 3 -1 481.35 33
-7 -3 1 455.85 31.6
-3 10 1 501.05 27.6
10 -7 1 446.16 29.2
-10 8 -1 1659.33 83.19
8 2 -1 1696.13 86.59
2 -10 -1 1694.73 77.59
10 -8 1 1635.94 80.79
-2 10 1 1746.53 78.69
-8 -2 1 1801.82 86.09
10 -8 1 1670.03 79.79
9 1 -1 545.75 37.4
-10 9 -1 516.85 33.8
-9 -1 1 582.84 37.2
10 -9 1 540.15 30.1
10 -9 1 570.84 31.2
-10 10 -1 2227.28 106.19
0 -10 -1 2259.17 107.39
10 0 -1 2403.56 112.29
10 -10 1 2171.98 101.99
-10 0 1 2386.76 111.59
10 -10 1 2144.79 101.29
-10 11 -1 240.58 21.2
11 -1 -1 327.17 27
-1 -10 -1 255.57 23
1 10 1 275.57 20.8
10 -11 1 248.78 14.6
10 -11 1 238.58 14.6
-11 1 1 354.06 27.8
-2 -10 -1 1109.69 59.19
12 -2 -1 1122.59 63.49
-12 2 1 1069.89 62.89
2 10 1 1179.78 57.99
-10 13 -1 100.59 13.1
13 -3 -1 101.99 19.2
-3 -10 -1 74.79 16.9
-13 3 1 91.99 18
3 10 1 72.49 13.6
-10 14 -1 781.82 49.3
-4 -10 -1 848.42 50.69
-10 14 -1 831.42 43.6
14 -4 -1 902.61 53.09
-14 4 1 845.72 52.89
4 10 1 883.51 49.2
-10 15 -1 161.28 22.7
15 -5 -1 175.18 24.5
-5 -10 -1 207.28 26.7
-10 15 -1 154.78 16.2
5 10 1 158.78 20.5
-15 5 1 192.28 26.3
16 -6 -1 711.63 47
-6 -10 -1 663.03 47.2
-10 16 -1 655.63 37.3
-10 16 -1 680.33 42.6
6 10 1 766.72 46.4
17 -7 -1 135.59 22.7
-10 17 -1 115.09 18.9
-7 -10 -1 121.69 23.9
-10 17 -1 98.59 13.9
7 10 1 137.39 22.5
-17 7 1 120.79 22.6
-10 18 -1 451.95 33.2
-10 18 -1 437.26 29.3
-8 -10 -1 453.55 41.3
18 -8 -1 559.64 38.9
8 10 1 540.75 39.9
-18 8 1 563.64 41.6
19 -9 -1 77.99 18.5
-10 19 -1 65.69 12
-9 -10 -1 61.89 21.5
-19 9 1 41.1 17.3
9 10 1 59.89 18.3
-10 20 -1 395.06 26.5
-10 -10 -1 271.97 37.5
20 -10 -1 436.76 35.2
-20 10 1 447.96 38.1
10 10 1 366.56 35.9
-11 -10 -1 21.4 30.3
-10 21 -1 -7.2 7.9
21 -11 -1 16.4 13.2
-21 11 1 12.9 17
11 10 1 17.4 15.1
20 -11 -1 193.98 24.7
-9 20 -1 234.88 20
-11 -9 -1 171.28 32.1
-20 11 1 204.78 30.4
11 9 1 227.18 29.2
19 -11 -1 47.4 14.3
-11 -8 -1 49.6 20.8
-8 19 -1 32.5 9.8
-19 11 1 17.9 14.5
11 8 1 15 15.5
-7 18 -1 213.78 18.6
18 -11 -1 228.08 23.2
11 7 1 171.18 26.5
-6 17 -1 15 8.5
11 6 1 24.7 14.3
-17 11 1 14.5 12.3
16 -11 -1 278.47 21.7
-5 16 -1 257.47 20.3
11 5 1 248.08 27.9
-16 11 1 258.47 26.4
-4 15 -1 33.3 9.1
15 -11 -1 5.4 7.9
-15 11 1 8.8 10.9
11 4 1 24.4 14.1
-3 14 -1 399.36 26.5
-11 -3 -1 434.96 36.8
14 -11 -1 417.56 23.9
11 3 1 369.96 32.8
-14 11 1 394.36 29.3
-2 13 -1 51.19 10.8
-11 -2 -1 50.39 16.4
13 -11 -1 41.7 6.5
-13 11 1 31.1 10.8
11 2 1 35.9 13
-1 12 -1 396.16 26.2
-11 -1 -1 366.66 32.1
11 1 1 396.66 31.7
-12 11 1 361.66 25.4
-11 0 -1 40.6 13.9
0 11 -1 21.5 8.7
11 0 1 21.2 12.1
-11 11 1 19 7.7
-11 1 -1 274.77 26.6
1 10 -1 275.37 22.1
-1 -10 1 264.97 18.6
11 -1 1 284.77 26
-1 -10 1 292.57 19.6
-10 11 1 255.87 17.9
2 9 -1 26.3 10.7
-11 2 -1 55.39 15.8
-9 11 1 69.19 11.6
11 -2 1 56.79 14.7
-2 -9 1 70.99 11
-11 3 -1 129.69 20.3
3 8 -1 102.99 16.7
-3 -8 1 101.39 14
-8 11 1 111.59 7.4
11 -3 1 122.99 19.2
4 7 -1 136.39 27.4
-11 4 -1 128.59 19.6
-4 -7 1 111.19 14.9
11 -4 1 135.59 19.3
-11 5 -1 160.78 22.1
5 6 -1 163.18 22.7
-5 -6 1 113.29 15.7
-6 11 1 185.88 17.4
6 5 -1 174.98 22.4
-11 6 -1 159.08 21.4
11 -6 1 161.68 18.6
-6 -5 1 147.89 18.1
-5 11 1 129.49 16.6
7 4 -1 105.79 18
-11 7 -1 130.19 18.8
-7 -4 1 108.09 16.9
11 -7 1 131.39 16.9
-4 11 1 110.09 15.1
-11 8 -1 136.79 18.8
8 3 -1 101.59 17.9
-3 11 1 102.39 14.2
11 -8 1 108.79 15
-8 -3 1 135.59 17.8
9 2 -1 76.79 16.3
-11 9 -1 65.39 13.9
-9 -2 1 68.29 15.1
11 -9 1 70.79 11.4
11 -9 1 52.89 11
-11 10 -1 292.87 23.6
10 1 -1 283.97 26
1 -11 -1 259.97 20.1
11 -10 1 232.58 18.1
11 -10 1 281.37 19.2
-10 -1 1 293.27 25.8
-11 11 -1 34.7 11.1
11 0 -1 50.69 14.8
0 -11 -1 22.2 11.8
-11 0 1 11 11.6
11 -11 1 22.6 6.3
11 -11 1 21.9 6.5
0 11 1 36.3 9.3
-11 12 -1 335.87 25.5
-1 -11 -1 333.17 26.1
12 -1 -1 334.07 29.9
1 11 1 342.07 23.9
-12 1 1 364.16 30.3
13 -2 -1 38.6 14.8
-2 -11 -1 58.39 15.3
2 11 1 35.9 11.2
-13 2 1 60.19 17
14 -3 -1 414.16 34.5
-3 -11 -1 373.76 32.5
-14 3 1 459.85 35.8
3 11 1 431.66 31.9
15 -4 -1 35.1 15
-4 -11 -1 9 15.2
-11 15 -1 30.4 13.9
-11 15 -1 36 10
4 11 1 49 13.5
-15 4 1 42.2 26.3
-11 16 -1 217.58 18.9
-11 16 -1 229.08 25.5
-5 -11 -1 214.18 28
16 -5 -1 292.77 29.4
-16 5 1 239.88 27.4
5 11 1 246.08 24.9
-11 17 -1 6.9 8.6
-6 -11 -1 -6.4 14.4
-11 17 -1 46.8 14.9
17 -6 -1 26.4 13.9
6 11 1 5.1 11.8
-17 6 1 28.2 15
-11 18 -1 195.68 24
-7 -11 -1 211.28 30.1
18 -7 -1 203.38 26
-11 18 -1 197.08 18.4
7 11 1 234.78 26.2
-18 7 1 202.48 29.4
-8 -11 -1 50.19 20
19 -8 -1 42 15.5
-11 19 -1 29.3 10.2
-11 19 -1 45.9 15.3
-19 8 1 49.1 18.3
8 11 1 37.2 15.9
-11 20 -1 203.08 19.4
20 -9 -1 214.28 27.6
-9 -11 -1 220.98 34.7
-20 9 1 249.78 30.1
9 11 1 195.28 29.4
-10 -11 -1 22.2 17.7
-11 21 -1 11.8 9.5
21 -10 -1 45.9 17.3
10 11 1 26.9 16.6
-21 10 1 29.5 17.3
22 -11 -1 341.17 32.8
-11 -11 -1 335.57 50.29
11 11 1 328.27 36.6
-22 11 1 354.96 38.1
23 -12 -1 35 15.9
-11 23 -1 8.8 13.2
-12 -11 -1 -7.6 15.5
-23 12 1 17.3 17.3
12 11 1 5.2 15.4
-12 -10 -1 360.76 43.2
22 -12 -1 469.65 36.1
-22 12 1 423.66 41.5
12 10 1 450.35 43.7
21 -12 -1 63.89 15.9
-12 -9 -1 31.9 20.1
-9 21 -1 89.39 14.5
-21 12 1 62.49 20.4
12 9 1 69.59 20.5
-12 -8 -1 405.06 43.8
-8 20 -1 463.95 29.7
20 -12 -1 421.06 33.3
12 8 1 475.35 41.3
-20 12 1 514.25 40.3
19 -12 -1 90.69 16.5
-7 19 -1 79.69 13.9
-19 12 1 111.29 21.3
12 7 1 77.09 20.8
-6 18 -1 469.45 30.3
-18 12 1 490.75 39.9
12 6 1 485.75 40.7
-5 17 -1 133.29 16.3
17 -12 -1 156.98 16.9
12 5 1 171.48 26.1
-17 12 1 159.88 23.7
-4 16 -1 681.93 38.5
16 -12 -1 663.53 36.3
-16 12 1 650.53 43.1
12 4 1 684.33 47.9
-12 -3 -1 52.59 18.9
15 -12 -1 65.89 9.3
-3 15 -1 56.49 11.6
12 3 1 60.49 17.1
-15 12 1 62.79 14.5
-2 14 -1 782.42 42.4
-12 -2 -1 792.42 51.09
12 2 1 721.03 49.3
-14 12 1 700.93 43
-12 -1 -1 186.88 26.2
-1 13 -1 158.88 17.5
-13 12 1 157.38 17
12 1 1 148.49 22.9
0 12 -1 907.31 49.8
-12 0 -1 905.61 56.39
12 0 1 914.31 55.59
-12 12 1 935.11 47.8
-12 1 -1 334.27 31.9
1 11 -1 382.66 26.9
12 -1 1 360.46 30.6
-11 12 1 352.96 22.5
-1 -11 1 369.76 22.2
2 10 -1 1052.09 65.39
-12 2 -1 1136.19 63.49
-2 -10 1 1029.4 53.69
12 -2 1 1166.88 62.49
-10 12 1 1063.59 51.59
3 9 -1 237.68 35.2
-12 3 -1 181.78 24.2
-3 -9 1 198.98 18.3
-9 12 1 205.88 12.4
12 -3 1 209.78 22.7
4 8 -1 600.34 40.1
-12 4 -1 703.83 44.4
12 -4 1 675.03 42.3
-4 -8 1 674.53 38.6
5 7 -1 84.19 15.4
-12 5 -1 87.59 17.6
-7 12 1 96.09 14
-5 -7 1 88.89 14.4
12 -5 1 87.79 16.6
6 6 -1 753.82 46.9
-12 6 -1 795.32 47.7
12 -6 1 821.02 46.5
-6 12 1 743.53 41.9
-6 -6 1 785.62 45.1
-12 7 -1 87.19 16.9
7 5 -1 78.59 15.9
12 -7 1 84.39 16.4
-7 -5 1 83.49 14.8
-5 12 1 94.29 13.5
-12 8 -1 643.44 41.3
8 4 -1 700.93 43.7
12 -8 1 633.14 39
-8 -4 1 639.24 41.7
-4 12 1 709.03 35.9
9 3 -1 186.48 22.9
-12 9 -1 222.28 23.1
-9 -3 1 225.08 23.4
12 -9 1 230.88 19.1
12 -9 1 233.18 20.2
-12 10 -1 1086.59 58.99
10 2 -1 1040.5 62.29
-10 -2 1 1077.59 61.69
12 -10 1 1096.39 54.29
12 -10 1 1128.79 55.29
11 1 -1 377.36 30.9
-12 11 -1 348.07 26.7
-1 12 1 350.56 21.9
-11 -1 1 320.67 28.6
12 -11 1 331.77 21.2
12 -11 1 337.87 21.7
-12 12 -1 945.01 51.09
12 0 -1 976.2 56.89
0 -12 -1 863.31 55.19
0 12 1 956.7 47.5
-12 0 1 812.92 53.79
12 -12 1 914.91 43.7
-12 13 -1 169.18 19.4
13 -1 -1 157.18 24.5
-1 -12 -1 138.19 19
1 12 1 166.98 17.4
-13 1 1 187.68 23.2
-2 -12 -1 787.32 47.3
14 -2 -1 864.01 53.49
-14 2 1 812.82 55.19
2 12 1 791.72 47.6
15 -3 -1 53.89 17.2
-3 -12 -1 61.79 17.2
-15 3 1 71.19 17.5
3 12 1 64.69 14.6
-12 16 -1 765.42 48
16 -4 -1 711.23 49.1
-4 -12 -1 655.73 46.2
-16 4 1 735.03 49.99
4 12 1 726.33 45
-12 17 -1 164.78 24.3
-5 -12 -1 202.98 28.2
17 -5 -1 177.18 26.2
-12 17 -1 142.29 17.3
-17 5 1 165.68 26.8
5 12 1 166.48 23
-12 18 -1 427.46 35.1
-12 18 -1 459.55 29.3
18 -6 -1 507.35 39.4
-6 -12 -1 429.26 38.7
-18 6 1 457.05 39.1
6 12 1 467.95 36.4
19 -7 -1 57.89 18.8
-7 -12 -1 22.5 17.4
-12 19 -1 80.69 18.6
-12 19 -1 68.19 13.1
-19 7 1 96.59 22.6
7 12 1 72.49 18.2
-12 20 -1 452.45 30
20 -8 -1 500.55 40.2
-12 20 -1 455.55 35.1
-8 -12 -1 373.56 39.5
-20 8 1 521.55 42.7
8 12 1 428.76 38.6
21 -9 -1 36.2 17.5
-9 -12 -1 94.29 23.1
-12 21 -1 57.89 14.8
9 12 1 60.49 19.5
-21 9 1 90.09 23.9
-10 -12 -1 341.67 39.5
22 -10 -1 515.85 41
10 12 1 431.66 39.6
-22 10 1 443.36 42.4
23 -11 -1 58.49 17.9
-11 -12 -1 19.1 17.5
-12 23 -1 1 10.5
-23 11 1 67.39 23
24 -12 -1 301.57 30.9
-12 24 -1 204.78 22.1
-12 -12 -1 291.07 42.7
-24 12 1 304.37 40.9
12 12 1 237.68 35.5
-12 25 -1 8.8 10
25 -13 -1 46.2 16.5
-13 -12 -1 -25.4 17.3
13 12 1 20.6 17.3
-13 -11 -1 128.29 31.4
24 -13 -1 262.47 27.2
-11 24 -1 200.58 20.4
13 11 1 177.08 31.5
-24 13 1 169.08 30.5
-10 23 -1 -0.3 8.8
23 -13 -1 12.6 12.1
-13 -10 -1 6.6 16.3
-23 13 1 37.2 18.9
13 10 1 26.1 17.5
-13 -9 -1 287.87 43.6
22 -13 -1 356.46 29.8
-22 13 1 267.77 34.1
-8 21 -1 12.6 13.6
-13 -8 -1 37.4 20.3
21 -13 -1 11.4 11
-21 13 1 12.7 15.1
13 8 1 22.2 15.9
20 -13 -1 236.98 22.6
-7 20 -1 225.58 21.4
13 7 1 240.78 30
-20 13 1 250.07 30.2
19 -13 -1 7.8 9.4
-6 19 -1 22.5 9.6
13 6 1 9.7 12.9
-19 13 1 5.6 12.9
-5 18 -1 202.18 19.6
18 -13 -1 223.38 18.3
-18 13 1 184.28 24.7
13 5 1 163.58 27.2
17 -13 -1 1.7 7.4
-4 17 -1 10.5 9
-17 13 1 29.7 13.6
13 4 1 30.8 15.7
16 -13 -1 294.97 17.8
-13 -3 -1 289.97 34.5
-3 16 -1 337.47 24.9
-16 13 1 312.07 27.8
13 3 1 350.36 33.2
-13 -2 -1 4.6 16.5
-2 15 -1 41.1 11.5
-15 13 1 16.4 11.3
13 2 1 31 15.7
-13 -1 -1 254.67 35.3
-1 14 -1 224.08 23.2
-14 13 1 200.28 20.2
13 1 1 245.28 27.3
-13 0 -1 43.7 17.2
13 0 1 49.8 16.2
-13 1 -1 167.78 26.3
1 12 -1 149.59 25
13 -1 1 172.18 22.8
-12 13 1 166.08 15.5
2 11 -1 27 11.5
-13 2 -1 57.39 17.2
13 -2 1 54.59 16
-2 -11 1 52.39 9.9
-11 13 1 39.4 8
-2 -11 1 58.99 11.1
3 10 -1 93.89 17.2
-13 3 -1 91.59 19.7
13 -3 1 104.49 18.6
-3 -10 1 91.49 14.1
-13 4 -1 76.99 18.3
4 9 -1 101.39 17.5
13 -4 1 79.39 18
-4 -9 1 107.49 15
-13 5 -1 177.28 24.9
5 8 -1 162.68 19.8
-5 -8 1 127.29 17
-8 13 1 173.98 19.1
13 -5 1 169.68 21.1
-13 6 -1 124.69 20.9
6 7 -1 112.99 18.7
13 -6 1 133.09 19.5
-7 13 1 155.18 17.6
-6 -7 1 127.89 18.3
-13 7 -1 130.19 20.8
7 6 -1 110.89 19.1
-7 -6 1 119.19 18
13 -7 1 129.69 18.7
-6 13 1 136.79 16.7
-13 8 -1 188.18 24.1
8 5 -1 182.78 22.1
-8 -5 1 172.98 21.4
-5 13 1 155.88 17.1
-13 9 -1 105.69 18.5
9 4 -1 129.09 21.5
-9 -4 1 106.89 18.4
13 -9 1 85.79 15
-13 10 -1 80.19 16.8
10 3 -1 109.39 20.1
13 -10 1 99.99 13.9
13 -10 1 83.89 13.6
-10 -3 1 106.79 18.9
-13 11 -1 40.2 13.3
11 2 -1 60.39 16
13 -11 1 44.3 10.1
13 -11 1 32.8 9.1
-11 -2 1 64.89 16.5
-13 12 -1 118.09 18.7
12 1 -1 167.58 24.5
13 -12 1 133.09 13.2
-12 -1 1 108.89 20
13 -12 1 134.29 13.3
-1 13 1 146.29 14.9
-13 13 -1 26.5 12
13 0 -1 39.5 15.5
13 -13 1 32.5 9.1
-13 0 1 24.3 13.3
13 -13 1 27.7 5.8
0 13 1 22.4 9.2
-1 -13 -1 238.38 23.7
14 -1 -1 249.38 31.9
-13 14 -1 212.18 21.9
-14 1 1 223.08 32.5
1 13 1 189.78 20
-2 -13 -1 22.6 15.1
15 -2 -1 17.4 13.7
2 13 1 20.1 11.2
-15 2 1 84.69 19.7
16 -3 -1 306.37 31.9
-3 -13 -1 286.67 30.4
3 13 1 305.97 26.7
-16 3 1 309.57 31.9
-13 17 -1 29.7 15.6
-4 -13 -1 12.5 15.4
17 -4 -1 25.8 16.2
-17 4 1 5.2 13.3
4 13 1 18.1 10.9
-5 -13 -1 160.68 26.6
18 -5 -1 202.78 29.1
-13 18 -1 203.88 26.9
-18 5 1 204.98 30.5
5 13 1 243.68 25.4
-13 19 -1 -9.9 11.9
-6 -13 -1 -0.3 14.3
19 -6 -1 -12.4 11
-19 6 1 24.5 16.8
6 13 1 9.1 12.4
20 -7 -1 275.87 35.2
-7 -13 -1 237.48 32.4
-13 20 -1 235.28 28
-20 7 1 255.87 32.5
7 13 1 212.68 27.5
21 -8 -1 1.8 12.9
-8 -13 -1 -17.9 14.7
-13 21 -1 10.6 13.7
8 13 1 -0.8 11.7
-21 8 1 23.2 17.8
-13 22 -1 262.27 25.4
-9 -13 -1 320.77 36.4
22 -9 -1 321.67 34.5
9 13 1 239.88 30
-22 9 1 300.47 36.4
-13 23 -1 3.5 9.7
23 -10 -1 22.2 16.3
-10 -13 -1 4.3 17.3
-23 10 1 -8.9 16.3
10 13 1 -9.2 14.2
-11 -13 -1 200.58 34.4
24 -11 -1 195.28 29.4
-13 24 -1 199.68 21.7
-24 11 1 245.78 38.5
11 13 1 158.28 29.4
25 -12 -1 -2.9 15.1
-13 25 -1 12 10.4
-12 -13 -1 57.59 22.1
12 13 1 -10 13.2
-25 12 1 24.6 19.5
26 -13 -1 149.09 25.5
-13 26 -1 193.48 21
-13 -13 -1 132.89 32.9
13 13 1 161.98 31.4
-26 13 1 204.28 35.7
27 -14 -1 7.5 15.7
-13 27 -1 19.3 12.4
-14 -13 -1 26.9 24.4
-27 14 1 -15.9 19.2
14 13 1 19.2 19.5
-12 26 -1 188.18 21.3
26 -14 -1 176.48 26.7
-14 -12 -1 189.88 39.5
-26 14 1 246.28 38.6
14 12 1 191.18 34.6
25 -14 -1 5.9 12.2
-11 25 -1 29.8 11.7
-14 -11 -1 30.1 21.2
14 11 1 48.3 21.4
-25 14 1 -1.9 30
24 -14 -1 246.18 27.3
-10 24 -1 243.68 23.5
-14 -10 -1 223.18 39.7
14 10 1 259.37 38.5
-24 14 1 347.67 38.6
23 -14 -1 52.69 15.2
-9 23 -1 41.5 12.3
-14 -9 -1 28 19.2
-23 14 1 32 17.3
14 9 1 65.89 22.3
22 -14 -1 413.66 31.1
-14 -8 -1 426.06 46.7
-8 22 -1 429.56 30.6
14 8 1 423.46 42.4
-22 14 1 434.66 40.1
-7 21 -1 103.99 21.6
-21 14 1 113.79 23.7
14 7 1 42.3 21.9
20 -14 -1 337.17 25.2
14 6 1 399.36 38.1
-20 14 1 385.86 35.4
19 -14 -1 104.19 13.4
14 5 1 64.29 19
18 -14 -1 409.36 23
18 -14 -1 430.26 25.1
-18 14 1 359.36 33
14 4 1 374.66 37.2
-14 -3 -1 125.49 26.2
-3 17 -1 67.59 21.7
-17 14 1 81.79 17.3
14 3 1 96.09 21.3
-14 -2 -1 539.65 45.3
-2 16 -1 578.34 40.4
-16 14 1 573.44 38.4
14 2 1 589.44 44.9
-14 -1 -1 144.99 26.1
-1 15 -1 121.59 18.2
14 1 1 108.29 22.6
-15 14 1 114.79 17.6
0 14 -1 700.63 41.7
-14 0 -1 609.44 48.2
14 0 1 714.03 48.4
-14 14 1 662.03 39.4
-14 1 -1 246.38 47.6
1 13 -1 158.18 20.5
14 -1 1 207.68 26.4
-13 14 1 263.87 19.4
-14 2 -1 781.82 56.89
2 12 -1 778.32 46.3
-2 -12 1 782.62 41.2
14 -2 1 758.12 50.29
-12 14 1 731.53 39.7
-2 -12 1 763.72 40
3 11 -1 419.66 30.8
-14 3 -1 417.36 35.9
14 -3 1 417.76 34.3
-11 14 1 377.56 22.4
-3 -11 1 356.36 25.9
-14 4 -1 856.61 55.29
4 10 -1 937.11 52.49
14 -4 1 852.31 53.59
-4 -10 1 873.01 47.5
-10 14 1 838.32 40.6
-14 5 -1 196.98 27.1
5 9 -1 150.78 22.7
-5 -9 1 188.98 20.2
14 -5 1 184.88 24
6 8 -1 854.71 52.39
-14 6 -1 860.61 53.99
-8 14 1 852.81 47
14 -6 1 894.11 52.59
-6 -8 1 853.91 49.2
7 7 -1 222.08 24.6
-14 7 -1 216.48 25.9
-7 -7 1 273.07 24.4
-7 14 1 208.68 21.2
14 -7 1 242.78 23.5
-14 8 -1 882.61 54.09
8 6 -1 943.61 55.19
-6 14 1 890.41 46.2
14 -8 1 845.72 50.79
-8 -6 1 846.62 51.39
-14 9 -1 172.98 22.7
9 5 -1 191.98 24
14 -9 1 177.88 20
-9 -5 1 173.88 22.2
10 4 -1 814.22 52.29
-14 10 -1 775.92 49.2
14 -10 1 801.72 45.8
-10 -4 1 843.62 50.79
11 3 -1 431.26 35.1
-14 11 -1 367.56 30.7
-11 -3 1 396.56 33.2
14 -11 1 371.56 26.2
14 -11 1 402.16 27.1
12 2 -1 715.23 50.39
-14 12 -1 733.83 46.4
14 -12 1 717.13 40.3
-12 -2 1 842.32 51.19
14 -12 1 757.42 40.2
-2 14 1 781.62 39.5
13 1 -1 190.18 27.5
-14 13 -1 210.08 22.9
-1 14 1 203.58 18
14 -13 1 210.88 15.5
14 -13 1 185.58 15.2
14 0 -1 617.94 45.7
-14 14 -1 636.74 41.1
0 14 1 640.74 37.3
-14 0 1 643.44 45.7
15 -1 -1 138.29 25.1
-1 -14 -1 114.19 17.2
-14 15 -1 146.19 20.8
-15 1 1 126.29 23.7
16 -2 -1 573.84 44.5
-2 -14 -1 531.45 37.4
-16 2 1 567.94 43.9
2 14 1 581.04 37.5
-3 -14 -1 109.39 21.4
17 -3 -1 105.19 22.8
3 14 1 87.29 16.7
-17 3 1 130.89 24.3
-4 -14 -1 442.56 36.6
18 -4 -1 467.35 40.5
-14 18 -1 402.86 37
-18 4 1 366.56 37.9
4 14 1 401.06 33.3
-5 -14 -1 87.69 21.6
19 -5 -1 98.49 23.5
-14 19 -1 97.39 21.8
-19 5 1 65.19 21.2
5 14 1 77.79 17.8
-14 20 -1 337.97 33.6
-6 -14 -1 316.47 35.3
20 -6 -1 428.36 39.1
6 14 1 364.96 33.8
-20 6 1 397.56 39.4
-14 21 -1 127.69 22.4
-7 -14 -1 110.19 25.7
21 -7 -1 73.19 21
7 14 1 96.99 20.6
-21 7 1 76.09 21.3
22 -8 -1 380.06 37.1
-8 -14 -1 347.57 38.6
-14 22 -1 347.97 33.1
-22 8 1 379.26 41.5
8 14 1 382.76 35.8
23 -9 -1 58.39 20.1
-14 23 -1 45.1 13.2
-9 -14 -1 87.69 25.4
-23 9 1 44.7 21.4
9 14 1 69.29 21.3
-10 -14 -1 267.27 40.2
24 -10 -1 269.57 33.6
-14 24 -1 226.98 23
10 14 1 280.47 33.6
-14 25 -1 31.1 11.8
25 -11 -1 14.2 16.5
-11 -14 -1 34.6 22.5
-25 11 1 25.3 20.9
11 14 1 45.7 18.8
-14 26 -1 242.88 23.7
26 -12 -1 182.98 29.4
-12 -14 -1 234.48 40.9
12 14 1 195.58 34.2
-26 12 1 232.68 40.7
-14 27 -1 0.9 10.6
-13 -14 -1 2.4 22.1
27 -13 -1 19.3 16
13 14 1 14.7 18.1
28 -14 -1 101.79 24.4
-14 -14 -1 108.59 34.6
-14 28 -1 89.59 17.6
14 14 1 129.79 30.2
29 -15 -1 3.7 17.8
-15 -14 -1 29.6 24.1
-14 29 -1 -9.3 11.8
15 14 1 22.2 19.8
-13 28 -1 75.29 17.7
-15 -13 -1 107.19 31.3
28 -15 -1 59.79 19
15 13 1 120.59 28.3
-12 27 -1 -4.5 11.1
27 -15 -1 23.7 14.7
-15 -12 -1 -6.7 19.9
15 12 1 7 16.1
-27 15 1 42.5 22.7
-15 -11 -1 104.19 30
-11 26 -1 179.38 21.2
15 11 1 176.28 33.2
-26 15 1 207.18 34.1
-10 25 -1 12.9 10.8
-15 -10 -1 31.6 19.8
25 -15 -1 -7.7 10.6
15 10 1 3.4 16.8
-25 15 1 -0.5 17.5
-9 24 -1 99.59 17.2
-15 -9 -1 175.78 33.9
24 -15 -1 184.98 21.3
15 9 1 144.39 27.7
-24 15 1 177.28 30.2
23 -15 -1 15.1 10.6
-8 23 -1 32.6 10.7
-15 -8 -1 -29.7 15.8
15 8 1 8.9 15.4
-23 15 1 51.99 19.4
-7 22 -1 220.38 21.4
15 7 1 211.98 33.9
-22 15 1 196.68 30.5
21 -15 -1 27.9 9.9
-6 21 -1 29 11.5
-21 15 1 36.7 16.8
15 6 1 16.1 18.9
-5 20 -1 151.88 19.7
20 -15 -1 187.48 15.5
20 -15 -1 159.58 14.8
15 5 1 204.38 31.4
-20 15 1 214.18 26.7
-4 19 -1 71.59 14.8
15 4 1 53.59 19.6
-19 15 1 75.99 18.8
-3 18 -1 188.38 20.7
-18 15 1 177.48 24.7
15 3 1 171.88 28.6
-15 -2 -1 40.7 20.2
-2 17 -1 44.7 12.7
15 2 1 33.8 14.7
-17 15 1 2.1 11.2
-1 16 -1 162.58 20.3
-15 -1 -1 198.88 31.1
15 1 1 169.38 27.3
-16 15 1 171.88 20.7
0 15 -1 31.4 12.4
-15 0 -1 46.2 19.8
15 0 1 61.89 18.9
-15 15 1 50.59 12.8
1 14 -1 134.99 20.5
-15 1 -1 125.99 24.6
-14 15 1 120.59 15.9
15 -1 1 110.49 22.8
-15 2 -1 29.6 16.4
2 13 -1 28 12.7
15 -2 1 22.4 14.5
-13 15 1 38.6 9.7
-15 3 -1 93.39 21
3 12 -1 77.49 16
-12 15 1 57.99 9.4
15 -3 1 62.19 18.5
-3 -12 1 52.49 11.7
4 11 -1 28.1 12.5
-4 -11 1 28.4 11.5
15 -4 1 45.9 15.3
-15 5 -1 194.68 27.1
5 10 -1 121.19 20.4
-5 -10 1 156.18 19.8
15 -5 1 193.08 25.7
6 9 -1 118.29 21.4
-15 6 -1 97.79 21.3
-6 -9 1 87.59 16.6
15 -6 1 84.19 18.5
-9 15 1 107.99 16.6
7 8 -1 85.49 18.5
-15 7 -1 107.99 21.7
-8 15 1 103.59 16.4
-7 -8 1 102.89 17.7
15 -7 1 94.49 18
-15 8 -1 97.79 21
8 7 -1 109.29 20.8
-8 -7 1 91.29 18.1
15 -8 1 110.29 18.6
-7 15 1 117.79 16.4
9 6 -1 78.49 19
-15 9 -1 89.09 20.4
15 -9 1 110.19 18
-9 -6 1 107.89 19.3
-15 10 -1 156.88 23.8
10 5 -1 178.38 26.3
-10 -5 1 189.38 23.2
15 -10 1 132.09 19.2
11 4 -1 35.2 15.1
-15 11 -1 44.3 15.4
-11 -4 1 15.8 13.1
15 -11 1 28.5 10.6
15 -11 1 18.7 10
-15 12 -1 52.89 15.9
12 3 -1 50.69 17.1
-3 15 1 63.09 10
15 -12 1 75.19 13.2
15 -12 1 57.19 12
-15 13 -1 11.5 12.8
13 2 -1 36.7 16.3
-13 -2 1 25.7 14.3
15 -13 1 22.3 8.7
15 -13 1 34.9 9.3
-2 15 1 30.7 9.1
14 1 -1 150.88 26.5
-15 14 -1 167.88 22.7
-1 15 1 139.59 15.8
-14 -1 1 115.39 22.8
15 -14 1 107.79 11.3
-15 15 -1 56.59 15.6
15 0 -1 74.39 21
0 15 1 49.99 12.2
-15 0 1 59.79 18
16 -1 -1 210.48 31.5
-16 1 1 187.48 28.2
1 15 1 179.08 20.3
-2 -15 -1 15.3 13.8
17 -2 -1 52.99 18.1
-17 2 1 48 18.1
2 15 1 20.1 12
-3 -15 -1 164.18 24
18 -3 -1 181.98 28.9
3 15 1 172.38 22
-18 3 1 164.08 27.2
-15 19 -1 62.09 20.5
-4 -15 -1 61.59 19.9
19 -4 -1 63.19 20
-19 4 1 37.6 20
4 15 1 84.69 17.9
-15 20 -1 197.38 29.4
20 -5 -1 197.88 30.1
-5 -15 -1 155.48 25.9
5 15 1 194.48 25.4
-20 5 1 180.38 30.5
-15 21 -1 44.6 19.1
-6 -15 -1 23.7 19.5
21 -6 -1 19.2 16.5
6 15 1 37.1 15.9
-21 6 1 19.8 17.8
22 -7 -1 176.98 29.7
-15 22 -1 240.78 29.3
-7 -15 -1 146.29 28.2
7 15 1 230.08 28.1
-22 7 1 271.27 35.1
-15 23 -1 7.8 14.5
23 -8 -1 2.6 15.5
-8 -15 -1 5.5 17.2
-23 8 1 17.4 19.5
8 15 1 20.9 16.5
-15 24 -1 116.49 21.6
24 -9 -1 131.79 27.9
-9 -15 -1 226.48 33.7
-24 9 1 167.88 35.4
9 15 1 142.49 39.7
-10 -15 -1 -9.2 22.5
25 -10 -1 24.1 20.4
10 15 1 27.3 18
-25 10 1 1.4 18.1
-11 -15 -1 82.79 27.9
-26 11 1 115.49 30.2
11 15 1 139.29 29.8
-15 27 -1 -7.1 11
-12 -15 -1 14 23.1
12 15 1 16 18.1
-13 -15 -1 78.09 28
-15 28 -1 95.29 18.4
13 15 1 120.19 29.7
-15 29 -1 14.8 14.2
-14 -15 -1 0.4 23.8
14 15 1 -18.1 16.8
-13 29 -1 -3.6 12.8
29 -16 -1 -14.4 14.8
16 13 1 18.3 19
28 -16 -1 134.19 23.8
-12 28 -1 109.59 20.2
16 12 1 82.29 27.1
-16 -11 -1 -24.3 18.7
-11 27 -1 4.1 11.7
27 -16 -1 29.8 14.4
-27 16 1 30.8 23.8
16 11 1 27.2 20.6
26 -16 -1 154.98 22.4
-16 -10 -1 159.38 35.4
-10 26 -1 190.48 22
16 10 1 172.18 33.2
-26 16 1 199.98 36.3
-9 25 -1 34.2 12.9
-16 -9 -1 56.59 24.9
25 -16 -1 8.3 11.6
-25 16 1 28.5 20.2
16 9 1 7 16.6
-16 -8 -1 181.78 38.9
-8 24 -1 205.38 22.3
-24 16 1 210.08 33.1
16 8 1 236.48 37.2
23 -16 -1 52.49 12.1
23 -16 -1 29.5 9.8
-7 23 -1 50.99 12.9
16 7 1 38.2 20.3
-23 16 1 40.2 18.9
-6 22 -1 354.66 27.9
22 -16 -1 310.77 20.9
22 -16 -1 315.37 21.4
16 6 1 320.77 37.4
-22 16 1 341.57 35.9
-5 21 -1 70.59 15.1
16 5 1 96.69 24
-21 16 1 55.49 18
-4 20 -1 368.66 29.6
-20 16 1 422.26 36
-3 19 -1 81.39 16.1
-19 16 1 94.09 19.7
16 3 1 119.09 25.4
-2 18 -1 384.76 30.3
-16 -2 -1 404.66 41.8
16 2 1 409.86 39.1
-18 16 1 407.66 33
-1 17 -1 180.28 23.3
-16 -1 -1 127.09 27.5
16 1 1 220.38 32.1
-17 16 1 179.88 21.9
-16 0 -1 643.64 48.6
0 16 -1 548.35 38.1
16 0 1 525.75 44.4
-16 16 1 532.85 36.2
1 15 -1 199.78 23.1
-16 1 -1 187.28 30.8
-15 16 1 151.48 18.2
16 -1 1 163.68 26.6
-16 2 -1 546.25 45.2
2 14 -1 498.05 37.3
16 -2 1 619.54 44.4
-14 16 1 526.75 32.6
-16 3 -1 307.17 34.9
3 13 -1 285.97 27.7
-3 -13 1 311.17 24.9
-13 16 1 323.67 21.7
16 -3 1 350.76 33.2
-16 4 -1 689.93 50.59
4 12 -1 686.53 45.2
16 -4 1 722.13 48.6
-12 16 1 654.33 35.1
-4 -12 1 690.13 40
-16 5 -1 240.38 32.6
5 11 -1 250.47 25.5
16 -5 1 238.78 28.3
-11 16 1 226.88 14.5
-5 -11 1 237.48 22.9
-16 6 -1 593.94 46.6
6 10 -1 698.63 46.8
16 -6 1 750.92 47.9
-10 16 1 715.53 42.4
-6 -10 1 643.74 41.7
7 9 -1 194.88 24.8
16 -7 1 214.68 26.1
-9 16 1 231.28 23.3
-7 -9 1 218.68 24.3
-16 8 -1 542.45 41.9
8 8 -1 563.54 41.1
-8 16 1 544.85 34.6
16 -8 1 556.14 39
-8 -8 1 520.85 37.5
-16 9 -1 219.28 29.7
9 7 -1 196.48 25.3
-9 -7 1 224.68 25.8
16 -9 1 220.58 24.4
10 6 -1 712.73 49.7
-16 10 -1 652.03 47.6
16 -10 1 737.23 45
-10 -6 1 768.92 48.5
11 5 -1 226.08 28.5
-16 11 -1 274.37 29.9
-11 -5 1 255.17 28.7
16 -11 1 270.07 24.1
12 4 -1 765.12 51.69
-16 12 -1 737.33 48.4
16 -12 1 675.73 42.2
-4 16 1 720.73 35.7
16 -12 1 676.33 40.8
-12 -4 1 719.23 49.2
13 3 -1 346.57 33.9
-16 13 -1 281.17 29.7
-3 16 1 349.07 21.5
-13 -3 1 333.07 32.3
16 -13 1 306.67 23.8
16 -13 1 300.77 23
-16 14 -1 552.64 40.3
14 2 -1 493.75 43.5
16 -14 1 555.54 31.2
16 -14 1 573.54 31.4
-2 16 1 561.74 32.7
-14 -2 1 591.04 44.1
-16 15 -1 174.18 24.5
15 1 -1 153.18 27.1
-1 16 1 202.98 18.9
-15 -1 1 243.58 29
16 0 -1 493.65 42.2
-16 16 -1 460.25 37
-16 0 1 530.45 42.9
0 16 1 572.24 41
17 -1 -1 164.68 27.7
-17 1 1 123.09 24.3
1 16 1 171.48 20.8
18 -2 -1 404.36 40.3
-18 2 1 466.15 41.1
2 16 1 435.56 33.1
-3 -16 -1 78.09 18
-16 19 -1 98.29 23.4
19 -3 -1 98.19 25
3 16 1 71.39 16.8
-4 -16 -1 423.46 35.4
-16 20 -1 336.77 37.7
20 -4 -1 440.76 41.7
4 16 1 413.26 34.6
21 -5 -1 77.19 22.1
-16 21 -1 104.79 24.1
-5 -16 -1 92.89 22.9
-21 5 1 110.99 25.3
5 16 1 93.29 20.3
-6 -16 -1 244.48 33.3
-16 22 -1 276.97 34.2
22 -6 -1 301.97 37.1
-22 6 1 376.86 40
6 16 1 304.97 32
-16 23 -1 43.4 20.1
-7 -16 -1 27.6 19.3
7 16 1 7.3 14.5
-8 -16 -1 259.07 36.1
-16 24 -1 231.98 31.3
24 -8 -1 216.18 35.3
-24 8 1 230.08 37
-9 -16 -1 4.9 20.6
25 -9 -1 24.8 18.8
9 16 1 -1.1 13.7
-25 9 1 38.9 22
-10 -16 -1 173.58 47.3
26 -10 -1 173.08 31.9
10 16 1 156.38 31
-26 10 1 167.58 46.9
27 -11 -1 15.8 19.3
-11 -16 -1 11.4 22
11 16 1 21.5 19.1
28 -12 -1 106.09 25.8
-12 -16 -1 161.88 33.8
12 16 1 53.69 23.1
29 -13 -1 24.5 20.5
-13 -16 -1 -20.2 23.8
13 16 1 -4.1 19
-12 29 -1 9.5 13.1
29 -17 -1 20.6 14.9
-17 -12 -1 -34.2 43
28 -17 -1 111.89 19.1
28 -17 -1 79.59 17.5
-11 28 -1 74.69 18
17 11 1 92.19 27
-10 27 -1 12.2 11.6
27 -17 -1 -1.9 10.8
27 -17 -1 5.1 12.7
-27 17 1 -6 20.1
17 10 1 17.4 18.4
26 -17 -1 162.08 19.4
-9 26 -1 127.19 20
17 9 1 97.19 27.9
25 -17 -1 6.5 9.7
-17 -8 -1 6.3 19.1
-8 25 -1 -6.3 10.4
25 -17 -1 1.6 9
17 8 1 17.7 17.2
-25 17 1 -22.7 16.1
24 -17 -1 154.68 14.6
24 -17 -1 213.98 22.4
-7 24 -1 198.88 22.1
-17 -7 -1 137.39 34.6
-24 17 1 231.08 33.7
17 7 1 143.49 30.6
-6 23 -1 14.6 10.7
17 6 1 -1.9 15.5
-23 17 1 -1.8 15.3
-5 22 -1 233.08 23.1
-22 17 1 172.08 28
17 5 1 171.58 30.7
-4 21 -1 12.9 10
-21 17 1 1.2 13.2
17 4 1 -10.7 12.7
-3 20 -1 253.37 25.5
17 3 1 269.77 33.9
-17 -2 -1 23.6 20
-2 19 -1 25.1 12.2
-19 17 1 13.5 12.9
17 2 1 13.2 16.4
-17 -1 -1 183.48 33.1
-1 18 -1 164.48 22.8
17 1 1 155.88 27
-18 17 1 192.58 23.1
0 17 -1 21.1 11.7
-17 0 -1 49.4 19.9
-17 17 1 44.2 12.4
17 0 1 7.9 15
1 16 -1 194.08 23.3
-17 1 -1 188.68 31.2
-16 17 1 174.48 19.9
17 -1 1 164.38 28.4
-17 2 -1 12.4 17.7
2 15 -1 7.4 11.9
-15 17 1 53.79 11.7
17 -2 1 24.9 16.2
-17 3 -1 87.69 22.8
3 14 -1 117.59 20.4
-14 17 1 108.79 14
17 -3 1 55.59 18.7
-3 -14 1 107.29 16
-17 4 -1 5.7 16.7
4 13 -1 37.1 14.2
17 -4 1 22.8 14.8
-13 17 1 21.7 7.9
-17 5 -1 181.58 28.2
5 12 -1 182.68 25.4
-5 -12 1 179.58 20.8
-12 17 1 134.79 12.6
17 -5 1 187.08 27.3
6 11 -1 13.8 12.6
-17 6 -1 41.5 18.1
-11 17 1 28.7 13.4
17 -6 1 29.9 14.3
-6 -11 1 34.7 13.6
7 10 -1 97.39 20.6
-17 7 -1 57.09 20.9
-10 17 1 154.98 20.1
17 -7 1 128.99 22.2
-7 -10 1 141.79 20.3
8 9 -1 36 16.1
-17 8 -1 62.49 19.4
17 -8 1 73.89 17.8
-8 -9 1 71.99 17.1
-9 17 1 74.99 15.7
-17 9 -1 65.09 19.9
9 8 -1 67.29 18.5
17 -9 1 86.39 17.8
-9 -8 1 48.1 15.9
10 7 -1 123.89 22.8
17 -10 1 137.09 20.4
-10 -7 1 123.09 22.3
11 6 -1 -1.9 12.8
-17 11 -1 29.6 17.4
17 -11 1 23.3 11.4
-17 12 -1 144.29 25.2
12 5 -1 139.79 25.9
-12 -5 1 158.28 26.3
17 -12 1 173.98 19.6
-5 17 1 160.38 12.3
17 -12 1 140.39 19.2
13 4 -1 20.3 15.1
-17 13 -1 22.5 15.2
17 -13 1 9.9 10.1
-4 17 1 20.2 7.6
17 -13 1 31 10.8
-13 -4 1 14.6 14.9
-17 14 -1 68.99 18.8
14 3 -1 99.79 21.9
17 -14 1 77.99 12.9
-14 -3 1 94.89 22.3
-3 17 1 85.09 12.2
17 -14 1 101.89 13.5
-17 15 -1 38.1 15.8
15 2 -1 42.1 18.3
17 -15 1 32.5 7.9
-2 17 1 51.69 11
17 -15 1 30.8 8.1
-15 -2 1 39.3 17.8
16 1 -1 165.78 29.9
-17 16 -1 135.79 23.1
-1 17 1 186.18 29.6
-16 -1 1 168.68 28.2
17 0 -1 1.7 15
-17 17 -1 12.9 14.4
-17 0 1 -0.2 14.1
0 17 1 10.7 9.9
18 -1 -1 200.68 32
-18 1 1 171.78 29.9
1 17 1 192.08 22
19 -2 -1 43.4 18.9
2 17 1 5 10.7
20 -3 -1 228.58 34.1
-17 20 -1 209.48 32.8
3 17 1 215.58 25.9
-4 -17 -1 -4.8 15.4
-17 21 -1 21.7 17.3
4 17 1 11.2 12.5
-5 -17 -1 194.18 28.4
22 -5 -1 200.38 33.6
-17 22 -1 208.98 32.4
5 17 1 194.78 28.5
23 -6 -1 7.5 16.5
-6 -17 -1 13.6 17.1
-17 23 -1 -2.8 16.7
-23 6 1 9.5 18.4
6 17 1 7.5 13.9
-7 -17 -1 200.08 30.6
-17 24 -1 187.68 31
24 -7 -1 132.89 28.5
-24 7 1 174.18 32.6
7 17 1 160.58 28.6
-17 25 -1 -15.9 15.9
-8 -17 -1 -17.5 16.9
25 -8 -1 8.5 18.3
8 17 1 7.3 14.6
-25 8 1 0.3 19
-9 -17 -1 121.09 28.6
26 -9 -1 86.59 25.7
9 17 1 114.49 26.3
-10 -17 -1 45.5 26.8
27 -10 -1 -1.6 17.8
10 17 1 18.4 17.6
-11 -17 -1 121.59 31.5
28 -11 -1 65.39 25.3
11 17 1 82.49 25
-12 -17 -1 -13.7 22.8
29 -12 -1 30.5 21.1
12 17 1 1.7 18.7
-11 29 -1 42.7 15
29 -18 -1 -3.1 14.4
-18 -11 -1 9.7 27.1
18 11 1 7.3 18.9
28 -18 -1 108.29 16.8
-10 28 -1 79.19 20
-18 -10 -1 79.09 35.4
18 10 1 79.59 27.8
27 -18 -1 12.6 11
27 -18 -1 39.8 10
-9 27 -1 20.8 14.2
-18 -9 -1 49.1 38.7
-27 18 1 32.9 21.7
18 9 1 38.1 22.8
-8 26 -1 187.78 23.2
18 8 1 165.08 32.6
-7 25 -1 55.59 15.3
18 7 1 48.1 22.5
-25 18 1 43.7 20.9
-6 24 -1 204.08 24.2
18 6 1 162.58 31.9
-24 18 1 305.07 34.6
-5 23 -1 52.29 14.9
-23 18 1 75.29 22.1
18 5 1 55.19 22.6
-4 22 -1 361.96 30
18 4 1 381.46 40.9
-22 18 1 298.67 34.8
-3 21 -1 70.79 17.1
-21 18 1 118.99 22.8
18 3 1 59.09 22
-2 20 -1 344.67 30.3
-20 18 1 344.37 52.79
18 2 1 338.07 38.3
-18 -1 -1 75.69 25.1
-1 19 -1 71.69 16.8
18 1 1 60.19 22.5
-19 18 1 57.99 16.7
-18 0 -1 290.17 39.1
0 18 -1 220.08 25.1
-18 18 1 255.77 25.4
18 0 1 231.88 34.7
-18 1 -1 105.19 27.2
1 17 -1 179.28 25.1
-17 18 1 203.18 21.5
18 -1 1 213.38 32.8
-18 2 -1 427.56 42.3
2 16 -1 393.96 32.9
18 -2 1 375.56 38
-16 18 1 370.76 28.1
-18 3 -1 175.38 30.2
3 15 -1 179.48 23.7
-15 18 1 189.08 18.6
18 -3 1 193.28 30.3
-18 4 -1 462.75 42.7
4 14 -1 414.96 35.2
-14 18 1 423.46 27.1
18 -4 1 436.96 39.6
-18 5 -1 172.28 30.9
5 13 -1 157.38 24.4
18 -5 1 163.58 26.6
-13 18 1 182.68 15.2
6 12 -1 493.95 38.3
-18 6 -1 387.26 40.4
-12 18 1 507.75 36.4
-6 -12 1 455.55 33.8
18 -6 1 503.05 41.1
-18 7 -1 254.47 32.4
7 11 -1 221.08 27.8
-7 -11 1 206.28 25.3
18 -7 1 251.77 29.5
-11 18 1 213.48 24.5
-18 8 -1 423.46 41.4
8 10 -1 468.45 39.8
18 -8 1 527.85 40.5
-8 -10 1 566.74 38.1
-10 18 1 475.75 34.6
-18 9 -1 170.48 27.5
9 9 -1 129.69 25
-9 -9 1 139.49 22.3
18 -9 1 142.59 23
10 8 -1 549.65 42.6
-18 10 -1 474.85 41.9
-10 -8 1 502.05 39.8
18 -10 1 484.55 37.7
11 7 -1 238.38 29.7
-18 11 -1 235.98 30.6
18 -11 1 268.17 26.2
-11 -7 1 204.08 28.9
-18 12 -1 483.95 40.6
12 6 -1 413.26 39.3
-12 -6 1 456.75 38.5
18 -12 1 488.85 34.3
13 5 -1 231.08 32.7
-18 13 -1 173.48 40.3
-5 18 1 180.38 14.6
18 -13 1 210.78 21.8
18 -13 1 191.38 21
-13 -5 1 233.58 29.6
14 4 -1 423.66 39.4
18 -14 1 422.86 29
-4 18 1 449.56 25.9
-14 -4 1 402.66 38.2
18 -14 1 401.76 29
-18 15 -1 155.08 27
15 3 -1 187.18 31.2
-15 -3 1 160.28 26.9
-3 18 1 164.38 17.1
18 -15 1 169.68 16.4
18 -15 1 186.28 16.6
-18 16 -1 430.16 36.6
16 2 -1 432.26 40.9
-16 -2 1 398.56 39.5
-2 18 1 388.06 28
17 1 -1 218.38 33.8
-18 17 -1 129.59 23.5
-1 18 1 159.58 18.7
-17 -1 1 183.48 28.9
18 0 -1 280.47 35
0 18 1 261.87 24.9
-18 0 1 281.97 34.1
1 18 1 54.69 15.6
20 -2 -1 362.96 43.3
2 18 1 348.47 31.5
-18 21 -1 76.99 24.6
21 -3 -1 90.19 24.8
3 18 1 97.59 19.6
-18 22 -1 289.77 40.2
22 -4 -1 316.87 37.9
4 18 1 338.97 32.6
23 -5 -1 91.69 25.1
-5 -18 -1 93.29 22.3
-18 23 -1 60.89 22.6
-23 5 1 101.99 27.8
5 18 1 76.09 20.5
-6 -18 -1 224.38 31.3
-18 24 -1 243.28 37
24 -6 -1 307.87 38.7
6 18 1 247.48 31.8
-24 6 1 333.37 46
-7 -18 -1 75.39 24
-18 25 -1 35.7 21
25 -7 -1 73.19 24.5
7 18 1 99.79 23.6
-25 7 1 59.19 25.7
26 -8 -1 131.29 30
-8 -18 -1 192.88 32
-18 26 -1 188.88 32.2
8 18 1 189.28 32.6
-9 -18 -1 42.4 23.4
27 -9 -1 16.9 19.9
9 18 1 12 17.4
-10 -18 -1 90.09 30.7
28 -10 -1 64.59 25.6
10 18 1 120.29 27.7
29 -11 -1 0.1 19.7
-11 -18 -1 -6 24.2
11 18 1 -10.9 17.3
-10 29 -1 -11.7 12.4
-19 -10 -1 23 29.4
19 10 1 24.2 22.3
-9 28 -1 10.6 16
-19 -9 -1 55.49 25.2
-28 19 1 79.29 34.9
-19 -8 -1 34.6 28.9
-8 27 -1 2.6 12.7
19 8 1 -16.9 15.2
-27 19 1 2.6 21.8
-19 -7 -1 29.8 25.4
-7 26 -1 87.89 18.3
-26 19 1 145.59 30.7
19 7 1 100.19 27.3
-19 -6 -1 -28.7 33.7
-6 25 -1 -7.2 10.5
19 6 1 6.1 15.5
-25 19 1 -15.1 17.6
-5 24 -1 129.39 21.4
-24 19 1 147.99 26.7
19 5 1 101.49 27.1
-4 23 -1 14.7 11.5
19 4 1 30.6 19.5
-23 19 1 -32.5 13.1
-3 22 -1 174.78 22.6
-22 19 1 180.78 28.7
19 3 1 120.69 27.8
19 2 1 30.2 18.7
-21 19 1 31.8 16.1
-1 20 -1 168.48 24.4
-20 19 1 122.19 21.7
19 1 1 138.49 28.4
-19 0 -1 57.59 22.6
0 19 -1 16.1 12.3
-19 19 1 32.3 14.2
19 0 1 4.4 14.6
-19 1 -1 40.3 20.8
1 18 -1 32 14.7
-18 19 1 56.39 14.7
-19 2 -1 -10.4 16.6
2 17 -1 -2.8 12.2
19 -2 1 38 19.2
-17 19 1 0.2 8.9
3 16 -1 67.39 17.6
19 -3 1 81.69 21.6
-16 19 1 77.79 13.9
4 15 -1 25.6 14.8
-19 4 -1 72.59 22.8
-15 19 1 51.99 10.9
19 -4 1 44.4 19.4
-4 -15 1 61.89 14.6
-19 5 -1 122.49 27.8
5 14 -1 95.49 20
19 -5 1 68.89 20.8
-14 19 1 67.29 11.2
6 13 -1 7.8 12.8
-19 6 -1 53.29 21.1
19 -6 1 24.3 15.7
-13 19 1 25.5 7.1
-19 7 -1 84.99 23.9
7 12 -1 85.09 20
19 -7 1 95.09 21.3
-12 19 1 61.99 8.3
-12 19 1 76.29 17.2
-7 -12 1 85.99 18.3
8 11 -1 34.2 16.1
-19 8 -1 38.5 20.2
19 -8 1 40.5 16.9
-11 19 1 31.2 14.4
-8 -11 1 18.2 14.5
-19 9 -1 39.8 20.5
9 10 -1 50.69 17.4
19 -9 1 74.49 18.5
-9 -10 1 63.49 18.6
-10 19 1 55.69 15.7
10 9 -1 49 18
-19 10 -1 42.7 18.9
19 -10 1 87.29 19.1
-19 11 -1 12.2 17.2
11 8 -1 38.6 17.5
-11 -8 1 38.4 17.1
19 -11 1 37.1 14.6
12 7 -1 78.09 21.4
-19 12 -1 110.69 24.7
-12 -7 1 78.89 21
19 -12 1 103.69 18.9
13 6 -1 20.1 16.2
-19 13 -1 13.6 14.5
-6 19 1 7 5.4
-13 -6 1 4.9 14.4
19 -13 1 15.7 11.6
19 -13 1 19.1 11.5
-19 14 -1 93.19 22.2
14 5 -1 106.89 23.2
19 -14 1 94.59 18.8
-5 19 1 91.09 11.6
-14 -5 1 84.89 22.7
19 -14 1 93.69 16.1
15 4 -1 51.29 20.8
-19 15 -1 51.99 20
-15 -4 1 86.89 21.2
-4 19 1 51.09 10.6
19 -15 1 49.99 11.5
19 -15 1 58.09 12.6
-19 16 -1 67.79 20.4
16 3 -1 58.39 21.9
19 -16 1 65.19 9.6
-16 -3 1 54.29 20.2
-3 19 1 68.39 13
19 -16 1 73.39 10.7
-19 17 -1 13.1 17.1
-2 19 1 14 11.1
-17 -2 1 27.4 17.6
18 1 -1 12.1 31.5
-18 -1 1 53.59 20.6
-1 19 1 53.99 13.5
19 0 -1 33.5 17.5
0 19 1 16.1 11.8
-19 0 1 39.6 20.7
20 -1 -1 113.49 28
1 19 1 130.19 21.5
-19 21 -1 10 17.9
21 -2 -1 9.7 17.5
2 19 1 8.1 12.4
22 -3 -1 196.28 33.8
-19 22 -1 126.09 29.2
3 19 1 149.59 25
23 -4 -1 3.8 17.6
-19 23 -1 -13.5 31.3
-23 4 1 -25.8 23.3
4 19 1 14.5 14.6
-19 24 -1 118.49 28.7
24 -5 -1 111.99 29.1
-24 5 1 136.09 30.3
5 19 1 88.79 22.1
25 -6 -1 12.5 17.9
-19 25 -1 31.3 20.1
-6 -19 -1 -12.1 15.9
26 -7 -1 88.59 27.2
-7 -19 -1 43.3 22
-19 26 -1 48.9 22.6
7 19 1 108.79 24.7
-19 27 -1 -3.2 17.5
-8 -19 -1 23.6 20.9
27 -8 -1 -10.1 18.6
8 19 1 9.8 17.2
-9 -19 -1 78.89 25.3
28 -9 -1 3.6 21.3
9 19 1 96.09 24.4
-10 -19 -1 2.5 22.9
29 -10 -1 -25.1 19.3
10 19 1 -4 18.4
-9 29 -1 30.5 15.8
20 9 1 24.8 24.7
-8 28 -1 115.59 22.3
-20 -8 -1 10.6 30
-28 20 1 110.49 33.4
20 8 1 102.79 42.5
-20 -7 -1 73.09 32.7
-7 27 -1 46.4 16.8
20 7 1 32 24
-27 20 1 45.4 24.6
-6 26 -1 155.78 24.4
-20 -6 -1 64.19 28.6
-26 20 1 156.08 33.2
20 6 1 129.59 32.5
-5 25 -1 3.9 13.1
-25 20 1 89.49 23.4
20 5 1 21.1 19.4
-4 24 -1 190.48 24.2
-24 20 1 210.48 33
20 4 1 140.59 31.2
-3 23 -1 81.99 18
20 3 1 37.1 21.1
-23 20 1 124.09 25.1
-2 22 -1 293.37 29.1
-22 20 1 269.87 34.7
20 2 1 195.38 35.1
-1 21 -1 82.79 19.1
-21 20 1 53.29 19.1
20 1 1 113.69 26.1
0 20 -1 224.38 29.9
20 0 1 188.48 34.3
-20 20 1 267.27 28.3
1 19 -1 108.69 21.7
-19 20 1 141.49 21.2
20 -1 1 148.09 30.6
2 18 -1 324.57 32
20 -2 1 298.07 37.9
-18 20 1 371.26 28.7
3 17 -1 267.57 29.5
-17 20 1 227.88 22.3
4 16 -1 418.76 36.2
-4 -16 1 351.06 28.1
-16 20 1 420.66 28
20 -4 1 391.76 39.5
5 15 -1 173.48 26.9
-15 20 1 206.28 18.2
20 -5 1 192.38 30.8
6 14 -1 396.56 36.8
-20 6 -1 416.06 42.5
-14 20 1 411.76 34.7
-14 20 1 364.26 24
20 -6 1 404.96 38.8
7 13 -1 237.48 32.1
-20 7 -1 191.78 31.9
-7 -13 1 215.88 25
-13 20 1 212.48 15.5
-13 20 1 246.18 27.6
20 -7 1 262.67 31.1
8 12 -1 426.36 40.1
-20 8 -1 506.25 45.3
-8 -12 1 515.85 37.3
20 -8 1 444.96 39.8
-12 20 1 451.85 35.5
9 11 -1 223.48 28.6
-20 9 -1 282.37 34.8
20 -9 1 208.18 27.5
-11 20 1 227.78 25.7
-9 -11 1 259.57 28.8
10 10 -1 430.46 38.9
-20 10 -1 387.46 40.4
-10 -10 1 435.86 51.59
20 -10 1 462.25 37.7
-20 11 -1 265.87 36.1
11 9 -1 234.78 30.8
-11 -9 1 268.47 30.6
20 -11 1 229.68 27.4
12 8 -1 468.75 41.9
-20 12 -1 469.35 42.5
20 -12 1 428.16 36.2
-12 -8 1 506.05 40.3
-20 13 -1 250.17 34.1
13 7 -1 252.27 31.8
-13 -7 1 250.77 33.8
-7 20 1 228.78 15
20 -13 1 300.67 26.7
-20 14 -1 355.76 37.2
14 6 -1 441.56 41.5
-6 20 1 375.76 22.5
20 -14 1 389.16 30.3
-14 -6 1 343.97 37
20 -14 1 382.46 29.7
15 5 -1 223.18 34.9
-20 15 -1 182.48 29.5
-15 -5 1 194.78 30.1
20 -15 1 160.98 20
-5 20 1 194.08 16.6
-20 16 -1 323.47 37
20 -16 1 435.76 27.1
-16 -4 1 386.66 39.9
-4 20 1 430.36 27
20 -16 1 378.66 26.1
17 3 -1 200.08 33
-20 17 -1 266.47 34.3
-17 -3 1 264.77 37.5
18 2 -1 268.47 36.3
-2 20 1 288.17 25.7
-18 -2 1 416.86 39.8
19 1 -1 103.39 25.5
-1 20 1 135.49 19.9
20 0 -1 218.68 35.2
0 20 1 200.68 23.8
21 -1 -1 64.39 23.7
1 20 1 90.89 19
-21 1 1 118.99 30.3
-20 22 -1 257.57 41.9
22 -2 -1 241.08 37.1
2 20 1 254.87 28.1
-22 2 1 240.88 41
-20 23 -1 72.69 24.5
23 -3 -1 50.99 21.7
-23 3 1 88.69 26
3 20 1 74.79 19.1
24 -4 -1 209.48 37.6
4 20 1 230.88 32.9
-24 4 1 351.96 71.59
-20 25 -1 54.69 35.1
25 -5 -1 18.3 20.4
26 -6 -1 143.79 32.9
-20 26 -1 155.38 33.8
6 20 1 204.28 31.7
27 -7 -1 20.2 22.3
-20 27 -1 -13.9 20.5
-7 -20 -1 22 17.9
7 20 1 25.6 18.5
-8 -20 -1 39.9 22.3
-20 28 -1 142.79 29.3
28 -8 -1 87.29 28.4
8 20 1 119.89 28.5
29 -9 -1 35.5 22.7
-9 -20 -1 22.3 22.2
9 20 1 -13.5 18.3
-7 28 -1 58.89 18.3
-28 21 1 65.49 29.7
21 7 1 42.1 23.9
-6 27 -1 5.3 15.5
-27 21 1 15.2 22.4
-5 26 -1 70.69 19.7
-21 -5 -1 143.69 40.3
21 5 1 86.59 27.1
-26 21 1 132.49 29.6
-4 25 -1 5.4 12.3
21 4 1 -19.1 16.4
-25 21 1 -11.3 17.4
-3 24 -1 99.69 20.8
21 3 1 105.39 27.2
-24 21 1 89.19 24.1
-2 23 -1 27.8 13.7
21 2 1 12.7 16.8
-23 21 1 -11.7 15.3
-1 22 -1 104.39 21.7
21 1 1 144.69 29.8
-22 21 1 116.19 23.6
0 21 -1 38.1 16.3
21 0 1 25 16.3
1 20 -1 82.29 19.8
-20 21 1 81.59 18
21 -1 1 82.49 23.7
2 19 -1 8.8 14.5
-19 21 1 38.6 13.4
21 -2 1 17.4 18.1
3 18 -1 69.29 19.8
-18 21 1 87.69 16.2
21 -3 1 96.99 23.8
4 17 -1 0.7 12.5
-17 21 1 10.9 9.6
21 -4 1 -15.8 13.4
5 16 -1 57.49 19.3
-5 -16 1 64.59 16.8
21 -5 1 108.49 27.4
-16 21 1 71.49 13.2
-5 -16 1 78.39 16.7
-21 6 -1 -14.4 24.4
6 15 -1 25 15.6
21 -6 1 12.3 14.8
-15 21 1 -6.5 13.7
-15 21 1 19.2 8.4
7 14 -1 84.19 20.8
-21 7 -1 104.79 27.1
-14 21 1 76.39 11
21 -7 1 61.89 19.8
-14 21 1 132.19 26.4
-21 8 -1 36.2 20.7
8 13 -1 6.8 14.5
21 -8 1 7.7 14.1
-13 21 1 16 14.3
-13 21 1 5.2 8.8
-21 9 -1 111.69 27.8
9 12 -1 55.59 18.3
-9 -12 1 77.89 19
-12 21 1 65.89 17.2
21 -9 1 89.99 22.3
10 11 -1 0.9 13.9
-21 10 -1 24.6 17.4
21 -10 1 27.7 15.2
-10 -11 1 27.4 17.9
-21 11 -1 12.7 18.9
11 10 -1 30.5 17.4
21 -11 1 31.6 15.4
-11 -10 1 45.9 18.4
-21 12 -1 70.79 23.5
12 9 -1 63.09 21.8
-12 -9 1 53.29 19.7
21 -12 1 44.9 16.7
13 8 -1 24.9 17.9
-21 13 -1 -4.7 15.9
21 -13 1 3.2 12.2
-13 -8 1 -7.9 15.2
-21 14 -1 60.79 23.2
-7 21 1 85.09 10.2
-14 -7 1 124.99 25.9
21 -14 1 74.39 17
21 -14 1 81.49 16.9
15 6 -1 43.2 20.1
-21 15 -1 14.5 19.4
21 -15 1 2.6 10.2
21 -15 1 29.1 11.8
-15 -6 1 49 19.1
-6 21 1 12.4 7.6
-21 16 -1 84.39 23.4
16 5 -1 66.49 24.4
21 -16 1 75.49 14.5
-5 21 1 111.29 13.6
21 -16 1 76.29 16.1
-16 -5 1 63.89 22.5
17 4 -1 12.1 16.8
-21 17 -1 -16.9 14.6
21 -17 1 5.2 7.9
-17 -4 1 25.7 17.7
-4 21 1 27.7 10.4
21 -17 1 6.7 7.1
18 3 -1 86.49 23.8
-21 18 -1 99.09 24.1
-3 21 1 49.1 13
19 2 -1 20.5 18
-2 21 1 15.2 10.8
20 1 -1 55.49 22.4
-1 21 1 67.49 15.9
21 0 -1 -0.5 17.4
-21 0 1 50.89 21.9
0 21 1 -13.6 9.2
22 -1 -1 109.19 28.7
-21 22 -1 118.39 30.8
-22 1 1 132.19 30.5
1 21 1 153.98 23.4
23 -2 -1 -5.1 17.6
-21 23 -1 13.9 20
-23 2 1 20.8 21.3
2 21 1 1.8 12.2
-21 24 -1 77.29 26.9
24 -3 -1 129.49 30.4
3 21 1 89.99 21.3
25 -4 -1 11.6 21.1
-21 25 -1 -6.9 17.8
4 21 1 -2.5 14.6
26 -5 -1 73.89 27.1
-21 26 -1 59.39 25.4
5 21 1 71.89 21.7
-21 27 -1 29.4 26.5
27 -6 -1 -7.5 20.6
6 21 1 3.5 16
28 -7 -1 61.49 26.5
-21 28 -1 52.79 24.4
7 21 1 93.59 25.5
22 6 1 114.59 31.2
-28 22 1 97.99 31.3
-5 27 -1 53.29 19.2
-27 22 1 55.09 36.6
22 5 1 38.2 28.7
-4 26 -1 150.48 26.8
22 4 1 155.78 33.8
-26 22 1 121.99 31.5
-3 25 -1 73.49 19.1
22 3 1 61.89 23.9
-25 22 1 62.89 24.8
-2 24 -1 187.08 28.5
-24 22 1 200.98 31.8
22 2 1 198.18 36.6
-1 23 -1 74.89 19.4
-23 22 1 91.09 22.5
22 1 1 70.19 23.5
0 22 -1 208.98 27.6
-22 22 1 250.37 32.3
22 0 1 214.38 36.1
1 21 -1 133.19 24.8
22 -1 1 106.09 27.6
-22 2 -1 279.27 43.9
2 20 -1 281.17 31
22 -2 1 281.17 41.3
-20 22 1 249.78 27.8
3 19 -1 126.69 25.1
-19 22 1 153.78 22.5
22 -3 1 205.18 34.1
4 18 -1 285.17 33.3
22 -4 1 350.26 39.3
-18 22 1 300.57 26.5
5 17 -1 228.28 29.6
-17 22 1 216.18 20.8
22 -5 1 177.38 30.6
6 16 -1 309.27 34.4
-6 -16 1 299.27 28.2
-6 -16 1 320.27 29.6
22 -6 1 386.96 65.29
-16 22 1 279.57 32.2
-16 22 1 312.87 23.1
-22 7 -1 255.97 39.3
7 15 -1 235.68 30.2
-15 22 1 212.28 27.8
-15 22 1 226.78 18.3
22 -7 1 186.38 31.5
8 14 -1 450.15 41
-22 8 -1 369.46 43.9
-14 22 1 411.96 24.2
22 -8 1 415.16 40.8
-14 22 1 396.96 35.8
9 13 -1 282.07 34.3
-22 9 -1 326.27 42.2
-13 22 1 342.57 30.4
22 -9 1 276.47 34
10 12 -1 515.95 45
-22 10 -1 478.45 46.8
22 -10 1 392.06 39.9
-10 -12 1 491.45 40.3
11 11 -1 350.76 41.1
-22 11 -1 411.06 42.8
-11 -11 1 387.56 36.8
22 -11 1 361.16 35.8
-22 12 -1 470.75 45.1
22 -12 1 431.96 37.7
-12 -10 1 438.76 40
-22 13 -1 390.96 41.2
13 9 -1 253.37 33.9
22 -13 1 265.67 29.2
14 8 -1 396.76 41.1
-22 14 -1 405.36 42
-14 -8 1 506.95 42.9
22 -14 1 378.96 31.8
-8 22 1 374.56 22
22 -14 1 415.66 34.4
-22 15 -1 280.07 36.6
15 7 -1 227.78 35.7
-15 -7 1 219.38 33.3
22 -15 1 198.18 23.9
22 -15 1 201.38 24.2
-7 22 1 217.28 16.5
16 6 -1 285.57 40.6
-22 16 -1 291.37 35.9
-16 -6 1 286.47 37.2
22 -16 1 330.07 27
22 -16 1 353.96 29.8
-6 22 1 326.67 22.2
-22 17 -1 222.48 34.3
17 5 -1 193.48 34.9
22 -17 1 214.18 19.5
-17 -5 1 204.08 34.3
-5 22 1 213.48 18.7
22 -17 1 174.08 17.6
-22 18 -1 404.06 40.8
18 4 -1 367.76 41.6
-4 22 1 323.37 27
19 3 -1 178.68 33.6
-3 22 1 217.48 21.6
-19 -3 1 177.38 44.3
20 2 -1 266.57 42.1
-2 22 1 270.27 25.7
-20 -2 1 254.37 38.2
21 1 -1 155.78 33.2
-21 -1 1 105.19 30.3
-1 22 1 155.78 22.8
22 0 -1 223.58 38
-22 22 -1 226.28 41.2
-22 0 1 191.88 38.4
0 22 1 198.68 27.8
-22 23 -1 66.49 25.6
23 -1 -1 115.29 28.6
1 22 1 69.79 19.3
24 -2 -1 161.48 34.6
-22 24 -1 206.98 37.9
2 22 1 197.68 28.8
-22 25 -1 41.8 24.9
25 -3 -1 88.29 28
3 22 1 54.49 19
-22 26 -1 168.28 35.1
26 -4 -1 147.09 34.9
4 22 1 156.18 28.8
-22 27 -1 22.7 24.6
27 -5 -1 78.99 29.2
5 22 1 6.4 17.8
28 -6 -1 78.99 29.1
-22 28 -1 97.49 30.2
6 22 1 76.79 23.1
-5 28 -1 42.2 19.3
23 5 1 80.59 29.3
-28 23 1 29.2 26.5
-4 27 -1 39 17.9
23 4 1 -11.9 19
-3 26 -1 54.99 18.9
-26 23 1 62.89 26
-2 25 -1 1.7 14.2
-25 23 1 1.4 19
23 2 1 38.8 21.9
-1 24 -1 110.49 22.6
-24 23 1 103.19 24.8
23 1 1 56.69 25.5
0 23 -1 13.2 14.4
-23 23 1 21.8 17.2
23 0 1 15.7 18.1
1 22 -1 62.69 20
23 -1 1 47.5 22.9
-22 23 1 63.89 19.2
2 21 -1 -3.6 13.8
-21 23 1 15.6 15.5
23 -2 1 -15.1 15.6
-23 3 -1 99.19 29.3
3 20 -1 41.5 19.3
23 -3 1 78.39 23.2
-20 23 1 66.59 16.4
-23 4 -1 9.7 30.3
4 19 -1 13 14.9
23 -4 1 16.6 17
-19 23 1 9.8 12.4
5 18 -1 79.19 22.4
-18 23 1 111.19 17.6
23 -5 1 92.69 25.8
6 17 -1 -15.5 12.4
23 -6 1 -8.4 14.6
-17 23 1 -8.9 14.1
-6 -17 1 13.9 13.1
-17 23 1 6.5 9.2
-6 -17 1 31.8 14
7 16 -1 1.4 14.7
23 -7 1 18.3 18.2
-16 23 1 39.6 10.5
-16 23 1 58.39 19.1
-7 -16 1 20.9 13.9
-23 8 -1 -14.6 23.1
8 15 -1 8.3 18.1
-15 23 1 19.8 25.6
-15 23 1 -2.6 7.1
-23 9 -1 81.19 26.8
23 -9 1 62.09 21
-14 23 1 54.89 9.8
-23 10 -1 12.3 20.3
10 13 -1 0.2 20.2
23 -10 1 37.4 17.4
-23 11 -1 9.9 20.6
11 12 -1 45.2 19.5
-11 -12 1 25 16.9
23 -11 1 3.6 14.4
12 11 -1 50.39 21.1
-23 12 -1 22.7 21.2
23 -12 1 5.7 13.6
-12 -11 1 42.9 18.3
13 10 -1 -9.1 14
-23 13 -1 16.9 19.8
-13 -10 1 34.6 18.7
23 -13 1 -2.7 13.7
-23 14 -1 83.89 26.3
14 9 -1 40.4 21
-14 -9 1 62.99 22.9
23 -14 1 29.7 15.5
15 8 -1 45.6 19.2
-23 15 -1 24.1 19.2
23 -15 1 40.3 14.3
-15 -8 1 33.8 20.9
23 -15 1 18.1 13.8
-8 23 1 16.5 6.9
-23 16 -1 55.19 23.9
16 7 -1 48.5 20.3
-7 23 1 46.3 9.2
23 -16 1 21.9 13
23 -16 1 31.6 13.8
-16 -7 1 60.69 21.2
-23 17 -1 28.9 19.7
17 6 -1 -9.5 14.6
23 -17 1 14.1 10.3
-6 23 1 -0.5 7.3
-23 18 -1 140.19 29.1
18 5 -1 67.89 26.5
23 -18 1 70.49 13
23 -18 1 63.89 10
19 4 -1 23 18.1
-19 -4 1 -77.59 30.1
-4 23 1 14.1 10.4
20 3 -1 110.79 29.4
-20 -3 1 87.39 27.1
-3 23 1 72.79 15.6
21 2 -1 10.7 19.4
-21 -2 1 35.1 24.5
-2 23 1 14.8 11.3
22 1 -1 138.09 32.2
-1 23 1 92.79 19
-22 -1 1 124.19 35
-23 23 -1 48.2 24
23 0 -1 41 24
0 23 1 28.2 14
24 -1 -1 90.69 28.8
-23 24 -1 36.5 26.1
1 23 1 94.79 20.1
25 -2 -1 4.9 19.5
-23 25 -1 -12.3 18
2 23 1 39 16.5
26 -3 -1 110.99 30.3
3 23 1 130.49 27.3
27 -4 -1 -11.2 23
-23 27 -1 2.2 22.4
4 23 1 23 17.8
-23 28 -1 60.79 32.2
5 23 1 86.59 25.9
-3 27 -1 87.49 24
24 3 1 44.5 22.8
-2 26 -1 130.19 26
-26 24 1 123.99 28.5
24 2 1 108.69 30.6
-1 25 -1 142.99 27.3
-25 24 1 83.29 24.7
24 1 1 104.99 36.2
0 24 -1 176.08 29.5
-24 24 1 90.89 24.5
24 0 1 110.29 29.7
1 23 -1 116.59 24.4
24 -1 1 78.79 28
-23 24 1 110.49 23.9
2 22 -1 175.38 31.7
-22 24 1 222.58 29
24 -2 1 151.38 33.2
3 21 -1 87.69 28.2
-21 24 1 80.99 20.5
24 -3 1 116.49 29.6
-24 4 -1 282.87 63.99
-20 24 1 213.38 25.8
24 -4 1 236.18 39.5
-24 5 -1 237.18 39.9
24 -5 1 137.29 30.9
-19 24 1 137.59 20.8
6 18 -1 196.68 48.2
-24 6 -1 267.97 43.2
-6 -18 1 189.28 24.4
-18 24 1 240.48 23.2
24 -6 1 223.28 36.4
-18 24 1 227.18 31.2
7 17 -1 144.89 31.1
-24 7 -1 160.78 36.9
-7 -17 1 163.58 24.8
24 -7 1 161.18 30.3
-17 24 1 185.88 19.1
-17 24 1 189.78 27.6
8 16 -1 222.88 34.9
-24 8 -1 238.18 40.1
-16 24 1 194.98 19.1
-16 24 1 210.88 29.3
24 -8 1 255.57 37.7
-8 -16 1 212.48 27.2
9 15 -1 176.88 30.2
-24 9 -1 161.08 35
-15 24 1 157.08 24.3
24 -9 1 167.78 33.8
-15 24 1 145.69 15.6
10 14 -1 298.17 36.6
-24 10 -1 313.67 51.59
24 -10 1 299.47 40.6
11 13 -1 260.77 33.3
24 -11 1 168.78 28.5
12 12 -1 322.07 44.2
-24 12 -1 342.47 45
-12 -12 1 295.27 34.9
24 -12 1 349.27 35.5
13 11 -1 188.38 33.2
-24 13 -1 209.78 36.9
-13 -11 1 234.98 33.6
24 -13 1 199.08 29.2
-24 14 -1 354.56 46.4
14 10 -1 285.37 37.4
24 -14 1 289.57 31
-14 -10 1 268.87 36
-24 15 -1 149.49 31.8
15 9 -1 197.58 35.2
-15 -9 1 205.88 33.4
24 -15 1 196.68 25.6
-9 24 1 151.58 13.4
-24 16 -1 263.07 40.3
16 8 -1 279.37 40.7
-16 -8 1 277.57 43.4
24 -16 1 256.17 26.1
-8 24 1 178.18 16.6
24 -16 1 230.88 25.4
17 7 -1 228.18 36.5
-24 17 -1 180.08 32.7
24 -17 1 157.28 20
-7 24 1 118.09 15.1
24 -17 1 191.78 22.7
18 6 -1 237.68 39.4
-24 18 -1 310.67 40.6
24 -18 1 239.08 20.3
-6 24 1 233.98 32.5
24 -18 1 253.37 21.7
19 5 -1 96.59 28.1
-5 24 1 136.89 17.6
-19 -5 1 150.58 31.3
20 4 -1 215.28 36.5
-4 24 1 205.88 22
-20 -4 1 231.08 39.8
21 3 -1 110.69 28.6
-21 -3 1 62.59 27.4
-3 24 1 94.99 17.2
22 2 -1 218.58 39
-2 24 1 193.18 23.9
23 1 -1 137.09 34.3
-24 23 -1 112.99 31.9
-1 24 1 113.59 22.1
24 0 -1 145.09 35.2
-24 24 -1 64.39 27.4
0 24 1 126.39 23.2
-24 25 -1 104.09 29.5
25 -1 -1 63.49 28.8
1 24 1 57.59 19.3
-24 26 -1 68.99 31.5
26 -2 -1 123.29 33.9
2 24 1 130.09 32.8
-24 27 -1 82.79 28.6
27 -3 -1 75.19 47.3
3 24 1 56.59 22.1
-1 26 -1 55.89 21.1
-26 25 1 83.89 26
25 1 1 44 24.8
0 25 -1 20.7 17.3
25 0 1 13.3 34.9
-25 25 1 13 19
1 24 -1 63.49 22.2
-24 25 1 68.79 23.3
25 -1 1 18.1 20.5
2 23 -1 22.6 16.4
-23 25 1 -2 14.9
25 -2 1 8 19.3
3 22 -1 37.7 20.4
-22 25 1 82.39 19.9
25 -3 1 85.29 27.5
4 21 -1 -9.6 14.7
-21 25 1 -27.6 12.9
25 -4 1 6.2 18.5
5 20 -1 33 19.2
-20 25 1 21.2 14.7
25 -5 1 32 20.6
-20 25 1 53.49 19.6
6 19 -1 20.8 17.2
-19 25 1 23.1 13.8
25 -6 1 22 18.3
-19 25 1 -0.8 15.5
-25 7 -1 52.39 38.8
7 18 -1 55.99 19.9
-18 25 1 69.79 20.5
-7 -18 1 70.29 19.3
-18 25 1 23.4 12.6
-7 -18 1 40 17.2
25 -7 1 64.79 23.6
-25 8 -1 32.4 22.9
8 17 -1 2.4 15.9
-17 25 1 -9.1 8
-8 -17 1 -3.4 14.1
25 -8 1 15.8 17.2
-17 25 1 18 15.2
-8 -17 1 -4.5 14.3
9 16 -1 38.1 19.8
-25 9 -1 23.5 26
25 -9 1 16.5 19
-9 -16 1 10.9 14.9
10 15 -1 -7.9 16.2
-25 10 -1 1.2 22.9
25 -10 1 31.2 18.1
-25 11 -1 15 23.6
11 14 -1 43.2 21
25 -11 1 16.7 22.5
12 13 -1 -7.7 15.2
-25 12 -1 18.7 22.7
25 -12 1 20.4 16.8
13 12 -1 15.1 17.2
-25 13 -1 64.89 26.4
25 -13 1 -1.4 14.8
14 11 -1 20.2 19.7
-25 14 -1 28.9 26.2
25 -14 1 67.09 19
-14 -11 1 9.5 20.4
15 10 -1 55.79 21.9
25 -15 1 24.1 15.7
-10 25 1 13.4 6.3
-15 -10 1 59.59 21.4
25 -15 1 19.1 14.3
-25 16 -1 15.8 34.6
16 9 -1 61.99 23
-9 25 1 29.5 8.3
25 -16 1 25.3 14.3
17 8 -1 7.9 16.9
-25 17 -1 -15.3 22.1
25 -17 1 10.2 12.7
25 -17 1 0.6 12
-8 25 1 9.4 7.7
-25 18 -1 91.59 27.5
18 7 -1 37.3 20
-18 -7 1 68.39 32.3
-7 25 1 55.29 11.6
25 -18 1 44 14
19 6 -1 13.7 19.4
-19 -6 1 12.4 24.7
-6 25 1 2.3 8.7
20 5 -1 54.49 24.9
-20 -5 1 57.39 27.9
-5 25 1 28.2 11.8
21 4 -1 12.6 18.5
-4 25 1 -6.7 9.4
22 3 -1 -1.7 21.2
-3 25 1 25 13.5
-25 23 -1 -2.3 20.7
23 2 -1 14.6 22.6
-2 25 1 10.5 12.4
-25 24 -1 69.89 29.2
24 1 -1 73.39 27.4
-1 25 1 41.8 17
-25 25 -1 -6.4 23.7
0 25 1 20.6 16.8
26 -1 -1 60.29 27.1
-25 26 -1 40.5 25.2
1 25 -1 51.89 21.3
26 -1 1 44.7 23.3
-25 26 1 49.4 22.3
2 24 -1 89.49 24.5
-24 26 1 77.39 22.8
3 23 -1 60.29 21.1
-23 26 1 91.89 22.7
26 -3 1 42.9 23.3
4 22 -1 149.19 29.5
26 -4 1 117.59 30.4
5 21 -1 88.39 24.8
-21 26 1 50.29 17.1
-21 26 1 77.69 22.5
26 -5 1 60.89 26.1
6 20 -1 150.38 30.5
-20 26 1 162.28 29.5
-20 26 1 171.48 23.4
26 -6 1 116.59 29.5
7 19 -1 63.69 22.9
-19 26 1 108.99 18
26 -7 1 101.49 27.7
-19 26 1 68.49 22.1
8 18 -1 201.28 35.9
-8 -18 1 212.88 28.7
-18 26 1 212.28 31.2
-8 -18 1 165.58 26.8
26 -8 1 185.08 34.1
9 17 -1 186.78 34
-9 -17 1 127.79 25.7
-17 26 1 113.59 30.5
26 -9 1 122.59 28.8
10 16 -1 173.68 33.2
26 -10 1 121.79 28.4
-10 -16 1 198.68 30.9
11 15 -1 128.99 28.8
-26 11 -1 78.49 34.4
26 -11 1 125.19 26.5
-26 12 -1 202.48 40.9
12 14 -1 204.48 35.5
-26 13 -1 145.59 35
13 13 -1 168.38 32.2
26 -13 1 119.99 26.1
14 12 -1 180.08 34.6
-26 14 -1 276.07 44.5
26 -14 1 207.18 30.4
15 11 -1 143.29 30.9
-26 15 -1 157.28 34.8
-15 -11 1 227.38 34.6
26 -15 1 126.39 23.5
26 -15 1 122.49 23.4
-26 16 -1 217.18 38.9
16 10 -1 188.48 34.6
26 -16 1 155.48 25.5
26 -16 1 185.48 25.5
-10 26 1 161.58 14.9
-26 17 -1 188.38 36.4
17 9 -1 168.38 33
26 -17 1 105.29 20.2
-9 26 1 121.19 14.4
26 -17 1 117.19 24.6
18 8 -1 186.18 36.4
-18 -8 1 186.38 37.6
26 -18 1 185.68 23.4
26 -18 1 174.48 22.8
-8 26 1 154.18 17.9
19 7 -1 85.19 27.7
-7 26 1 117.09 16.6
26 -19 1 129.99 15.9
26 -19 1 85.89 12.7
-19 -7 1 103.79 32
20 6 -1 172.68 37.4
-20 -6 1 132.89 35.9
-6 26 1 182.98 19.9
21 5 -1 122.59 29.4
-5 26 1 120.49 18.1
22 4 -1 157.88 34
-4 26 1 123.79 19.9
-26 23 -1 41.6 28.1
-3 26 1 49.4 16.7
24 2 -1 101.39 36.1
-26 24 -1 93.49 30
-2 26 1 101.99 22.8
25 1 -1 38.4 26.8
-26 25 -1 36.9 28
-1 26 1 47.7 18.2
3 24 -1 43.4 21.7
27 -3 1 47.6 23.3
-24 27 1 50.79 21
4 23 -1 3.2 18
-23 27 1 7.2 17.6
-23 27 1 3.6 18.4
27 -4 1 4.5 23.8
5 22 -1 55.99 23.3
-22 27 1 49 21.7
27 -5 1 8.5 20.5
6 21 -1 5.3 18.7
-21 27 1 5.7 16.7
-21 27 1 3.6 13.9
27 -6 1 22.8 20.3
-20 27 1 53.99 20.2
27 -7 1 63.39 25.9
8 19 -1 44.5 19.3
27 -8 1 -10.1 17.4
-19 27 1 4.4 16.7
9 18 -1 25.6 20.5
-9 -18 1 -12.9 15.1
-9 -18 1 16.6 16.2
-18 27 1 32.8 17.6
27 -9 1 -4.2 18.9
10 17 -1 0.4 18.9
27 -10 1 -1 17.4
-10 -17 1 -1.9 16.1
11 16 -1 -19.6 16.1
27 -11 1 15 17.6
-11 -16 1 15 19.2
12 15 -1 -13.6 17.1
27 -12 1 -13.9 16.5
13 14 -1 -3.1 18.1
27 -13 1 0.6 16.7
14 13 -1 7.4 18.4
27 -14 1 19.7 15.9
15 12 -1 19.2 18.4
27 -15 1 14.1 16.2
-27 16 -1 7.4 24.5
16 11 -1 27.1 19.7
-11 27 1 -12.3 6.6
27 -16 1 -3.7 16.4
27 -16 1 -3.4 15.6
-27 17 -1 -25.7 21
17 10 -1 -21 16.1
-10 27 1 0.6 8
27 -17 1 9.6 14.3
-17 -10 1 29 28
27 -17 1 3.5 17.1
18 9 -1 21.2 20.8
-18 -9 1 48.9 27.3
27 -18 1 25.8 16.4
27 -18 1 27.4 13.8
-9 27 1 22.1 9.3
19 8 -1 -5.6 20.6
27 -19 1 -0.5 11.1
-8 27 1 -14.5 11.2
-19 -8 1 14 27.6
20 7 -1 39 24.8
-7 27 1 19.1 11.9
-6 27 1 31.1 11.9
22 5 -1 27.3 24.3
-5 27 1 27.2 14.1
-27 23 -1 -18.3 25.6
23 4 -1 -21.8 18
-4 27 1 -25.9 11.7
24 3 -1 65.89 28
-27 24 -1 70.89 30.2
-3 27 1 42.1 16.6
5 23 -1 93.69 28.5
28 -5 1 35.7 27.5
-23 28 1 49.8 23.3
6 22 -1 94.59 27.3
-22 28 1 155.28 29.8
28 -6 1 80.79 28.2
7 21 -1 57.49 23
28 -7 1 81.89 28.5
-21 28 1 63.19 23
8 20 -1 60.29 24.7
-20 28 1 114.99 25.7
28 -8 1 50.79 26.1
9 19 -1 87.59 27
-19 28 1 61.69 19.1
-9 -19 1 53.19 19.9
-9 -19 1 49.9 19.9
-19 28 1 81.19 20.8
28 -9 1 35.4 23.3
10 18 -1 85.89 27.1
28 -10 1 92.69 27.2
-10 -18 1 142.59 26.3
-10 -18 1 94.19 23.5
11 17 -1 92.29 28.1
-11 -17 1 45.7 35.7
28 -11 1 85.29 26.1
12 16 -1 126.39 30.6
28 -12 1 98.49 27.4
-12 -16 1 91.69 26.4
13 15 -1 122.59 31.6
28 -13 1 154.28 30.4
14 14 -1 132.29 32.1
28 -14 1 131.59 27.4
15 13 -1 89.59 27.8
28 -15 1 74.59 23.4
16 12 -1 96.49 29.4
28 -16 1 125.79 25
28 -16 1 145.49 27.5
17 11 -1 22.4 22.5
28 -17 1 95.79 22.6
-11 28 1 113.89 13.8
28 -17 1 99.69 22.1
18 10 -1 103.19 36.6
28 -18 1 101.19 19.8
-10 28 1 92.59 14.5
-19 -9 1 61.59 32.6
28 -19 1 63.19 21.9
28 -19 1 62.89 16.1
20 8 -1 77.69 31
-8 28 1 102.59 15.9
21 7 -1 87.39 28.3
-7 28 1 33.6 13.6
22 6 -1 131.99 33.4
-6 28 1 92.89 18.8
23 5 -1 40.2 25.1
-5 28 1 68.19 17.5
9 20 -1 18.3 19.9
-20 29 1 15.6 19.1
-20 29 1 44.9 19.1
29 -9 1 -27.1 19.7
10 19 -1 7 21.9
-10 -19 1 -2 16.9
-10 -19 1 -10.9 18.8
29 -10 1 17.1 20.9
11 18 -1 16.4 19.9
29 -11 1 7.5 22.3
-11 -18 1 37.9 19.8
12 17 -1 6.1 19.1
29 -12 1 -35.2 16.9
-12 -17 1 34.7 21.6
13 16 -1 -19.8 19.6
29 -13 1 49.3 21.4
-13 -16 1 54.89 23.6
14 15 -1 -13.5 18.9
-14 -15 1 -17.5 18
29 -14 1 -8.8 18.6
15 14 -1 0.9 21.7
29 -15 1 12.7 21.5
29 -16 1 3.3 18.7
29 -16 1 -28.7 15.8
17 12 -1 -23.8 27.3
29 -17 1 37.4 19.2
29 -17 1 2 16.8
18 11 -1 26.9 23.7
29 -18 1 25.5 15.4
29 -18 1 4.4 16.2
-11 29 1 -0.7 8.6
19 10 -1 -4.3 21.4
29 -19 1 -12.2 14.1
29 -19 1 -10.8 13.3
-10 29 1 15.8 11.5
20 9 -1 31.5 23.5
-9 29 1 3.5 10.5
0 0 -2 9872.21 419.96
0 0 -2 9017.6 415.36
0 0 2 9999 420.36
0 0 2 9447.35 415.96
0 1 -2 616.64 31.7
-1 0 -2 607.34 37
1 -1 -2 603.84 36
-1 0 -2 577.84 30.9
1 -1 -2 592.74 31
0 1 -2 579.54 36.1
0 -1 2 629.84 36.7
0 -1 2 539.45 31.2
-1 1 2 589.64 31.2
1 0 2 592.34 31.3
1 0 2 585.04 36.9
-1 1 2 641.74 36.8
-1 1 -2 555.14 32
1 0 -2 617.64 36.6
1 0 -2 601.04 32.3
0 -1 -2 680.73 38.3
-1 1 -2 613.74 37.4
0 -1 -2 704.73 32.2
-1 0 2 606.44 37.1
0 1 2 676.13 38.2
1 -1 2 557.54 32
-1 0 2 620.14 32.5
1 -1 2 586.44 37.5
2 -1 -2 204.68 19.7
-1 2 -2 190.48 21
-1 -1 -2 186.28 21.4
2 -1 -2 208.48 15.1
-1 2 -2 202.28 15.6
1 1 2 173.48 14.8
1 -2 2 246.28 22.3
1 1 2 196.38 21.8
-2 1 2 191.78 20.7
-2 1 2 197.08 15.1
1 -2 2 201.58 14.8
-1 3 -2 19.1 10.9
-1 3 -2 11.1 7.1
3 -2 -2 11 6.1
3 -2 -2 26.9 9.6
-2 -1 -2 4.9 9.3
1 -3 2 22.6 12.1
-3 2 2 14.5 6.6
2 1 2 27.7 12.5
-3 2 2 18.2 10.7
1 -3 2 6.5 6.7
0 2 -2 1096.79 55.59
2 -2 -2 1167.58 54.39
2 -2 -2 1192.18 59.19
0 2 -2 1189.08 59.49
-2 0 -2 1112.39 60.69
2 0 2 1183.88 61.09
-2 2 2 1171.08 55.09
0 -2 2 1180.88 55.79
0 -2 2 1153.98 59.79
-2 2 2 1162.18 59.99
2 0 2 1134.89 55.49
1 -2 -2 211.58 14.4
1 -2 -2 237.58 21.9
1 1 -2 208.38 20.3
1 1 -2 169.38 15.1
-2 1 -2 258.57 27.5
-2 1 -2 235.78 16.2
-1 2 2 211.28 15.2
-1 2 2 223.48 22.2
2 -1 2 196.18 15.1
-1 -1 2 211.08 21.5
-1 -1 2 202.78 16.2
2 -1 2 225.78 22.6
-2 2 -2 1115.09 54.79
2 0 -2 1125.99 55.39
-2 2 -2 1229.98 60.79
2 0 -2 1173.38 58.29
0 -2 -2 1174.48 59.99
2 -2 2 1212.98 60.59
-2 0 2 1115.09 55.29
0 2 2 1207.28 60.29
-2 0 2 1132.69 59.09
0 2 2 1052.79 53.99
2 -2 2 1144.59 55.09
-1 -2 -2 4.2 9.6
-2 3 -2 8.5 6.5
3 -1 -2 10 8.1
-2 3 -2 1.3 9.9
3 -1 -2 13.5 6.9
2 -3 2 15.3 6.4
-3 1 2 12.1 7
2 -3 2 15.4 10.9
1 2 2 25.9 12.2
-3 1 2 11.7 10
-2 4 -2 444.36 30.6
-2 -2 -2 430.86 31.8
-2 4 -2 410.56 25.5
4 -2 -2 451.65 25.5
-4 2 2 461.15 25.9
2 2 2 414.76 31.4
2 -4 2 425.56 25.4
2 -4 2 440.46 30.9
-4 2 2 444.86 30.1
-2 5 -2 150.98 18.5
-3 -2 -2 179.48 23
5 -3 -2 120.39 12.4
-2 5 -2 106.59 13.5
3 2 2 162.88 20.5
2 -5 2 139.39 19.8
-5 3 2 126.09 13.2
-5 3 2 143.29 18.8
2 -5 2 121.69 12.9
-1 4 -2 106.09 15.7
-3 -1 -2 82.89 17.7
4 -3 -2 158.08 12.5
-1 4 -2 112.69 13.2
-4 3 2 107.39 12.1
1 -4 2 110.69 13.1
3 1 2 116.89 17.5
-4 3 2 122.29 16.2
1 -4 2 134.29 16.8
-3 0 -2 480.75 33.8
3 -3 -2 465.15 25
0 3 -2 423.16 27.1
0 3 -2 471.65 30.7
3 -3 -2 484.35 30
0 -3 2 435.46 26.3
-3 3 2 474.15 25.6
-3 3 2 478.55 31.8
3 0 2 527.45 33.6
0 -3 2 464.05 31.4
2 -3 -2 12 5.4
1 2 -2 15.2 10.5
-3 1 -2 21.5 13.2
1 2 -2 10.5 7.2
2 -3 -2 14.9 9.9
3 -1 2 12.1 10.4
-2 3 2 24.3 9.9
-2 3 2 10.6 5.5
3 -1 2 12.4 7.3
-1 -2 2 17.8 7.6
-1 -2 2 11.9 10.2
2 1 -2 18.2 8.5
1 -3 -2 13.3 10.6
2 1 -2 26.9 8.2
-3 2 -2 10.9 12.3
-1 3 2 11.1 5.8
-2 -1 2 20.1 7.4
-1 3 2 3.5 10.7
3 -2 2 14.3 11.4
3 -2 2 21.3 7.5
-2 -1 2 7.2 10.5
-3 3 -2 439.36 25.8
-3 3 -2 432.16 31.5
3 0 -2 428.56 26.6
0 -3 -2 402.26 30.6
0 3 2 473.75 32
-3 0 2 437.16 30.4
3 -3 2 489.25 26.3
-3 0 2 472.75 26.9
3 -3 2 462.75 31.9
-3 4 -2 120.09 18.3
4 -1 -2 101.19 12.9
-3 4 -2 105.29 13.1
-1 -3 -2 106.09 15.8
-4 1 2 91.19 14.4
3 -4 2 132.99 18.5
-4 1 2 121.69 13.5
1 3 2 152.78 21
3 -4 2 115.29 12.5
5 -2 -2 106.19 13.1
-3 5 -2 118.89 13.9
-2 -3 -2 189.58 21.8
-3 5 -2 165.98 20.3
3 -5 2 111.69 12.8
3 -5 2 151.98 19.8
-5 2 2 126.79 13.9
2 3 2 156.08 20.8
-5 2 2 152.68 19.1
-3 6 -2 204.88 21.8
-3 -3 -2 187.48 24.8
6 -3 -2 218.88 17.2
-3 6 -2 209.68 17.2
3 -6 2 220.78 16.5
3 -6 2 222.08 21.6
3 3 2 242.38 23.2
-6 3 2 179.98 16.6
-3 7 -2 112.99 13.7
-4 -3 -2 140.59 22.3
-3 7 -2 121.19 17.1
7 -4 -2 124.29 13.7
4 3 2 172.48 22.5
3 -7 2 138.79 18.1
3 -7 2 107.89 12.3
-7 4 2 124.89 14.2
-2 6 -2 1369.86 67.19
6 -4 -2 1307.27 63.49
-2 6 -2 1301.27 64.79
-4 -2 -2 1313.97 71.39
-6 4 2 1404.76 64.99
4 2 2 1357.66 70.59
2 -6 2 1301.57 63.99
2 -6 2 1379.36 67.59
-4 -1 -2 44.9 14.8
-1 5 -2 93.19 14.7
-1 5 -2 54.99 10.5
5 -4 -2 60.09 8.7
-5 4 2 57.19 14.5
4 1 2 78.29 17.1
-5 4 2 62.29 9.7
1 -5 2 61.59 10.2
4 -4 -2 1239.48 56.79
0 4 -2 1284.97 61.79
-4 0 -2 1200.38 65.79
0 4 -2 1130.79 59.49
0 -4 2 1254.17 62.59
-4 4 2 1225.48 57.79
4 0 2 1280.47 65.69
0 -4 2 1198.58 59.39
-4 4 2 1216.08 62.89
1 3 -2 103.39 13.7
3 -4 -2 118.59 16.8
1 3 -2 143.79 17.2
-4 1 -2 80.39 16.8
-3 4 2 138.59 18.1
4 -1 2 100.49 17.1
-1 -3 2 108.49 15.6
-1 -3 2 143.89 13.8
-3 4 2 132.49 11.4
-4 2 -2 408.36 32.1
2 -4 -2 395.86 28.9
2 2 -2 409.96 26.3
2 2 -2 423.26 27.6
-2 -2 2 408.86 25.6
-2 4 2 393.46 22.6
-2 4 2 460.55 30.9
4 -2 2 467.45 31.9
4 -2 2 416.96 25.4
-2 -2 2 456.75 29.8
1 -4 -2 137.59 18.8
3 1 -2 119.99 14.5
-4 3 -2 107.49 18.8
-3 -1 2 98.39 14.9
4 -3 2 156.58 20.5
4 -3 2 149.59 13.7
-3 -1 2 105.79 13.4
-1 4 2 115.09 17.7
-4 4 -2 1156.18 63.19
-4 4 -2 1213.78 57.59
4 0 -2 1118.59 58.79
0 -4 -2 1181.88 62.19
4 -4 2 1227.58 62.89
-4 0 2 1163.48 58.79
-4 0 2 1223.08 61.49
4 -4 2 1176.98 57.49
0 4 2 1264.77 62.89
-1 -4 -2 55.59 14.7
-4 5 -2 68.79 10.7
5 -1 -2 62.49 11.8
-4 5 -2 53.69 15.4
4 -5 2 62.89 9.8
-5 1 2 73.29 13
4 -5 2 43.2 13
1 4 2 77.99 15.8
-5 1 2 73.99 11.6
-4 6 -2 1323.07 68.29
-4 6 -2 1298.97 64.09
-2 -4 -2 1349.56 69.89
6 -2 -2 1276.77 65.29
4 -6 2 1363.56 68.29
2 4 2 1407.06 69.69
-6 2 2 1408.96 66.29
4 -6 2 1276.77 63.49
-4 7 -2 119.09 13.3
-3 -4 -2 150.18 22.7
-4 7 -2 115.09 18.4
7 -3 -2 110.59 14.6
3 4 2 115.79 17.5
4 -7 2 109.39 12.1
4 -7 2 143.39 18.4
-7 3 2 123.79 15.3
-4 8 -2 876.41 50.69
8 -4 -2 889.21 48.6
-4 -4 -2 964.4 55.89
-4 8 -2 956 48.4
-8 4 2 975.3 49.99
4 -8 2 958.7 46.9
4 4 2 992.5 54.49
4 -8 2 945.41 50.79
9 -5 -2 195.98 18.2
-4 9 -2 223.18 18.1
-5 -4 -2 203.28 26.4
-4 9 -2 206.08 21.2
4 -9 2 218.08 20.9
-9 5 2 221.18 19.4
4 -9 2 206.08 15.7
-3 8 -2 59.99 12.6
-5 -3 -2 47.6 15.2
8 -5 -2 66.09 10.7
-3 8 -2 53.69 10.4
3 -8 2 87.59 10.9
3 -8 2 52.89 13.1
-8 5 2 75.59 11.7
-2 7 -2 260.07 22
-2 7 -2 246.18 18.8
-5 -2 -2 226.38 26.5
7 -5 -2 233.38 16.9
2 -7 2 270.27 22.6
2 -7 2 242.28 17.6
-7 5 2 263.07 18.7
-1 6 -2 248.68 22.1
6 -5 -2 289.07 17.8
-5 -1 -2 297.87 28.5
-1 6 -2 264.37 20.2
-6 5 2 327.07 19.6
5 1 2 293.07 26.2
1 -6 2 256.27 19.1
1 -6 2 269.87 23.7
-6 5 2 304.97 24.8
0 5 -2 301.37 22.6
0 5 -2 278.47 21.1
-5 0 -2 278.27 28.7
5 -5 -2 280.57 17
-5 5 2 314.77 19
-5 5 2 301.97 24.7
0 -5 2 301.47 24.4
0 -5 2 292.07 20.2
5 0 2 286.97 26.2
1 4 -2 44.2 10.7
4 -5 -2 64.19 11.4
1 4 -2 56.29 11.7
-5 1 -2 62.09 16.3
-4 5 2 83.09 9.4
5 -1 2 66.49 14.9
-4 5 2 97.09 15.1
-1 -4 2 50.89 9.7
-1 -4 2 32.5 11.7
2 3 -2 120.69 15.4
3 -5 -2 150.88 17.5
-2 -3 2 122.69 14
-2 -3 2 153.18 18.9
-3 5 2 119.49 16.6
-3 5 2 103.99 10.8
-5 3 -2 157.08 22
3 2 -2 109.29 13.6
2 -5 -2 168.28 19.5
5 -3 2 103.09 12.7
5 -3 2 154.38 20.2
-2 5 2 147.69 18.6
-3 -2 2 141.59 17.2
-3 -2 2 110.49 14.1
1 -5 -2 50.39 13.3
-5 4 -2 71.89 16.6
-1 5 2 63.69 13.9
5 -4 2 57.79 13.6
5 -4 2 76.29 11.3
0 -5 -2 294.97 25.7
-5 5 -2 282.37 26.9
5 0 -2 244.78 21.1
-5 5 -2 275.07 19.8
0 5 2 286.27 25.7
5 -5 2 303.27 25.4
5 -5 2 281.27 19.9
-5 0 2 294.27 21.6
-5 6 -2 270.27 19.6
-5 6 -2 253.77 25.5
-1 -5 -2 216.18 24
6 -1 -2 244.08 20.8
5 -6 2 325.37 25.2
-6 1 2 262.77 20.7
1 5 2 286.27 25.1
5 -6 2 258.57 18.3
7 -2 -2 270.77 21.3
-5 7 -2 248.48 19.3
-2 -5 -2 336.87 26.8
-5 7 -2 242.98 24.3
2 5 2 346.47 26.1
5 -7 2 251.57 18.3
5 -7 2 238.78 23
-7 2 2 244.48 20.6
8 -3 -2 59.79 12.2
-3 -5 -2 33.7 14.8
-5 8 -2 63.39 14.2
-5 8 -2 68.19 10.5
5 -8 2 65.49 9.4
-8 3 2 67.29 12.7
3 5 2 40.5 12.8
5 -8 2 40.9 11.8
-5 9 -2 218.98 17.8
9 -4 -2 207.18 19.3
-4 -5 -2 187.48 25.8
-5 9 -2 248.98 23.1
-9 4 2 207.38 19.5
5 -9 2 209.48 15.7
5 -9 2 194.88 20.8
10 -5 -2 186.28 18.8
-5 -5 -2 188.58 26.2
-5 10 -2 192.88 21.6
-5 10 -2 173.08 17.5
5 -10 2 202.08 20.2
5 -10 2 201.58 15
-10 5 2 171.08 19.3
-5 11 -2 159.68 16.9
11 -6 -2 174.68 18.2
-5 11 -2 199.68 21.4
5 -11 2 172.18 13.5
6 5 2 226.18 22.1
-11 6 2 167.68 18.4
-4 10 -2 1355.36 65.29
-4 10 -2 1299.27 66.19
-6 -4 -2 1336.07 74.29
10 -6 -2 1359.16 65.39
4 -10 2 1331.37 66.19
-10 6 2 1359.06 67.29
6 4 2 1251.47 68.09
4 -10 2 1254.07 61.99
-6 -3 -2 224.48 27.9
9 -6 -2 257.77 19
-3 9 -2 234.18 21.8
-3 9 -2 264.77 19.9
3 -9 2 236.48 22.2
-9 6 2 247.18 19.7
3 -9 2 269.07 18
-2 8 -2 1092.69 55.59
-2 8 -2 1095.59 55.69
8 -6 -2 1104.29 52.89
-6 -2 -2 1086.79 63.59
6 2 2 1076.29 58.39
2 -8 2 1097.49 53.89
2 -8 2 1090.39 56.69
-8 6 2 1118.49 54.99
-1 7 -2 166.18 16.9
7 -6 -2 164.28 12.9
-1 7 -2 171.88 17.5
-6 -1 -2 201.68 24.8
1 -7 2 154.58 19.2
-7 6 2 182.08 14.8
1 -7 2 157.58 14.9
-6 0 -2 2017.5 97.79
0 6 -2 1903.41 88.99
6 -6 -2 1872.41 84.59
0 6 -2 1753.42 89.39
-6 6 2 1907.21 86.99
0 -6 2 1847.12 90.39
-6 6 2 1998.5 92.89
0 -6 2 1916.21 89.09
1 5 -2 278.67 20.5
-6 1 -2 268.57 27.8
1 5 -2 269.47 21.3
-1 -5 2 281.07 23.6
-1 -5 2 247.88 19.8
-5 6 2 253.37 16.8
-5 6 2 279.87 24.1
-6 2 -2 1273.47 71.99
4 -6 -2 1330.87 66.59
2 4 -2 1408.56 67.29
-2 -4 2 1323.07 67.19
-2 -4 2 1344.37 65.99
-4 6 2 1384.26 68.69
-4 6 2 1346.87 66.59
3 3 -2 230.18 19.6
3 -6 -2 223.88 20.4
-6 3 -2 229.08 25.5
-3 -3 2 205.58 18.1
-3 -3 2 197.68 20.9
-3 6 2 204.28 22.4
4 2 -2 1380.26 68.09
-6 4 -2 1379.36 72.69
2 -6 -2 1336.57 67.99
6 -4 2 1366.76 71.29
-4 -2 2 1371.06 68.69
-2 6 2 1381.16 69.29
6 -4 2 1294.77 65.49
-4 -2 2 1360.56 67.39
1 -6 -2 266.57 23.5
5 1 -2 230.28 21.2
-6 5 -2 239.38 26.2
6 -5 2 327.27 20.2
-5 -1 2 265.17 21.2
6 -5 2 267.57 24.8
-1 6 2 259.27 24.6
0 -6 -2 1922.01 93.29
-6 6 -2 1907.51 95.39
-6 6 -2 1916.71 89.39
6 0 -2 1910.31 92.49
6 -6 2 1918.41 89.19
0 6 2 1979.7 93.79
-6 0 2 1877.91 91.99
-6 7 -2 165.58 21.7
-6 7 -2 177.08 15.6
7 -1 -2 141.79 17.3
-1 -6 -2 173.28 21.7
1 6 2 180.58 21.2
-7 1 2 163.68 17.6
6 -7 2 159.78 14.5
8 -2 -2 974.6 56.29
-6 8 -2 1112.99 59.69
-2 -6 -2 1117.89 59.89
-6 8 -2 1095.49 54.09
-8 2 2 1061.59 56.99
6 -8 2 1085.39 52.89
2 6 2 1117.79 59.19
-3 -6 -2 272.97 28.2
-6 9 -2 257.27 19.7
9 -3 -2 273.57 23.4
-6 9 -2 249.48 25.4
-9 3 2 242.08 21.7
6 -9 2 234.78 17.6
3 6 2 246.88 24.6
-4 -6 -2 1397.06 73.89
-6 10 -2 1312.87 65.49
-6 10 -2 1377.46 69.69
10 -4 -2 1283.97 68.89
6 -10 2 1358.56 63.69
6 -10 2 1291.67 62.69
-10 4 2 1319.97 68.89
-5 -6 -2 224.28 27.6
11 -5 -2 153.08 28.4
-6 11 -2 155.18 16.5
-6 11 -2 158.58 21.9
6 -11 2 173.48 14.8
5 6 2 184.38 21.2
-11 5 2 173.58 19.2
6 -11 2 188.08 13.5
-6 12 -2 1343.57 68.59
-6 -6 -2 1352.66 78.09
-6 12 -2 1372.86 70.99
6 -12 2 1417.26 63.69
-12 6 2 1404.66 73.09
6 6 2 1484.05 73.59
-6 13 -2 79.69 13.4
-6 13 -2 87.69 15.9
-7 -6 -2 70.29 21.4
-13 7 2 94.49 17.1
7 6 2 83.09 16.7
12 -7 -2 329.57 24
-7 -5 -2 323.77 33.6
-5 12 -2 301.57 25.2
-5 12 -2 337.97 23.7
7 5 2 270.57 26.4
-12 7 2 320.67 25.4
-4 11 -2 83.09 13.1
-7 -4 -2 82.29 20.9
11 -7 -2 86.59 13.1
-4 11 -2 76.59 14.5
-11 7 2 65.29 13.2
4 -11 2 58.79 8.5
4 -11 2 81.49 14.1
7 4 2 77.69 16
-3 10 -2 328.07 24.8
-7 -3 -2 327.17 33.7
10 -7 -2 342.27 22.3
-3 10 -2 320.57 23.7
3 -10 2 309.97 25.1
7 3 2 318.47 27.2
-10 7 2 380.36 24.8
3 -10 2 345.17 21.1
9 -7 -2 81.99 10.7
-7 -2 -2 65.19 17.9
-2 9 -2 69.89 12.9
-2 9 -2 107.99 14.6
2 -9 2 92.29 11.5
2 -9 2 75.99 14.5
-9 7 2 97.19 13.3
7 2 2 88.59 16.4
-7 -1 -2 327.87 32.7
8 -7 -2 354.26 19.6
-1 8 -2 337.37 23.2
-1 8 -2 342.57 23.9
1 -8 2 322.37 25.9
1 -8 2 344.97 22.3
7 1 2 286.67 28.5
-8 7 2 369.06 22.6
7 -7 -2 109.99 8.6
0 7 -2 97.09 13.6
-7 0 -2 113.79 21
0 7 -2 108.29 15
7 0 2 104.19 18.2
0 -7 2 122.89 16.5
0 -7 2 81.49 12
-7 7 2 111.69 11.8
-7 7 2 107.09 17.4
-7 1 -2 136.59 22.4
1 6 -2 153.58 16.8
-1 -6 2 173.28 19.5
-6 7 2 163.68 19.9
-6 7 2 177.68 13.2
7 -1 2 163.18 18.7
-1 -6 2 172.68 15.7
-7 2 -2 304.97 28.7
2 5 -2 258.07 21.3
7 -2 2 260.07 22.5
-2 -5 2 252.07 19.9
-5 7 2 295.57 24.3
-2 -5 2 222.08 21.7
4 -7 -2 138.89 16.4
3 4 -2 145.19 17.6
-7 3 -2 118.79 19.5
-3 -4 2 140.69 18.3
7 -3 2 108.89 15.9
-3 -4 2 123.19 14.7
-4 7 2 133.39 17.9
4 3 -2 108.19 14.2
-7 4 -2 96.59 16.7
3 -7 -2 127.69 16.4
-4 -3 2 122.19 14.7
-3 7 2 143.89 18.2
-4 -3 2 101.79 15.3
7 -4 2 115.49 16.1
5 2 -2 262.47 22.3
2 -7 -2 246.88 22.8
-7 5 -2 296.17 27.7
7 -5 2 248.08 21.3
-2 7 2 221.48 23.5
7 -5 2 267.87 19.6
-5 -2 2 275.37 21.5
-7 6 -2 177.78 23.2
1 -7 -2 170.88 20
6 1 -2 154.58 17.9
-6 -1 2 152.48 17.1
7 -6 2 146.79 15
-1 7 2 160.88 20.4
7 -6 2 144.69 16.6
7 0 -2 115.39 17.5
-7 7 -2 109.99 19.2
0 -7 -2 102.09 16.6
0 7 2 120.69 18
-7 0 2 119.29 16.6
7 -7 2 102.09 13.1
7 -7 2 101.39 14.3
-7 8 -2 384.96 30.8
-7 8 -2 329.37 23
-1 -7 -2 336.07 29
-8 1 2 344.47 26.1
7 -8 2 366.66 24.4
1 7 2 343.87 27.7
7 -8 2 338.47 22.2
-7 9 -2 89.69 17.3
-2 -7 -2 109.89 19.9
9 -2 -2 92.09 18.7
-7 9 -2 83.09 12.8
7 -9 2 89.89 11.7
2 7 2 97.59 17.3
7 -9 2 73.39 12.1
-9 2 2 99.59 15.7
-3 -7 -2 306.27 31.1
10 -3 -2 319.57 26.9
-7 10 -2 361.56 24
-7 10 -2 348.77 30.2
7 -10 2 351.16 22.7
7 -10 2 351.26 21.4
-10 3 2 347.67 27.2
-4 -7 -2 78.69 20.2
-7 11 -2 60.09 12.2
-7 11 -2 64.99 17.3
11 -4 -2 73.69 15.1
7 -11 2 65.69 9.9
-11 4 2 80.59 15.6
7 -11 2 73.79 9.7
-7 12 -2 292.97 27.3
12 -5 -2 285.87 25.2
-5 -7 -2 318.77 31.8
-7 12 -2 302.27 22.4
7 -12 2 321.17 18.1
-12 5 2 304.77 26.1
5 7 2 310.17 26.5
-7 13 -2 82.99 13.4
-7 13 -2 90.19 17.3
-6 -7 -2 95.29 23.2
13 -6 -2 96.09 16.5
6 7 2 115.19 18.6
-13 6 2 74.69 15.6
-7 14 -2 298.57 27.3
-7 14 -2 314.07 23.9
14 -7 -2 340.57 27.1
-7 -7 -2 341.37 36
7 7 2 259.27 27.1
-14 7 2 337.37 28.5
-8 -7 -2 70.89 22
-7 15 -2 116.79 18.9
15 -8 -2 81.49 16.5
-7 15 -2 88.69 16.6
8 7 2 89.59 18.6
-15 8 2 91.69 18.4
-6 14 -2 889.41 48.5
-6 14 -2 845.82 48.2
-8 -6 -2 875.01 59.99
14 -8 -2 885.21 60.79
8 6 2 867.71 53.39
-14 8 2 973.7 53.69
-5 13 -2 195.68 20.3
13 -8 -2 225.78 20
-8 -5 -2 209.68 31.5
-5 13 -2 168.18 18.9
-13 8 2 213.08 22
8 5 2 244.48 25.2
-8 -4 -2 1033 65.39
-4 12 -2 982.5 52.49
-4 12 -2 1030.7 54.39
12 -8 -2 1100.69 53.49
8 4 2 1027.4 58.69
4 -12 2 1054.59 53.19
-12 8 2 1039.3 56.09
-8 -3 -2 175.78 27.8
-3 11 -2 126.89 16.6
-3 11 -2 175.58 17.8
11 -8 -2 153.88 14.8
3 -11 2 190.88 14.1
3 -11 2 172.28 18.9
-11 8 2 198.78 18.5
8 3 2 161.28 20.7
-2 10 -2 1373.16 65.49
10 -8 -2 1340.37 63.59
-2 10 -2 1371.76 68.09
-8 -2 -2 1341.67 78.39
-10 8 2 1354.06 67.39
2 -10 2 1362.26 64.99
2 -10 2 1370.96 67.69
8 2 2 1359.36 71.69
9 -8 -2 84.59 9.3
-8 -1 -2 124.79 21.9
-1 9 -2 73.79 13.7
1 -9 2 89.29 15.2
-9 8 2 100.39 12.1
1 -9 2 96.09 12.6
8 1 2 80.49 16.6
-8 0 -2 1412.76 78.89
0 8 -2 1379.26 69.69
0 -8 2 1352.66 67.59
-8 8 2 1408.86 66.19
0 -8 2 1382.36 69.29
8 0 2 1410.86 72.29
1 7 -2 332.97 24.5
-8 1 -2 374.36 33.6
-1 -7 2 340.87 26
8 -1 2 278.27 24.8
-7 8 2 334.37 20.1
-7 8 2 313.37 27.2
-1 -7 2 368.06 23.8
2 6 -2 1049.59 56.59
-8 2 -2 1101.19 64.49
-6 8 2 1138.99 58.39
-6 8 2 1007.7 54.89
-2 -6 2 1065.19 56.19
-2 -6 2 1129.09 55.89
-8 3 -2 33.2 13.7
3 5 -2 54.69 12.7
-5 8 2 56.29 14.1
-3 -5 2 62.89 11.3
8 -3 2 45.4 12.4
-3 -5 2 46 12.7
-5 8 2 58.59 7
-8 4 -2 944.51 57.79
4 -8 -2 943.91 49.9
4 4 -2 931.91 51.89
-4 -4 2 910.61 51.19
8 -4 2 906.71 51.29
-4 8 2 1099.39 53.59
-4 -4 2 928.31 50.59
5 3 -2 53.19 15.6
-8 5 -2 46.6 15.3
3 -8 -2 56.49 11.9
-5 -3 2 62.29 12.2
8 -5 2 72.29 13.2
8 -5 2 73.59 11.9
-3 8 2 71.69 14.8
2 -8 -2 1110.99 57.79
-8 6 -2 1193.58 64.69
8 -6 2 1034.4 56.69
-6 -2 2 1090.19 58.29
-2 8 2 1134.19 59.29
8 -6 2 1088.49 55.79
-8 7 -2 390.96 32.6
7 1 -2 350.16 27.7
1 -8 -2 327.37 27.4
8 -7 2 350.96 23.6
-1 8 2 367.46 28.4
8 -7 2 308.17 24
-7 -1 2 357.36 26.4
0 -8 -2 1381.06 71.49
8 0 -2 1373.66 72.19
-8 8 -2 1466.35 75.89
-8 0 2 1424.36 71.99
8 -8 2 1380.26 68.29
8 -8 2 1343.47 66.89
0 8 2 1360.46 71.19
-8 9 -2 92.39 13.8
-1 -8 -2 107.79 18.6
9 -1 -2 74.99 16.2
-8 9 -2 85.79 17.8
1 8 2 97.59 17.1
8 -9 2 96.79 13.8
-9 1 2 88.69 16
8 -9 2 93.99 12.3
10 -2 -2 1448.16 72.79
-2 -8 -2 1390.26 73.19
-8 10 -2 1302.97 66.99
-8 10 -2 1372.46 73.89
2 8 2 1389.26 71.89
-10 2 2 1418.16 72.39
8 -10 2 1333.57 65.89
8 -10 2 1328.57 65.09
-8 11 -2 206.08 25.1
11 -3 -2 179.98 23.5
-3 -8 -2 232.28 28.3
-8 11 -2 147.99 17
-11 3 2 198.88 20.8
8 -11 2 172.48 15.1
8 -11 2 176.68 14.3
12 -4 -2 1013.8 56.79
-4 -8 -2 1066.49 60.79
-8 12 -2 920.01 51.69
-8 12 -2 1019.4 57.69
8 -12 2 972.2 50.09
4 8 2 1034.4 55.59
-12 4 2 994 56.99
8 -12 2 1012.7 47.8
-8 13 -2 182.88 19.2
13 -5 -2 223.18 23.1
-5 -8 -2 315.27 32.2
-8 13 -2 203.48 25
-13 5 2 205.58 23
5 8 2 238.38 22.7
-6 -8 -2 906.71 58.89
-8 14 -2 814.52 47.6
14 -6 -2 946.31 52.59
-8 14 -2 864.31 51.39
6 8 2 902.31 52.49
-14 6 2 857.91 52.89
-8 15 -2 89.19 18.7
-8 15 -2 112.49 22.8
15 -7 -2 112.29 18.4
-7 -8 -2 69.39 24.7
-15 7 2 97.19 18.1
7 8 2 86.59 18.4
-8 16 -2 612.14 39.8
16 -8 -2 627.74 41.7
-8 -8 -2 639.04 50.69
8 8 2 675.23 45.2
-16 8 2 618.34 44.3
-9 -8 -2 91.59 24.9
-8 17 -2 94.69 15.9
-8 17 -2 102.59 16.6
17 -9 -2 92.79 17.7
-17 9 2 77.79 20.2
9 8 2 57.09 18
-9 -7 -2 263.97 39
-7 16 -2 251.27 31.6
-7 16 -2 202.48 21.6
16 -9 -2 196.18 21.5
9 7 2 186.48 26.4
-16 9 2 180.08 23.7
-9 -6 -2 84.39 22.1
-6 15 -2 86.49 23.8
15 -9 -2 65.99 21.7
-15 9 2 70.49 16.7
9 6 2 75.29 18
-9 -5 -2 191.58 32.2
14 -9 -2 211.68 19.4
-5 14 -2 166.28 19.8
-5 14 -2 183.08 19
-14 9 2 207.78 21.4
9 5 2 190.88 24.1
-4 13 -2 91.09 13.5
-9 -4 -2 76.09 23.4
13 -9 -2 102.89 13.4
-4 13 -2 58.99 13.2
-13 9 2 76.29 14.6
9 4 2 87.29 17.5
-3 12 -2 218.58 21.3
-9 -3 -2 273.47 32.9
12 -9 -2 252.97 17.9
9 3 2 220.98 24.4
-12 9 2 257.27 21.7
3 -12 2 254.37 20.3
3 -12 2 207.98 16.4
-9 -2 -2 162.78 29.2
11 -9 -2 136.49 12.3
-2 11 -2 146.19 18.4
2 -11 2 142.49 13.5
9 2 2 157.38 22.1
-11 9 2 147.69 16.2
2 -11 2 168.08 19.1
10 -9 -2 341.97 18.7
-9 -1 -2 365.76 36.6
-1 10 -2 303.97 25.9
-10 9 2 397.16 24.7
1 -10 2 364.86 23.4
9 1 2 370.26 29.7
1 -10 2 368.66 27.2
-9 0 -2 284.27 34.1
0 9 -2 304.07 24.9
-9 9 2 337.87 21.7
0 -9 2 369.56 23.7
9 0 2 371.66 28.8
0 -9 2 340.57 26.7
-9 1 -2 95.89 22.2
1 8 -2 116.99 16.6
-1 -8 2 94.29 16.1
-8 9 2 92.59 11.2
-1 -8 2 100.49 13.6
9 -1 2 92.69 16.6
-8 9 2 78.69 16.4
2 7 -2 91.29 17.5
-9 2 -2 84.09 19.9
-2 -7 2 86.89 15.5
-7 9 2 74.09 9.6
9 -2 2 70.69 15.2
-2 -7 2 84.19 13.5
-7 9 2 73.29 15.7
-9 3 -2 253.57 29.8
9 -3 2 239.18 22.6
-3 -6 2 265.57 21.5
-3 -6 2 264.37 23.2
-6 9 2 228.38 14.7
-6 9 2 255.67 24.5
-9 4 -2 215.28 28.8
4 5 -2 139.69 25
-4 -5 2 210.98 21.3
-5 9 2 206.18 22.8
-4 -5 2 190.98 18.6
-9 5 -2 211.18 27.1
4 -9 -2 172.88 19.1
5 4 -2 214.28 21.6
9 -5 2 191.68 20.3
-4 9 2 199.38 23.2
-5 -4 2 213.28 19.7
3 -9 -2 227.38 21.6
-9 6 -2 278.07 29.3
6 3 -2 251.17 24.1
9 -6 2 285.27 23.3
-6 -3 2 228.98 21.6
9 -6 2 278.87 21.1
-3 9 2 234.88 24.7
-9 7 -2 105.09 20.7
7 2 -2 80.79 16.4
2 -9 -2 86.29 15.2
9 -7 2 92.99 14.6
-7 -2 2 92.59 14.9
9 -7 2 59.79 12.4
-2 9 2 142.29 18.8
1 -9 -2 102.19 17.3
-9 8 -2 100.29 19.4
8 1 -2 107.89 18.6
9 -8 2 76.79 13.5
-1 9 2 79.29 16.5
-8 -1 2 80.79 15.4
9 -8 2 85.79 13
0 -9 -2 333.37 28.5
9 0 -2 331.77 28.2
-9 9 -2 351.36 32
0 9 2 310.87 26.9
9 -9 2 351.86 24
9 -9 2 300.37 22.4
-9 0 2 327.57 26.9
10 -1 -2 408.86 30.8
-1 -9 -2 384.26 31.9
-9 10 -2 375.76 33.5
-10 1 2 364.96 29.1
1 9 2 362.26 29.1
9 -10 2 367.26 24.4
9 -10 2 330.37 23.2
-2 -9 -2 133.49 22.4
-9 11 -2 157.38 16.8
11 -2 -2 163.68 22.2
-9 11 -2 123.39 21.7
-11 2 2 152.48 21.8
9 -11 2 143.79 14.4
9 -11 2 124.49 13.2
12 -3 -2 200.68 24.2
-9 12 -2 242.68 20.5
-9 12 -2 296.57 28.5
-3 -9 -2 239.98 28.5
-12 3 2 259.37 25
9 -12 2 243.18 16.4
9 -12 2 234.18 16.9
-9 13 -2 105.89 16.6
13 -4 -2 90.89 18.3
-4 -9 -2 91.49 21.9
-9 13 -2 111.19 20.3
-13 4 2 82.19 16.8
4 9 2 88.99 16.3
9 -13 2 79.09 10.3
9 -13 2 72.09 8.1
-9 14 -2 223.58 26.6
14 -5 -2 187.48 23.2
-5 -9 -2 208.88 29.8
-9 14 -2 239.38 27.4
5 9 2 205.98 23.8
-14 5 2 171.58 24.3
15 -6 -2 104.39 18.9
-6 -9 -2 64.69 23
6 9 2 75.79 17
-15 6 2 62.59 16.6
-9 16 -2 225.48 26.4
16 -7 -2 187.38 22.9
-9 16 -2 182.68 23.4
-7 -9 -2 235.28 33.9
7 9 2 233.08 25.5
-16 7 2 155.18 36
-9 17 -2 103.49 19.2
-9 17 -2 97.59 16.1
-8 -9 -2 96.59 25.8
17 -8 -2 122.99 21
-17 8 2 117.19 21.8
8 9 2 88.69 19.2
-9 -9 -2 54.09 22.5
18 -9 -2 89.59 18.2
-9 18 -2 66.89 13.4
-9 18 -2 68.49 15.8
-18 9 2 94.79 20.8
9 9 2 77.09 18.9
-9 19 -2 32.7 12.5
-10 -9 -2 74.69 26.4
19 -10 -2 84.49 16.9
-19 10 2 38.3 16.9
10 9 2 55.89 18.6
-8 18 -2 332.47 26.5
-10 -8 -2 342.37 40.7
18 -10 -2 371.26 29.4
10 8 2 328.97 33.4
-18 10 2 371.06 33.2
-10 -7 -2 121.79 27.3
-7 17 -2 109.89 17.2
17 -10 -2 134.09 18.7
10 7 2 118.19 22.9
-17 10 2 110.39 32.2
-6 16 -2 641.54 38.9
-10 -6 -2 568.14 51.19
-16 10 2 612.14 41.9
10 6 2 582.34 44
-5 15 -2 188.38 34.5
15 -10 -2 215.78 20.4
-10 -5 -2 226.88 36.5
-15 10 2 241.18 24.7
10 5 2 243.38 27.2
14 -10 -2 861.21 46.4
-10 -4 -2 918.71 63.59
-14 10 2 921.21 52.19
10 4 2 917.61 55.49
13 -10 -2 220.08 16.8
-10 -3 -2 177.48 30.7
3 -13 2 212.08 18.5
-13 10 2 227.78 21.3
10 3 2 258.17 26.2
-10 -2 -2 1268.37 78.59
12 -10 -2 1283.47 59.69
-2 12 -2 1265.67 80.29
2 -12 2 1289.57 61.09
-12 10 2 1333.07 66.19
10 2 2 1268.27 70.79
2 -12 2 1320.27 63.99
-10 -1 -2 280.87 33.7
10 1 2 307.27 27.7
-11 10 2 282.57 21
1 -11 2 260.77 19.4
1 -11 2 252.47 23.4
-10 0 -2 2019.4 108.79
0 -10 2 2010.8 95.89
0 -10 2 2014.8 94.49
-10 10 2 1933.41 93.39
10 0 2 2090.09 101.29
1 9 -2 285.87 35
-10 1 -2 384.66 38
10 -1 2 331.47 28
-1 -9 2 362.76 27.7
-9 10 2 396.06 22.5
-1 -9 2 351.76 24.9
2 8 -2 1313.37 72.39
-10 2 -2 1466.95 82.19
-2 -8 2 1403.56 70.09
-2 -8 2 1385.46 70.79
-8 10 2 1357.96 65.09
10 -2 2 1459.55 74.19
-8 10 2 1488.75 74.19
3 7 -2 323.07 26.8
-10 3 -2 370.96 36.3
-3 -7 2 362.36 25.7
-3 -7 2 371.06 27.8
10 -3 2 348.37 27.9
-7 10 2 317.27 19.7
-7 10 2 348.57 28.8
4 6 -2 1359.96 71.89
-10 4 -2 1391.86 79.69
-6 10 2 1375.76 71.49
10 -4 2 1412.46 72.09
-4 -6 2 1341.47 70.09
-4 -6 2 1377.36 70.19
-10 5 -2 142.49 24
5 5 -2 162.58 20.4
-5 -5 2 204.68 19.8
10 -5 2 163.78 20.6
-5 10 2 182.28 22.3
-10 6 -2 1428.06 78.49
6 4 -2 1367.66 72.19
-4 10 2 1357.26 70.29
-6 -4 2 1282.77 69.79
3 -10 -2 306.87 25.4
-10 7 -2 411.26 35.9
7 3 -2 321.57 28.5
-7 -3 2 361.36 27.6
-3 10 2 335.27 28.6
10 -7 2 352.46 25.3
10 -7 2 325.77 26.9
-10 8 -2 1478.75 79.19
8 2 -2 1435.56 74.89
2 -10 -2 1394.66 70.19
10 -8 2 1436.06 70.39
-8 -2 2 1389.16 73.09
-2 10 2 1344.17 71.29
10 -8 2 1282.37 67.99
-10 9 -2 431.66 35.9
1 -10 -2 369.76 29.6
9 1 -2 379.96 31.1
-9 -1 2 364.56 29.8
10 -9 2 403.76 26.9
10 -9 2 343.57 25.1
-1 10 2 381.36 29.7
10 0 -2 1988.5 101.99
0 -10 -2 1984.8 98.79
-10 10 -2 2045.1 104.79
0 10 2 2042.5 98.79
10 -10 2 2095.59 95.89
-10 0 2 2086.29 101.69
10 -10 2 1925.91 94.29
11 -1 -2 244.28 26.2
-1 -10 -2 236.58 27.3
-10 11 -2 285.67 29.5
-11 1 2 270.27 25.6
10 -11 2 271.77 19.3
1 10 2 298.47 25.2
10 -11 2 248.18 19.6
-10 12 -2 1070.49 72.59
12 -2 -2 1345.87 71.09
-2 -10 -2 1249.28 69.29
-10 12 -2 1303.17 71.59
-12 2 2 1306.57 70.09
10 -12 2 1281.97 60.79
10 -12 2 1248.58 60.09
-10 13 -2 228.28 32.1
13 -3 -2 206.48 25
-10 13 -2 289.57 29.3
-3 -10 -2 212.58 28
10 -13 2 206.68 14.8
3 10 2 206.98 23.3
-13 3 2 259.77 25.6
-10 14 -2 900.41 55.69
14 -4 -2 899.31 55.39
-4 -10 -2 932.21 57.79
-10 14 -2 811.52 55.09
-14 4 2 945.91 56.19
4 10 2 930.11 52.69
-5 -10 -2 267.27 34.7
15 -5 -2 184.78 24.4
-10 15 -2 209.98 27.8
-10 15 -2 200.58 21.8
5 10 2 196.68 22.8
-6 -10 -2 639.44 49.3
-10 16 -2 606.44 38.1
-10 16 -2 583.94 43
16 -6 -2 614.14 43.8
-16 6 2 626.24 44.5
6 10 2 677.03 43.9
-10 17 -2 107.79 20.5
-10 17 -2 94.29 16.3
17 -7 -2 126.99 22
-7 -10 -2 116.19 26.5
7 10 2 111.59 20.9
-17 7 2 126.79 23.1
18 -8 -2 412.56 33.3
-8 -10 -2 364.46 41.2
-10 18 -2 319.27 30.9
-10 18 -2 284.37 25.7
-18 8 2 374.46 34.7
8 10 2 345.37 32.5
-9 -10 -2 74.49 26.2
19 -9 -2 80.29 19.1
-10 19 -2 86.49 17.9
-10 19 -2 53.29 13.7
-19 9 2 80.19 20.3
9 10 2 60.19 18.3
-10 20 -2 312.27 26.7
20 -10 -2 321.17 30.7
-10 -10 -2 305.17 53.89
-20 10 2 287.67 34
10 10 2 299.87 33.6
-10 21 -2 25.1 12.1
21 -11 -2 12.1 11.9
-11 -10 -2 3.1 20.5
-21 11 2 28.7 17.3
11 10 2 38.9 17
-11 -9 -2 147.09 32
-9 20 -2 170.98 20.1
20 -11 -2 188.08 23.1
11 9 2 131.99 24.8
-20 11 2 169.58 28
-11 -8 -2 11 18.6
-8 19 -2 23 10
19 -11 -2 27.8 12.8
11 8 2 36.8 17.2
-19 11 2 42.5 17.5
-7 18 -2 97.99 15.9
18 -11 -2 101.19 16.6
11 7 2 57.09 18.9
-18 11 2 99.39 19.8
-11 -6 -2 19.5 20.1
-6 17 -2 5.3 8.9
-17 11 2 36.4 14.3
11 6 2 16.4 13.9
-11 -5 -2 273.77 41.5
-5 16 -2 193.28 21.3
16 -11 -2 198.68 19
11 5 2 230.88 27.6
-16 11 2 206.88 24.4
-11 -4 -2 43.6 21.6
15 -11 -2 44 9.9
-4 15 -2 34.3 11.9
11 4 2 35.8 15.1
-15 11 2 36.8 12.7
14 -11 -2 244.78 17.6
-11 -3 -2 325.07 39
-3 14 -2 258.47 23.3
-14 11 2 243.78 23.1
11 3 2 275.17 28.4
13 -11 -2 50.39 6.6
-11 -2 -2 42 20
-2 13 -2 34 12.6
11 2 2 69.29 16.9
2 -13 2 44 11.2
-13 11 2 47.5 12.3
-11 -1 -2 399.46 40.2
-1 12 -2 315.27 26.7
11 1 2 376.76 31.4
1 -12 2 350.26 22.5
-12 11 2 367.86 25.3
1 -12 2 353.66 26.6
0 11 -2 87.39 16.5
-11 0 -2 37.8 17.9
-11 11 2 94.89 13.1
0 -11 2 62.29 14.7
11 0 2 72.99 17
0 -11 2 72.19 11.8
-11 1 -2 302.37 34.9
1 10 -2 286.77 25.2
11 -1 2 293.17 27.1
-10 11 2 279.07 19.4
-1 -10 2 260.27 21.3
-1 -10 2 274.27 24.5
2 9 -2 148.89 19.1
-11 2 -2 152.28 26.5
-9 11 2 125.59 12.5
-2 -9 2 148.29 16.7
11 -2 2 152.38 21.1
-2 -9 2 182.88 21.7
-9 11 2 172.98 22.7
3 8 -2 163.98 20.6
-11 3 -2 155.58 24.9
11 -3 2 161.78 21.2
-8 11 2 190.28 22.8
-3 -8 2 159.28 20.8
-3 -8 2 177.28 18.3
-11 4 -2 70.29 19.2
4 7 -2 63.19 14.4
-4 -7 2 58.29 14.5
-7 11 2 54.99 15.4
-7 11 2 76.69 7.3
-4 -7 2 86.39 14.5
11 -4 2 69.79 16
-11 5 -2 219.28 32.6
5 6 -2 160.18 20.6
-6 11 2 226.68 24.3
-5 -6 2 176.48 19.5
11 -5 2 169.38 21.7
6 5 -2 200.58 25.3
-11 6 -2 244.38 30.2
-5 11 2 185.78 22.8
11 -6 2 182.98 20.8
-6 -5 2 159.38 21.1
7 4 -2 110.49 17.8
-11 7 -2 66.49 19.9
11 -7 2 76.29 15.6
-7 -4 2 85.69 15.6
-4 11 2 83.89 17.3
8 3 -2 141.69 21.4
-11 8 -2 171.38 28.1
3 -11 -2 154.98 19.2
-8 -3 2 163.58 19.9
-3 11 2 163.78 22.5
11 -8 2 168.68 21.2
11 -8 2 167.28 18
2 -11 -2 156.48 19.9
9 2 -2 171.38 22.1
-11 9 -2 144.69 26.2
-9 -2 2 156.08 21.8
11 -9 2 154.18 18.5
11 -9 2 131.49 17.7
-2 11 2 161.08 21.1
-11 10 -2 353.86 33.8
1 -11 -2 248.28 25.4
10 1 -2 295.87 28.4
11 -10 2 285.97 22.2
-10 -1 2 305.27 27.1
11 -10 2 306.37 23.2
-1 11 2 244.98 25
0 -11 -2 73.29 17.6
-11 11 -2 105.09 21.6
11 0 -2 92.09 19.3
-11 0 2 65.59 16.6
0 11 2 79.09 16.3
11 -11 2 101.19 13.4
11 -11 2 102.09 13.8
-11 12 -2 369.16 35
12 -1 -2 401.96 33.1
-1 -11 -2 344.77 31.9
11 -12 2 307.97 22.5
-12 1 2 339.07 30.1
11 -12 2 383.66 23.8
13 -2 -2 55.59 16.8
-2 -11 -2 68.29 19.7
-11 13 -2 49.2 17.6
11 -13 2 61.09 9.2
11 -13 2 34.3 7.9
-13 2 2 46.2 14.9
2 11 2 50.39 14.6
-11 14 -2 258.17 22.4
-11 14 -2 266.27 30.7
14 -3 -2 243.78 28
-3 -11 -2 257.57 31.3
3 11 2 215.88 24.4
11 -14 2 254.37 16
-11 15 -2 18.2 15.6
15 -4 -2 52.79 17.2
-4 -11 -2 41 20.6
-11 15 -2 58.49 13.4
-15 4 2 68.39 16.8
4 11 2 33.3 13.6
-5 -11 -2 222.88 33.3
-11 16 -2 238.18 30
16 -5 -2 211.78 26.4
-11 16 -2 231.38 22
5 11 2 231.88 26
-16 5 2 229.98 27.6
-11 17 -2 49.2 18.4
-6 -11 -2 33.6 21
-11 17 -2 43.1 12.5
17 -6 -2 36.5 14.8
6 11 2 17.5 13.1
-17 6 2 34.1 17.1
-7 -11 -2 71.79 24.1
-11 18 -2 105.89 22
-11 18 -2 76.69 14.5
18 -7 -2 95.69 20.5
7 11 2 99.69 19.8
-18 7 2 148.69 25.3
-8 -11 -2 59.19 21.8
-11 19 -2 52.89 14
-11 19 -2 29.1 15.7
19 -8 -2 37.9 15.5
8 11 2 87.49 19.2
-19 8 2 51.89 17.6
-11 20 -2 171.78 20.6
-11 20 -2 127.69 20.7
-9 -11 -2 139.99 31
20 -9 -2 134.89 23.5
9 11 2 132.49 23.9
-20 9 2 142.29 27.3
-10 -11 -2 40.1 26.8
21 -10 -2 12.9 13.2
-11 21 -2 -0.8 10.7
10 11 2 24.9 16
-21 10 2 16.8 15.8
-11 22 -2 178.48 22.6
22 -11 -2 234.98 26.6
-11 -11 -2 285.37 43.9
-22 11 2 220.98 32.5
11 11 2 181.68 32.1
-11 23 -2 -4.9 10.4
-12 -11 -2 12.4 19.9
23 -12 -2 24.1 13.9
-23 12 2 42.1 18.2
12 11 2 18.3 17.3
-10 22 -2 305.37 27
-12 -10 -2 284.47 42.9
22 -12 -2 270.97 28.2
-22 12 2 271.47 33.1
-12 -9 -2 86.79 25.7
21 -12 -2 55.79 14.5
-21 12 2 73.69 20.6
12 9 2 78.49 20.9
-12 -8 -2 318.27 48.2
-8 20 -2 284.67 25.3
20 -12 -2 307.97 27
12 8 2 310.97 34.1
-20 12 2 325.47 34.4
-7 19 -2 81.29 15.2
19 -12 -2 64.19 14.2
-12 -7 -2 61.89 26.7
-19 12 2 62.59 19.8
12 7 2 84.79 21.9
-6 18 -2 332.77 26.8
-12 -6 -2 321.67 42
18 -12 -2 355.86 28.2
12 6 2 304.77 33.1
-5 17 -2 139.39 19.6
17 -12 -2 143.49 16.4
-12 -5 -2 109.49 28.7
-17 12 2 153.08 23
12 5 2 125.49 22.5
-12 -4 -2 531.25 60.99
-4 16 -2 666.93 40.3
16 -12 -2 598.54 33.7
-16 12 2 669.13 42.4
12 4 2 642.24 46.3
-12 -3 -2 274.87 49.8
-3 15 -2 173.18 20.1
15 -12 -2 193.58 13.9
-15 12 2 185.78 21.2
12 3 2 141.39 24.1
-12 -2 -2 837.32 63.39
-2 14 -2 840.82 49.5
-14 12 2 860.21 48.9
12 2 2 891.61 55.29
-1 13 -2 187.08 20.6
-12 -1 -2 143.79 28.8
1 -13 2 174.08 14.7
-13 12 2 155.88 17.7
12 1 2 191.88 24.7
0 12 -2 970.7 54.69
-12 0 -2 897.91 65.79
-12 12 2 1023.3 51.29
12 0 2 987.4 58.79
0 -12 2 956.5 49.4
0 -12 2 974.5 52.39
1 11 -2 411.36 30.1
-12 1 -2 379.86 39.5
-11 12 2 370.06 23.7
-1 -11 2 351.36 28.3
-1 -11 2 340.87 24.8
12 -1 2 361.46 31.5
2 10 -2 1205.48 67.79
-12 2 -2 1408.86 81.39
-2 -10 2 1266.07 64.99
-10 12 2 1250.37 60.99
-2 -10 2 1219.08 65.99
12 -2 2 1227.18 69.79
-10 12 2 1449.95 73.89
3 9 -2 248.88 24.9
-12 3 -2 268.67 33.3
-3 -9 2 236.88 21.4
-9 12 2 289.17 27.2
-9 12 2 218.08 16.5
12 -3 2 248.38 25.3
-3 -9 2 239.18 24.5
-12 4 -2 1085.29 68.09
4 8 -2 1013.6 58.19
-8 12 2 962.7 46.9
-4 -8 2 1071.29 56.49
-8 12 2 1013.2 57.59
12 -4 2 1008.5 58.39
-4 -8 2 1041.2 55.79
5 7 -2 305.47 28.4
-12 5 -2 327.27 36.3
12 -5 2 320.97 27.6
-5 -7 2 266.57 24.5
-7 12 2 374.56 29.9
-12 6 -2 1372.96 83.09
6 6 -2 1457.65 76.39
12 -6 2 1399.96 74.19
-6 -6 2 1465.65 74.39
-6 12 2 1365.36 73.09
7 5 -2 230.68 25.6
-12 7 -2 343.27 35
-5 12 2 315.27 27.8
-7 -5 2 304.47 26.2
12 -7 2 326.57 26.2
-12 8 -2 1087.19 66.89
8 4 -2 1083.59 61.59
-8 -4 2 1025.6 58.79
12 -8 2 1018.2 56.79
-4 12 2 1025.4 57.09
12 -8 2 1013 55.49
-12 9 -2 240.18 31.2
3 -12 -2 219.08 21.8
9 3 -2 236.98 26.4
-9 -3 2 243.58 24.7
12 -9 2 239.88 21.2
-3 12 2 239.48 24.6
2 -12 -2 1259.57 64.69
10 2 -2 1200.68 70.59
-12 10 -2 1231.48 75.09
-2 12 2 1275.77 65.99
12 -10 2 1276.07 64.09
-10 -2 2 1338.07 70.49
12 -10 2 1266.47 65.29
11 1 -2 357.86 32.9
-12 11 -2 348.47 35.9
1 -12 -2 370.36 30
12 -11 2 378.86 26.5
-1 12 2 373.06 28.5
-11 -1 2 357.06 31
12 -11 2 372.46 25.7
0 -12 -2 961.5 56.59
-12 12 -2 983 64.19
12 0 -2 978.8 61.09
-12 0 2 1059.59 60.79
12 -12 2 1068.79 52.59
12 -12 2 994.8 51.29
13 -1 -2 208.78 26
-12 13 -2 157.48 26.5
-1 -12 -2 179.38 24.7
12 -13 2 152.88 15
12 -13 2 167.48 15.1
-13 1 2 124.19 31.8
-2 -12 -2 1097.09 58.19
14 -2 -2 851.11 56.59
-12 14 -2 854.21 58.19
12 -14 2 869.41 43.2
12 -14 2 794.52 47.7
2 12 2 939.31 52.99
-14 2 2 937.51 57.39
-3 -12 -2 210.18 30.1
-12 15 -2 224.58 30.7
15 -3 -2 234.38 31.1
-15 3 2 239.48 28
3 12 2 209.98 24.4
-4 -12 -2 596.14 47.2
-12 16 -2 635.14 39
-12 16 -2 602.84 47
16 -4 -2 703.83 47.4
4 12 2 635.14 42.3
-16 4 2 660.73 47
-5 -12 -2 156.68 29.2
17 -5 -2 147.69 24.1
-12 17 -2 140.29 19.7
-12 17 -2 157.68 27.3
-17 5 2 154.88 26.7
5 12 2 174.98 23
18 -6 -2 343.57 34
-6 -12 -2 284.17 37.4
-12 18 -2 301.07 34
-12 18 -2 342.07 26.7
-18 6 2 319.77 33.5
6 12 2 303.97 30.5
-7 -12 -2 56.39 23.7
-12 19 -2 65.29 19.7
19 -7 -2 49.99 18.2
-12 19 -2 49 13.5
7 12 2 56.19 16.2
-19 7 2 84.29 21.1
-12 20 -2 254.27 30.5
20 -8 -2 286.37 32.2
-12 20 -2 291.97 26.4
-8 -12 -2 287.97 39.5
8 12 2 377.06 33.5
-20 8 2 306.67 34.2
-9 -12 -2 40.2 23
-12 21 -2 34.2 16.4
21 -9 -2 40.6 17.4
-12 21 -2 28.8 13.1
-21 9 2 70.59 21.6
9 12 2 41.1 17
22 -10 -2 335.07 33.3
-10 -12 -2 313.07 40.9
-12 22 -2 274.57 27.7
-22 10 2 404.66 39.6
10 12 2 337.17 34.9
23 -11 -2 12.8 13.5
-12 23 -2 0.8 11.5
-11 -12 -2 37.7 22
-23 11 2 13.8 17.5
11 12 2 -2.6 14.5
24 -12 -2 260.47 30.3
-12 24 -2 254.67 25.8
-12 -12 -2 316.07 44.8
12 12 2 233.48 36.4
-24 12 2 275.47 39.8
-13 -12 -2 14.8 22.5
-12 25 -2 -3.9 10.4
25 -13 -2 12.8 14.5
13 12 2 25.8 16
-25 13 2 32.9 18.4
-13 -11 -2 148.39 35.6
24 -13 -2 131.59 22.5
-11 24 -2 188.58 22.7
13 11 2 104.49 25.5
-24 13 2 201.98 34.4
-10 23 -2 4.7 11.3
-13 -10 -2 5.6 21.5
23 -13 -2 9.1 12.2
-23 13 2 16.6 16.6
13 10 2 -7 14.3
22 -13 -2 218.38 24
-9 22 -2 175.78 23.5
-13 -9 -2 299.67 45.9
13 9 2 167.18 29.5
-22 13 2 147.69 28.4
21 -13 -2 14.4 11.5
-8 21 -2 2.3 10.5
-13 -8 -2 34.6 21
-21 13 2 35.6 17.4
13 8 2 33.2 20.8
-13 -7 -2 97.49 30
20 -13 -2 125.99 24
-7 20 -2 124.69 18.5
-20 13 2 146.89 25.6
13 7 2 116.49 23.8
19 -13 -2 2.2 8.5
-13 -6 -2 16.2 19.8
-6 19 -2 15.9 10.6
13 6 2 -8.3 12.6
-19 13 2 -0.7 12.6
-5 18 -2 132.09 19.3
-13 -5 -2 145.79 33.4
18 -13 -2 116.59 14.3
13 5 2 132.09 25.7
-18 13 2 114.69 21.6
-13 -4 -2 45.6 22.3
-4 17 -2 25.5 11.1
17 -13 -2 15 7.2
13 4 2 18.9 15.3
-17 13 2 18.9 12.7
-3 16 -2 227.38 23.5
-13 -3 -2 181.38 32.7
-16 13 2 197.68 22.8
13 3 2 220.48 28.1
-2 15 -2 12.9 10.7
-13 -2 -2 16.2 17.5
-15 13 2 21.4 10.3
13 2 2 -8.9 11.7
-13 -1 -2 279.87 44.2
-1 14 -2 291.87 25.4
13 1 2 261.87 29
-14 13 2 261.47 23.1
0 13 -2 47 13.6
-13 0 -2 2 35.1
-13 13 2 30.1 10.3
0 -13 2 38 9.2
0 -13 2 34.4 12.8
13 0 2 33.8 15.2
-13 1 -2 144.99 28.4
1 12 -2 164.38 21.5
-12 13 2 151.78 15.6
13 -1 2 152.38 23.3
-1 -12 2 154.48 20.3
-1 -12 2 163.78 17
2 11 -2 61.19 14.8
-2 -11 2 23 14.1
-11 13 2 59.69 10
13 -2 2 57.89 15.9
-2 -11 2 52.29 11.5
3 10 -2 232.78 24.3
13 -3 2 241.98 25.8
-3 -10 2 226.98 21
-3 -10 2 214.78 24.3
-10 13 2 230.28 33.6
-10 13 2 218.28 16
4 9 -2 86.79 17.8
13 -4 2 69.69 16.8
-9 13 2 81.49 9.9
-4 -9 2 77.69 16.3
-9 13 2 82.59 17.9
-4 -9 2 98.09 15.9
5 8 -2 191.58 23.4
13 -5 2 229.68 25.1
-8 13 2 215.18 26.3
-5 -8 2 236.18 21.8
6 7 -2 107.69 20
-6 -7 2 94.59 17.5
-7 13 2 107.79 20
13 -6 2 78.09 17.1
7 6 -2 85.39 18.8
-7 -6 2 88.69 17.2
-6 13 2 91.99 18.7
13 -7 2 69.49 15.6
8 5 -2 223.18 25.4
-13 8 -2 244.18 32.2
-5 13 2 227.08 26.2
13 -8 2 239.78 24
-8 -5 2 187.78 22.7
-13 9 -2 59.99 19.5
9 4 -2 76.09 17.6
-4 13 2 78.79 17.1
-9 -4 2 68.99 15.8
13 -9 2 69.79 15.2
13 -9 2 71.29 14.2
-13 10 -2 278.67 33.5
3 -13 -2 220.88 21.4
10 3 -2 221.08 25.7
-10 -3 2 225.28 25.3
-3 13 2 226.68 23.9
13 -10 2 225.38 21.3
13 -10 2 224.98 25.2
11 2 -2 51.69 17.3
-13 11 -2 42.7 19.5
2 -13 -2 59.89 13.9
13 -11 2 62.19 12.7
13 -11 2 56.79 13
-2 13 2 67.19 15.1
-11 -2 2 66.69 17.4
1 -13 -2 176.38 22.5
12 1 -2 190.28 28.2
-13 12 -2 180.68 30.2
-12 -1 2 171.78 28
-1 13 2 179.38 20.9
13 -12 2 219.88 19.4
13 -12 2 161.38 17.8
13 0 -2 7.5 13.9
0 -13 -2 38.6 16.2
-13 13 -2 29.9 17.4
13 -13 2 22.9 8.8
-13 0 2 21.3 13.7
13 -13 2 21.9 8.8
-13 14 -2 265.47 33.1
14 -1 -2 231.68 29.5
-1 -13 -2 260.57 29.3
1 13 2 301.47 31.1
-14 1 2 292.07 29.9
13 -14 2 272.17 18.7
13 -14 2 255.77 18.4
15 -2 -2 37.2 16
-13 15 -2 -8.4 13.9
-2 -13 -2 8.6 16.1
2 13 2 27.7 12.8
-15 2 2 -14 11.6
-13 16 -2 218.28 32.3
16 -3 -2 196.48 28.6
-3 -13 -2 213.28 31
-16 3 2 220.48 30.3
3 13 2 170.28 22.9
17 -4 -2 16.6 15.6
-4 -13 -2 6.8 17.9
-13 17 -2 8.2 16.8
-17 4 2 28.8 15.2
4 13 2 29.6 12.8
-5 -13 -2 63.49 23.8
-13 18 -2 107.59 24.8
-13 18 -2 116.39 17.4
18 -5 -2 114.39 24
5 13 2 150.08 22.1
-18 5 2 124.29 24
19 -6 -2 5 14.2
-13 19 -2 12.4 11.2
-13 19 -2 24.7 18
-6 -13 -2 -10.2 17.4
-19 6 2 26.2 15.9
6 13 2 17.3 13.7
20 -7 -2 121.59 25.3
-7 -13 -2 127.79 28.5
-13 20 -2 169.18 25.8
-13 20 -2 109.39 17.8
7 13 2 158.18 24.6
-20 7 2 135.19 26.4
21 -8 -2 13.3 15.6
-8 -13 -2 25.6 21
-13 21 -2 16.3 15.9
-13 21 -2 0.3 10.5
-21 8 2 18.2 16.9
8 13 2 27 16
-13 22 -2 177.68 22.6
-13 22 -2 176.18 25.4
22 -9 -2 183.48 28.9
-9 -13 -2 174.78 35.1
9 13 2 241.78 31
-22 9 2 215.78 34.4
23 -10 -2 38.2 17.5
-13 23 -2 0.7 11
-10 -13 -2 28.9 21.7
-23 10 2 21.9 18.4
-11 -13 -2 73.29 27.6
-13 24 -2 178.68 22.4
24 -11 -2 177.28 27.4
11 13 2 135.59 27.7
25 -12 -2 14.6 15
-12 -13 -2 3.4 22.3
-13 25 -2 -11.1 10.5
-25 12 2 57.29 22.8
12 13 2 27.8 18.1
-13 26 -2 85.39 18.7
-13 -13 -2 25.4 25.2
26 -13 -2 106.69 22.3
13 13 2 122.39 27.3
-26 13 2 108.89 29.3
-14 -13 -2 2.4 24.4
-13 27 -2 7.1 12.8
27 -14 -2 0.2 14.4
14 13 2 49.5 22
26 -14 -2 173.98 26.1
-12 26 -2 144.39 24
-14 -12 -2 130.19 34
14 12 2 137.19 30
-26 14 2 153.98 34.6
25 -14 -2 -25.5 10.9
-11 25 -2 0.9 12.3
-14 -11 -2 -5.3 20.9
14 11 2 41.4 20.1
-14 -10 -2 174.88 37.5
24 -14 -2 213.58 24.8
-10 24 -2 257.17 26
-24 14 2 295.67 39.9
14 10 2 264.57 34.8
-9 23 -2 31.3 13.2
-14 -9 -2 9.6 21.3
23 -14 -2 45.1 14
14 9 2 42.7 18.8
-23 14 2 1.2 16.1
-14 -8 -2 302.17 48.7
22 -14 -2 327.87 26
-8 22 -2 329.47 28.6
-22 14 2 266.77 34.8
14 8 2 269.37 35
-7 21 -2 64.99 15.3
-14 -7 -2 -0.9 18.9
14 7 2 10.9 19.3
-21 14 2 48.7 19.9
-6 20 -2 280.07 26.3
20 -14 -2 272.37 21.2
-14 -6 -2 290.47 47.8
14 6 2 317.07 33.6
-20 14 2 269.37 34.4
19 -14 -2 76.89 10.8
-5 19 -2 87.99 17.6
-14 -5 -2 72.79 25.2
-19 14 2 63.49 18.6
14 5 2 53.99 19.1
-14 -4 -2 285.07 42.2
-4 18 -2 307.17 27.1
-18 14 2 327.57 30.3
14 4 2 344.57 34.7
-3 17 -2 167.68 21.3
-14 -3 -2 142.09 32.4
-17 14 2 146.89 22.1
14 3 2 148.29 26.2
-14 -2 -2 552.14 53.29
-2 16 -2 587.24 39.4
14 2 2 623.14 46
-16 14 2 554.74 38.6
-14 -1 -2 163.48 32.8
-1 15 -2 182.38 21.7
14 1 2 155.88 26.2
-15 14 2 179.58 19.9
-14 0 -2 690.83 58.89
0 14 -2 756.32 46.2
14 0 2 751.92 51.09
0 -14 2 727.03 38.3
-14 14 2 742.03 42.5
1 13 -2 286.17 27.4
-1 -13 2 285.07 21.1
-1 -13 2 262.67 26.1
14 -1 2 267.07 29.8
-13 14 2 280.37 21.6
2 12 -2 774.82 49.7
-2 -12 2 806.32 48
-12 14 2 850.01 43.1
-2 -12 2 822.82 45.3
14 -2 2 828.92 53.69
3 11 -2 254.57 26.8
-3 -11 2 246.78 22.4
-11 14 2 247.48 17.2
14 -3 2 230.68 26.9
-3 -11 2 200.48 25.3
-11 14 2 232.48 29.3
4 10 -2 938.11 55.89
-4 -10 2 935.91 52.09
-4 -10 2 938.51 53.49
14 -4 2 891.31 56.39
5 9 -2 186.98 23.9
-9 14 2 197.78 12.3
-5 -9 2 188.88 24.6
-5 -9 2 163.78 20.2
-9 14 2 282.17 28.8
14 -5 2 211.78 24.8
6 8 -2 919.91 56.09
-6 -8 2 832.92 51.49
-8 14 2 884.21 53.49
14 -6 2 940.01 55.29
7 7 -2 273.67 29
-7 -7 2 300.97 27.7
14 -7 2 285.77 27.3
-7 14 2 308.57 29.6
8 6 -2 927.11 57.09
-8 -6 2 892.21 53.69
14 -8 2 883.51 53.19
-6 14 2 890.81 52.49
9 5 -2 170.78 25.7
14 -9 2 213.88 21.8
-9 -5 2 242.08 25.9
14 -9 2 193.28 23.1
-5 14 2 200.28 24.4
-14 10 -2 911.21 63.59
10 4 -2 964 58.89
-10 -4 2 904.71 55.69
14 -10 2 931.11 50.89
-4 14 2 870.01 51.19
14 -10 2 853.11 51.39
-14 11 -2 223.88 35.8
11 3 -2 265.07 29.7
-3 14 2 247.88 23.9
-11 -3 2 242.48 30.4
14 -11 2 258.87 23.2
14 -11 2 231.58 22.6
2 -14 -2 844.02 47.3
12 2 -2 880.21 56.69
-14 12 -2 978.2 62.59
14 -12 2 841.12 46.6
-12 -2 2 807.52 54.19
14 -12 2 790.82 47.3
-2 14 2 828.32 47.4
13 1 -2 262.67 31.2
1 -14 -2 268.97 27
-14 13 -2 293.17 35.7
14 -13 2 245.88 21.5
-13 -1 2 272.67 29.8
14 -13 2 291.97 22.1
0 -14 -2 685.43 46
14 0 -2 773.12 52.99
-14 14 -2 774.82 56.09
14 -14 2 744.13 39.9
14 -14 2 769.12 40.3
-14 0 2 742.63 51.19
-1 -14 -2 185.38 25.1
15 -1 -2 163.58 27.6
-14 15 -2 209.88 31
14 -15 2 167.18 13.3
1 14 2 200.08 22
14 -15 2 153.08 15.6
-15 1 2 194.78 28.5
-2 -14 -2 559.14 43.1
16 -2 -2 532.75 45.2
-14 16 -2 639.44 48.9
-16 2 2 575.74 45.2
2 14 2 610.44 39.7
17 -3 -2 206.68 30.6
-14 17 -2 152.18 29.2
-3 -14 -2 173.18 28.7
3 14 2 170.68 22.3
-17 3 2 160.38 28.5
-14 18 -2 331.97 38.6
-4 -14 -2 309.07 37.3
18 -4 -2 386.76 36.8
-18 4 2 414.46 37.8
4 14 2 368.16 32.1
-14 19 -2 49.7 21
19 -5 -2 91.59 22.2
-5 -14 -2 70.19 24.3
-19 5 2 86.09 23.1
5 14 2 60.59 16.9
-14 20 -2 287.97 35.3
20 -6 -2 250.07 32.4
-6 -14 -2 282.27 36.5
6 14 2 308.37 30.9
-20 6 2 324.57 34.9
-7 -14 -2 67.69 23.7
21 -7 -2 79.39 22
-21 7 2 81.39 23.5
7 14 2 72.09 19.4
-14 22 -2 286.47 27.8
22 -8 -2 268.07 34.6
-14 22 -2 311.97 33.3
-8 -14 -2 335.57 40.6
8 14 2 301.77 33
-22 8 2 298.27 37
-14 23 -2 26.4 13.2
-9 -14 -2 34.8 23.4
-14 23 -2 30.7 17.6
23 -9 -2 44.5 17.3
-23 9 2 39.8 20.3
9 14 2 41.4 19.1
-14 24 -2 245.08 25.3
24 -10 -2 236.68 33.7
-10 -14 -2 255.07 42.8
10 14 2 134.29 29.1
-24 10 2 250.97 38.4
25 -11 -2 13.7 18.1
-11 -14 -2 -3.1 20.1
-14 25 -2 -0.4 11.6
11 14 2 12.9 16.7
-25 11 2 30.8 20.3
-14 26 -2 139.29 21.6
-12 -14 -2 128.39 33.6
26 -12 -2 113.79 23.8
-26 12 2 180.88 37.3
12 14 2 127.39 27.1
27 -13 -2 27.2 17.6
-14 27 -2 7.6 12.7
-13 -14 -2 9.4 25.1
13 14 2 -16.1 15.5
-14 28 -2 106.89 20.4
28 -14 -2 87.89 22
-14 -14 -2 96.79 30.2
14 14 2 60.29 25.9
29 -15 -2 0.1 17.1
-14 29 -2 7.9 14.6
15 14 2 -25.8 21.6
28 -15 -2 61.69 18.3
-13 28 -2 80.79 19.7
15 13 2 66.99 26.1
27 -15 -2 8.1 14.3
-15 -12 -2 30.7 22.3
-12 27 -2 25.2 15.2
15 12 2 3.9 16.8
-27 15 2 29 35.7
26 -15 -2 131.29 20.6
-11 26 -2 95.89 19.8
-15 -11 -2 121.49 31
-26 15 2 113.59 30
15 11 2 129.99 29.1
25 -15 -2 1.7 10.8
-15 -10 -2 43.5 23.2
-10 25 -2 -25.7 10
15 10 2 10.2 16
24 -15 -2 170.08 20.5
-15 -9 -2 103.19 33.3
-9 24 -2 186.68 22.7
-24 15 2 259.87 36.6
15 9 2 161.18 30.8
-15 -8 -2 -1 22.9
-8 23 -2 -4.7 10.5
-23 15 2 34.6 17.9
15 8 2 0.9 15.6
-15 -7 -2 123.09 30.3
22 -15 -2 185.58 17.1
-7 22 -2 139.09 21.1
15 7 2 153.38 29.5
-22 15 2 155.98 27.6
-15 -6 -2 47.7 26.2
-6 21 -2 25.5 12.4
-21 15 2 -2.4 13.9
15 6 2 15.5 15.5
-15 -5 -2 130.19 31.1
-5 20 -2 176.98 21.7
-20 15 2 157.28 25.8
-15 -4 -2 13 19
-4 19 -2 19.4 12.5
15 4 2 45.9 18.2
-3 18 -2 147.99 21.8
-15 -3 -2 137.99 34.1
15 3 2 152.38 28.1
-18 15 2 159.38 23.7
-15 -2 -2 -4.4 18.1
-2 17 -2 17.6 11.5
-17 15 2 19.8 11.6
15 2 2 -21.9 10.7
-1 16 -2 236.18 25
-15 -1 -2 211.08 38.3
-16 15 2 253.07 24.5
15 1 2 238.78 28.5
-15 0 -2 7.3 18.1
0 15 -2 7.1 10.8
-15 15 2 11.7 9.1
15 0 2 17.1 15.6
1 14 -2 177.08 23
-1 -14 2 157.68 16.5
-14 15 2 195.98 18.6
15 -1 2 196.58 27.6
-1 -14 2 160.88 20.9
2 13 -2 52.19 15.2
-2 -13 2 9.1 8.6
-2 -13 2 -6.1 12.7
-13 15 2 23.3 8.7
15 -2 2 10 13.3
3 12 -2 178.38 25.5
-12 15 2 210.38 16.6
15 -3 2 218.98 27.2
-3 -12 2 192.78 25.5
-3 -12 2 212.48 20.8
-12 15 2 226.88 30.2
4 11 -2 23.3 14.5
-11 15 2 46 8
-4 -11 2 29 11.9
15 -4 2 46.9 16.3
-11 15 2 49.99 17.8
-4 -11 2 19.3 15
5 10 -2 200.78 25.2
-5 -10 2 192.38 26
-5 -10 2 246.98 23.9
15 -5 2 214.98 26.4
-10 15 2 201.48 14.1
-10 15 2 265.77 36.5
6 9 -2 46.2 16.1
15 -6 2 35 14.8
-6 -9 2 82.49 17
-9 15 2 74.59 18.9
7 8 -2 93.39 20.1
-7 -8 2 78.59 17
-8 15 2 99.29 20.2
15 -7 2 94.29 19.1
8 7 -2 121.09 22.9
-7 15 2 110.79 21
-8 -7 2 124.19 20.4
15 -8 2 85.29 18
9 6 -2 49.99 18.2
15 -9 2 72.29 16.5
-9 -6 2 59.69 15.9
-6 15 2 57.49 16.7
10 5 -2 261.67 29.5
-10 -5 2 211.88 25.5
-5 15 2 229.38 26.4
15 -10 2 232.18 24.3
15 -10 2 195.68 23.3
-15 11 -2 39.9 22.3
11 4 -2 57.59 18.4
-4 15 2 45 13.8
-11 -4 2 36.9 17.2
15 -11 2 35.2 13
15 -11 2 44.5 13.3
12 3 -2 171.58 27.4
-15 12 -2 259.97 40.3
15 -12 2 205.68 21.7
-12 -3 2 183.28 27
15 -12 2 182.98 20.3
-3 15 2 183.18 20.9
2 -15 -2 33 12.1
-15 13 -2 -14 12.4
13 2 -2 43.8 17.9
-13 -2 2 5 13.7
15 -13 2 26.7 10.4
15 -13 2 10.6 9.9
-15 14 -2 224.58 35.4
1 -15 -2 178.48 22.1
14 1 -2 192.28 28.8
-14 -1 2 203.78 25.9
15 -14 2 207.88 18.8
15 -14 2 174.48 18.3
15 0 -2 30.3 16.4
-15 15 -2 3.4 16.1
0 -15 -2 -10.2 13.3
15 -15 2 3.2 7.2
15 -15 2 2.8 6.6
-15 0 2 -12 10.8
-15 16 -2 212.18 32.4
16 -1 -2 259.57 32.7
-1 -15 -2 216.48 28.2
-16 1 2 229.88 29.1
1 15 2 255.37 24.9
17 -2 -2 17.1 16.2
-15 17 -2 13.4 17.2
-2 -15 -2 3.2 15.8
2 15 2 -12.1 9.7
-17 2 2 9.3 13.5
-15 18 -2 127.69 27.6
18 -3 -2 177.58 29.7
-3 -15 -2 126.89 25
3 15 2 151.58 22.1
-18 3 2 123.79 24.4
19 -4 -2 12 15.6
-4 -15 -2 -4.7 17.1
-15 19 -2 8.2 17.3
-19 4 2 9 15.4
4 15 2 12.7 12.4
-5 -15 -2 168.48 29.4
20 -5 -2 145.79 27.4
-15 20 -2 121.59 27.2
-20 5 2 158.18 28.7
5 15 2 146.79 23.8
21 -6 -2 -17.7 13.9
-6 -15 -2 16.9 20.4
-15 21 -2 -12.5 17.5
-21 6 2 8.6 17.1
6 15 2 17.1 13.3
22 -7 -2 176.28 29.8
-7 -15 -2 177.88 33.4
-15 22 -2 153.88 28
7 15 2 154.68 26.6
-22 7 2 151.38 30.3
-8 -15 -2 10.3 20.7
23 -8 -2 4.3 16.5
-15 23 -2 -1.1 15.5
8 15 2 3.2 13.9
24 -9 -2 151.28 28.1
-9 -15 -2 134.59 41.8
-15 24 -2 145.49 24.4
9 15 2 69.69 21.8
-24 9 2 183.08 31.9
-10 -15 -2 28.5 23.7
-15 25 -2 -1.3 12.3
25 -10 -2 21.8 18.9
-25 10 2 -1.6 19.5
10 15 2 -18.1 13.8
-15 26 -2 114.59 21.1
26 -11 -2 114.89 39.1
-11 -15 -2 61.59 28
11 15 2 96.19 25
-26 11 2 145.49 49.4
-12 -15 -2 -0.1 20.6
-15 27 -2 13.4 14.7
12 15 2 -32.4 14.9
-15 28 -2 82.79 21.3
-13 -15 -2 24.4 28.1
13 15 2 38.1 23.7
-14 -15 -2 29.5 27.7
-15 29 -2 6.6 16.1
14 15 2 -7.2 18.7
-13 29 -2 27.6 18.4
29 -16 -2 12.7 15
-12 28 -2 92.89 21.6
28 -16 -2 78.19 18.2
16 12 2 49.3 23.1
27 -16 -2 0.2 12.4
-11 27 -2 18.3 13.6
16 11 2 12.7 19.9
-27 16 2 44.2 25.3
26 -16 -2 162.58 21.2
-10 26 -2 130.19 22.3
-26 16 2 202.08 35.5
16 10 2 140.19 32.1
-9 25 -2 0.1 13
-16 -9 -2 -0.4 18.4
-25 16 2 38 21.1
16 9 2 31.4 18.5
24 -16 -2 245.08 21.3
-16 -8 -2 266.17 48
-8 24 -2 215.18 25.8
-24 16 2 264.47 37.5
16 8 2 219.28 37.2
-7 23 -2 9.1 11.9
23 -16 -2 30.9 9.1
-16 -7 -2 29.5 22
-23 16 2 7.6 16.5
16 7 2 27.6 18.9
-16 -6 -2 308.07 53.09
-6 22 -2 271.27 27.4
-22 16 2 325.77 34.4
16 6 2 272.27 35.2
-16 -5 -2 28.1 22.8
-5 21 -2 80.59 17.4
-21 16 2 66.09 19.7
16 5 2 55.79 20.4
-4 20 -2 343.57 30.3
-16 -4 -2 353.36 47.4
-20 16 2 318.27 32.5
16 4 2 349.96 37.6
-16 -3 -2 92.49 28.3
-3 19 -2 75.29 17.7
16 3 2 100.99 36.2
-19 16 2 109.39 20.2
-2 18 -2 381.66 32.1
-16 -2 -2 388.16 47.1
-18 16 2 335.77 30.5
16 2 2 395.96 38.7
-16 -1 -2 151.28 34
-1 17 -2 128.59 21.8
-17 16 2 171.98 22.9
16 1 2 147.99 26.4
0 16 -2 536.25 39.4
-16 0 -2 538.75 52.59
16 0 2 521.15 44.1
-16 16 2 544.35 36
1 15 -2 246.38 26.4
-15 16 2 242.28 21.5
-1 -15 2 233.78 18.7
16 -1 2 231.58 32.4
2 14 -2 599.14 41.4
-14 16 2 542.35 33.8
16 -2 2 591.34 45
-2 -14 2 582.24 34.4
-2 -14 2 551.34 38.1
3 13 -2 230.58 26.7
-13 16 2 255.07 18.6
-13 16 2 207.68 29.1
16 -3 2 235.08 28.7
-3 -13 2 178.98 20.4
-3 -13 2 194.08 26.7
4 12 -2 603.14 44
-12 16 2 623.84 33.6
-4 -12 2 641.24 42.8
-4 -12 2 624.04 39.3
-12 16 2 673.93 46.2
16 -4 2 633.64 46.5
5 11 -2 193.48 28
-5 -11 2 195.48 22.8
-11 16 2 206.58 27.3
16 -5 2 221.18 27.5
-5 -11 2 210.28 27.2
6 10 -2 639.14 46.1
-6 -10 2 672.63 42.9
16 -6 2 652.33 45.9
-10 16 2 608.14 45.6
7 9 -2 193.08 27.1
-7 -9 2 189.08 23.8
-9 16 2 191.78 26
16 -7 2 200.78 27.4
8 8 -2 655.43 48.2
-8 16 2 705.33 45.7
16 -8 2 708.13 47.1
-8 -8 2 652.33 45.3
9 7 -2 230.98 31.2
16 -9 2 232.08 26.3
-7 16 2 218.68 26.6
-9 -7 2 168.18 25
10 6 -2 669.83 48.5
-6 16 2 622.94 41.3
16 -10 2 638.54 43.2
11 5 -2 283.47 30.6
16 -11 2 204.98 24.4
-5 16 2 214.88 23.9
16 -11 2 199.88 22.9
-11 -5 2 171.18 26.5
-16 12 -2 618.74 65.49
12 4 -2 712.53 50.79
16 -12 2 660.73 42.1
16 -12 2 672.23 41.3
-4 16 2 675.33 39.8
-12 -4 2 644.74 47.1
13 3 -2 182.18 29
-16 13 -2 234.08 56.89
16 -13 2 223.98 22.5
16 -13 2 195.48 23.9
-13 -3 2 215.48 30.7
14 2 -2 602.54 47.9
-16 14 -2 668.33 54.99
16 -14 2 582.34 36.4
16 -14 2 593.84 36.8
-14 -2 2 645.44 47.4
15 1 -2 196.88 29.9
-16 15 -2 245.78 37.5
1 -16 -2 191.78 22.7
-15 -1 2 237.68 29.7
-1 16 2 224.28 21.3
16 -15 2 220.18 18.8
16 -15 2 225.18 18.8
-16 16 -2 488.35 48.1
16 0 -2 550.74 45.6
0 -16 -2 565.24 37.1
16 -16 2 496.75 30
16 -16 2 515.75 28
0 16 2 564.54 36
-16 0 2 516.35 43.7
-1 -16 -2 159.58 23.9
-16 17 -2 141.79 29.4
17 -1 -2 185.78 31.7
1 16 2 170.08 22.1
-17 1 2 210.18 31.4
-16 18 -2 415.26 42.8
18 -2 -2 355.96 38.6
-2 -16 -2 390.76 34.4
2 16 2 339.77 30.1
-16 19 -2 61.29 24.6
-3 -16 -2 72.59 21
19 -3 -2 96.19 23.8
3 16 2 68.89 16.6
-4 -16 -2 317.17 36.5
20 -4 -2 323.47 37.5
-16 20 -2 370.66 40.4
-20 4 2 377.96 64.59
4 16 2 392.46 32.9
21 -5 -2 91.19 24
-16 21 -2 83.19 25.9
-5 -16 -2 38.4 21.8
5 16 2 48.5 17.2
-21 5 2 53.39 20.8
-16 22 -2 345.57 44
22 -6 -2 295.07 57.49
-6 -16 -2 295.67 39.8
-22 6 2 336.27 47.5
6 16 2 296.27 32.9
23 -7 -2 57.49 24.6
-16 23 -2 27.9 21.8
-7 -16 -2 16.7 21.8
7 16 2 35.6 17.3
-23 7 2 49.6 20.5
24 -8 -2 276.07 35.7
-8 -16 -2 281.97 39.5
-16 24 -2 209.98 31.7
-24 8 2 212.48 37
-16 25 -2 18.1 17.1
25 -9 -2 21.3 16.9
9 16 2 35.4 17.6
-25 9 2 14 22.4
26 -10 -2 182.58 30.6
-10 -16 -2 88.59 30
10 16 2 156.08 29.6
27 -11 -2 -19 16.5
-11 -16 -2 -8.8 22.4
11 16 2 1 16.2
-12 -16 -2 58.29 29.5
28 -12 -2 78.79 23.8
12 16 2 133.49 31.6
-13 -16 -2 17.9 28.6
29 -13 -2 -10.6 18.9
13 16 2 -0.8 17.6
29 -17 -2 -16.1 12.1
-17 -12 -2 53.19 34.5
-12 29 -2 3.7 16.2
17 12 2 14.3 22.6
-11 28 -2 54.89 18.4
28 -17 -2 65.89 19.5
-17 -11 -2 25.9 29.3
17 11 2 96.39 30.5
-10 27 -2 16.6 14.7
17 10 2 0.4 19.1
-27 17 2 -13 21.8
26 -17 -2 146.09 16.7
26 -17 -2 126.59 16.8
-9 26 -2 142.79 23.5
17 9 2 124.99 28.7
-26 17 2 86.69 28.5
-8 25 -2 12.8 13.5
-25 17 2 31.7 19.9
17 8 2 -8.5 15.2
-7 24 -2 144.29 22.1
-24 17 2 189.98 33.6
17 7 2 117.89 27.4
-6 23 -2 6.8 12.2
-17 -6 -2 33.8 23.3
17 6 2 3.4 15.2
-23 17 2 8.5 16.3
-17 -5 -2 220.18 42
-5 22 -2 212.88 25.9
-22 17 2 224.48 32.1
17 5 2 179.88 31.3
-4 21 -2 10.1 11.9
-17 -4 -2 17.3 19.5
-21 17 2 14.3 16.1
17 4 2 -3.9 16.3
-17 -3 -2 149.88 35
-3 20 -2 205.78 25.2
17 3 2 184.08 31.5
-20 17 2 210.88 27.1
-17 -2 -2 15.6 18.8
-2 19 -2 10.8 12.2
-19 17 2 -1.3 11.7
17 2 2 3.6 14.2
-17 -1 -2 234.88 38.5
-1 18 -2 199.38 24.2
17 1 2 142.49 30
-18 17 2 198.58 23.5
-17 0 -2 44.7 20.1
0 17 -2 16.1 11.7
17 0 2 -3 12.5
-17 17 2 23.1 12
1 16 -2 151.38 23.5
17 -1 2 172.28 29.2
-16 17 2 161.28 20.8
2 15 -2 2.9 12.5
-15 17 2 -2.6 7.6
17 -2 2 -0.5 12.5
-2 -15 2 15.9 13.1
-2 -15 2 0 8.6
3 14 -2 181.58 26
-14 17 2 155.88 16.7
17 -3 2 188.98 28.6
-3 -14 2 143.79 18.7
-14 17 2 190.38 28.8
-3 -14 2 178.88 23.9
4 13 -2 14.2 13.3
17 -4 2 16.1 14.9
-13 17 2 18.8 7.4
-13 17 2 8.1 14.8
-4 -13 2 15.8 15
-4 -13 2 16.4 11.3
5 12 -2 192.48 28
-5 -12 2 169.48 25.1
-5 -12 2 175.98 21.8
-12 17 2 139.79 13
-12 17 2 136.39 24.8
17 -5 2 175.18 27.1
6 11 -2 37.4 15.4
17 -6 2 42.5 15.2
-11 17 2 21.2 5.9
-11 17 2 1.6 16.9
-6 -11 2 22.8 15.3
-6 -11 2 18.8 12.3
7 10 -2 85.89 20.8
-7 -10 2 140.69 20.9
17 -7 2 99.99 20.8
-10 17 2 105.79 21.6
8 9 -2 104.39 22.5
-9 17 2 75.09 19.3
-8 -9 2 70.29 17.3
17 -8 2 81.29 19.1
9 8 -2 93.59 21.6
-9 -8 2 79.49 21.5
17 -9 2 69.29 18.2
-8 17 2 106.39 19.9
10 7 -2 88.99 21.6
-7 17 2 108.59 19.9
17 -10 2 88.29 18.7
-10 -7 2 88.19 19.5
11 6 -2 20.4 15
-11 -6 2 44.4 15.7
17 -11 2 34.6 14
17 -11 2 32.8 13
-6 17 2 37.2 15
12 5 -2 152.28 27.1
-12 -5 2 138.79 24.2
17 -12 2 170.38 22.3
-5 17 2 166.38 20.1
17 -12 2 181.78 22.5
13 4 -2 21.3 16.9
-17 13 -2 9.1 16.3
17 -13 2 13 10.6
17 -13 2 4.6 10.6
-13 -4 2 25.2 14.9
14 3 -2 168.28 29.4
-17 14 -2 130.49 29.8
17 -14 2 144.69 19.4
-14 -3 2 199.88 29.7
-17 15 -2 11.1 17.5
15 2 -2 4.1 14.8
17 -15 2 10.1 9.3
-2 17 2 8.8 9.9
-15 -2 2 8.1 14.1
17 -15 2 10.8 9.4
16 1 -2 150.08 28.1
-17 16 -2 139.69 33.4
17 -16 2 179.48 15.7
17 -16 2 133.79 15.3
-16 -1 2 144.59 26.1
17 0 -2 11.1 16.7
0 -17 -2 26.1 13.3
-17 17 -2 -7.6 31.4
-17 0 2 22.3 16.1
0 17 2 4.8 11
-17 18 -2 165.38 42.3
-1 -17 -2 181.88 24.4
18 -1 -2 191.68 33.4
1 17 2 206.68 22.4
-17 19 -2 8.3 17.7
-2 -17 -2 1.4 14.2
19 -2 -2 -4.6 14.6
2 17 2 4.9 10.8
-17 20 -2 182.78 35.5
-3 -17 -2 245.88 30.2
3 17 2 199.88 25.2
21 -4 -2 -3.3 17.3
-4 -17 -2 -8.1 15.6
-17 21 -2 31.6 19.4
4 17 2 -7.7 11.2
-5 -17 -2 176.98 29.6
-17 22 -2 212.58 34.9
22 -5 -2 198.78 33.3
5 17 2 163.48 26.4
-6 -17 -2 2.7 19
-17 23 -2 47 23.1
23 -6 -2 -22.1 15.5
-23 6 2 -2.8 20
6 17 2 6 14.2
-7 -17 -2 179.08 32.6
24 -7 -2 209.98 35.4
-17 24 -2 167.38 30.7
7 17 2 108.89 38.3
-24 7 2 159.58 33.6
25 -8 -2 0.9 17.1
-17 25 -2 22.8 18.9
-8 -17 -2 3.5 20.6
8 17 2 -21.6 12.8
-25 8 2 11.1 33.6
26 -9 -2 90.99 25.9
9 17 2 102.89 26
-10 -17 -2 15.7 26.2
27 -10 -2 7.6 18.6
10 17 2 48.4 20.2
28 -11 -2 86.29 26.2
-11 -17 -2 26.1 29.9
11 17 2 85.09 26.2
29 -12 -2 10 20.1
-12 -17 -2 10.7 28.7
12 17 2 -4.1 18.1
-11 29 -2 3.3 16.1
29 -18 -2 11.5 11.7
-18 -11 -2 54.39 36.3
29 -18 -2 38.7 12.5
18 11 2 -6.3 19.1
-18 -10 -2 146.49 43.3
-10 28 -2 126.79 25.3
-18 -9 -2 56.29 33.4
-9 27 -2 28.2 17.8
18 9 2 32 22.6
-27 18 2 7.8 25
-18 -8 -2 90.19 32.5
-8 26 -2 187.88 26.6
18 8 2 158.48 32.5
-7 25 -2 48.6 16.5
-25 18 2 53.49 23.4
18 7 2 19.7 19.2
-6 24 -2 202.88 27
-24 18 2 255.77 37.2
18 6 2 188.28 33.5
-5 23 -2 62.89 18.2
18 5 2 80.29 23.7
-23 18 2 64.59 22
-4 22 -2 287.47 29.8
18 4 2 308.27 38.2
-22 18 2 287.17 32.5
-3 21 -2 53.49 17.3
-18 -3 -2 67.69 24
18 3 2 35.2 19.3
-21 18 2 43.2 18.1
-18 -2 -2 300.67 46.8
-2 20 -2 312.57 31
18 2 2 286.27 34.7
-18 -1 -2 93.19 28.5
-1 19 -2 135.09 23
18 1 2 80.39 22.6
-19 18 2 96.89 20.2
0 18 -2 284.17 29.8
-18 0 -2 348.47 53.19
-18 18 2 295.77 27.5
18 0 2 315.07 39.4
1 17 -2 145.99 23.9
18 -1 2 166.68 29.2
-17 18 2 184.78 21.1
2 16 -2 371.06 34.7
-16 18 2 398.76 28.8
18 -2 2 371.96 38.6
3 15 -2 147.39 24.7
-15 18 2 111.29 16.1
-15 18 2 160.58 28.7
18 -3 2 122.59 26.9
-3 -15 2 153.18 18.5
-3 -15 2 211.98 24.5
4 14 -2 356.96 33.5
-14 18 2 320.97 22.8
-4 -14 2 303.57 31.1
-14 18 2 298.37 34.5
-4 -14 2 330.67 27
18 -4 2 324.87 35.2
5 13 -2 111.99 22.3
-13 18 2 98.99 12.1
-5 -13 2 120.79 18.8
-13 18 2 123.09 24.8
18 -5 2 93.29 22.4
-5 -13 2 109.79 20.6
6 12 -2 301.47 32.6
-6 -12 2 299.27 31.7
18 -6 2 262.87 31.2
-6 -12 2 318.57 27.6
-12 18 2 263.47 22.3
-12 18 2 290.27 33.4
7 11 -2 104.89 22.2
-7 -11 2 76.09 17.6
18 -7 2 97.69 21.8
8 10 -2 315.37 34.4
-8 -10 2 366.86 32.4
18 -8 2 371.16 35.3
-10 18 2 370.06 34.7
9 9 -2 77.79 20.5
-9 18 2 70.99 18.7
18 -9 2 98.59 20.5
10 8 -2 325.47 35.9
18 -10 2 341.57 32.5
-8 18 2 360.36 31.3
-10 -8 2 291.77 32.1
11 7 -2 132.69 24.8
-7 18 2 107.29 18.6
-11 -7 2 77.19 19.7
18 -11 2 118.59 20.2
12 6 -2 271.67 32.7
-6 18 2 328.67 26.3
18 -12 2 337.47 30.1
-12 -6 2 360.06 34
18 -12 2 336.67 29.6
13 5 -2 189.98 31.7
18 -13 2 135.19 20.5
-13 -5 2 116.19 23.1
18 -13 2 107.59 19.1
-18 14 -2 309.47 44.8
14 4 -2 309.77 36.4
-14 -4 2 361.76 35.6
18 -14 2 326.57 27.7
18 -14 2 355.86 28.6
15 3 -2 146.09 27.4
-18 15 -2 97.09 27.4
-3 18 2 192.08 18.8
-15 -3 2 109.99 23.6
18 -15 2 153.78 18.5
16 2 -2 369.86 39
-18 16 -2 353.26 43.1
18 -16 2 358.46 25.2
-2 18 2 403.46 29.6
18 -16 2 356.56 25.6
-16 -2 2 393.56 38.7
17 1 -2 202.28 33.5
-18 17 -2 201.08 34.7
18 -17 2 173.48 19.4
-1 18 2 177.08 21.2
-17 -1 2 165.48 29.8
18 -17 2 177.38 13.8
-18 18 -2 316.77 45.9
-18 0 2 317.07 42
0 18 2 331.57 28.1
-1 -18 -2 113.19 18.3
19 -1 -2 54.39 24
-18 19 -2 96.69 26.7
1 18 2 86.89 17.7
20 -2 -2 313.07 39
-2 -18 -2 291.17 28.9
-18 20 -2 293.27 40.6
2 18 2 357.56 31
21 -3 -2 69.19 23.9
-3 -18 -2 55.89 18.9
-18 21 -2 78.29 44.1
3 18 2 63.89 17.3
22 -4 -2 280.57 37.2
-18 22 -2 265.07 42.6
-4 -18 -2 278.37 32.7
4 18 2 287.57 31.7
-18 23 -2 72.29 24.7
-5 -18 -2 73.69 24.4
23 -5 -2 74.09 24.5
-23 5 2 61.39 26.2
5 18 2 83.99 21.8
-6 -18 -2 183.98 32.3
-18 24 -2 218.78 36.4
24 -6 -2 207.68 35.5
6 18 2 197.88 31.3
-24 6 2 264.87 42.7
-18 25 -2 27.9 23.3
-7 -18 -2 49.1 23.2
25 -7 -2 36.9 21.6
7 18 2 39.6 19.1
-8 -18 -2 173.08 34.6
-18 26 -2 142.99 29.1
26 -8 -2 142.89 29.6
8 18 2 170.38 31.6
27 -9 -2 36.7 20.7
-18 27 -2 26.9 18.7
9 18 2 -11 17
-10 -18 -2 71.59 30
28 -10 -2 88.49 25
10 18 2 128.09 30.5
-11 -18 -2 -23.4 24.7
29 -11 -2 23.4 23.4
11 18 2 6.4 19.1
-10 29 -2 21.1 18.6
19 10 2 10.1 20.5
-19 -9 -2 50.89 31.7
-9 28 -2 82.99 22.5
19 9 2 80.19 33.7
-19 -8 -2 -29 25.2
-8 27 -2 -22.6 15
19 8 2 2.2 18.6
-27 19 2 2.7 22.3
-7 26 -2 67.49 19.2
-19 -7 -2 50.39 30.7
19 7 2 123.49 30.4
-6 25 -2 10.4 13
-19 -6 -2 -7.2 24.8
-25 19 2 14.8 18.6
19 6 2 15.2 18.5
-5 24 -2 115.59 21.6
-19 -5 -2 84.69 34.2
19 5 2 77.89 24.8
-24 19 2 106.79 24.9
-4 23 -2 -11.7 13.1
-19 -4 -2 10.6 31.2
19 4 2 17.1 18
-23 19 2 -37.9 14.6
-3 22 -2 157.08 24.2
-22 19 2 172.68 27.4
19 3 2 89.39 26.8
-2 21 -2 32.7 15.7
-21 19 2 36.3 16.9
19 2 2 28.5 17.5
-1 20 -2 133.79 22.4
19 1 2 175.68 30.4
-20 19 2 135.79 25
-19 0 -2 11.5 25.3
0 19 -2 5.2 13.2
-19 19 2 25 13.4
19 0 2 5.5 13.9
-19 1 -2 69.59 29.4
1 18 -2 62.19 17.4
19 -1 2 65.59 21.5
-18 19 2 92.69 17.1
2 17 -2 -2.4 11.7
-17 19 2 0.9 9.8
3 16 -2 53.79 18.6
-16 19 2 103.19 15.5
19 -3 2 76.49 22.5
-3 -16 2 90.79 17.8
-16 19 2 113.59 24.9
4 15 -2 -2.2 11.3
-15 19 2 16.4 16.1
-4 -15 2 14.8 14.9
-15 19 2 27 8.9
19 -4 2 16 16.5
-4 -15 2 9 11.2
5 14 -2 86.49 21.3
-5 -14 2 23.8 15.9
19 -5 2 53.29 19.7
-14 19 2 52.49 10.1
-5 -14 2 77.49 16.7
-14 19 2 75.09 20.9
6 13 -2 13.2 13.3
-13 19 2 1.7 15.9
-6 -13 2 14.7 12.5
-6 -13 2 32.7 16.4
19 -6 2 4.9 13.9
-13 19 2 -3.1 5.8
7 12 -2 74.49 21.4
-7 -12 2 58.89 18.7
-7 -12 2 69.29 17.6
-12 19 2 59.49 9.9
-12 19 2 86.29 21.4
19 -7 2 74.99 20.6
8 11 -2 25.7 16.3
19 -8 2 20.4 15.6
-8 -11 2 13.4 14.1
-11 19 2 38.7 19.3
9 10 -2 37.5 18.9
-9 -10 2 64.29 17.9
-10 19 2 55.49 19.2
19 -9 2 40.9 17.2
10 9 -2 91.79 23
19 -10 2 40.9 17
-10 -9 2 106.59 21.8
-9 19 2 59.29 17.7
11 8 -2 49.8 18.4
-11 -8 2 22.1 15.7
-8 19 2 26.6 14.5
19 -11 2 35.4 15.3
12 7 -2 50.29 18.6
-12 -7 2 85.19 20.4
19 -12 2 60.09 17.1
19 -12 2 45 15.1
13 6 -2 22.6 16.9
19 -13 2 1.3 11
19 -13 2 11.2 13.2
-13 -6 2 19.5 15
-19 14 -2 130.99 30.7
14 5 -2 57.99 22.5
19 -14 2 49.2 14.9
-14 -5 2 69.29 20.1
19 -14 2 68.59 16.1
15 4 -2 16.7 16.5
-19 15 -2 6.4 18.6
19 -15 2 21 11.1
19 -15 2 14.8 11.2
-15 -4 2 17.6 15
-19 16 -2 107.39 28.7
-16 -3 2 84.79 22
19 -16 2 72.79 14.3
-3 19 2 69.59 13.8
19 -16 2 79.69 16.5
-19 17 -2 22.4 20.9
17 2 -2 13.7 17.6
-2 19 2 8.6 10.5
19 -17 2 7 7.3
19 -17 2 -5.4 7.5
-17 -2 2 39.8 17.6
18 1 -2 91.79 26.2
-19 18 -2 144.99 31.6
-18 -1 2 53.79 22.2
-1 19 2 73.19 15.7
-19 19 -2 16.7 20
19 0 -2 18.9 18.8
0 19 2 14.6 12.3
-19 20 -2 132.49 32.9
20 -1 -2 132.89 30.5
1 19 2 147.39 22.1
21 -2 -2 16.6 19.8
-19 21 -2 71.39 26.7
2 19 2 9.4 13.5
-19 22 -2 121.79 32.6
22 -3 -2 186.48 34.2
-3 -19 -2 193.78 25.1
3 19 2 134.39 23.5
23 -4 -2 4.3 17.7
-4 -19 -2 -16.9 14.8
-19 23 -2 19.5 21.4
-23 4 2 10.3 18.7
4 19 2 7.4 12.5
24 -5 -2 117.59 28.2
-5 -19 -2 138.49 24.9
-24 5 2 71.89 41.5
5 19 2 120.89 24.7
25 -6 -2 3.4 18
-19 25 -2 -12.5 21.5
-6 -19 -2 -16.8 17.8
6 19 2 -12.1 13.5
-19 26 -2 100.99 26.4
-7 -19 -2 90.99 27.3
26 -7 -2 103.49 28
7 19 2 155.08 28.1
-19 27 -2 9.2 20.4
27 -8 -2 -21.1 17.2
-8 -19 -2 34.7 24.3
8 19 2 -5.4 16.9
-19 28 -2 93.99 24.1
28 -9 -2 106.49 28.7
-9 -19 -2 93.29 31.6
9 19 2 94.79 27.5
29 -10 -2 50.09 23.7
-10 -19 -2 0.3 28.1
10 19 2 -7.9 17.5
-8 28 -2 112.69 26.1
-28 20 2 85.99 39.8
20 8 2 83.79 27.9
-20 -7 -2 -1 30.6
-7 27 -2 13.1 17.6
20 7 2 26.7 33.9
-27 20 2 40.8 24.5
-6 26 -2 123.19 23.7
-20 -6 -2 67.79 33.3
20 6 2 133.19 31.6
-26 20 2 181.38 39.3
-5 25 -2 40.1 17.7
-20 -5 -2 71.89 32.5
-25 20 2 30.8 20.9
20 5 2 -3.1 19.3
-20 -4 -2 183.48 42.1
-4 24 -2 175.58 28.3
20 4 2 83.89 25.9
-24 20 2 200.88 31.5
-20 -3 -2 79.49 28.9
-3 23 -2 80.29 20.2
-23 20 2 87.69 22.5
20 3 2 49 23.8
-2 22 -2 228.78 28.8
-20 -2 -2 271.87 54.69
20 2 2 177.08 33.3
-22 20 2 296.97 32.4
-1 21 -2 56.89 18.5
-20 -1 -2 31.5 34.9
-21 20 2 95.89 21
20 1 2 70.99 24.7
0 20 -2 216.78 28.4
20 0 2 216.68 34.5
-20 20 2 230.78 29.4
1 19 -2 129.89 24.1
20 -1 2 90.29 26.1
-19 20 2 127.79 21.3
2 18 -2 295.07 32.7
-18 20 2 273.37 26.3
20 -2 2 318.57 37.3
3 17 -2 190.88 28.9
-17 20 2 197.08 31.2
20 -3 2 151.48 28.5
-17 20 2 179.28 20
4 16 -2 384.86 35.9
-16 20 2 355.06 25.2
-16 20 2 287.87 36.4
-4 -16 2 286.87 29.8
5 15 -2 116.79 23.3
20 -5 2 105.69 24
-15 20 2 135.29 27.1
-15 20 2 136.39 15.1
-5 -15 2 152.28 19.6
-5 -15 2 116.29 22
6 14 -2 248.78 31.5
20 -6 2 285.77 33.4
-6 -14 2 265.57 30.6
-14 20 2 295.77 34
-6 -14 2 282.77 27.2
-14 20 2 273.47 19.3
7 13 -2 184.68 28.1
-7 -13 2 129.39 21.1
-7 -13 2 121.69 23
-13 20 2 139.09 26
-13 20 2 138.99 12.4
20 -7 2 123.39 23.7
8 12 -2 323.77 34.8
20 -8 2 293.87 33.3
-8 -12 2 308.87 32.8
9 11 -2 160.08 28.7
-11 20 2 134.89 23.3
-9 -11 2 148.49 23.3
20 -9 2 126.89 24.5
10 10 -2 316.67 36
-10 20 2 358.16 31.7
20 -10 2 304.77 32.4
-10 -10 2 339.57 33.6
11 9 -2 103.49 24
-11 -9 2 133.79 24.7
-9 20 2 128.29 20.3
20 -11 2 108.19 21.1
12 8 -2 334.27 36.3
20 -12 2 328.97 32.2
-12 -8 2 273.37 32.5
20 -12 2 321.67 31.1
13 7 -2 121.19 26.1
20 -13 2 148.19 22.7
20 -13 2 106.59 19.8
-13 -7 2 175.38 28.1
20 -14 2 288.57 27.4
20 -14 2 255.37 26.9
-14 -6 2 296.17 33.6
15 5 -2 100.99 28.8
-20 15 -2 137.29 33.6
20 -15 2 120.89 19.5
-15 -5 2 113.39 25
20 -15 2 111.79 18.2
16 4 -2 371.46 40.4
-20 16 -2 343.27 44.4
-4 20 2 346.57 25
20 -16 2 335.47 27.3
-16 -4 2 324.17 37.6
20 -16 2 329.17 30.9
-20 17 -2 209.98 37.3
17 3 -2 236.38 37.3
20 -17 2 208.98 19.5
-17 -3 2 218.78 33.4
20 -17 2 185.48 19.5
18 2 -2 296.67 42
-20 18 -2 354.46 50.69
20 -18 2 293.67 18.2
-2 20 2 317.57 26.6
19 1 -2 153.68 30.4
-20 19 -2 176.08 34.9
-1 20 2 180.18 21.6
20 0 -2 248.28 37.9
-20 20 -2 264.27 41.6
0 20 2 226.28 25.2
21 -1 -2 81.59 25.6
-20 21 -2 81.39 27.5
-21 1 2 67.49 24.6
1 20 2 89.99 19.2
-20 22 -2 312.37 46.7
22 -2 -2 268.57 41.4
2 20 2 227.98 28.7
-22 2 2 233.18 39.2
23 -3 -2 40.1 23.4
-20 23 -2 76.89 27.1
-23 3 2 54.39 22.1
3 20 2 81.59 19.8
24 -4 -2 161.68 33.4
-4 -20 -2 197.18 26.1
-20 24 -2 193.68 36.6
4 20 2 177.48 28.9
-20 25 -2 78.59 27.9
-5 -20 -2 66.39 19.8
25 -5 -2 48.2 25.6
-6 -20 -2 149.69 26.7
26 -6 -2 150.78 33.7
6 20 2 147.79 29.7
-7 -20 -2 19.3 21
27 -7 -2 9.1 21.8
-20 27 -2 46.8 23.1
7 20 2 21.2 18.3
28 -8 -2 75.39 28.8
-8 -20 -2 124.09 29.7
-20 28 -2 50.99 26.8
8 20 2 126.29 27.8
-7 28 -2 51.09 21.6
21 7 2 25 22.3
-28 21 2 40.1 30.3
-6 27 -2 4.6 15.3
21 6 2 3.5 29
-27 21 2 -13 21.1
-5 26 -2 84.39 21.5
21 5 2 78.39 26.6
-26 21 2 116.19 30.7
-4 25 -2 32.6 16.3
-21 -4 -2 -27 22.4
21 4 2 -4.4 17.2
-25 21 2 -20.3 18.7
-21 -3 -2 85.89 37.6
-3 24 -2 83.79 22
-24 21 2 102.29 24.3
21 3 2 128.59 29.8
-21 -2 -2 -27.9 21.2
-2 23 -2 -6.1 14.9
21 2 2 34.4 20.9
-23 21 2 45.9 19.8
-1 22 -2 80.99 20.9
-21 -1 -2 57.59 32.2
21 1 2 126.99 29.4
-22 21 2 159.08 26.1
0 21 -2 11.3 15.2
-21 0 -2 17.9 21.7
-21 21 2 32.9 24.7
21 0 2 -1.3 16.7
-21 1 -2 48.7 29.9
1 20 -2 65.89 19.4
-20 21 2 71.79 18
21 -1 2 60.39 24.1
2 19 -2 43.2 18.3
-19 21 2 26 13
21 -2 2 -6.3 16.1
3 18 -2 113.99 24.9
-18 21 2 59.59 14.6
21 -3 2 44.4 20
-18 21 2 52.29 23.6
4 17 -2 6.1 14.8
-17 21 2 -0.1 8.3
21 -4 2 14.2 15.3
-17 21 2 18 16.2
5 16 -2 57.19 19.5
-16 21 2 62.69 12.1
-5 -16 2 64.09 19
21 -5 2 36.7 18.2
-16 21 2 69.89 21.8
-6 -15 2 16.2 13
-15 21 2 24.6 7.9
-6 -15 2 -7.2 18.7
21 -6 2 29.1 26.6
-15 21 2 21.5 17.9
7 14 -2 24.7 16
-14 21 2 43.1 20.3
-14 21 2 42.7 8.6
-7 -14 2 24.1 16.7
21 -7 2 38.7 18.7
8 13 -2 20.4 15.1
21 -8 2 -3.6 12.9
-8 -13 2 16.4 17.6
-13 21 2 7.4 16.2
-8 -13 2 3.9 15.1
9 12 -2 40.1 17.5
-9 -12 2 25.1 15.7
21 -9 2 32.2 17.3
-12 21 2 74.39 20.3
10 11 -2 19.4 16.1
-10 -11 2 15.6 14.9
21 -10 2 12.7 15.5
-11 21 2 7.7 13.8
11 10 -2 28.3 21.1
21 -11 2 23 16.1
-11 -10 2 51.89 18.7
-10 21 2 -0.6 12.4
-12 -9 2 30.1 17.6
21 -12 2 22.2 16.1
13 8 -2 -6 14.5
21 -13 2 6.2 13.3
-13 -8 2 25.6 17.1
21 -13 2 11 12.9
14 7 -2 83.39 23.3
21 -14 2 38.3 15.8
-14 -7 2 16.3 17.8
21 -14 2 30.3 13.7
15 6 -2 18 19
-21 15 -2 4.3 19.2
21 -15 2 -3.6 11.2
-15 -6 2 12 15.8
21 -15 2 14 12
-21 16 -2 18.6 22.1
16 5 -2 68.19 22.1
21 -16 2 55.29 14.4
-16 -5 2 81.49 21.7
21 -16 2 33.1 14.7
-5 21 2 58.59 11.7
-21 17 -2 18.8 23.5
17 4 -2 -12.8 14.7
-4 21 2 -5.9 8.2
21 -17 2 -18.2 8.2
18 3 -2 70.09 23.6
-21 18 -2 64.49 31.5
-3 21 2 65.99 13.6
21 -18 2 64.29 11
21 -18 2 58.49 11.4
-21 19 -2 19.5 19.8
19 2 -2 14 19.6
-2 21 2 16.3 10.6
-21 20 -2 35 21.8
20 1 -2 74.19 25.6
-1 21 2 81.49 16.3
-20 -1 2 40.9 23.9
-21 21 -2 5.6 23.5
21 0 -2 10.7 19.1
-21 0 2 14.2 18.7
0 21 2 5.8 11.1
22 -1 -2 139.39 32
-21 22 -2 149.79 33.2
-22 1 2 123.39 30.7
1 21 2 145.79 23.3
23 -2 -2 -7.3 19.4
-21 23 -2 16.8 22.7
2 21 2 14.6 14.4
-21 24 -2 105.19 31.1
24 -3 -2 117.19 30.8
3 21 2 100.99 22.1
25 -4 -2 -17.8 17.9
-21 25 -2 -10.8 20.3
26 -5 -2 92.69 29.2
-21 26 -2 107.29 33.1
5 21 2 97.19 25.7
-6 -21 -2 10.1 16.2
27 -6 -2 0.1 22.2
-21 27 -2 18.3 27.7
6 21 2 -3.2 16.7
28 -7 -2 32.6 25.4
-21 28 -2 30.9 43.1
-7 -21 -2 42.5 19.9
7 21 2 22 21.7
-5 27 -2 5.9 18.7
22 5 2 14.9 20.6
-27 22 2 21.3 25.9
-4 26 -2 131.19 26.5
-26 22 2 115.79 29.8
-3 25 -2 57.49 20.3
-25 22 2 42.7 23.2
22 3 2 64.69 23.7
-2 24 -2 174.48 29.9
22 2 2 188.58 35
-24 22 2 186.08 30.8
-22 -1 -2 16.5 26.6
-1 23 -2 71.39 20.8
-23 22 2 104.69 23.8
22 1 2 87.09 25.1
-22 0 -2 144.09 36.9
0 22 -2 196.38 29.7
-22 22 2 228.98 28.8
22 0 2 175.78 34.1
1 21 -2 69.59 20.7
-22 1 -2 141.79 38.7
22 -1 2 102.89 28
-22 2 -2 284.37 58.59
2 20 -2 291.07 33.2
-20 22 2 235.88 38.7
-20 22 2 269.77 27.9
22 -2 2 173.48 33.7
3 19 -2 144.59 27.4
-19 22 2 145.89 28.4
-19 22 2 205.18 23.2
22 -3 2 116.69 29.6
4 18 -2 312.57 35.1
-18 22 2 334.67 27.1
22 -4 2 261.07 39.2
-18 22 2 302.57 38.6
5 17 -2 196.78 30.9
-5 -17 2 167.28 24.3
-17 22 2 206.58 19.8
22 -5 2 144.09 28.4
-17 22 2 208.18 32.2
6 16 -2 319.97 35.9
-16 22 2 265.57 21.9
-16 22 2 309.67 39.2
22 -6 2 286.97 35.8
7 15 -2 133.79 29.2
-7 -15 2 162.88 26.7
-15 22 2 217.78 32
-7 -15 2 236.98 25.8
22 -7 2 135.59 31.4
-15 22 2 162.08 15.5
8 14 -2 299.47 55.19
-14 22 2 318.07 35.2
-8 -14 2 273.97 33.6
22 -8 2 273.57 35
-8 -14 2 315.57 34
-14 22 2 294.07 19.1
22 -9 2 197.18 30.2
-9 -13 2 188.68 26.6
10 12 -2 277.37 41.9
-10 -12 2 315.47 32.7
22 -10 2 296.87 35.4
-12 22 2 296.07 32
11 11 -2 204.38 33.4
-11 22 2 179.88 25.1
-11 -11 2 227.98 30
22 -11 2 248.68 31.6
12 10 -2 312.97 38.1
-12 -10 2 340.57 35
22 -12 2 287.67 32.8
13 9 -2 180.48 34.4
-13 -9 2 243.08 31.5
22 -13 2 175.68 27.6
22 -13 2 257.97 27.1
14 8 -2 276.57 37
22 -14 2 335.17 30.6
22 -14 2 350.86 32.6
-14 -8 2 328.77 37
15 7 -2 233.58 35.9
-22 15 -2 158.88 33
22 -15 2 154.28 23.5
22 -15 2 145.29 22
-7 22 2 158.78 14.9
-15 -7 2 123.29 26.7
16 6 -2 253.47 38.9
-22 16 -2 228.48 42.6
-16 -6 2 187.68 34.4
22 -16 2 304.57 28.6
22 -16 2 297.87 28.1
-6 22 2 316.17 21.7
-22 17 -2 162.88 34.6
17 5 -2 166.88 32.7
22 -17 2 182.68 21.9
-5 22 2 162.18 17.6
22 -17 2 187.68 21.8
18 4 -2 361.26 41.3
-22 18 -2 243.38 42.1
22 -18 2 288.17 22.9
22 -18 2 325.57 24.9
-18 -4 2 443.56 66.49
-4 22 2 286.97 26.3
19 3 -2 163.88 34.2
-22 19 -2 103.39 32.2
-19 -3 2 188.78 34.9
-3 22 2 145.09 19.3
-22 20 -2 255.67 43.1
20 2 -2 270.77 41.6
-2 22 2 235.68 25.1
-20 -2 2 295.17 43.5
-22 21 -2 138.89 37.2
21 1 -2 101.89 30.4
-21 -1 2 159.78 33.1
-1 22 2 121.89 20.1
-22 22 -2 221.18 44.6
22 0 -2 168.08 35.5
-22 0 2 156.08 43.8
0 22 2 159.58 25
-22 23 -2 48.1 28
23 -1 -2 61.99 25.1
1 22 2 49 17
24 -2 -2 208.48 37.4
-22 24 -2 178.48 37.4
2 22 2 172.38 27.2
-22 25 -2 57.69 28.1
25 -3 -2 33.8 24.4
3 22 2 53.39 20
26 -4 -2 122.09 32.5
-22 26 -2 150.28 36.5
4 22 2 145.79 27.9
27 -5 -2 32.2 23.6
-22 27 -2 61.49 29.7
5 22 2 21.5 17.3
-22 28 -2 63.19 31.8
-4 27 -2 -2.8 19.2
-27 23 2 49.4 36.9
23 4 2 4.6 19.3
-3 26 -2 77.09 37.4
23 3 2 61.09 25.4
-26 23 2 149.59 30.4
-25 23 2 -44 18
23 2 2 8.3 22.1
-24 23 2 96.49 24.6
23 1 2 68.99 25.5
-23 23 2 4.4 16
23 0 2 35.3 21.9
-22 23 2 69.19 19.3
23 -1 2 46.7 23.2
-23 2 -2 -29.4 20.1
-21 23 2 9.8 14.4
23 -2 2 32 22.5
-21 23 2 6.6 19.7
-23 3 -2 19.5 24.2
-20 23 2 87.29 25.3
-20 23 2 77.99 17.5
23 -3 2 35.6 22.6
23 -4 2 25.8 18.6
-19 23 2 0.3 11.4
-19 23 2 -9.7 16.3
5 18 -2 14.4 26.4
-18 23 2 51.49 14.1
23 -5 2 57.09 21.3
-18 23 2 69.59 22.4
6 17 -2 -14.2 14.2
-6 -17 2 -10.7 15.6
23 -6 2 -8.3 14.9
-17 23 2 -20.9 14.7
-17 23 2 10.3 9.4
7 16 -2 22.5 17.1
-7 -16 2 34.9 18.2
-16 23 2 48.7 11
-16 23 2 48.6 21.8
23 -7 2 76.99 22.4
8 15 -2 3 15.3
-15 23 2 19.2 7.5
-8 -15 2 32.4 16.5
23 -8 2 30.6 19.1
-15 23 2 38.1 19.4
-8 -15 2 24.1 16.5
9 14 -2 8.3 16.7
-9 -14 2 20.7 18.2
-14 23 2 46 19.2
-9 -14 2 59.49 18.5
10 13 -2 7.8 14.3
23 -10 2 22.3 16.3
-13 23 2 0 15
-10 -13 2 23.2 15.8
11 12 -2 25.9 17.8
23 -11 2 7.2 14.9
-11 -12 2 11.9 17.7
-12 23 2 11.1 15.1
12 11 -2 2.5 16.3
-12 -11 2 28.9 18.4
23 -12 2 40 17.1
13 10 -2 -4.2 15.6
-13 -10 2 5.5 15.9
23 -13 2 -8.7 13.3
23 -13 2 14 14.4
14 9 -2 26.3 18.7
-14 -9 2 34.1 19.7
23 -14 2 22.9 15.1
23 -14 2 29.9 15.8
15 8 -2 26.6 18.7
-23 15 -2 4 19.8
23 -15 2 -1.7 11.8
-8 23 2 6.6 6.5
23 -15 2 23.6 14.5
-15 -8 2 32.4 16.3
16 7 -2 24.2 19.1
-23 16 -2 64.99 27.6
-7 23 2 31 9
23 -16 2 33.4 15.4
23 -16 2 8.5 13.2
-23 17 -2 33.3 26.6
17 6 -2 12.7 17.4
23 -17 2 -2.8 10.9
23 -17 2 -11.4 11.6
-6 23 2 -9.3 6.5
18 5 -2 68.79 24
-23 18 -2 105.19 32.2
-18 -5 2 88.29 36.5
23 -18 2 33 13.8
19 4 -2 -6 17.6
-23 19 -2 33 23.2
-19 -4 2 24.8 19.9
23 -19 2 11.6 7.7
23 -19 2 -7.6 9.6
-4 23 2 1.7 9.6
20 3 -2 57.29 25.8
-23 20 -2 46.1 23.8
-20 -3 2 79.39 27
-3 23 2 60.19 13.8
21 2 -2 -28.7 14.3
-23 21 -2 -0.3 24.7
-21 -2 2 30.5 23.9
-2 23 2 -4 10
-23 22 -2 93.19 31.6
22 1 -2 69.09 27.7
-1 23 2 43.9 16.2
-23 23 -2 0.4 21.7
23 0 -2 2.9 19.3
0 23 2 -4.8 13.1
24 -1 -2 53.59 26.8
-23 24 -2 90.09 32.7
1 23 2 64.19 19.8
25 -2 -2 21 22.8
-23 25 -2 -2.3 22.7
2 23 2 -18.9 13.6
-23 26 -2 89.69 33
26 -3 -2 60.39 28
3 23 2 77.59 21.6
27 -4 -2 11.5 24.7
-23 27 -2 1.1 24.5
4 23 2 22.4 17.7
-2 26 -2 73.39 25.7
-26 24 2 105.39 27.4
24 2 2 71.59 27.4
-1 25 -2 63.59 23.2
-25 24 2 49.1 22.2
24 1 2 34.5 35.4
0 24 -2 118.99 26.5
-24 24 2 129.79 28.2
24 0 2 116.39 28.6
1 23 -2 76.19 21.5
-23 24 2 86.09 21.8
24 -1 2 124.49 29.2
-23 24 2 53.19 23.7
2 22 -2 188.68 30.9
-22 24 2 183.08 26.6
24 -2 2 164.98 34.6
-22 24 2 148.39 32.4
3 21 -2 84.49 25
-21 24 2 125.99 30
-21 24 2 57.19 17.6
24 -3 2 88.89 26.1
4 20 -2 179.48 31.5
-20 24 2 194.38 26.1
-20 24 2 187.68 33.4
24 -4 2 181.78 34.7
-24 5 -2 105.19 47.2
5 19 -2 90.89 24
-19 24 2 106.19 25.7
24 -5 2 78.19 25.5
-19 24 2 128.69 18.9
6 18 -2 229.38 35
-18 24 2 217.78 33.8
24 -6 2 224.38 37.7
-18 24 2 184.68 21.3
-6 -18 2 201.28 27.2
7 17 -2 176.88 31.1
-17 24 2 229.48 33.8
24 -7 2 130.69 30.4
-17 24 2 165.08 17.6
-7 -17 2 130.29 25.4
8 16 -2 248.28 36.4
24 -8 2 259.87 38.3
-16 24 2 234.38 18.9
-16 24 2 245.48 33.2
-8 -16 2 254.47 32.9
9 15 -2 142.19 29.1
-15 24 2 159.28 13.6
-9 -15 2 147.09 27.6
-15 24 2 197.08 29.7
-9 -15 2 160.28 29.4
24 -9 2 168.38 30.7
10 14 -2 215.58 35.8
-10 -14 2 221.78 31.2
-10 -14 2 281.87 37.1
24 -10 2 217.88 34.3
11 13 -2 117.19 26.9
24 -11 2 110.59 26.7
-11 -13 2 157.08 26.4
-13 24 2 163.98 23.7
12 12 -2 274.47 41.2
-12 -12 2 269.17 35.4
24 -12 2 249.18 32.5
13 11 -2 150.08 32
24 -13 2 173.48 27.5
-13 -11 2 186.48 29.6
14 10 -2 266.57 41.2
24 -14 2 242.68 29.6
24 -14 2 233.28 32.4
-14 -10 2 295.67 34.3
15 9 -2 128.99 30.4
-24 15 -2 107.69 34.7
24 -15 2 150.28 24.5
24 -15 2 145.19 24.2
-24 16 -2 149.09 57.09
16 8 -2 165.18 34.1
24 -16 2 228.08 29.1
24 -16 2 260.97 27.5
-8 24 2 199.78 15.9
-24 17 -2 75.29 46.5
17 7 -2 200.88 35.8
24 -17 2 162.48 24
24 -17 2 133.19 21.5
-7 24 2 192.58 16.2
-24 18 -2 200.18 43.8
18 6 -2 116.69 30.9
-18 -6 2 237.28 39.1
-6 24 2 268.17 20
24 -18 2 225.88 25
24 -18 2 187.78 22.8
19 5 -2 156.78 34.1
-24 19 -2 88.89 32.5
24 -19 2 137.19 16.3
-5 24 2 125.69 16.7
-19 -5 2 110.29 29.1
24 -19 2 133.19 17.7
20 4 -2 192.98 38.5
-24 20 -2 214.78 44.8
-4 24 2 224.48 22.2
-20 -4 2 187.88 36
21 3 -2 56.49 26.4
-24 21 -2 22.9 22.9
-3 24 2 47.4 14.9
-24 22 -2 126.29 35.1
22 2 -2 174.18 38.3
-2 24 2 115.09 21.3
-24 23 -2 50.59 31.1
23 1 -2 81.89 30.5
-1 24 2 47.8 17.4
-24 24 -2 160.58 42.5
24 0 -2 111.19 33.6
0 24 2 150.48 24.8
-24 25 -2 84.29 31.8
25 -1 -2 94.79 29.6
-24 26 -2 42.9 31.7
2 24 2 87.39 23.8
-1 26 -2 13.6 18.2
25 1 2 57.09 23.8
-26 25 2 4.6 23.1
0 25 -2 2.6 15.8
-25 25 2 10.4 19.1
25 0 2 28.1 21.5
1 24 -2 37.8 21.8
-24 25 2 68.79 21.1
-24 25 2 48.4 24.3
2 23 -2 4.8 16
25 -2 2 -0.8 16.3
-23 25 2 -2.6 19.2
-23 25 2 20.6 16.4
3 22 -2 87.39 23.7
25 -3 2 70.69 25.6
-22 25 2 66.09 24.2
-22 25 2 38.1 19.2
4 21 -2 6.5 16.6
-21 25 2 -12.2 15.4
-21 25 2 17.3 13.4
25 -4 2 20.3 19.8
5 20 -2 95.09 24.1
-20 25 2 40.5 15.1
25 -5 2 43.4 23.6
-20 25 2 143.29 29
6 19 -2 -1.8 17.6
-19 25 2 33.3 11.8
25 -6 2 -0.9 17.9
-19 25 2 27.3 20.7
7 18 -2 14.1 19
-18 25 2 48.3 12.4
-18 25 2 63.59 22.6
25 -7 2 27.1 19.1
8 17 -2 -0.8 16.1
-17 25 2 14.6 19.2
-8 -17 2 3.4 16.5
25 -8 2 14.8 18
-17 25 2 -4.9 7.7
9 16 -2 -10.7 16.3
25 -9 2 35.2 19.5
-16 25 2 30.2 19.3
-9 -16 2 34.1 19.5
-16 25 2 30.6 8.7
10 15 -2 -19 13.1
-15 25 2 -14.9 5.5
-10 -15 2 -21.4 16.2
25 -10 2 -6 15.1
-10 -15 2 -0.7 17
11 14 -2 -11.1 15.3
-11 -14 2 5.2 18.2
25 -11 2 26.7 17.5
12 13 -2 -5.9 16.7
-12 -13 2 13.3 19.3
13 12 -2 -16.2 16.2
25 -13 2 2.3 15.9
-13 -12 2 4.5 18.4
14 11 -2 11.4 18.1
-14 -11 2 49.7 19.3
25 -14 2 17.5 14.5
25 -14 2 18.7 16.4
-25 15 -2 -13.3 19.2
15 10 -2 12.9 18.1
25 -15 2 2.5 14.6
25 -15 2 -24.5 13
16 9 -2 -2.2 17.5
-25 16 -2 4 25.5
25 -16 2 16.2 14.7
25 -16 2 30.5 16.5
-25 17 -2 -18.6 18.4
17 8 -2 -9.4 16.4
-17 -8 2 13.4 20
-8 25 2 7.1 6.9
25 -17 2 -5.9 12.2
18 7 -2 45.6 24.1
-25 18 -2 21.5 23.5
25 -18 2 21.8 13.7
-7 25 2 45.8 9.6
-18 -7 2 12.5 23.3
25 -18 2 28 15.5
-25 19 -2 56.89 27.4
19 6 -2 2.8 22.4
25 -19 2 14.7 11.9
-6 25 2 5.7 9.6
-19 -6 2 3.2 22.6
20 5 -2 63.99 26.9
-25 20 -2 21.1 22.1
-5 25 2 58.49 13.6
-25 21 -2 21.1 24.5
21 4 -2 18.6 22.1
-4 25 2 -5.1 10.1
22 3 -2 52.89 26.5
-25 22 -2 70.89 32.7
-3 25 2 64.39 16.3
-25 23 -2 -20.1 36.8
23 2 -2 14.8 21.2
-2 25 2 13.5 12.1
-25 24 -2 100.79 63.59
-1 25 2 85.59 19.1
-25 25 -2 9.9 30.5
25 0 -2 9.3 24.2
0 25 2 18.6 14.8
-25 26 -2 4.3 26.9
26 -1 -2 12.8 23.9
1 25 -2 41.3 22.1
-25 26 2 60.69 21.8
26 -1 2 52.19 25.4
-25 26 2 35.5 24
2 24 -2 48.5 24.2
26 -2 2 85.09 29.2
-24 26 2 75.29 29.9
-24 26 2 92.39 22.7
3 23 -2 62.19 24.3
-23 26 2 132.69 24
26 -3 2 60.79 38.9
4 22 -2 73.19 25.9
-22 26 2 74.79 26.4
26 -4 2 127.59 31.2
5 21 -2 98.69 26.6
26 -5 2 120.79 29.3
-21 26 2 62.99 24.7
-21 26 2 48.3 17.5
6 20 -2 132.79 28.6
26 -6 2 102.49 29
-20 26 2 190.98 35.5
-20 26 2 171.78 21.5
7 19 -2 85.79 26.4
-19 26 2 100.79 26.8
-19 26 2 103.19 16.6
26 -7 2 85.69 26.8
8 18 -2 158.78 33.4
26 -8 2 109.29 29.7
-18 26 2 204.98 32.8
-18 26 2 156.28 18.9
-8 -18 2 218.68 32.4
9 17 -2 142.49 29.7
-17 26 2 103.79 14.1
-9 -17 2 140.29 27.8
26 -9 2 111.19 28.7
-17 26 2 114.89 27.4
10 16 -2 118.89 28.3
-16 26 2 106.99 13
26 -10 2 90.59 25.4
-16 26 2 91.79 25.6
-10 -16 2 149.29 28.3
11 15 -2 102.79 27.5
-11 -15 2 63.79 21.9
26 -11 2 105.19 26
-11 -15 2 100.39 25.3
12 14 -2 203.08 35.7
26 -12 2 124.49 27.5
-12 -14 2 134.39 29.3
13 13 -2 62.29 24.8
26 -13 2 87.19 25.3
-13 -13 2 97.69 25.2
14 12 -2 98.29 28.9
-26 14 -2 51.99 38.5
26 -14 2 148.99 26.7
-14 -12 2 154.18 29.7
26 -14 2 187.98 29.5
15 11 -2 137.99 33.6
-26 15 -2 117.39 47
26 -15 2 85.49 22.3
26 -15 2 117.79 23.5
-26 16 -2 105.09 38.3
16 10 -2 182.18 36.1
26 -16 2 128.39 23.7
26 -16 2 137.79 24.7
17 9 -2 81.99 27.9
-26 17 -2 62.99 33.5
26 -17 2 103.99 20.9
26 -17 2 110.19 21.7
-9 26 2 139.09 12.6
-17 -9 2 150.28 34.3
-26 18 -2 106.59 33.8
18 8 -2 163.78 36.9
26 -18 2 163.58 23.8
26 -18 2 194.08 33.8
-8 26 2 145.89 15.2
-18 -8 2 186.68 37.3
19 7 -2 72.99 27.3
-26 19 -2 89.89 31.7
26 -19 2 119.59 22.4
-19 -7 2 85.59 31.5
26 -19 2 107.29 18.7
-26 20 -2 125.09 36.6
20 6 -2 147.19 35.3
26 -20 2 136.89 14.5
26 -20 2 154.08 19.9
-6 26 2 134.79 18.6
-26 21 -2 36.2 27.2
21 5 -2 116.29 34.7
-5 26 2 76.89 15.6
-26 22 -2 102.09 39
-4 26 2 90.59 18.6
23 3 -2 91.89 31.9
-26 23 -2 42.4 28.9
-3 26 2 71.29 17.7
-26 24 -2 88.29 37.3
24 2 -2 68.69 29.6
-2 26 2 101.49 21.4
-26 25 -2 46.8 35.4
25 1 -2 65.59 27.9
-1 26 2 23 17.5
4 23 -2 9.7 18
-23 27 2 -14.9 20
-23 27 2 20.4 16.2
27 -4 2 8.6 20.5
5 22 -2 -7.8 19.2
-22 27 2 18.5 17.7
27 -5 2 26.8 23.3
-22 27 2 26.2 23.6
6 21 -2 12.1 18
27 -6 2 28.1 22.2
-21 27 2 30.5 13.9
-21 27 2 26.4 23.5
7 20 -2 77.19 25.5
27 -7 2 66.29 24.8
-20 27 2 23 22.1
-20 27 2 45.3 14.8
8 19 -2 -7.5 18.4
-8 -19 2 12.7 14.8
-19 27 2 10.4 19.3
-19 27 2 15.1 10.7
27 -8 2 -6.4 19.2
-8 -19 2 9.4 20.1
9 18 -2 14.5 20.7
-9 -18 2 14.2 18.7
-18 27 2 7.5 19.5
27 -9 2 9.6 19.4
-18 27 2 31.7 10.3
10 17 -2 49.3 22.8
-10 -17 2 -3.1 19.3
27 -10 2 -8.4 15.6
-17 27 2 -12.8 7.1
-17 27 2 -13.7 15.1
11 16 -2 18.4 21
27 -11 2 43.9 21.4
-11 -16 2 3.3 19.6
12 15 -2 -7.6 18.3
-12 -15 2 -26.4 16.6
27 -12 2 -2.5 17.9
13 14 -2 -28.2 18.4
27 -13 2 -3.7 17
-13 -14 2 37.6 22.2
14 13 -2 -7.1 20.1
27 -14 2 24.7 17.8
-14 -13 2 42.1 29.1
15 12 -2 -21.6 18.9
27 -15 2 17.3 17.3
27 -15 2 19.7 17.5
16 11 -2 -13.5 19.7
27 -16 2 -31.5 16.2
27 -16 2 -0.6 15.9
-16 -11 2 34 26.1
17 10 -2 34.6 22.1
27 -17 2 16 16.5
27 -17 2 -15.6 14.5
-17 -10 2 -8.8 23.1
18 9 -2 25.2 23
-9 27 2 30.7 8.1
27 -18 2 32.7 25.1
-18 -9 2 14.9 25.2
27 -18 2 0.6 15.3
19 8 -2 -7.5 23.6
-8 27 2 7.5 8.4
27 -19 2 23.4 15.7
27 -19 2 15.5 13.6
-7 27 2 43.4 11.7
27 -20 2 20.1 12.1
21 6 -2 35.4 27.9
-6 27 2 15.2 10.3
22 5 -2 62.59 26.6
-5 27 2 51.39 15.4
23 4 -2 -18.3 20.5
-4 27 2 1.2 12.3
7 21 -2 44.2 23.4
-21 28 2 65.19 28.2
-21 28 2 66.99 18.8
28 -7 2 9.7 21.7
8 20 -2 103.79 28.9
-20 28 2 88.29 17.4
28 -8 2 35.1 23.2
-20 28 2 63.89 24.4
9 19 -2 77.29 26.3
-9 -19 2 64.99 21.4
-19 28 2 53.59 13.7
28 -9 2 64.19 25.3
-19 28 2 55.69 22.2
-9 -19 2 69.39 20.1
10 18 -2 115.79 30.1
-10 -18 2 84.99 25.4
-18 28 2 83.79 14.1
-18 28 2 145.49 26.4
28 -10 2 113.09 26.6
11 17 -2 62.39 26.8
-11 -17 2 87.29 25.5
28 -11 2 45.2 23.6
-17 28 2 66.39 11.1
12 16 -2 114.49 31.1
-12 -16 2 60.99 26.7
28 -12 2 94.19 27.8
13 15 -2 99.99 29.9
28 -13 2 48.4 22.4
-13 -15 2 70.29 26.9
14 14 -2 135.59 33.4
28 -14 2 67.89 23.8
15 13 -2 97.99 31.2
28 -15 2 76.49 24.8
16 12 -2 95.89 34.1
28 -16 2 101.99 23.6
-16 -12 2 97.69 32.1
28 -16 2 31 21.3
28 -17 2 99.49 23.2
-17 -11 2 37 28.6
28 -17 2 79.09 21.8
18 10 -2 81.69 40.8
-18 -10 2 47.4 32.7
28 -18 2 102.29 24.1
28 -18 2 138.59 25
19 9 -2 40.6 26.1
-9 28 2 52.99 10.6
28 -19 2 73.99 18.3
20 8 -2 107.89 33.9
28 -20 2 128.29 19.1
21 7 -2 97.69 32.3
-7 28 2 38 11
10 19 -2 0.2 22.6
29 -10 2 26.8 19.8
-10 -19 2 -11 16.4
-10 -19 2 14.9 18.3
-19 29 2 -27.3 15.9
11 18 -2 3.1 21.5
29 -11 2 31.6 20.3
-11 -18 2 24.5 21.3
12 17 -2 -16.9 35.6
-12 -17 2 -11.7 18.7
29 -12 2 -18.4 19.2
29 -13 2 0.2 20
-13 -16 2 -1.1 20.8
29 -14 2 0.7 18.2
-14 -15 2 11 22.7
15 14 -2 6.9 24.2
29 -15 2 18.7 21
16 13 -2 16.7 23.5
-16 -13 2 36.6 29.1
29 -16 2 -6.3 19.8
17 12 -2 -2.9 22.4
-17 -12 2 -58.69 25.5
29 -17 2 23.7 18.3
29 -17 2 19.8 19.8
18 11 -2 -5.2 21.9
29 -18 2 -3.5 18.2
29 -18 2 -7.5 18
19 10 -2 5 23.2
29 -19 2 5 23.2
29 -19 2 -14.4 15
0 0 -3 62.09 16.5
0 0 -3 107.59 13.2
0 0 3 133.59 14
0 0 3 70.19 19.3
-1 0 -3 6.4 7.2
0 1 -3 2.6 12.4
0 1 -3 9.5 7.6
1 -1 -3 7.9 12.8
-1 0 -3 4.8 16.6
1 -1 -3 14.8 8.1
1 0 3 3.3 11.6
-1 1 3 4.5 11.6
0 -1 3 2.6 6.3
1 0 3 22.1 8.3
-1 1 3 5.1 7.4
0 -1 3 11.1 11.5
0 -1 -3 8.7 11.2
0 -1 -3 5.5 7.5
-1 1 -3 4.8 7.4
-1 1 -3 -4.3 10.6
1 0 -3 25.6 12.3
1 0 -3 10 7.4
1 -1 3 4.3 7
1 -1 3 -8 12.1
0 1 3 2.7 6.9
-1 0 3 5.6 11.8
-1 0 3 16.7 8.2
0 1 3 7.8 12.5
-1 2 -3 100.69 13.9
-1 2 -3 108.59 18.6
-1 -1 -3 90.09 16.3
2 -1 -3 126.59 14
2 -1 -3 91.19 17.1
1 1 3 115.39 20.3
-2 1 3 88.29 12.6
1 -2 3 100.89 18.1
1 1 3 105.69 13.6
-2 1 3 88.09 18.3
1 -2 3 124.49 14
3 -2 -3 280.07 19.1
-2 -1 -3 227.58 27.2
-1 3 -3 226.98 19.8
-1 3 -3 202.48 25.5
3 -2 -3 232.58 24.4
2 1 3 280.67 28.3
-3 2 3 260.87 26.8
2 1 3 237.18 19.2
-3 2 3 258.37 19.9
1 -3 3 234.78 19.7
1 -3 3 228.68 27.1
2 -2 -3 1073.99 59.09
-2 0 -3 963.2 59.89
0 2 -3 1047.5 54.39
0 2 -3 1079.29 59.39
2 -2 -3 1046.1 52.69
2 0 3 1101.29 61.59
2 0 3 1003.3 53.39
-2 2 3 1119.49 60.69
0 -2 3 1061.09 54.39
0 -2 3 1101.59 60.69
-2 2 3 1100.49 53.79
-2 1 -3 66.99 14.7
-2 1 -3 109.59 14.3
1 1 -3 97.39 14
1 1 -3 112.69 18.6
1 -2 -3 119.99 13.2
1 -2 -3 84.19 15.3
-1 2 3 131.39 20.6
-1 -1 3 107.19 19
-1 -1 3 112.59 14.4
2 -1 3 155.08 24.6
-1 2 3 109.79 13
2 -1 3 112.79 13.9
-2 2 -3 1043 60.39
0 -2 -3 1052.59 60.29
-2 2 -3 1037.7 53.69
2 0 -3 1071.29 54.39
-2 0 3 1062.09 60.09
2 -2 3 1064.49 54.39
0 2 3 1148.99 61.99
2 -2 3 1057.09 60.69
0 2 3 1073.09 53.59
-2 0 3 1054.69 54.39
-2 3 -3 230.78 20.1
3 -1 -3 211.18 23.1
-1 -2 -3 212.68 26.5
-2 3 -3 246.78 26.4
3 -1 -3 274.07 20.2
2 -3 3 249.68 27.3
-3 1 3 263.77 26.8
2 -3 3 289.97 20.4
-3 1 3 258.67 20
1 2 3 245.48 27.3
1 2 3 241.98 18.8
-2 4 -3 1022.6 58.09
4 -2 -3 1054.39 52.19
4 -2 -3 995.1 55.79
-2 4 -3 955.7 52.39
-2 -2 -3 970.5 59.09
2 -4 3 1049.99 58.89
2 -4 3 964.8 51.79
-4 2 3 1027.3 58.49
-4 2 3 1050.79 52.59
2 2 3 1056.09 59.99
-2 5 -3 164.28 21.6
5 -3 -3 152.28 16.5
-3 -2 -3 211.98 26
-2 5 -3 154.18 17.6
2 -5 3 162.68 21.9
-5 3 3 160.38 25.7
3 2 3 217.28 28.9
-5 3 3 176.08 16.9
2 -5 3 154.38 16.2
-1 4 -3 83.99 13.8
4 -3 -3 78.19 11.4
-1 4 -3 69.29 14.5
-3 -1 -3 61.79 18.2
4 -3 -3 49.99 14.4
-4 3 3 93.39 13.4
-4 3 3 82.59 18.9
1 -4 3 112.39 20.2
1 -4 3 70.79 12.4
3 1 3 54.09 17.1
0 3 -3 47.5 10.9
0 3 -3 46.7 15.2
-3 0 -3 47.6 15.9
3 -3 -3 60.69 10.3
3 -3 -3 115.39 16.6
3 0 3 44.7 14
-3 3 3 81.69 16.9
3 0 3 77.69 12.8
-3 3 3 65.89 11.3
0 -3 3 64.79 10.9
0 -3 3 71.99 16
1 2 -3 283.27 21.7
1 2 -3 239.38 25.1
2 -3 -3 252.07 25.9
2 -3 -3 274.67 18.9
-3 1 -3 301.57 33.8
3 -1 3 231.58 27.2
3 -1 3 251.97 20.2
-1 -2 3 249.48 27.1
-2 3 3 301.37 19.8
-1 -2 3 236.18 19.5
-2 3 3 246.88 27.6
1 -3 -3 227.58 25.8
-3 2 -3 243.48 27.5
2 1 -3 268.67 25.1
2 1 -3 227.78 20.2
-3 2 -3 276.27 20.3
-1 3 3 232.48 27.3
-2 -1 3 271.57 26.9
-1 3 3 252.27 19.2
-2 -1 3 259.87 20.5
3 -2 3 217.58 26.8
3 -2 3 257.57 20.1
3 0 -3 55.99 13.8
0 -3 -3 73.39 16.2
3 0 -3 58.69 12
-3 3 -3 73.69 11.6
-3 0 3 55.09 14.5
0 3 3 60.99 18.1
-3 0 3 52.49 10.5
3 -3 3 66.79 11.1
0 3 3 70.39 10.6
-3 4 -3 76.79 12.8
4 -1 -3 74.19 12.7
4 -1 -3 84.69 20.4
-3 4 -3 61.59 16.4
-1 -3 -3 42.8 14.9
3 -4 3 70.89 17.3
3 -4 3 70.79 11.6
-4 1 3 76.09 17.3
1 3 3 73.49 17.4
-4 1 3 70.39 12.2
-2 -3 -3 130.99 19.5
-3 5 -3 174.38 18.3
-3 5 -3 160.18 22.9
5 -2 -3 142.79 16.3
-5 2 3 194.58 30
-5 2 3 163.38 16.8
3 -5 3 176.28 17.1
3 -5 3 190.48 25.5
2 3 3 176.18 24.3
-3 -3 -3 169.48 27.2
6 -3 -3 159.68 17.2
-3 6 -3 144.49 26.4
-3 6 -3 180.38 22.8
3 -6 3 196.88 25.5
3 3 3 210.98 29.2
3 -6 3 139.49 16.1
-6 3 3 168.88 17.1
-6 3 3 128.79 20.6
7 -4 -3 188.68 18.3
-3 7 -3 224.68 26
-4 -3 -3 246.98 32.8
-3 7 -3 275.07 35.4
3 -7 3 170.78 17.7
4 3 3 226.58 28.4
-7 4 3 194.28 18.7
-7 4 3 143.69 21
3 -7 3 209.38 25.7
-4 -2 -3 1429.06 79.49
-2 6 -3 1454.45 75.79
6 -4 -3 1471.65 69.69
2 -6 3 1318.87 70.09
-6 4 3 1492.75 78.99
-6 4 3 1419.66 70.59
2 -6 3 1452.15 76.39
-4 -1 -3 218.38 27.2
-1 5 -3 137.49 18.9
5 -4 -3 143.99 14.8
-1 5 -3 133.99 19.3
-5 4 3 138.89 25.1
4 1 3 158.58 25.8
1 -5 3 137.69 20.3
-5 4 3 153.78 16.3
1 -5 3 149.99 16.3
-4 0 -3 924.11 57.29
0 4 -3 941.51 53.59
0 4 -3 895.61 49.6
4 -4 -3 917.51 46.5
4 -4 -3 964.3 53.09
0 -4 3 957.2 49.6
4 0 3 945.01 56.99
-4 4 3 907.51 54.99
-4 4 3 926.21 48.1
0 -4 3 961.8 55.09
3 -4 -3 64.89 15.5
1 3 -3 66.69 13
3 -4 -3 61.49 9.8
1 3 -3 54.79 13.6
-4 1 -3 46.4 18.1
-3 4 3 80.69 11.1
-1 -3 3 62.39 15.7
-3 4 3 42 14.6
4 -1 3 68.29 17.2
-1 -3 3 69.49 12.3
4 -1 3 54.89 11.7
2 2 -3 1003.4 55.49
2 2 -3 937.01 52.09
-4 2 -3 1031.8 59.89
2 -4 -3 1067.59 57.69
-2 4 3 1009.5 50.49
4 -2 3 991.2 58.99
4 -2 3 977.6 51.99
-2 -2 3 914.91 56.49
-2 -2 3 1021.1 52.59
-2 4 3 1092.19 59.29
-4 3 -3 80.09 18.7
3 1 -3 49.5 12.6
3 1 -3 43 11.1
1 -4 -3 58.19 15
4 -3 3 79.49 16.8
-3 -1 3 73.99 13
-1 4 3 71.79 17.7
4 -3 3 62.39 12
-3 -1 3 71.39 16.4
-1 4 3 62.19 10.4
0 -4 -3 954.4 54.79
4 0 -3 851.91 48.2
-4 4 -3 913.11 55.19
-4 4 -3 895.01 48.6
-4 0 3 965.4 49.4
0 4 3 849.52 54.49
4 -4 3 865.31 54.39
0 4 3 890.51 46.4
-4 0 3 992.5 54.79
4 -4 3 907.01 48.2
-4 5 -3 141.19 22.9
5 -1 -3 136.79 16.9
-4 5 -3 149.69 18.7
4 -5 3 122.49 15.2
-5 1 3 143.79 32.2
-5 1 3 160.38 15.9
4 -5 3 100.89 18.4
6 -2 -3 1386.86 70.59
-2 -4 -3 1438.86 77.79
-4 6 -3 1348.07 75.79
4 -6 3 1395.76 69.59
2 4 3 1460.85 77.99
4 -6 3 1404.16 76.09
-6 2 3 1467.25 71.29
7 -3 -3 169.18 19.4
-3 -4 -3 215.78 27.6
-4 7 -3 207.08 25.7
-4 7 -3 233.38 30.4
4 -7 3 202.08 26
4 -7 3 198.18 18.2
3 4 3 217.98 35.5
-7 3 3 193.58 19
-7 3 3 156.68 24.2
-4 -4 -3 1045.4 63.19
-4 8 -3 991.3 54.39
8 -4 -3 1006.5 53.09
-4 8 -3 969.8 58.19
-8 4 3 963.6 59.69
4 -8 3 965.7 52.19
4 4 3 993.7 61.59
4 -8 3 1044.5 59.29
-8 4 3 1053.79 54.29
9 -5 -3 145.79 17.9
-5 -4 -3 137.49 27.5
-4 9 -3 157.88 18.2
-4 9 -3 153.58 24.1
-9 5 3 196.08 19.3
4 -9 3 156.88 16.6
4 -9 3 121.09 21.5
5 4 3 201.88 26.2
-9 5 3 205.78 26.8
-5 -3 -3 153.68 25.8
-3 8 -3 146.69 17.9
-3 8 -3 122.29 20.6
8 -5 -3 159.68 16.6
3 -8 3 143.59 24
5 3 3 200.18 28.6
-8 5 3 164.08 25.2
-8 5 3 146.19 16.5
3 -8 3 144.19 15.8
7 -5 -3 131.29 15
-2 7 -3 118.09 19.6
-2 7 -3 145.89 21.8
-5 -2 -3 135.89 24
2 -7 3 147.29 16.4
-7 5 3 148.09 24.5
5 2 3 154.58 24.5
-7 5 3 146.29 16.6
2 -7 3 135.99 21.1
6 -5 -3 185.78 16.5
-1 6 -3 180.38 23.6
-5 -1 -3 260.97 30.3
-1 6 -3 216.68 33.8
1 -6 3 173.48 17.8
1 -6 3 175.98 25.3
5 1 3 231.98 27.6
-6 5 3 185.88 17.9
-6 5 3 218.78 27.1
5 -5 -3 228.18 17.3
0 5 -3 267.27 24.9
-5 0 -3 259.37 30.3
5 -5 -3 214.78 23.3
5 0 3 247.98 35.7
-5 5 3 243.38 19.2
-5 5 3 252.17 28.6
0 -5 3 191.88 26
0 -5 3 244.88 20.3
1 4 -3 140.39 18.8
4 -5 -3 163.58 22.7
-5 1 -3 139.79 24.9
1 4 -3 142.29 29.3
-1 -4 3 139.19 16.1
-1 -4 3 173.58 23.6
-4 5 3 161.18 15.1
5 -1 3 164.48 17.5
-4 5 3 158.08 23
2 3 -3 124.29 30.2
3 -5 -3 177.78 21.9
-5 2 -3 190.18 27.7
2 3 -3 158.18 20.5
-3 5 3 187.38 25.4
5 -2 3 176.08 16.7
-2 -3 3 197.98 24.4
5 -2 3 148.49 28.2
-2 -3 3 151.28 15.9
-3 5 3 159.18 15.1
2 -5 -3 170.48 23.1
3 2 -3 108.59 25.9
3 2 -3 154.38 19.8
-5 3 -3 142.99 24.5
5 -3 3 167.08 24.8
-3 -2 3 150.48 16
-2 5 3 182.48 15.3
5 -3 3 171.18 16.4
-2 5 3 158.88 24.5
-3 -2 3 149.29 21.2
4 1 -3 106.79 26.9
1 -5 -3 121.49 21.5
-5 4 -3 128.59 20.6
5 -4 3 157.58 16.7
-1 5 3 140.19 21.4
-1 5 3 155.58 14.3
-4 -1 3 198.08 23.9
5 -4 3 131.99 22.6
-4 -1 3 168.88 17.3
-5 5 -3 275.97 28.7
5 0 -3 247.48 38.5
0 -5 -3 227.58 26.9
5 -5 3 215.08 19.3
-5 0 3 232.98 20.8
0 5 3 210.18 27.2
5 -5 3 246.08 27.1
-1 -5 -3 183.68 26.7
-5 6 -3 161.88 24.3
-5 6 -3 164.58 23.4
5 -6 3 218.68 26.1
-6 1 3 195.08 19.2
-6 1 3 181.18 26
5 -6 3 199.88 18.7
1 5 3 206.28 28.1
-2 -5 -3 154.98 26.8
-5 7 -3 113.69 17.1
-5 7 -3 136.69 23.6
-7 2 3 130.39 22.8
5 -7 3 135.49 16.6
2 5 3 154.68 25.5
-7 2 3 134.39 17.9
5 -7 3 183.88 24.5
-5 8 -3 175.38 27.1
8 -3 -3 161.58 30.5
-3 -5 -3 112.79 26.3
-5 8 -3 141.79 17.9
-8 3 3 188.18 18.8
-8 3 3 143.39 21.1
5 -8 3 137.59 16.4
3 5 3 173.88 37.5
5 -8 3 151.88 23.4
-5 9 -3 140.09 22.4
-4 -5 -3 138.29 24.9
9 -4 -3 140.09 29.8
-5 9 -3 147.49 18.1
4 5 3 252.57 28
-9 4 3 155.38 18.3
5 -9 3 134.09 22.2
5 -9 3 172.68 17
-9 4 3 146.19 22.6
-5 10 -3 201.08 26.5
-5 -5 -3 187.08 27.7
-5 10 -3 210.78 20.7
10 -5 -3 189.98 33.5
5 -10 3 217.48 25.9
5 -10 3 210.88 18.5
-10 5 3 213.18 21.6
5 5 3 231.28 28.1
-6 -5 -3 166.18 31.6
11 -6 -3 198.98 30.3
-5 11 -3 121.49 17.9
-5 11 -3 165.78 23.9
-11 6 3 115.39 18
5 -11 3 160.78 16.2
5 -11 3 145.89 22.9
-4 10 -3 1079.49 61.99
-6 -4 -3 1089.59 68.69
10 -6 -3 1073.69 56.79
-4 10 -3 1095.09 58.59
-10 6 3 1129.79 66.49
-10 6 3 1158.48 59.69
4 -10 3 1137.99 62.49
4 -10 3 1058.89 56.09
-3 9 -3 194.58 25.6
9 -6 -3 226.58 19.1
-6 -3 -3 204.58 32.7
-3 9 -3 185.58 20.7
-9 6 3 238.58 20.3
6 3 3 173.58 27.8
3 -9 3 218.58 26.8
3 -9 3 217.08 19.1
8 -6 -3 1244.48 60.99
-6 -2 -3 1281.97 74.99
-2 8 -3 1264.87 67.19
-2 8 -3 1221.28 64.39
2 -8 3 1228.88 68.39
6 2 3 1205.08 71.49
-8 6 3 1303.17 63.79
2 -8 3 1169.08 62.49
-8 6 3 1277.77 70.39
-1 7 -3 238.68 25.9
-6 -1 -3 186.58 30.1
7 -6 -3 227.78 18.2
-1 7 -3 270.17 22.9
-7 6 3 283.77 20.9
1 -7 3 248.28 28.1
-7 6 3 246.28 28.4
6 1 3 255.67 28.8
1 -7 3 249.18 20.5
6 -6 -3 1455.25 70.79
0 6 -3 1562.74 77.89
-6 0 -3 1657.43 86.09
0 6 -3 1534.05 76.89
0 -6 3 1495.25 75.09
6 0 3 1592.24 84.09
-6 6 3 1480.65 73.49
-6 6 3 1426.36 86.69
0 -6 3 1543.95 80.09
-6 1 -3 144.09 22.2
1 5 -3 187.58 21.5
1 5 -3 186.28 19.2
5 -6 -3 168.18 21.5
-5 6 3 152.38 23.3
6 -1 3 145.59 22.9
-5 6 3 173.98 15.7
-1 -5 3 204.88 18.4
-1 -5 3 197.68 24.9
2 4 -3 1459.95 72.69
-6 2 -3 1422.86 79.39
4 -6 -3 1345.17 72.99
2 4 -3 1551.94 73.89
-2 -4 3 1447.76 70.89
-4 6 3 1336.97 75.39
-2 -4 3 1436.16 74.99
6 -2 3 1371.36 77.79
-4 6 3 1384.86 67.29
6 -2 3 1317.87 70.09
3 -6 -3 199.08 23.2
3 3 -3 154.38 18.6
-6 3 -3 191.28 28
6 -3 3 123.59 21.3
-3 -3 3 168.88 23.3
6 -3 3 148.29 17.3
-3 -3 3 151.18 17.4
-3 6 3 176.28 15
4 2 -3 1479.35 73.29
2 -6 -3 1360.76 75.09
-6 4 -3 1511.85 80.09
6 -4 3 1264.57 95.69
-4 -2 3 1480.25 72.29
-4 -2 3 1462.15 76.39
6 -4 3 1415.56 70.99
-2 6 3 1415.36 76.99
-2 6 3 1384.06 67.79
1 -6 -3 138.09 20.8
5 1 -3 153.08 19.9
-6 5 -3 228.08 28.2
-5 -1 3 212.08 33.9
6 -5 3 176.78 17.9
-1 6 3 204.58 26.9
-5 -1 3 211.18 19.4
6 -5 3 172.98 27
-6 6 -3 1466.35 80.49
6 0 -3 1423.96 74.79
0 -6 -3 1456.35 78.79
-6 6 -3 1462.35 73.09
6 -6 3 1535.85 81.99
6 -6 3 1404.56 72.49
0 6 3 1538.55 80.09
-6 0 3 1538.15 75.09
-6 0 3 1424.76 78.29
-6 7 -3 266.67 29.9
-6 7 -3 221.88 21.4
7 -1 -3 265.67 24.1
-1 -6 -3 239.98 29
6 -7 3 256.47 28.7
-7 1 3 233.88 27.2
6 -7 3 269.27 21
1 6 3 257.77 29.5
-7 1 3 312.77 24.3
-6 8 -3 1249.47 69.89
-6 8 -3 1252.57 62.89
-2 -6 -3 1205.78 70.19
8 -2 -3 1196.28 64.59
6 -8 3 1223.38 61.79
-8 2 3 1257.17 69.79
2 6 3 1155.18 74.19
6 -8 3 1196.08 68.69
-8 2 3 1233.78 64.59
9 -3 -3 213.68 21.8
-6 9 -3 209.78 27.3
-3 -6 -3 220.48 29.6
-6 9 -3 203.88 21
-9 3 3 183.88 20.5
6 -9 3 205.18 18.6
6 -9 3 180.38 25.5
-9 3 3 203.98 27.6
3 6 3 196.18 29.2
10 -4 -3 1044.4 58.59
-6 10 -3 1110.99 63.69
-6 10 -3 1077.79 57.99
-4 -6 -3 1061.59 66.39
6 -10 3 1136.29 56.09
4 6 3 1060.59 64.69
6 -10 3 1071.19 62.39
-10 4 3 1132.99 60.39
-6 11 -3 154.58 18.7
11 -5 -3 139.99 19.4
-6 11 -3 142.39 23.5
-5 -6 -3 165.58 30
-11 5 3 156.78 19.4
6 -11 3 183.18 24.6
6 -11 3 156.88 16.2
5 6 3 185.78 26.9
-6 12 -3 830.72 50.19
12 -6 -3 876.91 50.49
-6 -6 -3 842.62 61.19
-6 12 -3 871.31 54.99
-12 6 3 979.2 53.89
6 -12 3 911.61 54.09
6 -12 3 934.61 47.4
13 -7 -3 79.39 15.9
-7 -6 -3 115.39 28.6
-6 13 -3 112.99 17.8
-6 13 -3 99.69 20.6
7 6 3 98.99 20.1
6 -13 3 83.89 17.4
-13 7 3 95.09 17.5
6 -13 3 79.69 12.7
-5 12 -3 175.98 20.7
-5 12 -3 167.38 24.3
-7 -5 -3 167.88 31.4
7 5 3 153.88 23.3
-12 7 3 186.58 20.7
5 -12 3 159.78 22.6
5 -12 3 187.58 17.2
-7 -4 -3 66.29 20.2
11 -7 -3 94.09 14.4
-4 11 -3 53.29 16.7
-4 11 -3 80.79 15.5
4 -11 3 102.99 14.1
4 -11 3 76.59 18
-11 7 3 96.99 16.3
-3 10 -3 148.99 22.1
-3 10 -3 174.88 19.3
10 -7 -3 180.08 17.2
-7 -3 -3 162.48 31.2
3 -10 3 193.88 18
3 -10 3 200.98 25.2
-10 7 3 150.68 24.8
-10 7 3 195.88 19.5
-2 9 -3 105.49 17
-2 9 -3 140.49 20
-7 -2 -3 78.49 22.9
9 -7 -3 105.29 13.6
2 -9 3 105.99 15.2
-9 7 3 123.09 15.3
2 -9 3 97.79 19.4
-9 7 3 91.49 19
-7 -1 -3 148.79 23.8
-1 8 -3 158.88 19.4
-1 8 -3 247.68 23.9
8 -7 -3 214.68 15.7
-8 7 3 201.08 18.4
1 -8 3 130.09 22
1 -8 3 149.79 17
-7 0 -3 81.39 20.9
0 7 -3 116.09 17.8
0 7 -3 122.09 19.2
7 -7 -3 118.29 12.1
0 -7 3 115.09 15.2
-7 7 3 143.29 15
-7 7 3 130.79 23.1
7 0 3 98.99 20.4
0 -7 3 113.49 20.2
1 6 -3 261.17 24.4
-7 1 -3 272.67 33.2
1 6 -3 259.87 23.5
7 -1 3 273.67 29.8
-1 -6 3 276.67 22
-1 -6 3 225.98 27.5
-6 7 3 230.08 35.2
-6 7 3 271.37 19.5
2 5 -3 138.69 18.9
2 5 -3 153.88 20.6
5 -7 -3 150.48 21.1
-7 2 -3 160.48 24.7
-5 7 3 119.39 13.7
-2 -5 3 121.89 16.4
-5 7 3 167.98 26.6
7 -2 3 138.19 20.2
-2 -5 3 169.38 25.3
-7 3 -3 206.48 32.4
3 4 -3 200.78 21.2
4 -7 -3 196.58 23.3
-4 7 3 196.48 24.7
-3 -4 3 188.68 19.3
-4 7 3 170.98 15.6
7 -3 3 187.48 19.6
7 -3 3 203.88 26.2
-3 -4 3 187.18 23.4
3 -7 -3 197.78 24.2
4 3 -3 191.28 21.2
-7 4 -3 195.98 31.1
7 -4 3 222.48 26.6
-4 -3 3 204.48 26.3
-3 7 3 200.68 27.4
-4 -3 3 162.08 18.7
-3 7 3 181.98 15.7
7 -4 3 191.18 19.2
-7 5 -3 141.59 24
5 2 -3 104.59 17.7
2 -7 -3 102.39 19.9
-5 -2 3 127.09 23.4
-5 -2 3 132.79 17
7 -5 3 137.49 17.9
7 -5 3 107.79 21.7
-2 7 3 130.79 23.3
6 1 -3 299.87 25.2
-7 6 -3 256.97 31.5
1 -7 -3 282.07 28.6
-6 -1 3 260.17 22.1
-6 -1 3 243.58 27.9
7 -6 3 243.28 21.3
-1 7 3 224.38 28.8
7 -6 3 220.88 28.1
0 -7 -3 143.49 23.8
-7 7 -3 110.29 16.6
7 0 -3 126.39 18.5
-7 7 -3 110.59 20.8
0 7 3 97.69 21.8
-7 0 3 103.29 18.1
7 -7 3 96.89 25.2
-7 0 3 122.29 17.6
7 -7 3 87.69 13.8
-7 8 -3 153.18 18.1
8 -1 -3 170.58 20.4
-1 -7 -3 129.39 23.1
-7 8 -3 164.48 24.7
7 -8 3 135.79 16.7
1 7 3 138.49 23.7
-8 1 3 127.99 24.4
-8 1 3 169.58 19.7
-7 9 -3 106.99 22.3
9 -2 -3 84.09 15.9
-2 -7 -3 93.59 22.1
-7 9 -3 114.09 16.9
7 -9 3 130.19 16.3
7 -9 3 107.89 20.2
-9 2 3 110.69 17.6
-3 -7 -3 187.18 28.8
-7 10 -3 204.48 27
-7 10 -3 186.98 20.1
10 -3 -3 157.88 20.9
7 -10 3 164.38 23.5
3 7 3 161.28 24.1
7 -10 3 180.18 17.5
-10 3 3 191.98 21
-4 -7 -3 90.79 21
-7 11 -3 77.89 15.2
-7 11 -3 96.69 20.6
11 -4 -3 86.49 16.6
4 7 3 93.59 19.7
7 -11 3 94.19 18.6
7 -11 3 88.29 13.6
-11 4 3 103.79 18.3
-7 12 -3 189.18 28.3
-5 -7 -3 186.28 31.7
-7 12 -3 219.08 21.3
12 -5 -3 185.28 21.7
7 -12 3 192.78 17.6
-12 5 3 191.68 22.5
-7 13 -3 95.89 17.8
13 -6 -3 90.99 17.7
-7 13 -3 82.39 20.7
-6 -7 -3 126.19 27
-13 6 3 82.59 17.2
7 -13 3 81.69 12.6
14 -7 -3 236.58 24.3
-7 14 -3 285.57 31.1
-7 -7 -3 256.47 40.1
-7 14 -3 218.28 23.7
-14 7 3 215.68 24.9
7 -14 3 245.08 18.6
7 7 3 220.08 27.2
-7 15 -3 23.7 17.4
-7 15 -3 69.59 15.9
15 -8 -3 56.69 15.2
-8 -7 -3 86.09 27.3
8 7 3 35.1 16.8
7 -15 3 71.59 9.7
-15 8 3 94.99 19.9
7 -15 3 91.69 11.7
-6 14 -3 700.73 47
-8 -6 -3 664.53 56.69
14 -8 -3 758.72 43.7
-6 14 -3 699.63 44
-14 8 3 782.22 47
6 -14 3 674.13 38.1
8 6 3 765.92 49.2
-5 13 -3 120.49 21.1
-5 13 -3 116.29 18.6
-8 -5 -3 106.99 28.2
-13 8 3 123.09 19.8
5 -13 3 160.58 23.1
5 -13 3 103.89 14
8 5 3 105.09 20.8
12 -8 -3 755.42 43.3
-4 12 -3 775.72 48.2
-8 -4 -3 782.42 58.99
-4 12 -3 779.82 46.3
4 -12 3 783.22 43.2
-12 8 3 898.01 48.6
4 -12 3 738.63 48.5
8 4 3 861.91 51.09
-3 11 -3 201.88 24.4
-3 11 -3 223.18 22.9
-8 -3 -3 206.48 31.1
11 -8 -3 213.38 18.2
-11 8 3 284.87 31.1
8 3 3 199.88 25.5
3 -11 3 203.68 18.7
-11 8 3 202.78 20.8
3 -11 3 253.17 27
-8 -2 -3 892.41 63.69
-2 10 -3 905.61 52.99
-2 10 -3 1004.6 54.09
10 -8 -3 897.51 47.7
8 2 3 1062.39 57.69
2 -10 3 1014.9 51.69
-10 8 3 962.3 60.09
-10 8 3 979.9 52.09
2 -10 3 910.21 55.89
-1 9 -3 128.19 18.7
-1 9 -3 146.19 18.9
9 -8 -3 97.69 12
-8 -1 -3 85.29 22
-9 8 3 79.79 19.4
1 -9 3 121.69 20.8
1 -9 3 132.59 17
-9 8 3 115.09 15.5
0 8 -3 1008.9 56.19
0 8 -3 1005.8 55.59
-8 0 -3 1017.7 66.49
0 -8 3 1030.8 59.29
-8 8 3 1041.7 61.49
0 -8 3 1025.7 54.69
-8 8 3 1017.4 52.69
1 7 -3 179.48 20.9
1 7 -3 149.69 19.2
-8 1 -3 112.19 23.7
-1 -7 3 168.88 18.9
-7 8 3 132.89 15.4
-1 -7 3 213.68 26.6
-7 8 3 157.98 23.6
2 6 -3 1359.26 67.99
-8 2 -3 1305.37 76.09
-2 -6 3 1246.38 69.29
-6 8 3 1177.98 77.69
-2 -6 3 1232.58 65.39
-6 8 3 1251.47 61.39
5 -8 -3 140.59 20.3
-8 3 -3 98.69 20
3 5 -3 166.08 20.1
-3 -5 3 130.89 21.1
-3 -5 3 194.48 19.1
-5 8 3 144.49 24.3
-5 8 3 140.99 14
4 -8 -3 944.81 55.99
-8 4 -3 1025.6 64.29
4 4 -3 1003.6 56.19
-4 8 3 996.5 49.1
-4 8 3 1008.3 59.79
8 -4 3 1025.1 54.39
-4 -4 3 886.41 63.39
-4 -4 3 1060.39 55.29
3 -8 -3 108.29 18.6
-8 5 -3 131.49 24.9
5 3 -3 159.08 20.2
8 -5 3 133.19 21.2
-3 8 3 113.69 21.3
-5 -3 3 131.89 22.8
-5 -3 3 154.68 18.6
8 -5 3 185.18 18.6
-8 6 -3 1279.87 74.39
6 2 -3 1266.07 67.89
2 -8 -3 1226.68 68.79
-6 -2 3 1173.58 65.59
-6 -2 3 1240.28 69.79
-2 8 3 1297.57 70.99
8 -6 3 1273.97 64.79
8 -6 3 1289.97 72.69
7 1 -3 155.58 21.6
1 -8 -3 124.59 21.3
-8 7 -3 177.78 29.2
-7 -1 3 152.08 17.9
-7 -1 3 164.38 24.6
8 -7 3 149.88 22.4
-1 8 3 148.29 22.9
8 -7 3 154.18 17.4
0 -8 -3 1027.9 61.39
-8 8 -3 1009.5 63.89
8 0 -3 1102.39 59.29
8 -8 3 982.8 54.39
-8 0 3 1014 61.59
-8 0 3 1097.79 58.39
0 8 3 993.3 61.59
-1 -8 -3 104.49 21
9 -1 -3 147.39 21.4
-8 9 -3 120.69 25.3
-8 9 -3 96.99 15.8
-9 1 3 135.89 19.9
8 -9 3 125.19 16.1
1 8 3 107.69 23.6
10 -2 -3 924.91 54.99
-2 -8 -3 932.71 59.59
-8 10 -3 979 60.39
-8 10 -3 945.41 52.19
2 8 3 901.31 65.89
-10 2 3 990.1 55.59
8 -10 3 968.3 50.69
-8 11 -3 252.37 30.3
11 -3 -3 235.98 24.6
-3 -8 -3 208.28 30
-8 11 -3 202.98 21.9
3 8 3 227.38 28.4
-11 3 3 223.08 23.6
8 -11 3 204.78 18.9
-8 12 -3 814.52 53.79
12 -4 -3 855.61 50.19
-4 -8 -3 776.22 56.09
-8 12 -3 748.03 45.8
4 8 3 820.52 53.49
8 -12 3 772.42 43.1
-12 4 3 813.02 49.5
-8 13 -3 156.48 20.6
-5 -8 -3 172.88 31.8
-8 13 -3 98.59 23.7
13 -5 -3 108.09 19
8 -13 3 134.99 17.6
8 -13 3 112.89 14.5
-13 5 3 147.29 22.2
14 -6 -3 757.12 47.5
-8 14 -3 776.42 51.79
-6 -8 -3 698.53 56.89
-8 14 -3 737.63 45.3
6 8 3 793.92 50.19
8 -14 3 825.72 42
-14 6 3 730.73 49.3
8 -14 3 747.83 40.2
-8 15 -3 79.29 20
-8 15 -3 53.79 13.9
15 -7 -3 80.49 17.3
-7 -8 -3 99.89 27.1
8 -15 3 69.49 10.8
-15 7 3 51.49 26
7 8 3 60.49 18.5
8 -15 3 55.79 9.2
-8 -8 -3 625.94 53.99
-8 16 -3 570.14 39.7
16 -8 -3 662.53 42.2
-8 16 -3 642.14 44.1
-16 8 3 551.44 42.8
8 8 3 571.64 44.7
-8 17 -3 45.4 14.2
-9 -8 -3 24.6 27.2
-8 17 -3 6.2 14.3
17 -9 -3 41.3 13.9
-17 9 3 39.9 15.4
9 8 3 15.4 15.3
-7 16 -3 276.17 29.7
16 -9 -3 254.57 24.4
-7 16 -3 246.18 25.3
-9 -7 -3 237.48 41
9 7 3 253.77 29.8
-16 9 3 281.77 31.4
15 -9 -3 36.7 12.9
-6 15 -3 67.69 15.6
-9 -6 -3 61.39 26.6
-6 15 -3 45.1 16.9
9 6 3 57.79 18.1
6 -15 3 52.89 9.1
-15 9 3 90.29 18.5
14 -9 -3 206.38 26
-5 14 -3 197.28 22.4
-9 -5 -3 163.68 33.2
-5 14 -3 154.08 22.7
5 -14 3 206.28 24.3
9 5 3 181.88 26.4
-14 9 3 177.68 22.6
5 -14 3 237.88 18
-9 -4 -3 80.99 25.3
-4 13 -3 100.39 17.4
-4 13 -3 55.29 16.5
13 -9 -3 82.99 13.6
9 4 3 59.29 17.2
4 -13 3 67.09 17.7
4 -13 3 75.69 12.5
-13 9 3 99.89 17.8
-3 12 -3 123.99 19.3
-3 12 -3 148.79 19.2
12 -9 -3 145.29 15.5
-9 -3 -3 238.18 35.3
9 3 3 204.38 25.2
3 -12 3 125.19 21.5
3 -12 3 160.78 17
-12 9 3 117.79 18.1
-2 11 -3 58.29 14.4
-2 11 -3 79.59 15.2
11 -9 -3 44.9 9.4
-9 -2 -3 51.79 21
-11 9 3 61.09 17.9
2 -11 3 45.7 16.8
2 -11 3 59.69 11.8
9 2 3 43.2 16.4
-11 9 3 65.19 13.3
10 -9 -3 258.67 16.8
-1 10 -3 256.17 24
-1 10 -3 265.97 24
-9 -1 -3 215.18 33.3
-10 9 3 267.37 21.6
-10 9 3 224.78 30.2
9 1 3 230.98 26.3
1 -10 3 242.18 28.5
1 -10 3 267.47 21.7
-9 0 -3 149.29 30.4
0 9 -3 185.28 23.2
-9 9 3 129.49 16.1
-9 9 3 140.09 22.3
0 -9 3 177.98 23.4
9 0 3 153.98 20.3
0 -9 3 136.79 18.3
1 8 -3 117.29 19.1
-9 1 -3 132.69 28
-1 -8 3 118.09 16.5
-8 9 3 139.79 24.4
9 -1 3 139.89 20.9
-1 -8 3 125.49 22.6
-8 9 3 132.29 15
-9 2 -3 85.79 22.6
2 7 -3 126.79 18.7
9 -2 3 112.69 19.8
-2 -7 3 100.09 16
-7 9 3 151.78 25.2
-7 9 3 97.39 13.2
-2 -7 3 133.09 20.4
-9 3 -3 147.09 24.8
3 6 -3 203.68 22.9
-3 -6 3 202.78 20.4
-6 9 3 227.88 39.6
-3 -6 3 189.98 25.1
-6 9 3 193.68 15.9
5 -9 -3 146.39 21
4 5 -3 174.88 21.5
-9 4 -3 154.18 27.2
-4 -5 3 134.69 18.2
-5 9 3 145.89 24.7
-5 9 3 155.28 14
-4 -5 3 132.19 35.6
-9 5 -3 162.98 30.6
5 4 -3 162.88 21.1
4 -9 -3 141.79 21
9 -5 3 162.48 19.1
-5 -4 3 183.98 26.2
-4 9 3 137.79 22.9
-5 -4 3 153.48 19.1
3 -9 -3 202.98 25.3
-9 6 -3 222.58 32.3
6 3 -3 236.68 24
9 -6 3 203.88 21.1
-3 9 3 238.68 30.4
-6 -3 3 250.07 27.8
-6 -3 3 169.58 20.7
7 2 -3 122.69 19.9
2 -9 -3 101.99 19.9
-9 7 -3 125.79 26.2
9 -7 3 136.69 18.2
-7 -2 3 119.59 23.1
-7 -2 3 120.29 19.1
-2 9 3 123.49 22
-9 8 -3 129.89 25.4
1 -9 -3 122.39 22.6
8 1 -3 122.89 19.7
-8 -1 3 152.88 19.3
-1 9 3 144.79 25.2
9 -8 3 135.09 18.2
-8 -1 3 118.99 21.9
0 -9 -3 165.28 24.8
-9 9 -3 151.08 25.2
9 0 -3 147.79 22.2
9 -9 3 180.88 24.7
-9 0 3 174.78 22.9
9 -9 3 132.69 17.5
0 9 3 162.68 25.6
-1 -9 -3 267.57 31.6
-9 10 -3 243.18 23
-9 10 -3 292.97 34.1
10 -1 -3 247.98 26.1
9 -10 3 279.37 22.2
-10 1 3 261.87 25.3
1 9 3 270.37 38.2
-2 -9 -3 31.2 17.6
11 -2 -3 42.3 15.8
-9 11 -3 57.59 13.8
-9 11 -3 91.89 22.4
9 -11 3 45.7 13.6
2 9 3 66.99 18.5
9 -11 3 53.79 11.6
-11 2 3 41.7 13.7
12 -3 -3 115.99 19.6
-9 12 -3 149.39 19.3
-3 -9 -3 78.49 22.2
-9 12 -3 150.18 26.4
3 9 3 105.49 21
9 -12 3 146.79 19.1
9 -12 3 141.99 16.4
-12 3 3 124.09 19.9
-4 -9 -3 69.09 23.3
-9 13 -3 85.19 23
-9 13 -3 55.39 15.2
13 -4 -3 73.09 17.5
9 -13 3 89.69 13.9
9 -13 3 81.29 14.6
-13 4 3 117.99 19.4
14 -5 -3 199.08 24
-9 14 -3 188.78 28.5
-9 14 -3 149.29 21.5
-5 -9 -3 167.28 31.1
9 -14 3 204.98 17.4
9 -14 3 175.68 18.7
-9 15 -3 55.39 14.9
-9 15 -3 67.99 21.1
15 -6 -3 44.9 15.5
-6 -9 -3 39.1 25
-15 6 3 54.59 16.4
9 -15 3 55.69 10.4
9 -15 3 53.39 9.5
6 9 3 72.59 18.5
-9 16 -3 240.58 25
-9 16 -3 272.07 32.1
16 -7 -3 262.97 27.9
-7 -9 -3 229.98 36.2
7 9 3 254.77 29.5
-16 7 3 304.97 30.5
-9 17 -3 50.99 19.3
17 -8 -3 54.19 15.7
-9 17 -3 24.6 12.6
-8 -9 -3 17.9 21.5
-17 8 3 24.4 16.7
8 9 3 44 17.9
18 -9 -3 69.19 17.1
-9 18 -3 28.7 17.3
-9 18 -3 33.8 13.8
-9 -9 -3 89.19 31.3
9 9 3 49.8 19.3
-18 9 3 77.39 19.3
-9 19 -3 44.6 16.8
-9 19 -3 34.9 14.3
-10 -9 -3 40.2 26
19 -10 -3 40.8 13.8
-19 10 3 48.7 17.6
10 9 3 75.39 20.6
-10 -8 -3 291.17 43.1
-8 18 -3 256.87 27.8
18 -10 -3 300.17 26.3
-8 18 -3 262.47 26.8
-18 10 3 220.88 30.6
10 8 3 252.17 31
17 -10 -3 74.89 15.8
-10 -7 -3 69.19 25.6
-7 17 -3 87.19 16.9
-7 17 -3 86.69 18.2
-17 10 3 80.49 18.7
10 7 3 60.19 19.1
16 -10 -3 622.84 39
-6 16 -3 648.84 40.7
-10 -6 -3 630.54 63.69
-6 16 -3 617.64 41.1
-16 10 3 616.84 52.59
10 6 3 648.24 46.7
-5 15 -3 135.19 19.4
-10 -5 -3 110.49 36.9
15 -10 -3 133.89 17.1
-5 15 -3 137.89 20.7
10 5 3 134.79 23.3
-15 10 3 127.49 20.6
5 -15 3 114.99 13.1
-10 -4 -3 715.73 58.99
-4 14 -3 706.13 44.9
-4 14 -3 684.73 42.5
14 -10 -3 679.33 39.2
-14 10 3 691.93 44.7
4 -14 3 726.23 45.1
10 4 3 777.02 49.99
4 -14 3 744.43 39
-10 -3 -3 156.68 29.1
-3 13 -3 173.78 21.5
13 -10 -3 185.28 16.7
-3 13 -3 195.68 22.5
-13 10 3 177.88 20.8
3 -13 3 202.38 25.8
3 -13 3 175.98 17.6
10 3 3 148.29 25.2
-2 12 -3 843.32 49.2
-10 -2 -3 872.31 64.69
-2 12 -3 893.21 52.29
12 -10 -3 864.51 43.9
-12 10 3 874.11 50.09
2 -12 3 950 48.6
10 2 3 884.51 55.69
-12 10 3 918.91 60.19
2 -12 3 924.51 54.19
11 -10 -3 137.39 11.4
-1 11 -3 148.19 21.5
-10 -1 -3 110.89 25.4
-11 10 3 168.18 17.2
1 -11 3 137.59 23.6
1 -11 3 154.48 17.7
-11 10 3 142.89 24.6
10 1 3 122.99 21
-10 0 -3 1285.17 78.39
0 10 -3 1129.39 65.49
10 0 3 1213.08 68.39
-10 10 3 1248.28 71.89
-10 10 3 1212.68 61.89
0 -10 3 1213.28 67.79
0 -10 3 1228.08 63.39
-10 1 -3 300.37 41.3
1 9 -3 272.97 26
-9 10 3 262.97 20.8
10 -1 3 281.77 27.9
-1 -9 3 283.87 29.5
-9 10 3 278.47 31.7
-1 -9 3 279.37 23.1
2 8 -3 949.51 55.29
-10 2 -3 956.6 65.49
-2 -8 3 930.61 52.59
-2 -8 3 914.21 56.59
-8 10 3 969.2 59.09
10 -2 3 1023.2 57.19
-8 10 3 957.4 49
-10 3 -3 183.28 30.5
3 7 -3 145.29 21.9
-7 10 3 141.69 23.4
-3 -7 3 188.98 19.8
-3 -7 3 179.78 25.8
10 -3 3 118.09 19.6
-7 10 3 166.48 14.9
-10 4 -3 1181.98 71.09
4 6 -3 1035.8 60.69
10 -4 3 1167.48 61.79
-4 -6 3 1131.19 59.39
-6 10 3 1052.79 52.49
-6 10 3 834.52 79.39
-10 5 -3 163.88 29.6
5 5 -3 219.38 24
5 -10 -3 214.98 23.5
10 -5 3 206.28 21.7
-5 -5 3 185.78 25.8
10 -5 3 165.58 23.5
-5 -5 3 198.18 21.4
-5 10 3 195.88 15.2
-5 10 3 205.38 29.8
4 -10 -3 1056.99 60.09
-10 6 -3 1112.59 69.79
6 4 -3 1173.98 63.29
-6 -4 3 1074.69 62.99
10 -6 3 1015.2 58.29
10 -6 3 1110.09 60.59
-4 10 3 1063.19 63.89
-6 -4 3 1075.99 59.79
7 3 -3 181.98 22.3
-10 7 -3 209.88 33.1
3 -10 -3 135.19 22.2
10 -7 3 215.98 23.3
10 -7 3 183.98 20.2
-3 10 3 149.39 24.6
-7 -3 3 215.98 22.2
-7 -3 3 218.78 27.9
-10 8 -3 1000.6 64.69
8 2 -3 913.41 57.79
2 -10 -3 1002 58.29
-2 10 3 1012 60.19
10 -8 3 913.31 53.19
-8 -2 3 1079.49 61.69
-8 -2 3 990.7 56.99
10 -8 3 1004 55.79
9 1 -3 300.97 28.4
1 -10 -3 223.78 29.4
-10 9 -3 275.77 34
10 -9 3 331.67 27.5
-9 -1 3 248.98 25.6
-1 10 3 228.28 30.1
10 -9 3 256.37 22.9
0 -10 -3 1185.48 69.29
10 0 -3 1327.27 69.99
-10 10 -3 1186.48 73.39
10 -10 3 1133.59 62.09
10 -10 3 1254.67 65.19
0 10 3 1125.19 69.09
-10 0 3 1259.77 67.89
-1 -10 -3 96.89 22.3
11 -1 -3 146.59 22.5
-10 11 -3 184.68 29
10 -11 3 155.38 17.6
-11 1 3 162.48 23.6
12 -2 -3 909.01 55.99
-2 -10 -3 772.12 57.39
-10 12 -3 928.51 51.29
-10 12 -3 871.31 59.59
-12 2 3 886.61 55.09
10 -12 3 972.3 50.59
2 10 3 856.21 56.19
10 -12 3 889.61 48
-10 13 -3 181.48 29
13 -3 -3 221.28 27
-3 -10 -3 199.48 31.5
-10 13 -3 149.29 21.3
10 -13 3 172.48 18
-13 3 3 147.29 34.6
10 -13 3 164.88 19.2
-4 -10 -3 727.63 54.19
14 -4 -3 774.32 48.5
-10 14 -3 681.13 43.3
-10 14 -3 715.13 52.09
-14 4 3 785.32 49
10 -14 3 665.93 39.4
10 -14 3 654.23 38.4
15 -5 -3 121.09 22.5
-5 -10 -3 111.99 27.2
-10 15 -3 128.89 20.8
-10 15 -3 125.29 25.4
10 -15 3 118.29 13.9
5 10 3 143.79 22.9
-15 5 3 108.09 21.3
10 -15 3 124.49 14.5
-10 16 -3 597.94 42
-10 16 -3 631.24 48.8
16 -6 -3 721.53 47.1
-6 -10 -3 622.74 54.39
6 10 3 722.33 47.8
-16 6 3 640.54 47.3
10 -16 3 670.03 32.7
-7 -10 -3 36.3 25
-10 17 -3 60.69 16.7
-10 17 -3 56.69 21.4
17 -7 -3 70.89 18.5
7 10 3 71.09 19.1
-17 7 3 96.09 21.5
-10 18 -3 208.48 25.6
18 -8 -3 239.58 27.8
-8 -10 -3 255.77 42.8
-10 18 -3 263.47 32.2
-18 8 3 242.88 29.2
8 10 3 259.57 31.3
-10 19 -3 43.3 17.4
-10 19 -3 36.3 13.8
-9 -10 -3 63.39 27.9
19 -9 -3 99.19 19.5
9 10 3 23.9 16.2
-19 9 3 51.59 19.7
-10 -10 -3 286.37 45
-10 20 -3 257.47 27.2
-10 20 -3 270.27 29.3
20 -10 -3 302.07 30.1
-20 10 3 313.97 35
10 10 3 288.27 33.3
-11 -10 -3 35.1 23
21 -11 -3 26.7 14.1
-10 21 -3 -5.4 10.8
11 10 3 18.7 19.3
-21 11 3 7 16.5
-9 20 -3 117.49 20.8
-11 -9 -3 128.89 33.9
20 -11 -3 160.08 21
11 9 3 121.89 24.2
-20 11 3 153.88 27.6
-8 19 -3 17.7 12.4
19 -11 -3 41.9 13.9
-11 -8 -3 18.4 20.6
11 8 3 23.4 15.9
-19 11 3 33.3 16.4
-7 18 -3 75.79 14.9
18 -11 -3 82.89 15.5
-7 18 -3 84.79 17.7
-11 -7 -3 53.19 25.4
-18 11 3 70.29 18.9
11 7 3 99.19 21.6
-6 17 -3 34.4 12.3
-11 -6 -3 20.8 22.3
-6 17 -3 17.9 11.6
11 6 3 4.1 13.9
-17 11 3 -7.6 10.4
-5 16 -3 255.37 26.2
16 -11 -3 273.57 22.1
-11 -5 -3 273.37 45.1
-5 16 -3 241.48 22.9
-16 11 3 231.58 26.6
11 5 3 267.17 30.7
-11 -4 -3 34.4 22.4
15 -11 -3 30.2 10.1
-4 15 -3 29 12.2
4 -15 3 18.8 8.1
-15 11 3 22.3 11.2
4 -15 3 13.9 13.1
11 4 3 23.4 14.7
-3 14 -3 219.68 24.1
-11 -3 -3 199.08 45.5
14 -11 -3 201.58 16.6
3 -14 3 212.68 26
-14 11 3 206.88 22.8
11 3 3 210.98 27.3
3 -14 3 212.38 18.4
-2 13 -3 44 14.5
13 -11 -3 40.9 7.7
-11 -2 -3 59.19 41.4
2 -13 3 44.3 11.1
2 -13 3 82.09 19.3
-13 11 3 61.39 19.9
11 2 3 69.59 18.2
-13 11 3 45.9 13
-1 12 -3 329.37 28.6
-11 -1 -3 307.57 41.8
1 -12 3 316.97 23.7
11 1 3 291.87 30.4
-12 11 3 247.98 34.1
1 -12 3 230.48 29.7
-12 11 3 267.47 22.9
0 11 -3 68.79 16.1
-11 0 -3 44.7 19.9
0 -11 3 53.99 17.3
11 0 3 82.99 19.1
-11 11 3 64.69 12.8
-11 11 3 66.39 19.6
0 -11 3 66.39 13.5
1 10 -3 170.28 22.5
-11 1 -3 141.39 30.1
-10 11 3 137.29 17
-1 -10 3 153.58 24.4
-10 11 3 179.18 28.1
-1 -10 3 160.28 19.1
11 -1 3 125.19 21.1
2 9 -3 67.69 15.3
-11 2 -3 47.2 21.8
-9 11 3 70.89 11.8
-2 -9 3 63.89 17.9
-9 11 3 36.3 17.6
11 -2 3 36.8 15.5
-2 -9 3 37.5 12
-11 3 -3 217.98 34.8
3 8 -3 218.28 24.5
-3 -8 3 224.78 27.8
11 -3 3 229.58 25.4
-3 -8 3 236.68 22.9
-8 11 3 210.28 17.3
-8 11 3 222.98 29.8
-11 4 -3 83.09 22.3
4 7 -3 102.29 19.4
-4 -7 3 109.19 17.8
11 -4 3 58.69 16.6
-7 11 3 70.29 20.3
-4 -7 3 29.5 29.5
-7 11 3 102.99 11.7
5 6 -3 183.78 24.9
-11 5 -3 164.18 31.5
-6 11 3 161.28 13.9
11 -5 3 185.98 23.2
-5 -6 3 153.78 19.4
-5 -6 3 158.08 24.1
-6 11 3 154.88 42.8
6 5 -3 158.78 23.5
5 -11 -3 155.28 21.3
-11 6 -3 127.79 24.2
-6 -5 3 153.58 19.9
-5 11 3 149.59 26.1
11 -6 3 155.48 20.6
-6 -5 3 187.18 25.2
11 -6 3 141.39 21.9
-11 7 -3 63.99 21.6
7 4 -3 100.49 19.3
4 -11 -3 74.39 17.1
-7 -4 3 84.09 20.2
-4 11 3 85.49 21.8
-7 -4 3 102.79 18.1
11 -7 3 69.59 16.8
11 -7 3 87.99 16
3 -11 -3 231.38 26.4
8 3 -3 299.17 28.4
-11 8 -3 213.18 31.6
11 -8 3 220.78 22.6
11 -8 3 226.88 24.2
-8 -3 3 232.38 24.3
-3 11 3 214.38 28.5
-8 -3 3 255.57 29.8
9 2 -3 64.39 17.6
-11 9 -3 66.59 21.1
2 -11 -3 31.2 16.1
-9 -2 3 54.69 14.6
11 -9 3 44.8 12.8
11 -9 3 65.59 15.9
-2 11 3 61.89 19.8
1 -11 -3 121.99 22.7
-11 10 -3 155.88 29.1
10 1 -3 186.78 25.9
11 -10 3 145.39 19.3
11 -10 3 145.59 20.5
-10 -1 3 176.28 24.2
-1 11 3 163.88 25.1
0 -11 -3 86.19 22.3
-11 11 -3 48.1 21.2
11 0 -3 84.69 19.4
-11 0 3 86.19 17.3
11 -11 3 52.19 14.9
0 11 3 101.59 24.3
11 -11 3 81.99 14.8
12 -1 -3 278.47 29.8
-1 -11 -3 249.48 32.9
-11 12 -3 276.77 39.6
11 -12 3 240.18 22.3
1 11 3 257.97 40.7
-12 1 3 308.07 46.5
11 -12 3 340.27 38.7
-2 -11 -3 55.99 21.2
-11 13 -3 14 18.6
13 -2 -3 36.5 16.2
11 -13 3 35.8 12.2
-13 2 3 52.79 15.6
11 -13 3 35.4 10.8
2 11 3 65.99 18.6
-11 14 -3 228.68 33.4
-11 14 -3 174.08 22.1
-3 -11 -3 194.88 31.3
14 -3 -3 246.38 28.1
11 -14 3 209.98 20.4
11 -14 3 221.38 19.4
-14 3 3 209.28 26.2
15 -4 -3 15.6 13.7
-11 15 -3 1.6 11
-11 15 -3 24.6 18.9
-4 -11 -3 47.8 22.4
-15 4 3 43.7 16.4
11 -15 3 24.6 8.2
11 -15 3 23 8.9
4 11 3 28.1 15.2
-11 16 -3 294.67 25.8
-5 -11 -3 227.68 36.7
16 -5 -3 258.17 29.4
-11 16 -3 223.08 33.7
-16 5 3 210.68 28.1
5 11 3 289.47 30
11 -16 3 252.97 16.9
11 -16 3 230.08 19.4
-11 17 -3 16.8 13
-11 17 -3 -13.4 15.4
-6 -11 -3 29.9 21.4
17 -6 -3 28.3 15
6 11 3 21.4 15.3
-17 6 3 27 16
18 -7 -3 83.99 19.6
-11 18 -3 116.49 24.6
-11 18 -3 117.99 19.4
-7 -11 -3 118.59 30.7
-18 7 3 66.89 19.3
7 11 3 95.59 21.4
-8 -11 -3 30.3 23.7
19 -8 -3 19.9 14
-11 19 -3 25.9 13
-11 19 -3 31.8 18.6
8 11 3 45.9 18.7
-19 8 3 19.5 17.1
-11 20 -3 104.09 20.9
-9 -11 -3 136.19 36
-11 20 -3 164.28 24.8
20 -9 -3 173.28 25.1
-20 9 3 107.89 25.3
9 11 3 141.89 26
-11 21 -3 6.8 12.9
-10 -11 -3 1.8 20.8
-11 21 -3 41.9 16.9
21 -10 -3 11.7 14.3
-21 10 3 8.1 16.8
10 11 3 69.79 21
-11 22 -3 184.18 25.8
-11 -11 -3 254.37 40.8
22 -11 -3 162.98 24.6
11 11 3 193.28 31.1
-22 11 3 188.38 31.6
-12 -11 -3 14.1 22.9
23 -12 -3 31.8 13.8
-11 23 -3 17.9 14
-23 12 3 23.3 20
12 11 3 24.7 17.3
-12 -10 -3 253.97 42
-10 22 -3 257.77 28
22 -12 -3 215.38 25.8
-22 12 3 291.27 34.9
12 10 3 256.87 33.4
-12 -9 -3 51.89 26
21 -12 -3 41.5 13.8
-9 21 -3 12.7 12.9
12 9 3 48 30.7
-21 12 3 36.2 19.7
-12 -8 -3 243.58 41
20 -12 -3 291.87 26.1
-8 20 -3 260.87 28
-20 12 3 315.87 34.5
12 8 3 308.57 34.4
-7 19 -3 10.3 13.6
-12 -7 -3 39.4 25.4
19 -12 -3 33.3 12.2
-19 12 3 63.49 18.9
12 7 3 47 19.1
-12 -6 -3 382.86 52.99
-6 18 -3 263.47 26.5
-18 12 3 284.07 30.5
12 6 3 306.57 34
-12 -5 -3 95.89 30.7
-5 17 -3 140.89 21.8
17 -12 -3 113.79 15.5
12 5 3 95.99 22.2
16 -12 -3 565.84 31.4
-4 16 -3 547.65 38.7
-12 -4 -3 510.25 53.69
-16 12 3 504.85 38.5
12 4 3 559.84 43.7
15 -12 -3 150.28 13.9
-3 15 -3 143.39 22.3
-12 -3 -3 202.48 39.9
-15 12 3 214.48 22.8
12 3 3 148.29 24
3 -15 3 170.68 15.9
3 -15 3 206.38 23.8
-12 -2 -3 738.13 60.69
-2 14 -3 693.53 45.8
2 -14 3 695.63 39.4
2 -14 3 678.43 45.4
12 2 3 780.42 50.59
-14 12 3 659.63 43
-1 13 -3 107.09 19.6
-12 -1 -3 104.89 27.4
-13 12 3 150.28 26.8
12 1 3 122.59 21.2
-13 12 3 138.79 17.6
1 -13 3 110.59 21.8
1 -13 3 157.08 17.6
-12 0 -3 892.11 69.19
0 12 -3 835.42 52.99
12 0 3 867.81 56.09
0 -12 3 916.21 49.5
-12 12 3 954.6 60.49
-12 12 3 874.31 48.7
0 -12 3 845.12 53.69
1 11 -3 236.08 26
12 -1 3 288.87 29.7
-1 -11 3 267.37 23.7
-1 -11 3 256.87 30.8
-11 12 3 242.78 21
-11 12 3 291.77 34.3
-12 2 -3 1002.6 76.79
2 10 -3 862.41 53.99
-2 -10 3 952.7 51.79
-10 12 3 889.31 47.3
12 -2 3 871.21 55.49
-10 12 3 922.01 59.19
-2 -10 3 836.12 55.19
3 9 -3 136.49 21.8
-12 3 -3 93.09 22.9
-3 -9 3 164.68 19
12 -3 3 132.09 22.3
-3 -9 3 99.69 21.7
-9 12 3 106.89 14
-9 12 3 155.08 25.2
4 8 -3 914.51 53.69
-12 4 -3 787.02 61.49
-4 -8 3 804.32 59.39
-8 12 3 782.92 54.69
-4 -8 3 854.91 49.3
12 -4 3 847.72 52.09
-8 12 3 776.02 41.8
-12 5 -3 167.48 33.6
5 7 -3 153.28 22.9
-5 -7 3 182.88 26.4
-7 12 3 128.49 26.5
-7 12 3 200.58 15.1
12 -5 3 202.08 24.4
-5 -7 3 162.48 21
-12 6 -3 930.91 64.89
6 6 -3 928.01 56.89
-6 -6 3 948.71 57.79
12 -6 3 932.11 55.29
-6 -6 3 871.61 53.69
-12 7 -3 168.48 33.3
7 5 -3 231.48 25.7
-5 12 3 136.09 25.9
12 -7 3 214.68 24.4
-7 -5 3 182.08 26.6
12 -7 3 185.88 22.3
-7 -5 3 146.69 21.6
4 -12 -3 788.92 49.6
-12 8 -3 812.12 60.99
8 4 -3 933.81 55.19
12 -8 3 845.42 49.1
12 -8 3 924.71 52.19
-8 -4 3 835.22 51.59
-4 12 3 721.73 53.79
-8 -4 3 825.22 54.89
3 -12 -3 122.99 20.5
9 3 -3 100.09 19.8
-12 9 -3 121.89 28.6
12 -9 3 128.79 19.8
-3 12 3 117.79 23.3
-9 -3 3 143.19 22
12 -9 3 101.79 17
-12 10 -3 970.5 65.49
2 -12 -3 907.51 56.49
10 2 -3 964.6 58.89
-2 12 3 907.31 58.59
-10 -2 3 937.61 57.89
12 -10 3 898.41 52.69
12 -10 3 1002.8 55.09
-12 11 -3 319.97 43.1
1 -12 -3 283.07 33.2
11 1 -3 289.17 28.7
12 -11 3 293.07 26.7
-1 12 3 288.47 31
12 -11 3 261.37 24.4
0 -12 -3 898.91 57.89
-12 12 -3 902.51 63.59
12 0 -3 942.81 58.99
-12 0 3 921.51 57.09
12 -12 3 907.61 50.69
0 12 3 959.7 72.99
12 -12 3 914.11 52.39
-12 13 -3 135.89 27.7
13 -1 -3 159.78 25.6
-1 -12 -3 92.89 24.2
1 12 3 146.69 25.6
-13 1 3 146.89 24.3
12 -13 3 146.39 18
12 -13 3 130.39 19.5
-2 -12 -3 730.23 52.69
14 -2 -3 734.33 50.59
-12 14 -3 670.43 53.99
12 -14 3 712.83 41
-14 2 3 712.33 49.4
12 -14 3 682.83 40.1
15 -3 -3 159.48 26.2
-3 -12 -3 206.38 32.8
-12 15 -3 166.18 32.2
12 -15 3 178.98 17.6
-15 3 3 151.28 25.4
12 -15 3 160.58 16.6
-4 -12 -3 636.64 50.79
-12 16 -3 522.75 38.6
16 -4 -3 597.44 45.7
-12 16 -3 558.74 48.7
12 -16 3 566.64 30.9
12 -16 3 602.74 31.5
-16 4 3 547.75 43.5
4 12 3 554.24 41.2
17 -5 -3 125.29 23.7
-5 -12 -3 56.39 26.6
-12 17 -3 133.89 20.8
-12 17 -3 103.69 26.2
-17 5 3 110.29 21.9
5 12 3 115.49 21.5
-6 -12 -3 314.97 40.1
18 -6 -3 253.47 29.6
-12 18 -3 257.67 35.1
-12 18 -3 205.78 24.8
6 12 3 229.98 28.8
-18 6 3 236.88 30.7
-12 19 -3 73.29 16.8
-12 19 -3 20.9 18.6
19 -7 -3 65.79 18.8
-7 -12 -3 33.6 25
-19 7 3 64.79 20.7
7 12 3 45.1 17.5
-12 20 -3 324.47 29.7
-12 20 -3 291.87 34.6
20 -8 -3 290.77 33.1
-20 8 3 290.87 35.2
8 12 3 322.07 34.1
-12 21 -3 20.9 13.9
-12 21 -3 28.1 18.5
-9 -12 -3 -11.1 18.3
21 -9 -3 60.69 18.2
9 12 3 27.9 17.8
-21 9 3 77.89 22.8
22 -10 -3 238.58 29.7
-10 -12 -3 268.77 41.5
-12 22 -3 269.67 30.1
-12 22 -3 268.47 28.8
-22 10 3 289.07 40.1
-12 23 -3 6.5 13.5
23 -11 -3 12.9 13.8
-11 -12 -3 29.1 26.5
11 12 3 32.5 18.2
-23 11 3 11.8 16.9
-12 -12 -3 181.68 38.4
-12 24 -3 224.88 30.5
24 -12 -3 244.58 28.5
-24 12 3 258.17 44
12 12 3 168.88 31.9
-12 25 -3 -3 14.9
-13 -12 -3 40.7 27.2
25 -13 -3 34.4 15.6
-25 13 3 -38.5 17.2
13 12 3 -14 14.5
24 -13 -3 133.99 21.1
-13 -11 -3 102.69 32.8
-11 24 -3 110.49 22
13 11 3 112.79 25.9
23 -13 -3 6.2 12.4
-13 -10 -3 50.29 28.6
-10 23 -3 13.7 13.3
13 10 3 30.3 18.1
-23 13 3 14.1 19
-9 22 -3 219.38 26.2
22 -13 -3 129.99 20.1
-13 -9 -3 139.69 36
13 9 3 123.19 26.7
-22 13 3 148.89 27.6
21 -13 -3 14 10.6
-8 21 -3 10.7 12.8
-13 -8 -3 13.2 23
-21 13 3 0.6 16.4
13 8 3 6.6 15.2
-7 20 -3 106.69 20.6
-13 -7 -3 149.19 33
-20 13 3 209.88 29.9
19 -13 -3 15.6 9.7
-6 19 -3 25.3 12.6
-13 -6 -3 34.5 23
13 6 3 53.29 18.4
-19 13 3 8.3 15.3
18 -13 -3 71.99 12.1
-5 18 -3 95.99 18.7
-13 -5 -3 77.59 27.8
13 5 3 80.39 21.6
-18 13 3 132.99 21.9
-4 17 -3 10.8 11.3
-13 -4 -3 54.39 27.1
17 -13 -3 8.7 6.8
13 4 3 -3.4 13.2
-17 13 3 23.1 13.3
-3 16 -3 233.78 25.4
-13 -3 -3 192.28 39.7
3 -16 3 162.48 14.8
-16 13 3 188.88 23.3
3 -16 3 199.58 21.9
13 3 3 150.88 25.9
-13 -2 -3 17.8 21.5
-2 15 -3 26.2 13.7
-15 13 3 41.3 13.8
2 -15 3 20.3 15
13 2 3 35 15.8
2 -15 3 41.7 9.7
-13 -1 -3 115.29 29.5
-1 14 -3 216.38 25
-14 13 3 214.68 22.1
1 -14 3 239.38 28.9
1 -14 3 209.98 19.6
-14 13 3 226.58 35.1
13 1 3 162.68 25.6
-13 0 -3 29.7 23.7
0 13 -3 44.7 14.4
0 -13 3 60.09 18.9
-13 13 3 46.9 19
13 0 3 30.3 16.3
-13 13 3 44.6 11.7
0 -13 3 33.6 11.3
1 12 -3 159.28 24.3
-13 1 -3 146.29 30
-12 13 3 139.59 16.7
-1 -12 3 133.39 18.2
-1 -12 3 133.89 23.1
-12 13 3 127.89 25.7
13 -1 3 111.49 22.7
2 11 -3 41.6 15.4
-13 2 -3 66.79 23.4
-11 13 3 39.2 10.4
-11 13 3 36.4 18.7
13 -2 3 37.7 16.2
-2 -11 3 15.5 10.4
-2 -11 3 35 18.7
3 10 -3 189.28 24.9
-13 3 -3 168.58 33.2
-10 13 3 181.88 17
-3 -10 3 183.38 21.4
13 -3 3 170.68 25.3
-3 -10 3 224.48 29.5
-10 13 3 196.28 28.5
-13 4 -3 55.29 26.4
4 9 -3 67.49 17.2
13 -4 3 81.19 19.7
-4 -9 3 77.99 21.3
-4 -9 3 87.89 17
-9 13 3 87.89 21.3
-9 13 3 103.89 12.7
5 8 -3 118.39 21.4
-13 5 -3 46.1 40.5
-8 13 3 102.99 23.5
-5 -8 3 116.59 23.8
-5 -8 3 111.39 18.5
-8 13 3 111.59 12.5
13 -5 3 133.39 22.4
6 7 -3 89.89 19.3
-13 6 -3 87.59 28.5
-7 13 3 79.59 21.8
-6 -7 3 93.59 17.7
13 -6 3 94.99 20
-6 -7 3 101.49 21.9
-7 13 3 100.39 11.5
7 6 -3 113.99 22.3
-13 7 -3 106.49 26.8
-7 -6 3 106.49 23.8
13 -7 3 110.49 20.7
-7 -6 3 90.79 19.2
13 -7 3 86.49 18.2
-13 8 -3 94.19 30.8
8 5 -3 145.89 23.4
13 -8 3 147.89 22.1
-5 13 3 157.38 26.6
-8 -5 3 107.99 20.9
-8 -5 3 145.09 26.4
13 -8 3 138.39 20.9
-13 9 -3 90.39 26
9 4 -3 104.89 21.7
4 -13 -3 88.49 18.5
13 -9 3 74.49 17.6
-4 13 3 69.89 21.5
13 -9 3 73.79 17.1
-9 -4 3 110.59 20
-13 10 -3 170.98 32.7
3 -13 -3 205.98 26.2
10 3 -3 132.29 25
-10 -3 3 167.78 26.7
13 -10 3 197.98 23.4
13 -10 3 167.58 21.8
-3 13 3 179.48 28.2
11 2 -3 44.1 17.2
-13 11 -3 69.79 22.4
2 -13 -3 49.6 18
13 -11 3 40.7 14.6
-2 13 3 51.09 18.3
-11 -2 3 43.3 15.6
13 -11 3 44.2 13.9
-13 12 -3 141.69 30.8
1 -13 -3 149.09 25.4
12 1 -3 137.29 24.5
13 -12 3 128.39 19.2
13 -12 3 145.59 19
-1 13 3 133.09 24.3
-12 -1 3 104.99 20.1
13 0 -3 45.5 17.3
-13 13 -3 53.49 22
0 -13 -3 42.6 18.9
13 -13 3 32.7 13.4
-13 0 3 26.3 13.9
13 -13 3 30 12
14 -1 -3 220.48 31.5
-1 -13 -3 246.58 32.6
-13 14 -3 193.88 33.8
-14 1 3 191.28 28
13 -14 3 223.78 21.2
13 -14 3 181.88 21.1
15 -2 -3 53.49 19.3
-13 15 -3 18 20.4
-2 -13 -3 16.7 19.2
13 -15 3 14.5 9.7
-15 2 3 21.7 14.9
13 -15 3 18 9.5
16 -3 -3 194.08 29.3
-13 16 -3 219.98 36
-3 -13 -3 144.39 30
13 -16 3 183.08 17.2
13 -16 3 201.58 17
-16 3 3 253.07 29.3
3 13 3 216.18 26.6
-4 -13 -3 0.1 20.5
17 -4 -3 25.4 17.2
-13 17 -3 22.1 21.5
4 13 3 22.4 14.3
-17 4 3 -7.4 12.8
-5 -13 -3 75.89 26
-13 18 -3 23.1 20.9
-13 18 -3 76.99 17.2
18 -5 -3 85.99 20.7
5 13 3 74.49 18.6
-18 5 3 88.89 21.8
-6 -13 -3 28.2 23.7
19 -6 -3 29.5 16.8
-13 19 -3 33.5 14.3
-13 19 -3 21.3 18.7
-19 6 3 38.4 18.1
6 13 3 17.5 14.8
20 -7 -3 110.79 24.5
-7 -13 -3 205.88 34.3
-13 20 -3 165.08 28.7
-13 20 -3 85.49 18.8
7 13 3 142.99 25.3
-20 7 3 173.68 30.6
-13 21 -3 42.6 19.7
-8 -13 -3 53.09 28.1
21 -8 -3 61.89 19.7
-13 21 -3 26.9 14
-21 8 3 10.8 17
8 13 3 -2.3 14.5
-13 22 -3 137.09 21.6
-9 -13 -3 169.78 38.5
-13 22 -3 135.09 26.7
22 -9 -3 124.39 24.4
9 13 3 110.99 26.2
-22 9 3 164.28 30.1
23 -10 -3 24.7 16
-10 -13 -3 -42.7 20.2
-13 23 -3 18.3 13
-13 23 -3 -12.5 13.4
10 13 3 21.7 16.4
-11 -13 -3 123.29 32.8
-13 24 -3 104.89 21.7
24 -11 -3 152.48 25.4
-24 11 3 133.79 30.7
11 13 3 122.79 25.6
25 -12 -3 -7.4 13
-12 -13 -3 32.7 25.6
-13 25 -3 -14.2 12.4
12 13 3 28.1 19.5
-25 12 3 24.2 20.6
-13 26 -3 121.29 22.7
26 -13 -3 112.09 21.6
-13 -13 -3 91.19 29.9
13 13 3 79.89 26
-13 27 -3 36.2 16.6
27 -14 -3 -10 14.5
14 13 3 12.2 20.7
-14 -12 -3 74.59 36.2
-12 26 -3 114.69 23.5
26 -14 -3 136.09 22.8
-26 14 3 183.48 36.8
14 12 3 104.59 28.5
-14 -11 -3 116.29 32.9
-11 25 -3 -27 13.3
25 -14 -3 11.8 12.9
14 11 3 20.1 17.5
-25 14 3 53.69 22.2
-14 -10 -3 272.67 43.2
24 -14 -3 192.28 23.1
-10 24 -3 176.28 27
14 10 3 168.88 31.3
-24 14 3 240.78 41.2
23 -14 -3 29.2 12.5
-9 23 -3 14.9 14.6
-14 -9 -3 21.4 23.6
14 9 3 30.9 18.2
-23 14 3 30.4 20.1
22 -14 -3 261.47 27.5
-8 22 -3 258.97 28.9
-14 -8 -3 206.58 42.9
-22 14 3 272.77 37.4
14 8 3 242.18 37.8
-7 21 -3 61.39 16.5
21 -14 -3 36.6 14.9
-14 -7 -3 -9.9 22.8
14 7 3 50.19 19.8
-21 14 3 46 18.1
-14 -6 -3 241.28 40.1
20 -14 -3 243.18 20
-6 20 -3 245.78 28
14 6 3 282.47 33.3
-20 14 3 224.28 30
-14 -5 -3 62.49 28.1
19 -14 -3 40.1 8.5
-5 19 -3 38.4 15.5
-19 14 3 50.29 17.6
14 5 3 54.29 31.2
-4 18 -3 244.48 26.4
-14 -4 -3 213.18 40.4
14 4 3 228.98 32.8
-18 14 3 232.48 37.3
-3 17 -3 124.89 21.9
-14 -3 -3 169.78 35.6
-17 14 3 128.39 21.3
14 3 3 121.59 26.3
-2 16 -3 634.54 43.8
-14 -2 -3 613.54 58.89
14 2 3 626.94 47.9
-16 14 3 618.74 40.6
2 -16 3 550.84 38.6
2 -16 3 608.44 33.3
-14 -1 -3 154.88 35.4
-1 15 -3 155.88 24
-15 14 3 193.68 22.1
-15 14 3 167.78 30.2
1 -15 3 172.58 23.8
14 1 3 168.78 27.4
1 -15 3 173.28 17.6
0 14 -3 555.34 42.1
-14 0 -3 524.95 56.29
14 0 3 624.64 46.9
0 -14 3 615.04 43.8
-14 14 3 615.64 51.09
0 -14 3 641.74 37.7
-14 14 3 654.53 39.4
1 13 -3 195.48 27.7
-14 1 -3 211.48 38.9
-13 14 3 247.48 35.5
-1 -13 3 192.88 28
14 -1 3 200.88 29.3
-1 -13 3 212.38 21.7
-13 14 3 238.48 20.7
-14 2 -3 683.03 59.99
2 12 -3 684.33 47.4
-12 14 3 653.63 38.6
-2 -12 3 663.43 47.4
-2 -12 3 639.54 41.3
-12 14 3 683.73 51.69
14 -2 3 727.23 48.8
-14 3 -3 240.68 39
3 11 -3 209.78 26.3
-11 14 3 203.28 31.8
-3 -11 3 196.58 28.3
-3 -11 3 185.88 21.8
-11 14 3 196.58 17.9
14 -3 3 217.28 28.2
-14 4 -3 678.23 59.49
4 10 -3 792.02 50.49
-4 -10 3 648.54 49.2
14 -4 3 672.63 48.4
-4 -10 3 695.93 44.3
-10 14 3 698.23 37.7
-10 14 3 685.23 51.99
-14 5 -3 131.69 30.6
5 9 -3 246.48 28.6
-5 -9 3 208.68 28.3
14 -5 3 194.88 25.8
-9 14 3 186.58 15.5
-9 14 3 155.28 25.8
-5 -9 3 176.68 23.4
6 8 -3 706.83 48.9
-14 6 -3 655.23 57.69
-8 14 3 684.73 51.19
-6 -8 3 781.22 50.79
-6 -8 3 714.23 45.8
-8 14 3 666.33 36
14 -6 3 744.43 48.6
7 7 -3 234.58 32.1
-14 7 -3 245.78 43.1
14 -7 3 250.07 28.3
-7 14 3 246.08 33.3
-7 -7 3 349.37 34
-7 -7 3 239.48 27.1
8 6 -3 702.33 49.9
-14 8 -3 831.42 69.09
-8 -6 3 720.93 51.69
14 -8 3 722.03 47.5
-8 -6 3 718.73 48.2
-6 14 3 613.54 71.59
14 -8 3 718.73 45.8
9 5 -3 201.98 29.2
14 -9 3 214.98 24.9
14 -9 3 215.48 26.2
-5 14 3 194.38 29.9
4 -14 -3 699.13 45.5
10 4 -3 837.22 52.99
-14 10 -3 689.63 67.69
-4 14 3 655.53 49.1
-10 -4 3 679.93 47.7
14 -10 3 747.83 47
14 -10 3 711.73 45.4
3 -14 -3 228.68 27.5
11 3 -3 219.68 29.1
-14 11 -3 247.88 37.5
14 -11 3 193.18 23.3
14 -11 3 238.78 25.2
-3 14 3 176.78 27.9
-11 -3 3 204.88 26
-14 12 -3 666.83 57.19
2 -14 -3 713.13 47.7
12 2 -3 704.73 50.89
-2 14 3 656.03 47.7
14 -12 3 699.23 43.3
14 -12 3 746.83 45.1
-12 -2 3 712.53 49.1
1 -14 -3 230.98 30.6
-14 13 -3 189.58 34.8
13 1 -3 190.78 29.9
14 -13 3 208.78 23.1
-1 14 3 228.48 29.1
-13 -1 3 247.48 28.5
14 -13 3 238.88 23.3
-14 14 -3 591.04 52.49
0 -14 -3 600.64 46.1
14 0 -3 641.64 48.8
-14 0 3 625.34 46.1
14 -14 3 613.44 38.2
15 -1 -3 146.29 26.9
-1 -14 -3 145.29 28
-14 15 -3 208.58 36.5
14 -15 3 205.68 20.1
-15 1 3 199.48 28.7
14 -15 3 153.58 18.4
-14 16 -3 640.54 53.29
-2 -14 -3 593.04 48.7
16 -2 -3 643.04 48.6
14 -16 3 566.04 34.2
14 -16 3 630.54 35.3
-16 2 3 584.14 46.9
17 -3 -3 139.09 26.7
-14 17 -3 147.09 32.8
-3 -14 -3 142.99 29.3
-17 3 3 113.49 24.2
14 -17 3 135.19 12.1
3 14 3 131.29 22.5
14 -17 3 123.79 15.5
-4 -14 -3 246.28 36.2
-14 18 -3 268.17 39.7
18 -4 -3 306.87 33.6
4 14 3 241.58 29.8
-18 4 3 282.47 33.4
19 -5 -3 51.79 19.5
-5 -14 -3 29.7 22.3
-14 19 -3 41.6 22.7
5 14 3 77.99 19.4
-19 5 3 27.8 17.1
-14 20 -3 300.87 40.2
20 -6 -3 256.37 35.6
-6 -14 -3 244.68 39.5
-20 6 3 261.67 37.6
6 14 3 278.07 32.1
-14 21 -3 29.7 20.2
-7 -14 -3 43 25.4
-14 21 -3 66.19 18
21 -7 -3 47.5 20
-21 7 3 46.8 19.9
7 14 3 70.09 20
-14 22 -3 251.67 34.6
-8 -14 -3 257.27 42.2
-14 22 -3 201.68 26.6
22 -8 -3 231.18 33.9
8 14 3 202.98 31.9
-22 8 3 228.28 37.3
-14 23 -3 3.8 13.8
-9 -14 -3 18.4 25.8
-14 23 -3 7 18.1
23 -9 -3 27 17.5
9 14 3 24.5 18.3
-23 9 3 -19.2 18.8
-14 24 -3 203.18 29.3
-14 24 -3 260.67 29.9
-10 -14 -3 145.49 36
24 -10 -3 180.68 29.3
10 14 3 202.38 32.4
-24 10 3 238.28 37.9
25 -11 -3 14.8 16.1
-11 -14 -3 20.1 24.9
-14 25 -3 -5.6 13.6
-25 11 3 -30.9 16.8
11 14 3 -9 15.4
26 -12 -3 123.49 24.6
-12 -14 -3 140.89 36.7
-14 26 -3 129.79 23.2
12 14 3 97.79 28.3
-13 -14 -3 65.49 29.3
27 -13 -3 7 15.8
-14 27 -3 5.4 13.6
13 14 3 -1.8 17.5
-14 28 -3 91.89 22.9
28 -14 -3 64.59 21
14 14 3 86.39 27.1
-13 28 -3 86.69 23
28 -15 -3 58.49 18.3
15 13 3 60.59 25.2
27 -15 -3 -4.8 13.2
-12 27 -3 21.5 16
15 12 3 -2.2 18.3
-11 26 -3 127.19 23.9
26 -15 -3 87.39 19.2
-26 15 3 182.68 34.6
15 11 3 84.79 26
25 -15 -3 5.2 12
-10 25 -3 -3.6 14.3
15 10 3 13.2 17.2
-25 15 3 51.59 23.4
-9 24 -3 104.99 22.1
24 -15 -3 109.49 20.1
-15 -9 -3 23.9 25
-24 15 3 90.39 27.9
15 9 3 117.99 26.3
-8 23 -3 -8.1 13.2
-15 -8 -3 46.2 24.2
15 8 3 9 16.1
-23 15 3 -12.5 16.1
22 -15 -3 115.39 15.2
-15 -7 -3 188.28 38.4
-7 22 -3 125.89 22.7
-22 15 3 175.98 29.3
15 7 3 152.28 30.5
-6 21 -3 5.4 12.7
-15 -6 -3 -25.5 18
21 -15 -3 3.6 6.3
15 6 3 5.8 15.8
-21 15 3 22.1 15.3
-5 20 -3 197.48 27.6
-15 -5 -3 132.59 38
15 5 3 91.59 24.9
-20 15 3 123.69 24.5
-4 19 -3 12 12.2
-15 -4 -3 -6.9 19
15 4 3 13.3 16.9
-19 15 3 -4.3 12
-3 18 -3 84.49 19.7
-15 -3 -3 136.49 36.8
15 3 3 94.69 24.4
-18 15 3 76.59 26.8
-15 -2 -3 24.2 24.9
-2 17 -3 -0.9 11.4
-17 15 3 10.1 12.2
15 2 3 10.2 14.6
-15 -1 -3 216.88 41.4
-1 16 -3 235.38 27.9
-16 15 3 219.38 24.9
-16 15 3 222.18 35.5
1 -16 3 241.68 19.3
1 -16 3 210.78 26.3
15 1 3 228.48 30.2
-15 0 -3 20.9 20.1
0 15 -3 -0.7 12
0 -15 3 -6.7 15.2
15 0 3 6.7 12.7
-15 15 3 -1.3 16.8
-15 15 3 20.4 11.8
0 -15 3 11.9 9
-15 1 -3 190.78 40.6
1 14 -3 163.58 25.3
-1 -14 3 163.88 25.6
-14 15 3 164.48 30.6
15 -1 3 171.08 27.2
-14 15 3 174.68 19.5
-1 -14 3 157.88 19.6
2 13 -3 27.6 15.5
-15 2 -3 0.4 20.4
15 -2 3 24.2 15.6
-13 15 3 50.59 12.2
-13 15 3 48.2 20.9
-2 -13 3 11.4 16.9
-2 -13 3 29.3 12.7
3 12 -3 178.68 27
-15 3 -3 152.78 31.6
-3 -12 3 166.38 20.8
15 -3 3 137.29 25.6
-12 15 3 158.98 17.1
-3 -12 3 161.88 27
-12 15 3 244.18 36.2
-15 4 -3 10.2 19
4 11 -3 37.2 16
15 -4 3 14.9 14.2
-4 -11 3 23.6 12.7
-11 15 3 26.7 17.7
-11 15 3 12.2 8.1
-4 -11 3 13.6 18.3
-15 5 -3 191.78 36.7
5 10 -3 132.89 23.7
-10 15 3 105.99 13.2
15 -5 3 104.89 21.5
-10 15 3 109.79 25.4
-5 -10 3 128.39 20.1
-5 -10 3 89.89 21.9
-15 6 -3 14.4 18.4
6 9 -3 52.59 18.3
-9 15 3 91.09 23.2
-6 -9 3 66.19 16.5
15 -6 3 50.79 18.1
-9 15 3 46.3 8.7
-6 -9 3 58.89 20.3
-15 7 -3 72.39 28.6
7 8 -3 53.39 18.7
-8 15 3 53.49 21.3
15 -7 3 62.39 17.9
-8 15 3 69.79 9.6
-7 -8 3 102.29 23.5
-7 -8 3 65.39 17
-15 8 -3 66.29 26.4
8 7 -3 79.79 20.3
-7 15 3 65.29 22.5
-8 -7 3 87.89 21.7
15 -8 3 59.69 17.2
-15 9 -3 45.1 24.2
9 6 -3 32 17.2
-6 15 3 44.6 23.5
15 -9 3 51.89 16.3
-9 -6 3 43.5 15.5
15 -9 3 60.29 16.3
10 5 -3 155.78 28.2
-15 10 -3 131.59 28.7
-10 -5 3 186.78 25.7
15 -10 3 121.89 21
15 -10 3 123.69 20.6
-5 15 3 145.09 26
-15 11 -3 11.2 17.2
11 4 -3 27 16.8
-11 -4 3 8.5 13.6
15 -11 3 5.4 11.6
-4 15 3 10 15.8
15 -11 3 12.7 12.8
12 3 -3 189.08 30.3
-15 12 -3 198.28 34.8
3 -15 -3 159.68 23
15 -12 3 217.18 24
15 -12 3 131.09 20.9
-12 -3 3 174.48 25.8
-3 15 3 139.09 25.6
2 -15 -3 36.4 16.7
-15 13 -3 20 27
13 2 -3 50.69 18.8
-2 15 3 32.2 15.9
-13 -2 3 19.8 14.4
15 -13 3 15.4 12
15 -13 3 18.6 12.7
1 -15 -3 160.98 25.6
14 1 -3 184.68 29.4
-15 14 -3 162.58 53.59
15 -14 3 150.28 20
-14 -1 3 160.98 26.2
15 -14 3 185.78 21.1
-1 15 3 115.29 23.7
0 -15 -3 -6.2 16.9
15 0 -3 0.5 15.4
-15 15 -3 16.3 21.6
15 -15 3 3.2 9.9
-15 0 3 4.6 14.1
16 -1 -3 251.97 33.5
-15 16 -3 221.78 35
-1 -15 -3 251.07 33.8
-16 1 3 199.88 31.6
15 -16 3 264.87 21.5
15 -16 3 245.18 21.3
-2 -15 -3 6.9 18.9
17 -2 -3 18.7 15.9
-15 17 -3 29 21.6
2 15 3 1.4 12.4
15 -17 3 1.4 6.9
-17 2 3 2.6 13.1
15 -17 3 8.4 7.7
18 -3 -3 60.99 20.4
-3 -15 -3 134.09 27.9
-15 18 -3 143.39 30.7
-18 3 3 79.49 22
3 15 3 74.49 19.9
-15 19 -3 3.4 22.2
-4 -15 -3 25.8 21.2
19 -4 -3 13.3 16.3
4 15 3 -18.2 12.7
-19 4 3 25.8 17.3
-15 20 -3 156.88 32.6
20 -5 -3 108.89 24.7
-20 5 3 108.89 24.5
5 15 3 154.08 25.3
-15 21 -3 -29 16.8
21 -6 -3 -5.8 14.5
-6 -15 -3 -12.6 19.7
6 15 3 -8.9 12.9
-21 6 3 11.3 17.1
-7 -15 -3 117.59 33.9
22 -7 -3 141.09 28.7
-15 22 -3 199.98 35.2
7 15 3 143.99 26.6
23 -8 -3 12.4 20
-15 23 -3 5.2 17.7
-8 -15 -3 3.5 21.9
-23 8 3 -9.3 17.2
-15 24 -3 131.19 26.3
-15 24 -3 144.19 23.3
-9 -15 -3 89.39 31.3
9 15 3 101.79 25.8
-24 9 3 182.38 33
-15 25 -3 17.6 15.5
-10 -15 -3 1.9 23.6
10 15 3 4.8 16.2
-25 10 3 49.9 27
-11 -15 -3 75.29 32.7
-15 26 -3 133.89 23.4
11 15 3 117.09 26.3
-15 27 -3 15.2 15.9
-12 -15 -3 21.8 27.8
12 15 3 16.8 19
-13 -15 -3 45.2 31.7
-15 28 -3 63.49 22.9
13 15 3 79.09 27
-12 28 -3 84.19 23.3
28 -16 -3 92.09 18.1
-16 -12 -3 38.4 30.6
16 12 3 48.1 37.3
-16 -11 -3 -12.9 28
27 -16 -3 -6.6 11.8
-11 27 -3 26.2 15.4
16 11 3 -12.9 16.5
-10 26 -3 181.78 26.9
-26 16 3 122.39 33.6
16 10 3 106.19 28.7
-9 25 -3 -1.2 14.4
25 -16 -3 15.6 14.7
-25 16 3 -4.9 34.7
16 9 3 47.1 22.5
24 -16 -3 190.98 17.9
-8 24 -3 250.87 30.1
-24 16 3 296.47 41.5
16 8 3 218.58 35.9
-7 23 -3 10.5 14.8
16 7 3 16.8 17.1
-23 16 3 1.3 17.6
-6 22 -3 224.48 31
-16 -6 -3 144.59 39.5
16 6 3 183.68 33
-22 16 3 268.37 35.5
-16 -5 -3 59.29 24.5
-5 21 -3 35.7 15.7
16 5 3 47.1 20.3
-21 16 3 75.39 21
-16 -4 -3 222.28 40.2
-4 20 -3 284.07 29.1
-20 16 3 299.07 32.3
16 4 3 258.77 34.1
-16 -3 -3 61.19 26.8
-3 19 -3 96.99 20.5
16 3 3 33.2 18.1
-19 16 3 117.29 21.1
-16 -2 -3 348.47 51.09
-2 18 -3 370.86 34.6
16 2 3 329.97 40.2
-18 16 3 336.17 32.1
-1 17 -3 154.48 24.1
-16 -1 -3 137.19 37.2
-17 16 3 130.39 29.4
1 -17 3 132.79 13.8
16 1 3 153.18 27.9
-17 16 3 122.99 20.5
0 16 -3 516.25 41.3
-16 0 -3 417.06 53.99
0 -16 3 605.14 39.9
16 0 3 565.74 45.9
-16 16 3 540.65 37.7
-16 16 3 498.45 48.4
0 -16 3 539.25 32.6
1 15 -3 309.57 31.2
-16 1 -3 183.58 37.1
-1 -15 3 224.98 29.8
16 -1 3 224.68 29.4
-15 16 3 211.38 34.9
-15 16 3 248.48 24.3
-1 -15 3 257.37 22.3
2 14 -3 596.64 45.2
-16 2 -3 536.75 57.09
-14 16 3 540.95 49.1
-2 -14 3 582.74 44
-2 -14 3 597.94 38.2
16 -2 3 596.74 46.7
-14 16 3 604.34 36.9
-16 3 -3 175.58 38.3
3 13 -3 216.98 30.1
16 -3 3 188.98 29.1
-3 -13 3 193.48 28.6
-3 -13 3 223.78 23.4
-13 16 3 178.58 18.6
-13 16 3 211.68 33.1
4 12 -3 581.44 44.9
-16 4 -3 558.54 56.19
-12 16 3 574.34 33.6
-12 16 3 596.44 48.8
16 -4 3 590.44 45.4
-4 -12 3 543.85 39.3
-4 -12 3 578.14 46
5 11 -3 270.27 29.8
-16 5 -3 316.77 42.2
-11 16 3 215.78 17.8
-5 -11 3 215.28 31
-5 -11 3 228.18 25.4
-11 16 3 244.28 33.3
16 -5 3 165.18 27.6
-16 6 -3 609.94 58.49
6 10 -3 674.73 47.9
-6 -10 3 703.53 45
-10 16 3 583.14 33.7
16 -6 3 663.03 47.3
-10 16 3 600.34 49.8
-6 -10 3 656.13 49.2
7 9 -3 200.88 29.8
-16 7 -3 244.18 42
-9 16 3 272.77 35.2
-7 -9 3 256.47 32.1
-7 -9 3 312.37 34.6
16 -7 3 271.57 30.1
-9 16 3 231.88 17
-16 8 -3 590.64 56.59
8 8 -3 663.43 48
-8 16 3 560.94 47.2
16 -8 3 614.74 44.4
-8 -8 3 637.14 45
-8 -8 3 533.55 47.2
9 7 -3 245.88 31.2
-16 9 -3 204.58 36.8
16 -9 3 306.57 35.4
-9 -7 3 257.57 35.4
-9 -7 3 277.47 29.3
-7 16 3 235.38 47.3
16 -9 3 288.87 29.5
10 6 -3 748.83 51.69
-16 10 -3 593.54 57.29
16 -10 3 599.14 44.1
-10 -6 3 699.73 46.9
-6 16 3 522.55 47.3
16 -10 3 655.03 45.2
11 5 -3 262.17 35.7
-16 11 -3 244.88 42.4
-5 16 3 282.27 32.3
-11 -5 3 248.88 29.9
16 -11 3 237.98 26.8
16 -11 3 283.37 27.8
12 4 -3 714.03 49.99
-16 12 -3 482.55 52.99
16 -12 3 558.34 40.6
-4 16 3 566.54 43.5
16 -12 3 569.34 39.9
-12 -4 3 558.24 44.4
13 3 -3 204.68 30.9
-16 13 -3 232.78 38.8
3 -16 -3 192.28 25
-13 -3 3 159.08 27.4
-3 16 3 184.88 26.9
16 -13 3 192.98 23
16 -13 3 120.69 20
2 -16 -3 620.14 43.3
-16 14 -3 548.45 54.49
14 2 -3 645.64 50.09
-2 16 3 624.94 43.9
16 -14 3 684.83 41.7
16 -14 3 591.24 39.8
-14 -2 3 564.84 46.6
15 1 -3 305.17 35
1 -16 -3 220.78 30.1
-16 15 -3 311.27 41.8
16 -15 3 291.27 25.5
16 -15 3 238.48 23.8
-15 -1 3 250.67 31.8
0 -16 -3 540.75 42
-16 16 -3 443.26 49.3
16 0 -3 514.75 46.3
16 -16 3 500.25 32.7
16 -16 3 535.15 34.4
-16 0 3 508.15 44.6
17 -1 -3 175.28 30.6
-16 17 -3 129.19 31.8
-1 -16 -3 139.59 26.1
1 16 3 155.18 22.7
16 -17 3 119.59 15.1
16 -17 3 159.78 16
18 -2 -3 361.96 39.3
-2 -16 -3 319.97 37.3
2 16 3 430.56 35
-16 19 -3 104.69 32.7
-3 -16 -3 74.49 24.8
19 -3 -3 85.99 23.6
3 16 3 79.49 19.1
20 -4 -3 359.26 50.09
-4 -16 -3 297.27 39.4
-16 20 -3 316.67 47.1
-20 4 3 313.57 37.5
4 16 3 305.37 33
-16 21 -3 62.39 24.5
-5 -16 -3 65.39 26.1
-21 5 3 69.29 31.5
5 16 3 34.3 16.4
22 -6 -3 272.37 35.8
-6 -16 -3 227.38 37.6
-16 22 -3 223.48 37.1
-22 6 3 294.97 41.3
6 16 3 232.58 33.9
23 -7 -3 48.2 21.9
-16 23 -3 56.29 24.9
-7 -16 -3 36.3 24.8
-23 7 3 -13.4 18.2
7 16 3 31.1 18.5
-8 -16 -3 198.78 40.1
24 -8 -3 205.08 33.1
-16 24 -3 238.98 35.1
8 16 3 195.58 33.2
-24 8 3 255.37 42.2
-9 -16 -3 -0.1 23.9
-16 25 -3 53.19 22.9
25 -9 -3 -7.4 17.5
9 16 3 -9.9 15
-10 -16 -3 112.29 35.8
26 -10 -3 182.48 31.7
10 16 3 80.59 25.5
27 -11 -3 12.9 18.6
-11 -16 -3 23.7 30.2
11 16 3 30.7 20.4
28 -12 -3 55.39 23.1
-12 -16 -3 52.59 34.5
12 16 3 115.49 29.2
-17 -11 -3 76.69 35
-11 28 -3 72.89 29.8
17 11 3 69.79 39
27 -17 -3 7.6 10.4
-10 27 -3 7.3 14.7
-17 -10 -3 18.8 26.4
17 10 3 -8.4 16.8
-9 26 -3 135.09 25.5
-17 -9 -3 150.28 45.2
-26 17 3 198.88 34.9
17 9 3 70.09 25.7
-8 25 -3 -3.5 14.7
-17 -8 -3 7.4 28.5
17 8 3 13.4 18.4
-17 -7 -3 144.09 60.99
-7 24 -3 154.58 26.2
-24 17 3 141.49 29.9
17 7 3 103.09 27.4
-6 23 -3 13.1 14.5
17 6 3 13.8 16.2
-23 17 3 49.4 20.4
-5 22 -3 112.89 22.3
-22 17 3 116.39 25.9
17 5 3 100.89 24.3
-4 21 -3 25.3 14.2
-21 17 3 0.8 14.3
17 4 3 12 16.4
-3 20 -3 142.69 23.9
-17 -3 -3 178.08 40.6
-20 17 3 147.39 25.8
17 3 3 127.39 27
-2 19 -3 4.5 12.1
-17 -2 -3 20.1 20.5
17 2 3 -4.9 15
-1 18 -3 156.78 25.5
-17 -1 -3 159.68 34.2
-18 17 3 147.69 30.8
-18 17 3 184.38 25.2
17 1 3 174.68 30.3
0 17 -3 -1.5 13.1
-17 0 -3 7.3 22.2
-17 17 3 9.1 11.5
-17 17 3 1.2 18
17 0 3 7.8 24.3
0 -17 3 18 8.8
-17 1 -3 109.59 34.1
1 16 -3 147.29 25.2
-1 -16 3 130.49 22.7
17 -1 3 100.39 25.5
-16 17 3 155.88 21.9
-1 -16 3 137.69 17.7
-16 17 3 164.58 30.1
-17 2 -3 4.1 18.9
2 15 -3 -8.9 11.5
-15 17 3 6.8 17.2
-2 -15 3 27.8 17.2
17 -2 3 6.5 14.5
-15 17 3 29.6 11.5
-2 -15 3 3 10
-17 3 -3 161.38 34.5
3 14 -3 106.79 22.9
-3 -14 3 148.09 20.5
-14 17 3 137.59 18
-14 17 3 132.69 26.9
17 -3 3 132.29 24.8
-3 -14 3 167.18 25.6
-17 4 -3 10.9 21
4 13 -3 1.5 12.8
17 -4 3 6.3 14.8
-13 17 3 14.8 9.3
-4 -13 3 7.2 11.5
-13 17 3 -4.4 17
-4 -13 3 24.6 18.4
5 12 -3 112.79 23.4
-17 5 -3 49.8 28.6
17 -5 3 106.09 22.9
-5 -12 3 154.88 26.6
-12 17 3 118.49 26.4
-12 17 3 105.59 14
-5 -12 3 132.39 20.9
-17 6 -3 -0.7 21.6
6 11 -3 1.6 13
-11 17 3 25.2 8.3
-11 17 3 16.8 19.7
17 -6 3 11.8 14.8
-6 -11 3 44.2 19.7
-6 -11 3 9.5 12.1
7 10 -3 103.29 22.7
-17 7 -3 64.49 28.2
-7 -10 3 59.79 22.4
-10 17 3 52.89 21.1
17 -7 3 90.59 19.5
-10 17 3 72.19 10.1
-17 8 -3 39 22.6
8 9 -3 61.19 18.8
17 -8 3 13.5 14
-9 17 3 33.3 7.5
-8 -9 3 52.89 15.9
-9 17 3 30.1 18.8
-8 -9 3 33.5 18.9
9 8 -3 29.6 17.2
-17 9 -3 31.3 23.7
17 -9 3 28.1 15.9
-9 -8 3 29.4 15.8
-9 -8 3 37.4 19.2
-8 17 3 16 17.8
10 7 -3 62.89 20.6
-17 10 -3 71.29 27.7
17 -10 3 72.59 19.2
-10 -7 3 85.49 20.4
17 -10 3 59.39 16.5
-7 17 3 79.59 43.6
11 6 -3 20.2 16
-17 11 -3 3.5 20.1
17 -11 3 -1.2 21.6
17 -11 3 21.5 13.7
-6 17 3 37.2 18.4
-11 -6 3 18.2 15.1
12 5 -3 104.59 22.9
-17 12 -3 121.49 32.6
17 -12 3 100.69 19.9
17 -12 3 98.29 19.9
-5 17 3 142.09 25.1
-12 -5 3 109.99 22.1
-17 13 -3 20.1 22.8
13 4 -3 45.2 18.5
-13 -4 3 -6.3 12.2
-4 17 3 36.2 16.8
17 -13 3 28.1 14.7
17 -13 3 21.4 13.3
14 3 -3 140.49 29.1
-17 14 -3 182.58 37.8
-14 -3 3 124.89 25
17 -14 3 175.98 23
-3 17 3 137.19 23
17 -14 3 181.28 23.6
-17 15 -3 6.9 18.8
15 2 -3 18.1 17.7
2 -17 -3 -8.4 12.2
-15 -2 3 5.5 14.3
17 -15 3 -2.8 9.9
17 -15 3 5.8 11.2
16 1 -3 184.78 32.4
-17 16 -3 141.19 32.6
1 -17 -3 114.89 22.2
17 -16 3 135.09 18.7
-16 -1 3 138.99 25.9
17 0 -3 4.5 15.7
0 -17 -3 25 16.8
-17 17 -3 16.2 20.8
0 17 3 32.6 14.5
17 -17 3 23.1 10.2
17 -17 3 19.8 10
-17 18 -3 136.19 33.7
-1 -17 -3 163.78 28.1
1 17 3 157.88 23.3
17 -18 3 159.48 16
17 -18 3 154.18 13.8
-2 -17 -3 -11.4 15.8
-17 19 -3 -3.3 18.6
19 -2 -3 12.7 18.9
2 17 3 34.8 16
20 -3 -3 189.48 32.8
-17 20 -3 118.79 33.9
-3 -17 -3 195.08 31.5
3 17 3 154.28 24.7
21 -4 -3 43.3 20.7
-4 -17 -3 0.9 19.4
-17 21 -3 40.8 31.6
-21 4 3 16.5 19.5
4 17 3 -8.2 11.8
-5 -17 -3 157.08 33.3
22 -5 -3 93.59 26.4
-17 22 -3 156.68 35.1
5 17 3 111.19 24.1
-22 5 3 158.98 31
23 -6 -3 -6.3 16.5
-6 -17 -3 1.9 20.7
-17 23 -3 -5.5 19.6
6 17 3 -3.8 13.8
-23 6 3 30.5 20.9
-7 -17 -3 110.29 40.8
24 -7 -3 140.29 28.9
-17 24 -3 191.28 34.3
-24 7 3 179.08 53.79
7 17 3 141.29 26.9
25 -8 -3 18 17.7
-17 25 -3 26.5 20.2
-8 -17 -3 37.6 24.8
8 17 3 1.3 13.8
-17 26 -3 91.79 25.6
26 -9 -3 129.69 28.8
-9 -17 -3 66.99 30.8
9 17 3 57.19 21.9
27 -10 -3 -2.7 19.6
-10 -17 -3 -8.9 25.9
10 17 3 9 18.2
-11 -17 -3 89.59 33.3
28 -11 -3 115.99 28.2
11 17 3 90.29 28.1
-18 -10 -3 33.2 37.7
18 10 3 37.7 22.4
-18 -9 -3 2.9 32.7
-9 27 -3 56.49 21.3
-27 18 3 64.59 29.4
18 9 3 41.1 34
-8 26 -3 154.08 27.9
-18 -8 -3 25.7 29.9
-26 18 3 210.48 36.5
18 8 3 116.99 30.9
-7 25 -3 3.4 16.7
-18 -7 -3 -16.9 28
-25 18 3 37 26.8
18 7 3 20.3 19.3
-18 -6 -3 166.98 38.5
-6 24 -3 180.38 29.6
18 6 3 142.99 32.2
-24 18 3 246.58 38.1
-5 23 -3 51.79 18.8
-18 -5 -3 148.19 54.79
-23 18 3 65.19 23.3
18 5 3 73.49 26.2
-18 -4 -3 190.08 57.29
-4 22 -3 224.88 27.9
18 4 3 197.28 34.9
-22 18 3 277.17 37.3
-3 21 -3 107.39 21.4
18 3 3 47.6 20.9
-21 18 3 79.19 20.5
-2 20 -3 294.47 33.3
-20 18 3 304.37 32.6
18 2 3 329.37 37.3
-1 19 -3 117.49 23.1
-19 18 3 26.4 22.4
18 1 3 95.19 22.6
-19 18 3 79.59 21.8
0 18 -3 271.17 31.3
-18 0 -3 240.48 46.7
-18 18 3 225.28 36.9
-18 18 3 246.38 27.5
18 0 3 293.37 35.3
1 17 -3 146.79 26.4
-18 1 -3 214.18 44.5
-17 18 3 164.38 32.2
-17 18 3 168.08 22
-1 -17 3 173.28 18.1
-1 -17 3 167.78 23.3
18 -1 3 139.79 27.3
-18 2 -3 358.26 48.1
2 16 -3 331.57 34.5
-2 -16 3 328.97 26.4
-16 18 3 325.37 28
-2 -16 3 322.47 32.8
-16 18 3 349.37 41.4
3 15 -3 88.49 21.1
-18 3 -3 146.79 37.5
18 -3 3 110.99 25
-15 18 3 114.59 16.9
-3 -15 3 133.49 18.9
-15 18 3 141.89 30.6
-3 -15 3 108.69 23
4 14 -3 237.58 29.8
-18 4 -3 212.38 48.3
-14 18 3 251.57 21.5
18 -4 3 250.07 33
-4 -14 3 245.88 25.2
-14 18 3 274.77 36.5
-4 -14 3 241.58 36.5
-18 5 -3 32.4 26
5 13 -3 84.49 21
-5 -13 3 49.8 20.5
-5 -13 3 53.09 16.1
18 -5 3 62.49 19.1
-13 18 3 109.89 14
-13 18 3 63.89 23.4
6 12 -3 276.57 32.1
-18 6 -3 182.48 35.3
-12 18 3 326.97 37.6
-12 18 3 232.58 18.9
18 -6 3 258.87 32.4
-6 -12 3 296.97 34.8
-6 -12 3 264.37 28.3
-18 7 -3 61.39 24.3
7 11 -3 66.79 20.5
-7 -11 3 90.89 22.9
-11 18 3 103.89 11.9
-11 18 3 85.89 25.3
-7 -11 3 75.69 20.2
18 -7 3 57.99 18.4
-18 8 -3 246.88 43.3
8 10 -3 275.97 33.1
-10 18 3 262.07 35.4
-8 -10 3 289.27 35.8
-10 18 3 238.68 17
-8 -10 3 219.68 26.8
18 -8 3 292.37 31.5
-18 9 -3 47 25.5
9 9 -3 78.39 22.4
18 -9 3 91.29 20.5
-9 18 3 116.79 23.2
-9 -9 3 20.9 14.6
-9 -9 3 67.69 23.1
10 8 -3 271.97 33.2
-18 10 -3 241.58 38.8
18 -10 3 251.07 28.9
-10 -8 3 267.87 35.6
18 -10 3 278.87 31
-8 18 3 294.87 44.6
-10 -8 3 175.28 28.1
11 7 -3 86.39 24.4
-18 11 -3 96.39 31.6
-11 -7 3 73.39 20.7
-7 18 3 51.29 21.3
18 -11 3 72.09 17.7
18 -11 3 86.19 19.4
-18 12 -3 249.18 45.8
12 6 -3 290.67 35.4
18 -12 3 307.27 48.1
18 -12 3 293.47 30.8
-12 -6 3 227.48 30.7
-6 18 3 272.57 31.8
13 5 -3 89.69 24.3
-18 13 -3 54.29 26.2
-5 18 3 79.39 19.7
18 -13 3 101.89 18.8
18 -13 3 63.69 17.1
-13 -5 3 85.89 21.3
-18 14 -3 226.68 41.6
14 4 -3 289.97 39.5
18 -14 3 301.87 28.2
-4 18 3 231.18 29.3
-14 -4 3 234.58 31.3
18 -14 3 257.17 27.5
-18 15 -3 98.49 30.9
15 3 -3 82.39 26.4
18 -15 3 113.19 19.1
18 -15 3 108.59 18.8
-15 -3 3 114.89 24.5
2 -18 -3 394.56 32
-18 16 -3 348.77 47.3
-16 -2 3 347.27 37.8
18 -16 3 383.76 29.8
18 -16 3 382.96 29.7
17 1 -3 115.79 27.1
1 -18 -3 168.58 23.8
-18 17 -3 86.29 30.9
-17 -1 3 183.88 30.3
18 -17 3 147.29 19
18 0 -3 277.87 39.2
-18 18 -3 303.57 48.6
0 -18 -3 250.47 29.1
18 -18 3 260.47 20.3
18 -18 3 245.08 19.5
0 18 3 230.58 26.9
19 -1 -3 95.79 26
-1 -18 -3 74.39 21.6
-18 19 -3 71.39 29.1
1 18 3 59.59 17.3
20 -2 -3 306.67 42
-2 -18 -3 273.57 33.4
-18 20 -3 248.98 42.8
2 18 3 302.27 31.5
21 -3 -3 57.49 23.6
-3 -18 -3 55.59 19.9
-18 21 -3 26.2 25
3 18 3 54.49 17.5
-4 -18 -3 290.97 36.4
-18 22 -3 243.78 45.1
22 -4 -3 238.58 38.1
-22 4 3 220.88 38.4
4 18 3 265.87 32.3
-5 -18 -3 74.29 26.2
-18 23 -3 72.99 27.8
23 -5 -3 40.5 23.7
-23 5 3 95.09 26
5 18 3 70.09 20
-18 24 -3 88.59 48.4
24 -6 -3 164.28 32.7
-6 -18 -3 190.08 35.4
6 18 3 162.78 41
-18 25 -3 69.79 27.5
25 -7 -3 44.4 23
-7 -18 -3 13 27.2
7 18 3 35.2 19.2
-18 26 -3 188.38 34.2
26 -8 -3 162.08 31.1
-8 -18 -3 173.28 36.2
8 18 3 127.99 28.6
-18 27 -3 33 22.1
27 -9 -3 33.5 21.3
-9 -18 -3 42.9 30.7
9 18 3 22.7 19.5
28 -10 -3 97.79 27.1
-10 -18 -3 45.5 30.4
10 18 3 75.19 25.4
-9 28 -3 41.2 25.5
19 9 3 48.5 24.8
-27 19 3 37.4 25.7
-7 26 -3 89.69 27.4
-19 -7 -3 47.1 36.3
19 7 3 70.79 26.8
-26 19 3 77.29 26.2
-19 -6 -3 41.2 30.3
-6 25 -3 -4.2 16.6
19 6 3 39.7 21.9
-25 19 3 31.3 22.7
-19 -5 -3 122.29 34.3
-5 24 -3 84.49 22.4
-24 19 3 155.88 29.2
19 5 3 87.39 25.6
-4 23 -3 21.6 14.1
-19 -4 -3 46.8 30.8
-23 19 3 -5.7 17
19 4 3 -13.4 16.4
-19 -3 -3 171.48 40.6
-3 22 -3 131.39 25.2
19 3 3 179.58 33.1
-22 19 3 205.98 30.3
-2 21 -3 -2.3 14.2
-19 -2 -3 -38.2 38.1
19 2 3 22.8 17.6
-21 19 3 -30.9 14.2
-19 -1 -3 119.89 45.7
-1 20 -3 129.79 24.3
-20 19 3 113.59 22.9
-20 19 3 102.49 29.6
19 1 3 72.79 24.3
0 19 -3 17.6 15.1
-19 19 3 9.5 13.8
19 0 3 -3.1 14.7
-19 19 3 14.6 18.9
1 18 -3 113.89 23.5
-18 19 3 63.79 16.7
-18 19 3 39.2 21.2
19 -1 3 73.29 21.7
2 17 -3 13.2 14.3
-2 -17 3 0 10
19 -2 3 -2.6 13.3
-17 19 3 2.9 10.1
-17 19 3 14.5 19.5
-2 -17 3 -11.5 15
3 16 -3 91.99 21.9
-19 3 -3 127.19 42.1
-3 -16 3 60.09 14.3
-16 19 3 96.49 16.6
-16 19 3 92.89 26
-3 -16 3 58.79 19.6
19 -3 3 62.79 21
4 15 -3 4.3 14.6
-15 19 3 15.1 9.6
-15 19 3 -31 16
-4 -15 3 -8.6 10.5
5 14 -3 73.29 20.8
-14 19 3 31.1 10.6
-14 19 3 31.8 21.5
-5 -14 3 75.49 22.1
-5 -14 3 30.1 14
19 -5 3 59.89 19.2
6 13 -3 21.1 16.2
-13 19 3 36 20
-6 -13 3 8.5 17.5
19 -6 3 7.5 14.2
-6 -13 3 -4.7 12.6
-13 19 3 6.1 7.7
-19 7 -3 47.9 26.6
7 12 -3 64.89 21.4
-7 -12 3 39.8 20.9
-12 19 3 64.19 23.2
-7 -12 3 45.6 17
-12 19 3 57.59 9.8
19 -7 3 23.6 16.8
8 11 -3 25.5 17.4
-19 8 -3 27 24.5
-11 19 3 12.6 19.4
19 -8 3 30.8 16.4
-8 -11 3 17.4 18.1
-8 -11 3 15.7 14.6
-11 19 3 22.9 7.3
-19 9 -3 13 21.1
9 10 -3 42.6 19.2
-10 19 3 9 18.4
19 -9 3 57.09 19.5
-9 -10 3 39.2 21.3
-9 -10 3 67.89 19
-10 19 3 39.2 7.9
-19 10 -3 26.9 22.7
10 9 -3 32.7 18.6
-9 19 3 34.2 19.8
19 -10 3 55.49 18
-10 -9 3 39.4 22
-10 -9 3 59.79 18.5
11 8 -3 32.3 19.5
-19 11 -3 34.8 22.9
19 -11 3 36.8 16.9
-11 -8 3 25.9 16
19 -11 3 30.7 15.7
12 7 -3 27 19.2
-19 12 -3 2.1 22.1
19 -12 3 45.8 16.6
-12 -7 3 30.9 16.8
-7 19 3 35 18.7
19 -12 3 39.6 17
-19 13 -3 -1.9 20.5
-13 -6 3 8 15
-6 19 3 19.5 14.6
19 -13 3 24.8 14.6
19 -13 3 21.8 15.3
14 5 -3 59.39 34.4
-19 14 -3 24.1 23.2
19 -14 3 32.6 15.7
19 -14 3 38.8 14.9
-5 19 3 53.69 17.3
-14 -5 3 62.19 19.5
-19 15 -3 -7.2 19.6
15 4 -3 11.7 17.5
19 -15 3 29.7 13.5
-15 -4 3 -16.7 11.8
19 -15 3 11.2 12.1
16 3 -3 49.99 23
-19 16 -3 53.69 28.1
-16 -3 3 99.89 22
19 -16 3 86.09 16.8
19 -16 3 83.49 17.1
-19 17 -3 43.6 23.1
17 2 -3 32.2 20.6
19 -17 3 4.9 10.3
19 -17 3 10.2 13.3
1 -19 -3 56.49 16
-19 18 -3 59.49 26.9
18 1 -3 58.99 23.1
-1 19 3 66.69 17.3
19 -18 3 63.09 12
19 -18 3 80.19 13.5
-19 19 -3 -14.8 21.3
19 0 -3 3.3 17.6
0 -19 -3 16 15.3
0 19 3 -10.8 11.7
-19 20 -3 69.69 28.9
20 -1 -3 131.69 30.8
-1 -19 -3 106.79 22.2
1 19 3 110.29 21.3
-2 -19 -3 -9.7 16.2
-19 21 -3 -9.9 20.2
21 -2 -3 17.6 19.1
-21 2 3 29 28.8
2 19 3 0.2 13.7
22 -3 -3 140.09 30.2
-3 -19 -3 150.28 27.2
-19 22 -3 135.99 34.9
3 19 3 125.69 23.9
-22 3 3 54.59 25.4
23 -4 -3 21.2 20.5
-19 23 -3 58.69 25.8
-4 -19 -3 -3 17.3
4 19 3 31.8 17.8
-5 -19 -3 121.09 29.2
24 -5 -3 167.88 33.7
-19 24 -3 120.39 32.8
-6 -19 -3 42.2 22.4
-19 25 -3 15.4 23.5
25 -6 -3 -3.1 19.1
6 19 3 -11.2 15.4
26 -7 -3 69.79 25.7
-7 -19 -3 68.19 27.8
7 19 3 92.89 25.4
27 -8 -3 -16.2 19.6
-8 -19 -3 -7.2 24.6
-19 27 -3 6.8 22
8 19 3 -17.4 17.1
28 -9 -3 48.8 24.3
-19 28 -3 81.39 28.2
-9 -19 -3 40.2 27.5
9 19 3 48.9 24
-7 27 -3 10 19.9
20 7 3 54.09 22.8
-27 20 3 14 26.8
-26 20 3 187.78 47.6
20 6 3 88.49 39
-20 -5 -3 56.29 36.3
-25 20 3 58.69 27.3
20 5 3 95.29 28.1
-4 24 -3 107.89 26.7
-20 -4 -3 109.39 37.1
20 4 3 141.99 32.9
-24 20 3 215.48 35.5
-3 23 -3 52.29 18.7
-20 -3 -3 62.09 29
-23 20 3 92.79 25.9
20 3 3 61.99 23.9
-2 22 -3 232.58 30.2
-20 -2 -3 179.48 39.6
-22 20 3 164.08 37.2
20 2 3 173.78 32
-22 20 3 253.77 35.1
-20 -1 -3 44 26.7
-1 21 -3 66.69 20.7
-21 20 3 40.3 38.5
20 1 3 66.29 22.8
-21 20 3 38.4 18.2
-20 0 -3 283.07 51.89
0 20 -3 208.98 30.9
20 0 3 194.78 32.1
-20 20 3 200.68 40.3
-20 20 3 186.08 38.9
-20 1 -3 163.98 48.8
1 19 -3 108.59 23.3
-19 20 3 146.79 33.6
20 -1 3 98.29 25.4
-19 20 3 87.29 19.7
2 18 -3 286.77 34.2
-2 -18 3 257.17 22.3
-18 20 3 258.67 39.7
20 -2 3 321.27 37.5
-18 20 3 323.27 28.3
3 17 -3 158.88 28.7
-17 20 3 151.98 32.3
-3 -17 3 141.19 25
20 -3 3 108.69 26.8
-3 -17 3 166.18 20.2
-17 20 3 209.38 21.8
4 16 -3 271.07 34.1
-4 -16 3 266.87 38.7
20 -4 3 324.77 36.3
-16 20 3 330.07 43.5
-16 20 3 284.37 24.6
-4 -16 3 253.67 25.9
5 15 -3 163.78 28.7
-5 -15 3 131.19 20.4
-15 20 3 77.89 26.2
-5 -15 3 149.88 26.6
-15 20 3 148.69 16.8
20 -5 3 121.59 26.6
6 14 -3 261.87 32.1
-14 20 3 218.08 19.9
-6 -14 3 261.37 34.2
-6 -14 3 329.57 35.2
-14 20 3 243.48 36.2
7 13 -3 134.69 27.7
-7 -13 3 174.38 30.1
20 -7 3 130.59 25.5
-13 20 3 120.39 28.9
-13 20 3 139.09 14.9
-7 -13 3 151.68 23.2
8 12 -3 287.67 34.8
-20 8 -3 366.06 57.89
20 -8 3 345.57 37.1
-12 20 3 293.17 37.9
-8 -12 3 325.17 31.5
-8 -12 3 278.27 37.1
-12 20 3 294.07 20.1
9 11 -3 126.79 28.8
-20 9 -3 117.59 32
-9 -11 3 145.19 24.9
20 -9 3 152.48 25.8
-9 -11 3 139.89 29.1
-11 20 3 137.19 12.7
-11 20 3 134.79 28.3
-20 10 -3 244.78 41
-10 20 3 251.07 17.9
-10 20 3 312.47 35.2
20 -10 3 318.67 32.8
-10 -10 3 307.17 33
-10 -10 3 290.27 38.5
11 9 -3 167.78 45.9
-20 11 -3 127.59 38.1
-11 -9 3 105.39 23.7
20 -11 3 102.79 22.7
-11 -9 3 104.69 26.6
-9 20 3 130.19 41.4
20 -11 3 115.69 23.2
12 8 -3 343.57 39.5
-20 12 -3 201.18 40.2
-8 20 3 299.07 33.1
20 -12 3 302.97 31
-12 -8 3 335.57 35
20 -12 3 289.57 31.8
13 7 -3 170.58 31.5
-20 13 -3 222.88 42.5
-13 -7 3 115.99 25.6
-7 20 3 126.49 22.9
20 -13 3 131.49 22.7
20 -13 3 129.39 21.6
14 6 -3 297.67 38
-20 14 -3 311.67 50.39
20 -14 3 267.17 29.3
-6 20 3 261.87 28.2
20 -14 3 245.58 29.3
-14 -6 3 278.17 35.2
-20 15 -3 157.78 37.9
15 5 -3 77.99 24.5
20 -15 3 92.39 21.7
-5 20 3 163.28 21.8
-15 -5 3 116.79 23.4
20 -15 3 162.68 23
16 4 -3 359.96 41.2
-20 16 -3 267.87 48.2
20 -16 3 315.17 29.6
20 -16 3 322.47 29.6
-20 17 -3 157.68 36.6
17 3 -3 148.39 31.3
20 -17 3 154.48 21
20 -17 3 173.18 21.5
-20 18 -3 280.57 47.3
18 2 -3 316.37 45.8
-2 20 3 378.16 30.5
20 -18 3 285.97 25.5
19 1 -3 74.29 26.3
-20 19 -3 133.09 32.2
-1 20 3 133.59 20.9
20 -19 3 122.09 14.4
-19 -1 3 131.29 30.4
20 -19 3 114.69 13.4
0 -20 -3 249.58 25.5
-20 20 -3 166.28 37.4
20 0 -3 176.48 35.8
0 20 3 210.28 26.9
-20 0 3 210.98 37.6
-1 -20 -3 35.4 16.5
-20 21 -3 28.6 26.7
21 -1 -3 89.49 27.6
-21 1 3 19.4 20.7
22 -2 -3 224.18 38.7
-2 -20 -3 227.58 28.2
-20 22 -3 204.28 42.6
-22 2 3 179.28 39.1
2 20 3 201.68 29.4
23 -3 -3 79.29 28.7
-3 -20 -3 71.49 21.5
-20 23 -3 36.5 26.8
3 20 3 54.39 19.3
-4 -20 -3 206.58 30.9
-20 24 -3 172.58 38.8
24 -4 -3 163.88 35.1
4 20 3 136.49 29.4
-20 25 -3 33 25.5
25 -5 -3 50.59 25.6
-5 -20 -3 21.1 21
5 20 3 85.19 23.8
26 -6 -3 99.99 29.2
-20 26 -3 105.99 32.8
-6 -20 -3 151.18 29.9
6 20 3 131.89 26.6
27 -7 -3 56.09 27.2
-7 -20 -3 -0.5 21.9
-20 27 -3 44.2 32.5
7 20 3 13.8 19
-6 27 -3 9.1 19.9
21 6 3 5.3 20.4
-27 21 3 23.4 26.1
-5 26 -3 39.5 22
21 5 3 64.89 39.6
-4 25 -3 7.4 14.4
21 4 3 23 18.7
-25 21 3 -34.4 19.6
-3 24 -3 85.79 29.7
21 3 3 101.89 28.3
-24 21 3 64.49 26.6
-21 -2 -3 -7.2 23.4
-23 21 3 17.1 18.5
-23 21 3 24.4 20.6
21 2 3 -17.7 14.7
-21 -1 -3 73.59 33.3
21 1 3 60.09 23
-22 21 3 29.3 19.2
-22 21 3 60.59 27.6
-21 0 -3 0 28
-21 21 3 50.99 17.7
21 0 3 -12.7 14
-21 1 -3 35.9 27.5
21 -1 3 98.79 26.6
-20 21 3 70.69 26.8
-21 2 -3 37.2 26.9
2 19 -3 26.7 27
-19 21 3 16.9 20.4
-19 21 3 25.3 14.3
21 -2 3 3.1 16.8
-21 3 -3 2.8 25.9
3 18 -3 30.9 28.9
-18 21 3 59.19 15.9
-3 -18 3 39.6 17.3
-3 -18 3 83.79 14.8
-18 21 3 29 24.7
21 -3 3 99.19 26
-21 4 -3 -19.8 19.7
4 17 -3 -46.2 22.2
21 -4 3 18.3 17.4
-4 -17 3 5 15.4
-4 -17 3 2.8 12.2
-17 21 3 1.9 10.5
-17 21 3 13.8 21
-16 21 3 42.3 22.9
-5 -16 3 45.3 15.1
21 -5 3 31.3 18.7
-5 -16 3 37.8 19.8
-16 21 3 19.3 11.8
-15 21 3 4 19.3
-15 21 3 5.5 8.6
21 -6 3 9.3 15.4
-6 -15 3 -2.9 18.1
-6 -15 3 9.3 14
-7 -14 3 33.7 15.6
-14 21 3 37.3 10.4
21 -7 3 46.9 19.9
-7 -14 3 26.9 21
-14 21 3 33.9 22.2
8 13 -3 32 20.7
-21 8 -3 36.7 25.3
21 -8 3 27 18.5
-8 -13 3 24.5 14.9
-13 21 3 16.9 18.9
-8 -13 3 11.9 19
-13 21 3 19.2 8.2
9 12 -3 33.9 20.1
-21 9 -3 24.7 28.3
21 -9 3 25.4 17.5
-12 21 3 1.5 16.8
-9 -12 3 42.3 17.7
-9 -12 3 79.09 23.7
-12 21 3 35.3 8.3
-21 10 -3 28.2 22.5
10 11 -3 16.3 18.3
-11 21 3 15 6.2
-10 -11 3 12.1 18.3
-11 21 3 29.2 18.7
21 -10 3 1.7 14.9
-10 -11 3 13.8 16.1
11 10 -3 -1.8 17.4
-21 11 -3 -3.9 18
-11 -10 3 8.2 19.5
-11 -10 3 30.7 17.1
21 -11 3 -2.9 13.6
-10 21 3 -9.3 17.3
21 -11 3 19.8 16.1
12 9 -3 13.6 17.6
-21 12 -3 33.5 27.7
21 -12 3 24.9 15.6
21 -12 3 21.3 15.8
-12 -9 3 42.8 18.8
-9 21 3 13 18.3
13 8 -3 15.7 17.4
-21 13 -3 41.7 22.6
21 -13 3 15.8 14.8
-13 -8 3 9.8 18.2
21 -13 3 -23 12.3
-8 21 3 38.6 17
-21 14 -3 73.39 27.6
14 7 -3 15.5 17.3
21 -14 3 44.5 17.5
-7 21 3 65.49 16.6
21 -14 3 48.4 17.1
-14 -7 3 58.89 20.1
15 6 -3 38 20.5
-21 15 -3 3.1 20.2
-15 -6 3 19 19.3
21 -15 3 5.1 13.5
21 -15 3 11 14.9
-21 16 -3 5.2 18.3
16 5 -3 42.3 21.9
21 -16 3 31.6 16.1
21 -16 3 56.79 16.7
-21 17 -3 -1.7 16.8
17 4 -3 10.5 18.9
21 -17 3 3.9 12.1
21 -17 3 13.5 12
18 3 -3 31.8 20.4
-21 18 -3 71.69 25.9
21 -18 3 55.89 15.3
-18 -3 3 54.09 26.5
-3 21 3 83.99 16.9
21 -18 3 55.39 15.5
-21 19 -3 17.8 21.3
19 2 -3 9.8 20.6
-2 21 3 10.8 12
-19 -2 3 10.3 19.6
21 -19 3 13.2 9.3
21 -19 3 11.2 10
-21 20 -3 68.09 29
20 1 -3 68.29 26.4
-20 -1 3 63.89 25.5
-1 21 3 61.09 17.4
21 0 -3 9 20.1
-21 21 -3 5.9 21.7
-21 0 3 28.7 20.9
0 21 3 -0.4 12.7
-21 22 -3 44.2 29.9
22 -1 -3 97.89 28.2
1 21 3 79.79 21.2
-2 -21 -3 14.9 14.4
23 -2 -3 -0.9 19
-21 23 -3 -11.3 22.8
2 21 3 -1.2 13.8
24 -3 -3 90.09 26.8
-21 24 -3 58.39 32.8
-3 -21 -3 64.29 19.5
3 21 3 58.29 21.1
25 -4 -3 12.1 24.4
-21 25 -3 21.5 26.5
-4 -21 -3 11.7 17.7
4 21 3 -9 13.4
-21 26 -3 43.2 28.5
-5 -21 -3 85.99 24.1
26 -5 -3 121.69 32.3
5 21 3 39.3 21.2
27 -6 -3 21.7 22.9
-6 -21 -3 3.7 20.7
-21 27 -3 10.2 28.5
6 21 3 1.8 17.3
-5 27 -3 6 19.4
-27 22 3 11.5 25.3
22 5 3 80.69 27.4
-4 26 -3 148.59 28.5
22 4 3 89.39 29.2
-3 25 -3 14.3 16.1
-25 22 3 14.7 20.6
-25 22 3 3.5 22.4
-2 24 -3 97.39 24.4
22 2 3 71.39 26.1
-24 22 3 133.09 32.8
-24 22 3 155.68 30.7
-1 23 -3 61.89 22.2
22 1 3 44 22
-23 22 3 41.9 21.6
-23 22 3 71.99 27.7
0 22 -3 233.48 34.6
-22 22 3 178.28 30.9
-22 22 3 180.08 38.3
22 0 3 140.29 29.4
1 21 -3 92.89 23.7
-22 1 -3 50.89 38.8
22 -1 3 62.89 22.7
-21 22 3 102.69 21.8
-21 22 3 5.9 35.5
-22 2 -3 165.48 44.7
2 20 -3 208.58 34.2
22 -2 3 149.88 30.5
-20 22 3 232.18 27.3
-20 22 3 266.27 42.8
-22 3 -3 140.69 40.8
3 19 -3 133.89 28
22 -3 3 83.29 24.7
-19 22 3 126.69 30.3
-19 22 3 167.68 24.2
-22 4 -3 171.08 44.5
4 18 -3 262.77 34.5
-4 -18 3 247.88 24.5
22 -4 3 282.77 37.3
-4 -18 3 294.77 30.5
-18 22 3 231.18 25.6
-18 22 3 249.58 40.6
5 17 -3 154.38 28.3
-22 5 -3 108.69 32.7
-5 -17 3 120.59 29.1
22 -5 3 73.19 24.1
-17 22 3 131.69 18.9
-17 22 3 124.09 31.7
-5 -17 3 134.99 20.4
6 16 -3 187.18 33.8
22 -6 3 216.88 34.9
-16 22 3 286.87 41.1
-6 -16 3 278.17 35.4
-16 22 3 200.48 21.5
-6 -16 3 213.08 26.4
7 15 -3 163.48 29.7
-15 22 3 138.99 30.7
-7 -15 3 134.49 23.3
-7 -15 3 171.98 29.7
22 -7 3 134.09 28.7
-15 22 3 170.28 17.5
-22 8 -3 314.87 60.29
8 14 -3 231.38 36.7
-8 -14 3 315.17 40
-8 -14 3 208.88 29.2
-14 22 3 271.87 38.7
22 -8 3 225.98 34.1
-14 22 3 237.18 19.3
-22 9 -3 260.47 76.49
9 13 -3 142.49 30.6
-13 22 3 102.49 26.8
-13 22 3 162.78 14.2
-9 -13 3 175.98 31.9
-9 -13 3 153.38 26.7
22 -9 3 110.09 28.4
-22 10 -3 351.26 77.49
10 12 -3 251.97 38.2
-12 22 3 280.67 35.9
-10 -12 3 318.77 39.2
-10 -12 3 244.58 31.3
22 -10 3 194.58 32.8
-12 22 3 264.97 17.6
-22 11 -3 160.28 38.7
11 11 -3 189.28 35
-11 22 3 184.18 15
-11 22 3 181.58 28.6
22 -11 3 176.68 28.9
-11 -11 3 189.28 34.2
-11 -11 3 173.98 28.9
12 10 -3 252.67 38.8
-22 12 -3 228.38 45.4
22 -12 3 250.27 29.9
22 -12 3 279.67 33.8
-12 -10 3 282.67 34.8
-10 22 3 271.87 48
-12 -10 3 316.57 41.3
-22 13 -3 174.88 41.3
13 9 -3 142.79 30.1
-9 22 3 129.29 23.2
-13 -9 3 175.08 30
22 -13 3 144.29 25.9
22 -13 3 153.48 24
14 8 -3 273.77 39.5
-22 14 -3 273.77 49.7
-14 -8 3 318.97 35.6
22 -14 3 231.28 30.3
22 -14 3 225.38 29.6
-8 22 3 272.67 27.2
-22 15 -3 93.19 30
15 7 -3 131.79 30.3
22 -15 3 136.09 22.1
22 -15 3 121.39 22.8
-22 16 -3 194.88 37.8
16 6 -3 239.88 39.2
22 -16 3 276.37 28.9
22 -16 3 303.77 36.4
-22 17 -3 52.09 25.1
17 5 -3 107.99 30
22 -17 3 160.48 22.8
-17 -5 3 151.58 46.9
22 -17 3 129.19 21.1
-22 18 -3 233.68 46.9
18 4 -3 250.97 40.6
22 -18 3 299.57 26.8
-4 22 3 298.17 26.3
-18 -4 3 249.48 40.1
22 -18 3 241.48 26.7
-22 19 -3 140.09 36.3
19 3 -3 166.68 33.5
-19 -3 3 119.29 30
22 -19 3 152.98 19.8
-3 22 3 136.79 20.4
-22 20 -3 156.88 37.2
20 2 -3 257.77 41.1
-20 -2 3 236.88 39.4
-2 22 3 211.98 25.6
21 1 -3 107.99 31.3
-22 21 -3 77.39 31.3
-1 22 3 54.29 16.7
22 0 -3 183.78 37.1
-22 22 -3 124.79 36.3
0 22 3 166.18 25.8
-22 23 -3 13.8 26.7
23 -1 -3 67.29 27.7
1 22 3 36.6 17.3
-22 24 -3 89.09 37
24 -2 -3 95.69 30.3
2 22 3 146.99 26.6
-22 25 -3 32.7 29.2
25 -3 -3 48.2 26.5
3 22 3 49.7 29.4
26 -4 -3 80.69 32.7
-22 26 -3 66.09 34
4 22 3 118.99 26
-22 27 -3 26.7 26.9
27 -5 -3 6.2 24.5
-5 -22 -3 31.3 17.8
5 22 3 23.8 17.8
-3 26 -3 67.49 21.5
-26 23 3 94.39 34.6
23 3 3 20.4 24
-26 23 3 52.19 29.2
-2 25 -3 -25.1 15.7
-25 23 3 -19.5 17.9
23 2 3 6.4 19.3
-25 23 3 -14.4 21.2
-1 24 -3 74.59 22.3
-24 23 3 79.29 24.4
-24 23 3 8.1 21.4
23 1 3 66.89 37.2
0 23 -3 -14 15.7
-23 23 3 0.1 19.7
-23 23 3 -7.6 17.2
23 0 3 6.2 18.8
1 22 -3 65.49 22.5
23 -1 3 43.5 21.7
-22 23 3 61.89 21.5
-22 23 3 50.39 26
2 21 -3 26.1 19.1
23 -2 3 27 18
-21 23 3 30.8 17
-21 23 3 -7.1 20.5
3 20 -3 80.29 23.8
23 -3 3 38.3 20.8
-20 23 3 53.59 16.5
-20 23 3 22.7 22.4
4 19 -3 9.4 16.2
-23 4 -3 -0.7 25.7
23 -4 3 1.4 14.5
-19 23 3 5.9 12.9
-19 23 3 10.2 20.6
-23 5 -3 32.3 25.8
5 18 -3 23.5 18.2
-18 23 3 32.9 23.5
-5 -18 3 46.3 30.6
-5 -18 3 62.89 15.9
23 -5 3 49 21.5
-18 23 3 45.6 15.5
-23 6 -3 1.4 21.8
6 17 -3 9.3 14.7
-17 23 3 -14.4 18.7
-6 -17 3 11.3 17.6
23 -6 3 -26.3 14.7
-6 -17 3 19.3 15.3
-17 23 3 29.2 10.7
7 16 -3 22.1 18.3
-23 7 -3 55.49 29.5
23 -7 3 12.9 17.9
-16 23 3 35.6 11.4
-16 23 3 52.29 24.2
-7 -16 3 35 21.2
-23 8 -3 -16.7 20.5
8 15 -3 13.9 17.5
-8 -15 3 15.6 16.4
-15 23 3 -15.1 17.1
23 -8 3 16.3 17.2
-15 23 3 17.9 8.4
-8 -15 3 12.2 18.5
9 14 -3 52.79 21.4
-23 9 -3 11.8 24
-14 23 3 10.5 19.8
-14 23 3 15.8 8.6
23 -9 3 -6.3 15.8
-9 -14 3 28.4 20.6
-9 -14 3 31.1 17.4
-23 10 -3 -1.2 19.4
10 13 -3 30.2 20
23 -10 3 18.7 17.2
-13 23 3 -15.5 15.5
-13 23 3 8.1 6.7
-10 -13 3 -0.6 15
-10 -13 3 3.3 19.4
11 12 -3 35.1 21.3
-23 11 -3 52.69 28
-12 23 3 5.5 17.1
-11 -12 3 40.9 22.9
-11 -12 3 29.6 17.3
12 11 -3 23.2 20.2
-23 12 -3 -8.9 20.1
23 -12 3 18.4 16.9
-12 -11 3 -20 15.8
23 -12 3 6.2 16.5
-12 -11 3 23.9 21.9
13 10 -3 23.5 19.9
-23 13 -3 -9.5 23.7
-10 23 3 8.8 14.7
23 -13 3 31.7 16
-13 -10 3 14.1 16.7
23 -13 3 16.8 16
14 9 -3 17.9 20.4
-23 14 -3 50.39 43.9
23 -14 3 20.1 16.2
23 -14 3 25.1 16.8
15 8 -3 43.8 21.1
-23 15 -3 -19.1 35.8
23 -15 3 -2.3 14.7
23 -15 3 5 14
-23 16 -3 -1.7 32.7
16 7 -3 67.19 24
23 -16 3 32.1 17.9
23 -16 3 22.5 15.1
17 6 -3 20.5 20.6
-23 17 -3 37 27.6
23 -17 3 -4.1 12.4
-17 -6 3 5.4 19.6
-23 18 -3 28.4 27
18 5 -3 35.2 24.6
-18 -5 3 8.9 21.8
23 -18 3 40.4 14.7
23 -18 3 32.9 15.7
-5 23 3 37.3 13.1
-23 19 -3 7 23.2
19 4 -3 4.4 19.6
23 -19 3 -19.7 11.2
-19 -4 3 17.9 23.2
-4 23 3 9.4 11.7
20 3 -3 73.69 26.2
-23 20 -3 65.09 27.4
23 -20 3 32.4 10.2
23 -20 3 11.3 9.9
-3 23 3 80.79 16
-20 -3 3 39.1 41.4
-23 21 -3 30.6 26.7
21 2 -3 13.6 20.3
-2 23 3 -15.9 10.5
-23 22 -3 57.59 33.7
22 1 -3 97.09 30.3
-1 23 3 77.99 19.2
-23 23 -3 -33.4 26.7
23 0 -3 30.2 23.5
0 23 3 2.9 14.5
-23 24 -3 16.9 30.2
24 -1 -3 57.79 28.3
1 23 3 102.09 21.9
-23 25 -3 -3.3 27.7
25 -2 -3 -15.4 21
26 -3 -3 75.19 46.1
-23 26 -3 36.6 35.6
3 23 3 76.89 23.1
-1 25 -3 46 22.2
-25 24 3 25.6 22.3
24 1 3 18.9 22.2
-25 24 3 28.6 24.2
0 24 -3 169.68 32
-24 24 3 138.29 28.9
-24 24 3 99.59 31.6
24 0 3 74.39 35
1 23 -3 62.49 24.4
-23 24 3 47.3 27.9
-23 24 3 72.39 22.7
24 -1 3 13 23.3
2 22 -3 133.39 29.5
-22 24 3 143.59 34
24 -2 3 89.89 28.6
-22 24 3 99.49 24
3 21 -3 24.7 20.2
-21 24 3 39.7 27.2
24 -3 3 82.39 26
4 20 -3 159.38 31.1
24 -4 3 157.78 32.9
-20 24 3 203.88 25
-20 24 3 136.89 32.6
5 19 -3 112.29 25.9
-5 -19 3 60.79 20.2
24 -5 3 61.69 24.7
-19 24 3 44.4 26.4
6 18 -3 189.68 34.3
24 -6 3 226.58 36.3
-6 -18 3 211.68 30.1
-18 24 3 206.28 23.2
-6 -18 3 197.58 24.5
-18 24 3 181.28 35.6
7 17 -3 156.28 31.9
-17 24 3 166.88 33.3
-17 24 3 137.69 18.2
24 -7 3 150.68 32.1
-7 -17 3 122.49 30.6
-7 -17 3 117.09 26.2
-24 8 -3 98.29 53.59
8 16 -3 172.48 32.7
-8 -16 3 232.58 33.9
-8 -16 3 169.68 27.1
24 -8 3 184.88 34
-16 24 3 259.77 40.4
-16 24 3 198.08 19.4
9 15 -3 174.38 34.4
-24 9 -3 189.98 47.5
-15 24 3 154.78 16.1
-9 -15 3 127.59 29.4
24 -9 3 87.19 26.7
-9 -15 3 142.99 25.6
-15 24 3 127.99 30
-24 10 -3 217.08 49.5
10 14 -3 220.68 36.7
-10 -14 3 259.47 37.6
24 -10 3 192.48 33
-14 24 3 210.18 35.1
-10 -14 3 219.28 31.5
-14 24 3 185.48 16.7
11 13 -3 130.59 30.6
-24 11 -3 164.08 39.7
-13 24 3 134.49 12.6
24 -11 3 133.09 28.8
-13 24 3 114.49 25.2
-11 -13 3 138.19 30.6
-11 -13 3 127.49 25.9
12 12 -3 237.48 39.4
24 -12 3 189.68 36.2
24 -12 3 196.08 31.8
-12 -12 3 240.88 40.4
-12 -12 3 256.37 32.1
-24 13 -3 103.99 38.1
13 11 -3 165.58 34.2
-11 24 3 179.28 25.8
-13 -11 3 132.39 27.2
24 -13 3 153.88 26.5
24 -13 3 124.29 26.1
-13 -11 3 168.28 34.4
14 10 -3 187.08 35.5
-24 14 -3 150.38 38.8
24 -14 3 173.88 30.1
24 -14 3 198.58 30.6
-24 15 -3 92.49 36.7
15 9 -3 101.19 27.8
-15 -9 3 129.99 39.5
24 -15 3 151.48 25.7
24 -15 3 98.89 21.8
16 8 -3 215.98 37.8
-24 16 -3 167.58 36.8
24 -16 3 207.88 29.8
24 -16 3 246.98 29.8
-16 -8 3 157.38 33.9
17 7 -3 174.08 35.9
-24 17 -3 134.69 33.7
24 -17 3 124.69 23.2
-17 -7 3 180.28 34.2
24 -17 3 148.39 23.9
-24 18 -3 197.28 40.2
18 6 -3 137.49 33.3
-18 -6 3 205.98 36.9
-6 24 3 148.09 21.4
24 -18 3 207.88 26.4
19 5 -3 86.59 27.8
-24 19 -3 69.99 30.6
24 -19 3 133.99 19.9
-5 24 3 161.38 20.4
-19 -5 3 103.29 30.8
24 -19 3 107.79 19
-24 20 -3 151.58 43.1
20 4 -3 194.58 39.4
24 -20 3 179.78 20
-4 24 3 154.48 21.5
24 -20 3 157.88 22
21 3 -3 63.09 26.7
-24 21 -3 70.49 38.8
-3 24 3 51.99 15.9
22 2 -3 171.48 38.3
-2 24 3 146.09 23.3
23 1 -3 82.59 31.1
-24 23 -3 27.3 48.9
-1 24 3 62.79 19.2
24 0 -3 79.39 36.8
-24 24 -3 82.39 37.3
0 24 3 81.49 21.6
-24 25 -3 29.3 30.1
1 24 3 36.1 24.4
1 24 -3 51.59 24.8
25 -1 3 42 25.6
-24 25 3 15.6 20.4
-24 25 3 38.1 27.8
2 23 -3 -26.9 16.8
-23 25 3 12 21.4
-23 25 3 -35.5 16.5
3 22 -3 36.7 21.1
-22 25 3 -6.7 22.5
25 -3 3 57.49 25.3
-22 25 3 50.39 19.9
4 21 -3 -2.7 18.3
-21 25 3 -9.5 15.3
25 -4 3 11.5 21.1
-21 25 3 11.4 23.7
5 20 -3 16.2 21.4
25 -5 3 64.29 24.7
-20 25 3 62.09 27.9
-20 25 3 48.1 16.1
6 19 -3 30.5 21.6
-19 25 3 1.1 21.3
25 -6 3 3.9 17.3
-19 25 3 12.2 11.9
7 18 -3 40.8 22.6
-7 -18 3 28.7 20
-18 25 3 20.3 22.9
-18 25 3 33.6 13
25 -7 3 70.09 23
8 17 -3 -5.5 16.4
25 -8 3 -13.1 16.5
-8 -17 3 -1 17.7
-17 25 3 7.4 9
-8 -17 3 0.1 20.4
-17 25 3 14.2 20.8
9 16 -3 47.4 21.5
-9 -16 3 19.6 22.6
-16 25 3 8.7 20.2
-16 25 3 37.4 10.6
25 -9 3 39.3 20.3
-9 -16 3 16.1 18.5
10 15 -3 9.9 17.6
25 -10 3 -9 17.7
-10 -15 3 -0.4 17.5
-15 25 3 -0.7 17.5
-10 -15 3 -14.9 18.4
-15 25 3 0.5 7.8
11 14 -3 24 19.8
-14 25 3 -2.1 17.6
25 -11 3 13.1 17.5
-11 -14 3 9.7 19
-11 -14 3 14.3 18.6
12 13 -3 6.3 19.7
25 -12 3 36.7 20.4
-12 -13 3 28.1 22.7
-12 -13 3 32.4 17.6
13 12 -3 14.2 20.2
-25 13 -3 32.6 35.3
-13 -12 3 42 25.7
25 -13 3 9.8 17.6
-25 14 -3 -11.4 20.5
14 11 -3 42.2 20.8
-14 -11 3 24.6 24.7
25 -14 3 48.1 19
15 10 -3 -27 18.5
-25 15 -3 -4.9 24.9
25 -15 3 1.3 16.1
25 -15 3 18.5 18.2
-25 16 -3 23.1 22.3
16 9 -3 32.8 23.3
25 -16 3 -2.5 15.2
25 -16 3 19.9 17.5
-16 -9 3 34.2 22.9
17 8 -3 -27.5 19.2
-25 17 -3 -8.9 22.9
25 -17 3 25.4 15.4
-17 -8 3 -16.7 20.4
25 -17 3 7.2 17.2
-25 18 -3 7.5 29.6
18 7 -3 7 22.4
25 -18 3 48.1 18.4
25 -18 3 33.2 18.7
-18 -7 3 44.6 26
-25 19 -3 -18 25.8
19 6 -3 4.4 20.7
-6 25 3 1.5 10
25 -19 3 12.4 13.7
25 -19 3 18.6 15
-25 20 -3 67.59 31.1
20 5 -3 68.49 26.2
-5 25 3 31.4 11.9
25 -20 3 32 13.9
-25 21 -3 -9.2 21
21 4 -3 13.2 21.6
-4 25 3 10.6 11.9
22 3 -3 42.7 35.5
-25 22 -3 11 25.9
-3 25 3 35.2 14.5
23 2 -3 43.5 43
-25 23 -3 6.7 26.6
-2 25 3 45 16.3
24 1 -3 42.9 28.4
-25 24 -3 9.6 31.1
-1 25 3 53.89 18
3 23 -3 89.59 27.3
-23 26 3 52.89 29.9
-23 26 3 58.29 21.1
26 -3 3 52.09 26.2
4 22 -3 66.29 24.8
-22 26 3 154.18 26.2
-22 26 3 57.79 33.9
5 21 -3 67.59 25.9
-21 26 3 52.69 28
-21 26 3 95.09 20.1
26 -5 3 31.1 22.8
6 20 -3 117.19 30.2
-20 26 3 108.19 21.2
26 -6 3 116.69 29.3
-20 26 3 122.39 32.1
7 19 -3 142.69 32.7
26 -7 3 133.89 31.8
-19 26 3 80.39 29.5
-7 -19 3 93.59 23.2
-19 26 3 100.19 18.2
8 18 -3 225.68 38.4
26 -8 3 169.08 35
-18 26 3 141.79 30.5
-8 -18 3 138.19 28.2
-18 26 3 165.48 20.6
9 17 -3 141.99 33
-17 26 3 141.39 30.9
-17 26 3 103.19 16.3
-9 -17 3 154.48 30.6
26 -9 3 104.59 30.3
-9 -17 3 137.89 25.9
10 16 -3 158.78 34.7
-10 -16 3 196.68 29.8
-16 26 3 152.08 29.9
-16 26 3 139.49 15.8
26 -10 3 117.29 29
-10 -16 3 140.29 33.8
11 15 -3 148.99 33.1
26 -11 3 134.59 29.2
-15 26 3 85.59 23.7
-11 -15 3 80.59 29.7
-11 -15 3 115.09 26.4
-15 26 3 116.09 13.2
12 14 -3 192.28 37.1
-14 26 3 161.58 41.1
26 -12 3 141.69 28.7
-12 -14 3 165.78 35.3
-12 -14 3 166.18 29.6
13 13 -3 66.09 28.8
26 -13 3 63.99 23.6
-13 -13 3 61.99 26.2
14 12 -3 133.19 32.6
-14 -12 3 169.48 36.3
26 -14 3 119.49 26.5
15 11 -3 157.48 35.7
26 -15 3 111.39 24.6
26 -15 3 101.19 40.3
-15 -11 3 126.09 30.7
-15 -11 3 144.29 30.9
16 10 -3 179.08 36.8
26 -16 3 121.99 24.1
26 -16 3 121.49 25.7
-16 -10 3 135.19 31.7
17 9 -3 97.79 31.3
26 -17 3 100.49 24.7
-17 -9 3 150.98 32.6
26 -17 3 142.89 25.1
-9 26 3 115.89 15.4
18 8 -3 135.59 33
26 -18 3 217.68 28.8
26 -18 3 139.69 26.1
-8 26 3 148.19 17.6
19 7 -3 95.99 31.2
26 -19 3 110.49 20.4
-6 26 3 147.79 18.9
26 -20 3 127.29 22.4
26 -20 3 126.39 19.9
21 5 -3 98.09 37.4
-26 21 -3 90.89 47.8
-5 26 3 61.59 14.6
22 4 -3 79.79 31.3
-26 22 -3 52.79 33.4
-4 26 3 100.09 19.2
23 3 -3 68.89 30.1
-26 23 -3 -19.8 29.1
-3 26 3 35.7 16.1
5 22 -3 39.4 23
27 -5 3 56.89 24
-22 27 3 16.4 21.4
6 21 -3 22.7 22.4
-21 27 3 11.3 22.3
-21 27 3 -2.1 14.1
7 20 -3 55.49 26
-20 27 3 4.6 13.4
-20 27 3 16 23.6
27 -7 3 27.7 22.5
8 19 -3 51.29 24.9
-8 -19 3 -32.3 15.8
-19 27 3 40.1 13.7
27 -8 3 10.4 19.8
-19 27 3 -12.8 19.6
9 18 -3 6.5 20.9
-9 -18 3 16.2 21.2
27 -9 3 52.69 22.7
-18 27 3 -1 9.8
-18 27 3 50.59 24.8
10 17 -3 2.2 20
-10 -17 3 35.4 24.6
-17 27 3 1.1 8.3
-10 -17 3 -2.4 19.1
-17 27 3 -10 17.8
27 -10 3 2.5 19.2
11 16 -3 28.7 24.4
-16 27 3 41 18.7
-11 -16 3 35 22.3
27 -11 3 15 19.9
-11 -16 3 -0.3 23.4
12 15 -3 -36 15.5
27 -12 3 8.3 19.2
-12 -15 3 42.8 21.9
-12 -15 3 35 25.9
13 14 -3 3.8 20.1
-13 -14 3 -22.6 20.3
27 -13 3 12.5 18
27 -13 3 -16.9 20.1
14 13 -3 -10.2 20.4
-14 -13 3 -6.1 24.5
27 -14 3 24.9 19
15 12 -3 0.9 20.4
27 -15 3 20.9 19.4
-15 -12 3 -23.1 21.5
-15 -12 3 -22.9 20.5
16 11 -3 -2.9 24.3
-16 -11 3 14.9 21.6
-16 -11 3 -16.1 21
27 -16 3 16.5 17.9
17 10 -3 -39.7 30.8
27 -17 3 -28.7 18.1
-10 27 3 -7.2 7.5
27 -17 3 0.5 18
-17 -10 3 -24 22.2
18 9 -3 13.3 40.1
27 -18 3 25.9 17.9
27 -18 3 -0.4 19.8
-9 27 3 4.8 9
19 8 -3 23.8 24.1
27 -19 3 15.5 16.7
27 -19 3 -8.8 15
20 7 -3 20.9 25.1
27 -20 3 6.3 18.1
-7 27 3 -7.4 10.2
27 -20 3 55.39 16.3
21 6 -3 8.1 22
27 -21 3 -8.5 12.4
27 -21 3 -4.5 11.7
-6 27 3 0.8 10.2
22 5 -3 48.4 26.3
-5 27 3 6.3 11.7
9 19 -3 35.3 26.3
28 -9 3 67.19 25.6
-19 28 3 57.89 14.8
-19 28 3 72.19 26.6
-9 -19 3 56.79 22.8
10 18 -3 141.39 34
28 -10 3 95.69 29.2
-10 -18 3 55.29 24.3
-18 28 3 86.49 14.3
-18 28 3 41.4 23.3
11 17 -3 97.69 34.2
-17 28 3 82.29 12.1
28 -11 3 59.79 25.3
-17 28 3 52.79 21.3
-11 -17 3 53.89 25.9
-11 -17 3 78.29 24.3
28 -12 3 61.79 25.6
-12 -16 3 88.59 27
-12 -16 3 119.99 34
28 -13 3 50.39 24.4
-13 -15 3 75.79 30.1
28 -13 3 55.99 25.5
28 -14 3 90.69 26.9
28 -14 3 70.39 26.2
15 13 -3 48.8 40.6
-15 -13 3 16.8 26.8
28 -15 3 56.69 24.1
-15 -13 3 77.79 31.1
16 12 -3 76.99 30.5
-16 -12 3 83.59 32.4
-16 -12 3 65.19 31.7
28 -16 3 62.89 23.8
17 11 -3 97.59 29.7
28 -17 3 60.99 21.6
-17 -11 3 131.49 34.5
18 10 -3 55.39 28.1
28 -18 3 34.3 21.4
28 -18 3 144.29 26.7
-10 28 3 67.99 11
19 9 -3 61.59 30
28 -19 3 93.49 23.4
28 -19 3 37.9 22.6
-9 28 3 74.49 12.4
0 0 -4 3971.5 190.48
0 0 -4 4071.69 182.48
-1 0 -4 339.17 35
0 1 -4 326.57 34.1
0 1 -4 324.17 25.7
1 -1 -4 297.37 32.8
1 -1 -4 314.77 25.2
-1 0 -4 342.07 25.5
1 0 4 322.47 25.2
0 -1 4 286.07 24
-1 1 4 363.56 35.9
0 -1 4 395.16 36.7
-1 1 4 339.17 25.3
0 -1 -4 356.96 25.5
0 -1 -4 345.07 34.7
-1 1 -4 321.17 34.5
-1 1 -4 349.57 25.7
1 0 -4 335.77 25.4
1 0 -4 296.77 33.1
-1 0 4 347.67 25.8
1 -1 4 324.07 25.5
1 -1 4 290.37 35
-1 0 4 279.77 34.1
0 1 4 375.86 36.4
0 1 4 318.87 24.3
-1 -1 -4 304.27 33.6
-1 2 -4 319.77 24.7
2 -1 -4 268.67 22.9
2 -1 -4 257.77 30
-1 2 -4 270.47 32.2
-2 1 4 257.47 32.8
1 -2 4 242.18 33.1
-2 1 4 260.37 22.8
1 1 4 287.07 34
1 -2 4 316.77 24.3
1 1 4 251.57 23
-1 3 -4 208.78 30.1
3 -2 -4 158.18 25.5
-1 3 -4 168.58 21.4
-2 -1 -4 189.28 29.7
3 -2 -4 193.88 21.7
1 -3 4 176.18 27.3
2 1 4 181.58 19.8
-3 2 4 176.38 18.9
1 -3 4 175.68 20.1
2 1 4 178.08 30.7
-3 2 4 165.98 27.9
0 2 -4 2003.1 95.89
0 2 -4 1976.4 102.59
-2 0 -4 1893.31 103.59
2 -2 -4 1926.31 105.79
2 -2 -4 1997.2 102.29
-2 2 4 2057.89 95.69
0 -2 4 1968.2 103.89
2 0 4 1915.11 104.39
2 0 4 1983.5 95.79
0 -2 4 1919.51 95.59
-2 2 4 1997.3 104.19
1 -2 -4 257.47 32
-2 1 -4 279.47 23.8
-2 1 -4 305.27 33.8
1 1 -4 291.27 32
1 1 -4 321.57 25.2
-1 2 4 339.27 24.4
2 -1 4 283.87 24.2
-1 2 4 280.97 34.2
2 -1 4 289.17 34.3
-1 -1 4 280.67 33.8
-1 -1 4 270.67 23.4
2 0 -4 1907.41 101.19
2 0 -4 2051.49 95.79
0 -2 -4 1918.21 103.39
-2 2 -4 1949.6 94.89
-2 2 -4 2043.3 104.79
2 -2 4 1959.4 95.99
-2 0 4 1968.5 103.79
0 2 4 2036.7 105.39
2 -2 4 1983.6 104.49
-2 0 4 1976.4 96.19
0 2 4 1911.91 94.89
3 -1 -4 159.78 19.3
-2 3 -4 143.69 19.2
-2 3 -4 167.88 26.5
3 -1 -4 194.28 26.9
-1 -2 -4 174.28 26.4
1 2 4 195.08 32.5
2 -3 4 173.88 28
-3 1 4 179.68 20.2
-3 1 4 186.88 29
1 2 4 184.58 18.8
2 -3 4 167.08 19.4
4 -2 -4 1251.77 72.29
-2 -2 -4 1306.47 76.99
-2 4 -4 1321.37 68.29
-2 4 -4 1325.87 75.69
4 -2 -4 1325.97 66.99
2 2 4 1332.77 67.39
2 -4 4 1208.18 67.19
-4 2 4 1304.87 75.79
2 -4 4 1428.86 77.39
2 2 4 1293.37 77.29
-4 2 4 1357.76 68.19
-3 -2 -4 105.99 22.7
-2 5 -4 113.29 18
5 -3 -4 152.38 23.3
-2 5 -4 142.09 25.9
5 -3 -4 140.09 18.6
2 -5 4 176.48 28.8
2 -5 4 109.69 17.1
3 2 4 147.59 27.4
-5 3 4 139.59 17.5
-5 3 4 131.89 25.9
3 2 4 130.09 18
4 -3 -4 165.68 24.4
-1 4 -4 182.68 26.6
-1 4 -4 142.49 19.5
-3 -1 -4 112.59 22.3
1 -4 4 129.59 18.5
3 1 4 100.69 21.5
-4 3 4 159.08 17.9
-4 3 4 163.18 23
3 1 4 137.19 17.7
1 -4 4 105.99 23.8
3 -3 -4 162.98 25
0 3 -4 243.08 29.5
0 3 -4 167.98 18.4
3 -3 -4 122.99 16.8
-3 0 -4 91.59 26.1
3 0 4 140.99 18.5
-3 3 4 141.69 17.6
0 -3 4 155.78 18.5
3 0 4 190.08 30.9
-3 3 4 257.47 43.2
0 -3 4 183.68 29.2
1 2 -4 190.48 19
-3 1 -4 181.88 29.5
1 2 -4 210.38 27.1
2 -3 -4 162.08 18.1
2 -3 -4 138.29 21.7
3 -1 4 196.68 19.8
3 -1 4 193.78 30.2
-1 -2 4 192.18 19.9
-2 3 4 197.68 29.8
-2 3 4 168.68 18.4
-1 -2 4 155.68 27
2 1 -4 181.78 19.9
2 1 -4 139.69 21.4
1 -3 -4 134.69 26.6
-3 2 -4 105.59 23.5
-3 2 -4 208.18 20.4
-1 3 4 192.78 19
3 -2 4 232.68 32.1
-2 -1 4 194.28 28.8
-2 -1 4 170.68 18.6
-1 3 4 166.18 26.6
3 -2 4 205.18 20.1
3 0 -4 172.58 19.6
0 -3 -4 141.99 24.7
3 0 -4 135.09 21.4
-3 3 -4 151.88 25.6
-3 3 -4 164.38 18.2
-3 0 4 169.18 18.9
3 -3 4 130.49 18.5
3 -3 4 180.48 29.8
0 3 4 149.59 17.7
0 3 4 185.98 30.6
-3 0 4 161.28 25.7
-3 4 -4 110.39 17.6
4 -1 -4 139.29 17.9
4 -1 -4 110.49 18.7
-3 4 -4 140.39 23.8
-1 -3 -4 124.09 23.4
3 -4 4 125.99 18.4
-4 1 4 130.29 25
-4 1 4 130.59 18.5
1 3 4 107.39 21.6
1 3 4 135.89 16.8
3 -4 4 108.89 22.1
5 -2 -4 140.59 21
5 -2 -4 126.49 17.7
-3 5 -4 202.98 20.5
-3 5 -4 142.09 24.6
-2 -3 -4 136.69 26.9
-5 2 4 134.59 18.1
3 -5 4 160.18 20.6
-5 2 4 236.28 30.9
3 -5 4 136.49 25.9
2 3 4 162.18 18.6
2 3 4 185.78 30.9
-3 -3 -4 425.56 40.2
-3 6 -4 441.06 31.6
6 -3 -4 387.36 29.5
-3 6 -4 444.46 39.6
3 3 4 365.86 38.6
3 -6 4 441.76 40.1
3 -6 4 371.56 29.8
-6 3 4 446.56 31
-6 3 4 499.35 41
7 -4 -4 65.39 13.9
-3 7 -4 70.79 21.3
-4 -3 -4 40 20.1
-3 7 -4 67.39 15.5
4 3 4 34 18.1
3 -7 4 52.89 13.3
-7 4 4 63.99 14.5
3 -7 4 47.4 21.4
-7 4 4 67.59 22.6
-4 -2 -4 1116.09 71.19
6 -4 -4 1172.78 74.19
-2 6 -4 1208.88 62.79
-2 6 -4 1105.89 67.89
-6 4 4 1124.19 69.49
2 -6 4 1146.79 61.49
-6 4 4 1230.58 61.89
4 2 4 1071.79 69.79
2 -6 4 1122.99 69.19
-4 -1 -4 55.19 22.5
-1 5 -4 56.39 19.4
5 -4 -4 36.8 11
5 -4 -4 37.4 14.7
-1 5 -4 58.79 13.7
4 1 4 34.9 11.2
4 1 4 61.09 19.1
1 -5 4 57.79 18.9
1 -5 4 37.9 12.5
-5 4 4 69.79 19.1
-5 4 4 54.39 12.5
4 -4 -4 824.12 43.8
0 4 -4 761.02 46.3
0 4 -4 913.21 54.29
4 -4 -4 794.42 51.89
-4 4 4 855.61 45.9
4 0 4 791.32 46.4
4 0 4 839.02 56.09
-4 4 4 785.62 54.49
0 -4 4 716.93 45.7
-4 1 -4 118.69 22.8
3 -4 -4 146.89 24.9
4 -1 4 145.39 18.2
4 -1 4 128.09 24.7
-3 4 4 121.09 25.1
-1 -3 4 152.28 18.2
-3 4 4 124.29 16.5
-4 2 -4 1445.36 79.19
2 2 -4 1281.17 73.29
2 2 -4 1365.36 69.69
2 -4 -4 1331.97 75.69
4 -2 4 1269.57 67.99
4 -2 4 1261.27 76.99
-2 -2 4 1352.16 69.09
-2 4 4 1281.57 66.79
-2 -2 4 1315.17 76.29
-2 4 4 1361.06 77.99
-4 3 -4 105.79 21.7
1 -4 -4 101.39 20.6
3 1 -4 137.49 21.6
3 1 -4 121.69 17.6
4 -3 4 121.39 15.9
-1 4 4 116.99 16.4
4 -3 4 92.89 19.9
-3 -1 4 111.29 17.4
-1 4 4 180.48 28.7
-3 -1 4 162.48 27.2
-4 4 -4 725.03 52.89
0 -4 -4 764.02 52.79
4 0 -4 788.92 49
4 0 -4 849.12 45.6
-4 4 -4 728.03 43.3
-4 0 4 767.62 52.69
-4 0 4 774.02 44.5
4 -4 4 707.53 52.29
0 4 4 781.92 43.1
4 -4 4 668.83 43.5
0 4 4 737.53 52.99
-4 5 -4 28.2 11.9
5 -1 -4 40.9 11.6
-4 5 -4 54.29 20.3
5 -1 -4 34.9 14.4
-1 -4 -4 27.5 17.3
4 -5 4 34.6 11.6
-5 1 4 32 12.8
4 -5 4 5.1 14.4
1 4 4 40.4 17.7
-5 1 4 57.09 18.3
1 4 4 61.69 12.4
6 -2 -4 1202.58 62.89
-2 -4 -4 1095.29 71.19
-4 6 -4 1210.88 63.19
-4 6 -4 1161.58 70.79
2 4 4 1178.68 71.89
-6 2 4 1213.98 63.49
4 -6 4 1181.88 71.19
-6 2 4 1197.08 70.89
2 4 4 1158.18 61.49
4 -6 4 1134.99 61.99
-4 7 -4 50.09 21.2
-4 7 -4 68.69 14.8
7 -3 -4 60.49 13.4
-3 -4 -4 32.1 18.8
3 4 4 22.5 17.1
4 -7 4 64.69 21
4 -7 4 49.2 12.3
-7 3 4 44.4 20
-7 3 4 56.79 13.8
8 -4 -4 623.44 39.1
-4 -4 -4 564.34 49.4
-4 8 -4 602.14 47.6
-4 8 -4 686.63 41.5
4 4 4 586.14 48
4 -8 4 647.04 48.5
-8 4 4 671.83 49.7
4 -8 4 658.23 39.8
-8 4 4 652.43 41.2
-4 9 -4 63.69 20
9 -5 -4 82.19 15.4
-4 9 -4 91.09 16.5
-5 -4 -4 74.89 21.7
4 -9 4 101.79 16.2
4 -9 4 83.69 22.2
-9 5 4 88.39 15.9
5 4 4 73.19 21.1
-9 5 4 88.29 21.1
8 -5 -4 103.59 15.6
-3 8 -4 104.29 17.5
-3 8 -4 55.79 18.7
-5 -3 -4 41.2 17.8
-8 5 4 43.9 19.2
-8 5 4 89.49 16.3
3 -8 4 86.69 22.2
3 -8 4 86.49 15.3
5 3 4 54.39 18.1
-5 -2 -4 80.49 21
-2 7 -4 110.99 24.2
-2 7 -4 146.79 20.9
7 -5 -4 84.79 21.9
5 2 4 76.79 23
-7 5 4 83.99 20.9
2 -7 4 81.39 22.4
2 -7 4 87.29 16.2
-7 5 4 111.19 17.7
-1 6 -4 242.48 30.7
6 -5 -4 236.48 20.7
-1 6 -4 257.87 24.6
-5 -1 -4 336.07 35.6
1 -6 4 233.58 31.9
1 -6 4 241.88 22.5
-6 5 4 262.67 23.5
5 1 4 267.87 32.7
5 1 4 225.28 22.3
-6 5 4 191.28 27.3
5 -5 -4 184.78 17.7
5 -5 -4 148.69 21.9
0 5 -4 210.08 22.2
0 5 -4 193.28 27.6
-5 0 -4 158.88 27.2
0 -5 4 168.28 19.7
-5 5 4 199.08 19.5
5 0 4 213.28 21.6
-5 5 4 249.88 33.4
5 0 4 115.49 22.5
0 -5 4 194.48 31
4 -5 -4 27.7 14
-5 1 -4 84.59 23.2
1 4 -4 42.3 12.8
1 4 -4 6.3 13.3
-1 -4 4 63.09 19.9
-4 5 4 56.49 12.3
5 -1 4 67.69 20.1
5 -1 4 29.4 12.2
-4 5 4 71.99 20.8
-1 -4 4 39.5 12.2
2 3 -4 133.89 21.1
2 3 -4 143.59 19.6
-5 2 -4 156.28 28.1
3 -5 -4 126.89 22.4
-3 5 4 151.48 16.8
-2 -3 4 244.38 30.9
5 -2 4 107.89 17.3
-3 5 4 188.68 30.4
5 -2 4 128.99 24.1
-2 -3 4 127.09 18.8
-5 3 -4 196.18 31.8
2 -5 -4 214.58 29.9
3 2 -4 104.89 21.5
3 2 -4 122.99 18.1
5 -3 4 139.49 22.6
-3 -2 4 150.98 18.7
5 -3 4 116.69 17.5
-2 5 4 161.88 17.9
-3 -2 4 123.29 23.2
1 -5 -4 31.6 18.6
4 1 -4 26.1 15
-5 4 -4 35 19.2
4 1 -4 48.3 13.2
5 -4 4 27.6 10.4
5 -4 4 55.89 19.9
-1 5 4 57.19 12.7
-1 5 4 22.3 18.6
-4 -1 4 64.39 14.3
0 -5 -4 198.68 29.6
-5 5 -4 191.58 21
-5 5 -4 191.48 29.7
5 0 -4 183.48 21.5
-5 0 4 205.38 30.1
0 5 4 203.88 19.9
5 -5 4 131.19 23.4
0 5 4 194.98 30.2
5 -5 4 177.58 20.6
-5 0 4 212.58 21.3
-1 -5 -4 249.68 33.3
-5 6 -4 246.08 23.2
-5 6 -4 286.97 33.4
6 -1 -4 248.68 24.3
-6 1 4 240.58 32.3
-6 1 4 261.67 24.2
1 5 4 262.57 34
1 5 4 253.47 22.2
5 -6 4 299.97 33.3
5 -6 4 244.18 23.1
-5 7 -4 72.59 19.3
-2 -5 -4 37.9 18.1
7 -2 -4 100.29 17.9
-5 7 -4 108.99 17.8
5 -7 4 98.79 16.1
2 5 4 112.99 26.3
5 -7 4 106.69 21.6
-7 2 4 112.89 18.3
-7 2 4 94.39 23.4
-5 8 -4 101.59 17.8
8 -3 -4 116.59 17.8
-3 -5 -4 85.99 22.5
-5 8 -4 80.49 23.2
-8 3 4 52.19 19.4
-8 3 4 75.39 16.1
3 5 4 99.79 24.9
5 -8 4 72.39 19.8
5 -8 4 83.99 15.7
-4 -5 -4 33 19.6
-5 9 -4 57.19 20.2
-5 9 -4 112.09 18.6
9 -4 -4 112.19 18
5 -9 4 85.19 15.8
-9 4 4 86.09 21.4
-9 4 4 101.09 17.4
5 -9 4 45.8 20.3
4 5 4 94.29 21.8
-5 10 -4 150.98 25.4
-5 10 -4 164.78 22
10 -5 -4 154.38 19.5
-5 -5 -4 180.78 33.9
-10 5 4 169.28 21
-10 5 4 116.69 25.5
5 5 4 188.08 30.2
5 -10 4 165.68 26.5
5 -10 4 126.09 18.1
-6 -5 -4 57.29 24.7
11 -6 -4 49.2 13.6
-5 11 -4 36.6 19.1
-5 11 -4 78.19 17.6
5 -11 4 45 19.3
5 -11 4 53.49 13.8
-11 6 4 75.79 24.5
-11 6 4 78.99 16.4
6 5 4 26.1 17.3
-6 -4 -4 632.64 54.89
10 -6 -4 695.03 42.2
-4 10 -4 701.13 50.89
-4 10 -4 759.82 46.1
4 -10 4 665.23 51.29
-10 6 4 700.23 54.19
4 -10 4 726.63 43.5
-10 6 4 731.63 44.8
6 4 4 789.32 55.19
-3 9 -4 95.49 22.3
-3 9 -4 102.79 18.2
-6 -3 -4 74.99 23.6
9 -6 -4 105.39 20.9
3 -9 4 112.39 24.5
6 3 4 87.89 23.3
3 -9 4 93.49 16.3
-9 6 4 96.99 16.6
-9 6 4 93.29 24.2
-2 8 -4 660.23 48.9
-6 -2 -4 713.43 55.09
-2 8 -4 694.13 44.5
8 -6 -4 722.63 40.8
-8 6 4 723.33 43.5
6 2 4 768.72 54.29
2 -8 4 711.83 43.5
2 -8 4 727.73 51.69
-8 6 4 682.03 52.39
7 -6 -4 122.59 16
-1 7 -4 115.79 18.6
-6 -1 -4 133.59 25.2
-1 7 -4 115.69 22.6
6 1 4 92.19 21
1 -7 4 90.99 22.3
-7 6 4 129.19 25.5
1 -7 4 119.99 17.5
-7 6 4 135.39 18.7
6 -6 -4 1281.07 73.99
-6 0 -4 1321.37 81.19
6 -6 -4 1324.07 65.59
0 6 -4 1345.57 71.49
0 6 -4 1294.57 74.19
6 0 4 1383.06 71.19
0 -6 4 1319.27 70.39
-6 6 4 1411.26 69.29
0 -6 4 1355.66 77.59
-6 6 4 1383.56 78.99
6 0 4 1341.97 79.49
1 5 -4 250.77 25.1
5 -6 -4 235.08 28
1 5 -4 240.98 28.7
-6 1 -4 220.88 35
-1 -5 4 302.77 35.8
6 -1 4 240.88 34.5
-5 6 4 208.58 29.6
-1 -5 4 220.48 22.8
6 -1 4 271.07 24.2
-5 6 4 195.18 20.4
4 -6 -4 1062.99 65.59
-6 2 -4 1128.99 71.49
2 4 -4 1065.49 64.49
2 4 -4 1242.98 63.49
6 -2 4 1189.18 70.99
6 -2 4 1133.79 61.29
-4 6 4 1098.49 58.79
-4 6 4 1160.98 69.79
-2 -4 4 1123.89 68.59
-2 -4 4 1142.59 61.59
3 3 -4 391.36 31.9
-6 3 -4 431.36 41.6
3 3 -4 417.26 34.7
3 -6 -4 448.96 37.9
-3 -3 4 438.06 39.1
6 -3 4 410.96 30.8
6 -3 4 503.35 41
-3 6 4 415.06 40.1
-3 -3 4 396.16 30.6
-3 6 4 409.66 28.3
4 2 -4 1229.88 67.49
-6 4 -4 1173.68 72.89
4 2 -4 1186.98 64.49
2 -6 -4 1224.68 70.39
6 -4 4 1223.18 63.89
6 -4 4 1162.88 71.79
-2 6 4 1124.89 60.39
-4 -2 4 1137.29 70.29
-4 -2 4 1209.88 64.09
-2 6 4 1141.79 71.09
1 -6 -4 275.77 32.9
5 1 -4 262.57 23.8
-6 5 -4 214.68 33.5
6 -5 4 268.37 32.6
6 -5 4 246.18 23.6
-5 -1 4 279.07 24.8
-5 -1 4 273.57 33.1
-1 6 4 262.97 22.1
-1 6 4 248.98 34.1
0 -6 -4 1393.26 77.39
-6 6 -4 1296.67 68.59
6 0 -4 1365.66 70.59
-6 6 -4 1277.17 77.59
0 6 4 1300.77 77.49
6 -6 4 1259.87 68.79
-6 0 4 1313.77 70.19
0 6 4 1294.17 66.59
-6 0 4 1328.17 77.29
6 -6 4 1358.36 77.99
-1 -6 -4 106.29 24.5
-6 7 -4 73.69 20
-6 7 -4 113.59 18.4
7 -1 -4 122.69 19.2
6 -7 4 101.19 24.1
1 6 4 100.99 21.2
-7 1 4 101.99 22.2
-7 1 4 108.59 18.1
6 -7 4 107.29 16.7
-6 8 -4 729.33 52.09
-6 8 -4 659.93 42.5
-2 -6 -4 673.23 52.59
8 -2 -4 671.13 43.4
-8 2 4 678.13 43.4
-8 2 4 703.53 51.69
6 -8 4 674.13 41.9
6 -8 4 731.93 51.19
2 6 4 762.02 53.09
-6 9 -4 96.09 24.7
-6 9 -4 107.69 18.7
9 -3 -4 136.59 20.1
-3 -6 -4 44.5 18.9
3 6 4 87.09 23.3
6 -9 4 89.39 16
-9 3 4 109.19 22
-9 3 4 131.89 20.5
6 -9 4 106.89 22.9
10 -4 -4 780.12 45.4
-6 10 -4 739.83 53.59
-4 -6 -4 732.93 55.79
-6 10 -4 722.73 45.2
4 6 4 667.23 52.69
-10 4 4 703.13 53.89
-10 4 4 716.03 45.5
6 -10 4 675.83 51.29
6 -10 4 672.93 42.8
-6 11 -4 69.09 21.7
-6 11 -4 70.99 17.2
11 -5 -4 72.99 16.3
-5 -6 -4 40.6 20
-11 5 4 100.29 30.7
6 -11 4 71.99 14.8
-11 5 4 42.7 14.8
5 6 4 82.59 22.9
6 -11 4 28.4 18.5
-6 12 -4 693.53 45.6
-6 -6 -4 759.32 59.09
-6 12 -4 723.83 53.29
12 -6 -4 681.73 44.1
-12 6 4 719.43 47
6 -12 4 707.83 52.09
6 6 4 678.23 53.89
-12 6 4 815.32 58.29
6 -12 4 717.13 43.4
-6 13 -4 38.6 15.2
-7 -6 -4 57.39 26.2
-6 13 -4 74.89 22
13 -7 -4 40.7 14.1
6 -13 4 28.1 11.5
6 -13 4 28.8 17.7
-13 7 4 40.8 21.4
12 -7 -4 247.48 24.2
-5 12 -4 287.67 34.1
-7 -5 -4 194.78 37.2
-5 12 -4 271.07 28
-12 7 4 218.08 35.5
-12 7 4 236.98 26.6
5 -12 4 243.98 32
5 -12 4 252.17 23.4
-4 11 -4 62.29 16.2
11 -7 -4 47.1 12.7
-4 11 -4 45.2 19.2
-7 -4 -4 19.1 20.4
4 -11 4 59.69 20.1
-11 7 4 18.5 18.2
7 4 4 29.8 18.8
-11 7 4 26.8 11.8
4 -11 4 56.19 13.7
-3 10 -4 224.58 30.6
-3 10 -4 161.08 23.2
-7 -3 -4 143.39 30.4
-10 7 4 189.58 31.3
-10 7 4 180.28 21.4
3 -10 4 205.18 29.6
3 -10 4 205.48 21
7 3 4 227.78 30.6
-2 9 -4 25.6 13.7
-2 9 -4 28.8 18.4
9 -7 -4 30.4 10.6
-7 -2 -4 6.7 19.3
2 -9 4 32.3 11.5
2 -9 4 28.1 19
-9 7 4 16.6 17.8
7 2 4 6.5 16.6
-9 7 4 49.2 13.5
-7 -1 -4 202.78 33.8
-1 8 -4 250.07 25
-1 8 -4 207.78 28
8 -7 -4 183.78 18.3
1 -8 4 207.68 29.4
1 -8 4 220.28 22.2
-8 7 4 212.88 21.8
7 1 4 246.78 34.5
-8 7 4 251.37 33.5
0 7 -4 57.09 17
7 -7 -4 65.19 11.4
-7 0 -4 45.9 20.3
0 7 -4 69.29 15.9
0 -7 4 78.49 22.6
-7 7 4 35.3 18
7 0 4 47.2 18.9
-7 7 4 77.99 14.5
0 -7 4 50.39 12.5
1 6 -4 126.29 19.3
6 -7 -4 117.99 21
-7 1 -4 128.59 25.2
1 6 -4 141.59 22.5
-1 -6 4 125.09 26
-6 7 4 122.49 16.2
7 -1 4 103.79 17.2
-6 7 4 149.09 28.8
7 -1 4 126.79 23.6
-1 -6 4 106.49 16.9
-7 2 -4 81.89 24.6
2 5 -4 160.58 23.5
2 5 -4 108.09 18.9
5 -7 -4 101.49 19.1
-2 -5 4 92.39 22.9
-2 -5 4 107.79 17.7
7 -2 4 115.29 23.7
7 -2 4 85.79 15.9
-5 7 4 94.09 22.8
-5 7 4 117.89 16.5
4 -7 -4 65.59 18
3 4 -4 67.29 16.2
3 4 -4 73.49 17
-7 3 -4 41.5 23
-4 7 4 61.39 21.1
-3 -4 4 38.2 17.2
-4 7 4 43 11.1
7 -3 4 66.49 21.8
-3 -4 4 63.99 14.1
7 -3 4 71.69 15.7
4 3 -4 58.59 15.5
-7 4 -4 42.8 22.4
3 -7 -4 50.29 15.8
-3 7 4 74.79 13.3
-3 7 4 45 20.5
-4 -3 4 54.69 14
-4 -3 4 43.2 17.3
7 -4 4 43.6 16.5
7 -4 4 61.19 13.7
5 2 -4 148.49 20.8
2 -7 -4 70.69 19.8
-7 5 -4 92.99 26.3
-5 -2 4 117.19 18.6
-5 -2 4 94.39 23.3
-2 7 4 125.49 25.8
7 -5 4 67.79 15.7
-2 7 4 128.09 17.1
7 -5 4 120.09 27.2
1 -7 -4 49.99 19
-7 6 -4 60.79 21
6 1 -4 156.38 21.3
-1 7 4 84.59 20.4
7 -6 4 131.49 25.4
7 -6 4 111.59 18.1
-6 -1 4 108.19 21.1
-1 7 4 121.09 16.3
-6 -1 4 95.19 18.2
-7 7 -4 91.89 25.3
0 -7 -4 43.2 20.2
7 0 -4 59.69 15.8
-7 7 -4 68.29 14.7
-7 0 4 67.89 20.4
0 7 4 73.89 21.7
7 -7 4 41.8 12.6
7 -7 4 34.2 17.9
-7 0 4 43.6 13.3
-7 8 -4 299.97 34.8
8 -1 -4 215.58 24.5
-7 8 -4 223.58 23.8
-1 -7 -4 193.18 30.5
-8 1 4 245.08 24.5
7 -8 4 313.07 33.5
1 7 4 296.47 34.6
7 -8 4 219.48 22.4
-8 1 4 173.08 29
-2 -7 -4 56.99 23.5
-7 9 -4 18 11.3
-7 9 -4 31.9 19.7
9 -2 -4 31.4 13.8
2 7 4 23.4 19.2
-9 2 4 20.7 12.2
-9 2 4 39.3 18.9
7 -9 4 11.3 16
7 -9 4 13.5 10.8
-7 10 -4 192.68 23.1
-7 10 -4 156.78 28
-3 -7 -4 208.88 34.7
10 -3 -4 192.48 24.1
3 7 4 152.28 27.2
-10 3 4 201.28 23.7
-10 3 4 219.28 33.8
7 -10 4 233.58 32.5
7 -10 4 211.48 21.4
-7 11 -4 46.1 22.2
-4 -7 -4 18.6 20.4
-7 11 -4 70.39 16.9
11 -4 -4 51.29 15.5
7 -11 4 38.5 12.7
4 7 4 63.99 20.3
-11 4 4 21.4 18
-11 4 4 41.1 14.2
-7 12 -4 245.98 25.8
12 -5 -4 227.08 25.5
-5 -7 -4 272.77 40.4
-7 12 -4 280.47 37
7 -12 4 203.88 22.4
-12 5 4 367.46 46.5
7 -12 4 263.47 32.4
5 7 4 224.18 35.1
13 -6 -4 35.7 14.3
-7 13 -4 13.1 14.3
-6 -7 -4 41.8 25.8
-7 13 -4 23.5 19.7
-13 6 4 35.8 15.4
7 -13 4 37.3 11.9
-13 6 4 34.2 21.3
7 -13 4 33.9 18
-7 14 -4 155.28 28.6
-7 14 -4 109.49 20.4
14 -7 -4 149.69 21.3
-7 -7 -4 72.79 44.8
7 -14 4 168.38 27.2
-14 7 4 106.39 22.1
7 -14 4 147.39 19.2
-14 7 4 147.59 30.4
15 -8 -4 46.9 14.6
-7 15 -4 27 14.7
-7 15 -4 31.9 20.4
-8 -7 -4 29.7 26.1
7 -15 4 85.99 21.3
8 7 4 23.3 17.9
7 -15 4 48.7 12.1
-15 8 4 58.09 25.9
-15 8 4 67.49 18.4
-6 14 -4 416.86 35.1
-8 -6 -4 325.37 45.8
14 -8 -4 419.26 31.6
-6 14 -4 438.66 40.8
-14 8 4 442.26 46.5
6 -14 4 471.05 31.3
6 -14 4 413.66 38.6
-14 8 4 390.36 36.2
-8 -5 -4 52.19 29.7
-5 13 -4 57.19 21.1
-5 13 -4 54.39 16.3
13 -8 -4 68.19 14.2
-13 8 4 48 15.7
-13 8 4 40.5 21
5 -13 4 54.59 13.6
5 -13 4 15.6 17.3
-4 12 -4 593.44 45.5
-8 -4 -4 520.25 66.99
12 -8 -4 611.84 38.8
-4 12 -4 624.64 41.6
-12 8 4 562.94 39.9
-12 8 4 637.04 52.69
4 -12 4 547.05 47.1
4 -12 4 626.04 38.6
-3 11 -4 59.69 16.6
-3 11 -4 52.49 18.9
-8 -3 -4 99.39 26.7
11 -8 -4 73.19 13.4
3 -11 4 45.6 13.3
3 -11 4 51.29 20.4
-11 8 4 61.79 21.4
-11 8 4 59.39 14.9
10 -8 -4 661.53 37.1
-8 -2 -4 602.84 55.99
-2 10 -4 635.24 43.2
-2 10 -4 640.14 46.1
8 2 4 645.44 50.99
-10 8 4 693.43 41.7
-10 8 4 553.54 49.9
2 -10 4 644.84 40.4
2 -10 4 705.73 50.69
-1 9 -4 28.9 14
-8 -1 -4 32.6 20.9
9 -8 -4 33.5 9.7
-1 9 -4 25.5 15.5
8 1 4 71.09 21.9
1 -9 4 39.7 11.9
-9 8 4 36.9 12.5
1 -9 4 18.7 19.4
-9 8 4 60.69 21.9
-8 0 -4 799.92 59.89
0 8 -4 788.22 47.8
0 8 -4 684.53 48.6
0 -8 4 759.32 45.2
0 -8 4 764.72 53.79
8 0 4 674.13 53.59
-8 8 4 740.63 55.09
-8 8 4 762.92 43.7
-8 1 -4 213.08 31.6
1 7 -4 211.28 26.2
1 7 -4 217.48 24.3
-1 -7 4 175.08 21.3
-7 8 4 253.77 21.3
-7 8 4 219.68 29.5
8 -1 4 255.97 42.1
-1 -7 4 210.58 31.3
2 6 -4 674.63 45.7
-8 2 -4 697.13 54.99
6 -8 -4 662.33 46.8
2 6 -4 726.33 45.7
-6 8 4 733.23 40.5
-2 -6 4 631.24 49.9
-6 8 4 668.93 51.69
8 -2 4 662.93 51.29
-2 -6 4 689.03 43
8 -2 4 709.43 44.1
3 5 -4 98.49 19.4
-8 3 -4 64.39 22.3
5 -8 -4 52.19 18.1
-5 8 4 94.09 24.1
-5 8 4 82.69 13.3
8 -3 4 48.1 19.2
8 -3 4 76.49 16.4
-3 -5 4 68.99 20.2
-3 -5 4 68.79 14.9
-8 4 -4 589.44 50.69
4 4 -4 681.93 43.1
4 -8 -4 610.54 45
8 -4 4 652.93 49
8 -4 4 612.04 39.8
-4 -4 4 646.74 41.1
-4 -4 4 592.44 47.9
-4 8 4 601.44 49
-4 8 4 622.14 36.8
3 -8 -4 61.39 18
5 3 -4 78.19 16.7
-8 5 -4 73.49 22.4
-5 -3 4 68.49 15.4
-3 8 4 97.99 13.8
8 -5 4 85.59 20.4
-3 8 4 72.59 20.8
8 -5 4 70.99 15.5
-5 -3 4 63.29 19.7
-8 6 -4 701.03 54.19
2 -8 -4 658.93 49.5
6 2 -4 729.53 45.7
-2 8 4 702.73 39.8
8 -6 4 692.53 43.2
-6 -2 4 662.63 43.7
-6 -2 4 697.73 51.89
-2 8 4 623.24 50.79
8 -6 4 757.62 53.09
1 -8 -4 193.98 29
7 1 -4 213.48 24.6
-8 7 -4 235.18 37.3
8 -7 4 208.28 33
-7 -1 4 229.18 24.4
-1 8 4 277.47 37
8 -7 4 181.58 21.8
-7 -1 4 239.88 31.7
0 -8 -4 674.83 52.89
-8 8 -4 719.23 55.09
8 0 -4 745.43 47.8
8 -8 4 655.73 51.69
-8 0 4 743.03 53.59
-8 0 4 850.51 48.4
0 8 4 823.02 55.99
8 -8 4 700.13 44.3
-1 -8 -4 46.2 21.5
-8 9 -4 34.3 18.3
-8 9 -4 46.7 13.8
9 -1 -4 54.19 16.3
-9 1 4 35.5 17.7
8 -9 4 37 12.3
8 -9 4 49.9 18.4
1 8 4 46.3 20.3
-9 1 4 33.1 13
-8 10 -4 639.84 52.49
-2 -8 -4 643.04 52.69
-8 10 -4 673.33 43.1
10 -2 -4 670.03 44.5
8 -10 4 688.43 42.1
-10 2 4 684.73 45.6
8 -10 4 672.33 50.69
-10 2 4 657.83 51.59
2 8 4 699.03 51.79
-8 11 -4 93.89 27
11 -3 -4 76.69 17.6
-3 -8 -4 59.49 22.4
-8 11 -4 45.9 14.8
3 8 4 66.79 22
8 -11 4 59.09 14.3
-11 3 4 51.79 21.8
8 -11 4 57.09 20.4
-4 -8 -4 538.95 51.29
12 -4 -4 634.44 41.5
-8 12 -4 563.24 39.7
-8 12 -4 532.05 47.9
4 8 4 528.45 46.8
8 -12 4 603.14 46.7
-12 4 4 558.84 41.9
8 -12 4 572.64 37.3
-12 4 4 577.24 50.49
-8 13 -4 55.69 16.3
13 -5 -4 91.49 19.8
-5 -8 -4 57.69 25.8
-8 13 -4 29.4 19.6
-13 5 4 39.5 15.2
8 -13 4 63.09 14.3
5 8 4 45.1 18.8
-13 5 4 63.19 23.5
8 -13 4 85.99 22.7
-8 14 -4 392.46 41.5
-8 14 -4 370.46 32.6
-6 -8 -4 423.56 46.5
14 -6 -4 409.96 33.6
-14 6 4 406.16 45
8 -14 4 389.96 29.1
-14 6 4 430.36 35.7
8 -14 4 364.56 37.1
15 -7 -4 35.6 14.8
-8 15 -4 59.89 23
-8 15 -4 53.69 17.2
-7 -8 -4 39.3 26
-15 7 4 6.4 13.6
-15 7 4 19.6 21.6
8 -15 4 34.3 11.6
-8 16 -4 614.84 43.3
16 -8 -4 608.74 42.6
-8 -8 -4 650.63 59.39
-8 16 -4 603.34 49.3
-16 8 4 639.84 57.79
8 -16 4 654.03 37.7
-16 8 4 586.64 46
8 8 4 655.63 48
-8 17 -4 9.3 13.4
-8 17 -4 48.4 21.4
-9 -8 -4 50.69 27
17 -9 -4 42.4 15
8 -17 4 41.9 12.8
8 -17 4 60.39 11.6
-17 9 4 39 23.3
9 8 4 54.69 19.6
-17 9 4 45.9 18.2
16 -9 -4 295.37 27.5
-7 16 -4 280.77 29.5
-7 16 -4 292.47 35.3
-9 -7 -4 261.87 43.2
-16 9 4 239.48 36.3
7 -16 4 288.57 23.1
9 7 4 266.57 32.9
-16 9 4 257.87 31
-9 -6 -4 44.4 23.9
15 -9 -4 43.3 14.1
-6 15 -4 66.99 21.7
-6 15 -4 53.59 16.8
9 6 4 49.99 19.3
-15 9 4 40.9 16.4
-15 9 4 24.7 22
6 -15 4 52.79 12.6
6 -15 4 55.79 21
-5 14 -4 93.89 22.6
14 -9 -4 127.59 18.4
-5 14 -4 119.99 20.7
-9 -5 -4 180.38 33.7
9 5 4 100.49 22.2
-14 9 4 122.99 30.3
-14 9 4 174.38 35.9
5 -14 4 137.09 25.6
5 -14 4 152.68 19.4
-9 -4 -4 50.89 25.5
-4 13 -4 53.49 16.8
-4 13 -4 37 17.8
4 -13 4 50.49 20.6
4 -13 4 44.6 13.2
9 4 4 28.6 17.8
-13 9 4 79.29 16.6
-13 9 4 30.6 21.9
-9 -3 -4 135.59 29.5
-3 12 -4 127.29 22.8
12 -9 -4 121.29 16.2
-3 12 -4 131.09 21.6
3 -12 4 142.59 27
-12 9 4 129.19 19.7
3 -12 4 155.78 19.3
-12 9 4 116.99 27.7
-2 11 -4 63.69 19.5
-9 -2 -4 87.19 33.9
-2 11 -4 70.29 17.7
11 -9 -4 78.59 13
2 -11 4 77.39 22.6
-11 9 4 103.69 18.1
2 -11 4 78.59 15
-11 9 4 100.19 27.3
10 -9 -4 192.98 17.4
-1 10 -4 187.48 24.3
-9 -1 -4 225.98 49.3
-1 10 -4 219.28 29.4
1 -10 4 196.38 22.1
-10 9 4 219.48 22.5
1 -10 4 210.98 34
-10 9 4 244.88 36.2
-9 0 -4 143.39 33.2
0 9 -4 140.09 24.5
0 9 -4 134.09 22.2
-9 9 4 141.49 18.4
0 -9 4 127.59 19.6
-9 9 4 103.99 24.4
0 -9 4 136.79 26.6
-9 1 -4 71.49 26.9
1 8 -4 46.4 15.9
1 8 -4 48.8 14.6
-1 -8 4 56.79 20.5
-8 9 4 17.6 19.5
-8 9 4 63.19 13
-1 -8 4 45.3 12.7
2 7 -4 26.6 14.1
-9 2 -4 40.9 19.9
-2 -7 4 17.7 11.4
9 -2 4 38 17
-2 -7 4 37.9 19.4
-7 9 4 8.5 16.6
-7 9 4 31.6 11
3 6 -4 101.89 19.2
6 -9 -4 100.19 20.6
-9 3 -4 107.59 26.8
9 -3 4 92.89 18.5
-6 9 4 93.89 13.9
-6 9 4 84.89 23.4
9 -3 4 63.29 19.2
-3 -6 4 85.89 16.5
-3 -6 4 103.59 23.2
5 -9 -4 87.99 19.8
4 5 -4 122.09 20.1
-9 4 -4 76.79 24.1
9 -4 4 117.49 18.9
-4 -5 4 111.29 22.6
-4 -5 4 88.09 17.2
-5 9 4 99.79 14.6
-5 9 4 71.09 23.1
9 -4 4 100.09 23.7
4 -9 -4 81.79 19.7
-9 5 -4 110.39 29.9
5 4 -4 100.69 20.2
9 -5 4 107.69 22.3
-5 -4 4 93.09 17.4
-5 -4 4 78.99 20.9
-4 9 4 95.79 13.9
9 -5 4 106.59 18.1
-4 9 4 92.39 22.9
3 -9 -4 82.19 20.2
-9 6 -4 100.29 27.1
6 3 -4 102.69 20.3
-3 9 4 115.49 26.6
9 -6 4 104.79 18.5
-3 9 4 98.49 14.2
-6 -3 4 86.99 17.5
9 -6 4 108.39 25
-6 -3 4 93.09 23.7
-9 7 -4 17.2 18
2 -9 -4 18 18
7 2 -4 49.3 15.2
-7 -2 4 40.4 20
9 -7 4 17.3 15.6
9 -7 4 44.9 13.5
-7 -2 4 21 12.1
-2 9 4 45.4 22.9
1 -9 -4 38.4 21.2
8 1 -4 63.49 16.9
-9 8 -4 32.8 21.3
9 -8 4 53.99 13.7
9 -8 4 25.5 17.8
-1 9 4 2.2 17.6
-8 -1 4 54.49 14.9
-8 -1 4 53.99 20.3
0 -9 -4 96.19 22.9
-9 9 -4 113.69 25
9 0 -4 130.79 22.4
9 -9 4 126.89 23.6
0 9 4 123.19 25.2
-9 0 4 121.39 22.2
9 -9 4 103.39 18.8
-9 0 4 147.19 27.5
-9 10 -4 185.98 32.1
-9 10 -4 190.68 23.3
-1 -9 -4 198.08 33
10 -1 -4 191.88 25.4
-10 1 4 233.18 35.8
1 9 4 219.38 34.3
9 -10 4 214.08 32.7
9 -10 4 224.88 23.2
-9 11 -4 77.69 17.2
11 -2 -4 68.59 17.4
-2 -9 -4 54.99 24.3
-9 11 -4 28.6 20.3
9 -11 4 50.19 19.5
2 9 4 103.19 24.4
-11 2 4 67.39 24.3
-11 2 4 91.29 18.8
9 -11 4 54.09 14.3
12 -3 -4 156.48 23.9
-9 12 -4 144.79 29.2
-3 -9 -4 130.09 28
-9 12 -4 110.19 19.9
3 9 4 139.49 26.1
-12 3 4 132.79 22.2
-12 3 4 109.89 25.9
9 -12 4 149.69 19.6
-4 -9 -4 67.19 26.2
-9 13 -4 44.1 15.2
13 -4 -4 64.29 17
-9 13 -4 94.49 23.8
-13 4 4 62.89 20
9 -13 4 26.5 11.5
-13 4 4 65.29 17.1
4 9 4 68.19 22.4
-9 14 -4 81.49 23.8
14 -5 -4 129.29 21.5
-9 14 -4 121.69 21.4
-5 -9 -4 100.49 28.7
-14 5 4 108.89 21.1
9 -14 4 103.19 16.5
-14 5 4 103.39 24.1
-9 15 -4 25.3 15.1
-9 15 -4 80.79 25.3
-6 -9 -4 37.3 29.2
15 -6 -4 45.9 15.9
-15 6 4 42.7 22.2
9 -15 4 41.7 12
-15 6 4 15.1 14.3
9 -15 4 35 24
-7 -9 -4 210.68 36.8
-9 16 -4 210.38 32.4
16 -7 -4 261.57 28.6
-9 16 -4 275.07 29.7
-16 7 4 260.47 30.5
7 9 4 273.67 33
9 -16 4 277.97 22.8
9 -16 4 243.88 26.9
-9 17 -4 30.9 19.9
-9 17 -4 77.79 19
17 -8 -4 71.19 17.5
-8 -9 -4 45.6 26.9
9 -17 4 39 12.7
9 -17 4 36.8 10.9
8 9 4 54.79 19.8
-17 8 4 71.49 19.5
-9 18 -4 149.39 26.9
-9 18 -4 165.48 25
-9 -9 -4 81.29 29.8
18 -9 -4 176.58 24
9 -18 4 155.18 15.5
9 9 4 117.59 25.4
-18 9 4 95.39 23.4
9 -18 4 161.38 14.7
-9 19 -4 16.5 17.5
-9 19 -4 32.7 16.6
-10 -9 -4 77.09 33.7
19 -10 -4 21.5 13
10 9 4 26.5 18.9
-19 10 4 32 16.6
18 -10 -4 386.96 32
-8 18 -4 404.46 35.3
-8 18 -4 402.76 37.5
-10 -8 -4 397.76 50.89
-18 10 4 327.07 35.9
8 -18 4 405.36 24.8
8 -18 4 399.96 23.9
10 8 4 364.36 38.3
17 -10 -4 28.3 13.7
-7 17 -4 66.79 17.9
-10 -7 -4 42.7 26.1
-7 17 -4 37.1 19
-17 10 4 29.9 16.1
7 -17 4 46.9 11.2
10 7 4 51.59 19.6
-17 10 4 -13.9 18.6
-6 16 -4 585.44 44.2
16 -10 -4 574.24 37.6
-6 16 -4 555.94 42.1
-10 -6 -4 571.84 58.19
6 -16 4 549.85 46.1
10 6 4 556.84 45.4
-16 10 4 643.74 55.49
6 -16 4 578.54 35.4
-16 10 4 564.14 43
-5 15 -4 48.5 16.5
-10 -5 -4 43.8 29.4
15 -10 -4 39.7 13.1
-5 15 -4 34.5 18.4
-15 10 4 54.69 16.5
5 -15 4 41.2 11.7
-15 10 4 75.29 25.9
10 5 4 73.09 20.2
5 -15 4 44.1 20.3
-4 14 -4 412.16 35
14 -10 -4 496.65 34.9
-10 -4 -4 394.46 49.1
-4 14 -4 391.46 36.7
4 -14 4 401.46 41.1
10 4 4 411.06 38.8
-14 10 4 463.45 47.2
4 -14 4 426.36 30.9
-14 10 4 452.45 34.5
-3 13 -4 102.19 21
-10 -3 -4 92.89 26.8
13 -10 -4 79.59 13.1
-3 13 -4 99.19 20.5
10 3 4 67.39 21.1
3 -13 4 48 21.8
3 -13 4 101.29 16.9
-13 10 4 89.89 17.5
-13 10 4 51.79 22.5
12 -10 -4 574.34 32.8
-2 12 -4 528.05 40.5
-10 -2 -4 600.14 55.89
-2 12 -4 549.35 41.4
2 -12 4 577.34 47.4
-12 10 4 592.84 51.69
-12 10 4 553.94 38.4
2 -12 4 600.54 38.2
10 2 4 624.44 45.6
-1 11 -4 65.09 18
-1 11 -4 60.79 16.6
-10 -1 -4 61.19 26.6
10 1 4 63.29 19.7
-11 10 4 52.69 14.1
1 -11 4 33.1 22.2
1 -11 4 58.79 14.4
-11 10 4 57.59 22.6
0 10 -4 758.32 49.2
0 10 -4 732.63 48.5
-10 0 -4 673.73 60.49
0 -10 4 782.22 54.99
-10 10 4 801.02 58.29
0 -10 4 765.82 46.7
-10 10 4 747.83 44.8
-10 1 -4 196.28 44.5
1 9 -4 158.88 23.8
-1 -9 4 175.88 23
-9 10 4 233.08 20.8
-1 -9 4 201.08 30.7
-9 10 4 159.48 28.6
-10 2 -4 573.14 74.99
2 8 -4 690.13 45.9
-2 -8 4 712.33 43.7
-8 10 4 597.14 52.19
-2 -8 4 720.23 52.19
-8 10 4 674.63 39.9
-10 3 -4 236.18 40.4
3 7 -4 201.98 24
-3 -7 4 192.98 30.8
-7 10 4 178.48 18.2
-3 -7 4 142.39 22.4
-7 10 4 185.18 31.7
-10 4 -4 733.53 59.39
4 6 -4 681.63 46.3
6 -10 -4 704.13 48.6
-4 -6 4 715.83 45.6
10 -4 4 704.13 46.2
-6 10 4 726.93 53.99
-4 -6 4 730.13 52.59
-6 10 4 712.03 40.4
5 5 -4 132.59 22.6
5 -10 -4 137.69 22.9
-10 5 -4 157.18 29.9
-5 10 4 157.08 17.1
-5 -5 4 135.99 24.8
10 -5 4 145.29 21.9
-5 -5 4 168.68 21.7
-5 10 4 138.69 27.7
6 4 -4 803.52 50.19
-10 6 -4 762.92 58.99
4 -10 -4 592.34 48.6
10 -6 4 727.13 45.8
-6 -4 4 761.32 54.69
-4 10 4 693.73 53.59
-6 -4 4 726.93 46.8
-4 10 4 738.53 40.6
7 3 -4 201.88 25.6
-10 7 -4 175.58 33.8
3 -10 -4 217.48 32.4
-3 10 4 203.78 34.4
-7 -3 4 163.18 29.2
-3 10 4 210.48 19.1
-7 -3 4 183.38 22
10 -7 4 199.78 22.8
2 -10 -4 578.94 49
8 2 -4 754.72 48.1
-10 8 -4 656.83 55.49
-2 10 4 676.13 51.89
-8 -2 4 659.53 52.59
10 -8 4 681.03 43.3
-8 -2 4 750.82 62.59
-10 9 -4 196.18 35.9
1 -10 -4 191.78 28.8
9 1 -4 224.48 27.1
-9 -1 4 195.88 30.5
-1 10 4 191.18 30.9
-9 -1 4 243.98 33.9
10 -9 4 219.18 23.3
-10 10 -4 758.42 58.69
0 -10 -4 751.52 55.79
10 0 -4 786.32 51.69
10 -10 4 714.03 46
-10 0 4 755.52 49.8
-10 0 4 783.62 57.89
0 10 4 837.02 57.19
-1 -10 -4 76.59 24
-10 11 -4 34.9 20
11 -1 -4 78.99 20.1
1 10 4 48.9 21.4
10 -11 4 60.99 14.8
-11 1 4 78.89 25
-11 1 4 69.69 17.8
12 -2 -4 586.14 43.2
-2 -10 -4 582.54 50.69
-10 12 -4 508.25 39.3
-10 12 -4 574.94 50.89
10 -12 4 584.14 38.5
2 10 4 559.94 48.2
-12 2 4 616.04 51.69
-12 2 4 613.34 43.3
-10 13 -4 79.29 18.6
-3 -10 -4 79.29 24
-10 13 -4 95.49 27
13 -3 -4 112.09 22.5
10 -13 4 89.99 16.6
-13 3 4 97.89 20.7
3 10 4 119.09 27.1
-13 3 4 119.09 29.7
10 -13 4 93.99 19.3
-4 -10 -4 408.46 46.9
-10 14 -4 365.96 33.3
-10 14 -4 393.96 44.4
14 -4 -4 516.95 39.4
4 10 4 450.95 42.8
10 -14 4 426.16 31.2
-14 4 4 474.25 47.5
10 -14 4 468.65 34.9
-14 4 4 375.06 35.5
-10 15 -4 34.4 21.1
-10 15 -4 32.8 15.5
15 -5 -4 57.49 18.8
-5 -10 -4 45.2 28.1
10 -15 4 66.99 13.9
-15 5 4 56.09 18.2
10 -15 4 42.8 16.7
-10 16 -4 558.84 49.99
-10 16 -4 614.14 43
16 -6 -4 572.04 43.8
-16 6 4 541.35 44.7
10 -16 4 628.64 44.3
10 -16 4 593.74 36.6
-10 17 -4 43.3 16
17 -7 -4 38.3 16.1
-10 17 -4 37.2 22.2
-7 -10 -4 13.9 26.1
7 10 4 27.3 18.5
-17 7 4 44.3 18.1
10 -17 4 29.3 12
10 -17 4 38.7 10.5
18 -8 -4 341.17 33.9
-8 -10 -4 392.36 48.6
-10 18 -4 366.66 34.2
-10 18 -4 347.77 39.7
-18 8 4 449.36 39.4
10 -18 4 396.76 24.3
10 -18 4 419.46 25
8 10 4 375.06 37.9
-10 19 -4 51.29 21.9
-10 19 -4 67.59 18.3
-9 -10 -4 64.69 30.7
19 -9 -4 27.1 15.6
9 10 4 42.3 19.3
-19 9 4 52.79 20.7
20 -10 -4 417.86 35.4
-10 20 -4 408.76 38.6
-10 -10 -4 355.86 50.09
-10 20 -4 399.96 36.5
-20 10 4 347.07 40
-10 21 -4 12.4 16
21 -11 -4 15.1 12.8
-10 21 -4 2.2 14.9
-11 -10 -4 13 28
11 10 4 9.6 18.3
-21 11 4 -3 16.9
-9 20 -4 306.77 31
-11 -9 -4 180.48 38.5
-9 20 -4 232.78 30
20 -11 -4 218.98 26.6
-20 11 4 242.48 34.3
11 9 4 234.08 36.7
-8 19 -4 1.3 12.8
19 -11 -4 0.1 12.2
-11 -8 -4 15.4 24.4
-8 19 -4 61.59 19.3
11 8 4 27.7 19
-19 11 4 16.3 16.3
-11 -7 -4 118.39 34.4
-7 18 -4 205.68 27.2
-7 18 -4 239.78 28.2
18 -11 -4 172.88 22
11 7 4 164.88 27.6
7 -18 4 216.38 18.4
-18 11 4 145.59 35.6
7 -18 4 201.88 16.3
-18 11 4 185.18 28.3
-6 17 -4 27.2 14.6
17 -11 -4 25.6 12.3
-6 17 -4 27.7 15.9
-11 -6 -4 2.2 21.3
-17 11 4 18.4 23.2
11 6 4 22.1 18.3
6 -17 4 8.9 8.9
-17 11 4 12.4 14.2
-11 -5 -4 362.36 47.6
-5 16 -4 287.97 30.5
-5 16 -4 319.87 31.3
5 -16 4 282.67 23.8
-16 11 4 292.47 30.8
11 5 4 260.67 35.2
-16 11 4 254.77 39.1
-4 15 -4 46.1 17.7
-4 15 -4 82.99 19.4
15 -11 -4 46.4 11.9
-11 -4 -4 29.3 23.5
-15 11 4 42.5 23.4
11 4 4 45 19.4
4 -15 4 49.99 12.7
4 -15 4 19 33.3
-11 -3 -4 147.99 36.1
-3 14 -4 116.89 21.2
14 -11 -4 123.89 14.9
-3 14 -4 91.49 18.9
3 -14 4 88.79 28
11 3 4 93.09 22.3
-14 11 4 116.39 20.2
-14 11 4 91.19 25.7
3 -14 4 125.19 18.1
-11 -2 -4 17 21.1
-2 13 -4 18.6 14.2
-2 13 -4 8.5 13
13 -11 -4 23.4 8.7
11 2 4 9.1 15.1
2 -13 4 61.39 23.1
-13 11 4 21.9 12
-13 11 4 17.5 20.9
2 -13 4 38.5 12.7
-11 -1 -4 168.58 37.9
-1 12 -4 169.28 24.9
11 1 4 146.19 24.7
1 -12 4 168.98 20.9
-12 11 4 181.58 32
1 -12 4 162.78 28.7
-12 11 4 191.98 22.1
-11 0 -4 30.3 23.9
0 11 -4 41.7 15.9
-11 11 4 60.09 14.5
11 0 4 41.8 16.5
0 -11 4 42.1 22
0 -11 4 61.69 15
-11 11 4 51.79 22.2
1 10 -4 48.5 16.5
-11 1 -4 53.99 24.9
-1 -10 4 67.19 23.5
-1 -10 4 56.69 15.3
11 -1 4 66.69 19
-10 11 4 92.69 27.6
-10 11 4 67.19 14.2
2 9 -4 100.69 20.4
-11 2 -4 88.99 28.7
11 -2 4 63.69 20.1
-9 11 4 149.69 26.4
-2 -9 4 78.59 16.4
-2 -9 4 53.69 22.2
-9 11 4 79.19 14.8
3 8 -4 65.39 18.3
-11 3 -4 56.39 27.5
-3 -8 4 64.49 21.2
-8 11 4 70.59 24.1
-8 11 4 75.49 13.5
-3 -8 4 56.99 15.5
11 -3 4 54.99 19.2
4 7 -4 53.79 17.6
-11 4 -4 41.5 23
11 -4 4 46.7 18.7
-7 11 4 42.6 10.9
-4 -7 4 45.1 14.2
-7 11 4 51.19 21.3
-4 -7 4 33.7 20.4
-11 5 -4 10.2 34.8
5 6 -4 72.09 18.9
6 -11 -4 34.1 16.4
-6 11 4 47.9 21.6
11 -5 4 55.99 18.4
-5 -6 4 25.1 21
11 -5 4 77.49 20.7
-5 -6 4 58.09 16.2
-6 11 4 51.39 11.4
5 -11 -4 69.19 18.4
-11 6 -4 42.5 24.1
6 5 -4 32.3 16.5
11 -6 4 80.79 18.5
-5 11 4 64.09 22.1
-6 -5 4 36.2 13.9
-6 -5 4 60.89 21.8
-5 11 4 66.39 12.5
-11 7 -4 53.89 21.3
4 -11 -4 118.29 22.8
7 4 -4 46.9 16.7
11 -7 4 46.1 14.4
-7 -4 4 15.2 17.6
-4 11 4 149.19 27.6
-11 8 -4 70.89 23
3 -11 -4 54.79 20
8 3 -4 74.99 19.8
11 -8 4 95.19 18.5
-3 11 4 46.7 23.4
-8 -3 4 45.2 14.4
-8 -3 4 74.29 22.4
9 2 -4 118.59 22.8
-11 9 -4 87.19 27.9
2 -11 -4 99.29 25.7
11 -9 4 120.79 22.9
11 -9 4 84.09 17.1
-9 -2 4 87.49 23.9
-9 -2 4 108.99 20.3
-2 11 4 43.9 22.4
10 1 -4 74.39 19.6
-11 10 -4 58.39 26.6
1 -11 -4 25.1 20.1
11 -10 4 66.19 15.8
11 -10 4 64.89 18.6
-1 11 4 29.6 19.7
-10 -1 4 80.59 18.7
-10 -1 4 80.09 23.3
-11 11 -4 52.79 26
11 0 -4 63.69 18.9
0 -11 -4 66.99 25.4
-11 0 4 48.7 22.9
11 -11 4 49.2 18.2
0 11 4 64.09 23.4
-11 0 4 37.6 15.7
11 -11 4 63.09 14.9
12 -1 -4 227.28 31.1
-11 12 -4 171.28 32.8
-1 -11 -4 232.78 35.1
11 -12 4 198.18 22.7
-12 1 4 181.58 32.6
11 -12 4 176.98 25.2
1 11 4 146.89 28.5
-12 1 4 211.18 26.4
13 -2 -4 19.2 15
-11 13 -4 4.4 21.3
-2 -11 -4 14.4 21.1
-13 2 4 39.1 15.7
11 -13 4 60.69 15.5
2 11 4 43.9 19.7
-13 2 4 35.5 21.2
11 -13 4 30.2 14.8
-11 14 -4 107.29 19.7
14 -3 -4 142.69 24.5
-3 -11 -4 66.19 24.6
-11 14 -4 70.99 23.4
-14 3 4 98.09 27
3 11 4 115.29 26
-14 3 4 88.49 19.6
11 -14 4 99.59 19.3
11 -14 4 91.19 16.1
-11 15 -4 48.3 24.9
-11 15 -4 32.6 16.4
15 -4 -4 47.5 17.5
-4 -11 -4 27.7 23.2
11 -15 4 35.6 15.3
-15 4 4 52.39 18.2
11 -15 4 24.5 11.7
-5 -11 -4 278.07 44
-11 16 -4 272.27 28.5
-11 16 -4 222.78 37
16 -5 -4 280.17 32.5
-16 5 4 319.27 33.5
11 -16 4 259.37 23.5
-6 -11 -4 38.4 24.5
17 -6 -4 43 16.3
-11 17 -4 0.6 18.7
-11 17 -4 14.3 13.6
11 -17 4 13.7 9.4
11 -17 4 21 11
-17 6 4 12.5 14.4
6 11 4 9.8 16.5
18 -7 -4 176.48 26.9
-7 -11 -4 174.78 36.5
-11 18 -4 154.88 30.9
-11 18 -4 175.68 26
11 -18 4 210.18 17.7
7 11 4 166.18 27.4
11 -18 4 206.28 17.3
-18 7 4 203.08 30.2
-11 19 -4 52.59 22.6
-11 19 -4 -3.1 12.9
19 -8 -4 32.7 16
-8 -11 -4 18.6 24.2
-19 8 4 49.4 19.7
8 11 4 28 17.9
-9 -11 -4 120.09 33.6
20 -9 -4 258.97 28.9
-11 20 -4 270.27 34.7
-11 20 -4 242.38 29.8
9 11 4 176.18 30.1
-20 9 4 231.18 34.2
-11 21 -4 19.1 15.9
-11 21 -4 10.3 18.7
-10 -11 -4 31.2 25.9
21 -10 -4 32.9 14.9
10 11 4 33.1 20.1
-21 10 4 -0.8 15.9
22 -11 -4 119.39 21.3
-11 22 -4 163.68 25.8
-11 -11 -4 46 27.1
-11 22 -4 152.68 24.6
11 11 4 141.89 28.2
-22 11 4 148.29 33.2
23 -12 -4 28.2 14
-11 23 -4 -4 14.9
-11 23 -4 18.1 13.8
-12 -11 -4 34.8 26.4
-23 12 4 43 25.6
12 11 4 47.7 20.4
-10 22 -4 234.68 31.9
-12 -10 -4 359.86 56.89
22 -12 -4 199.98 26.3
-10 22 -4 282.17 27.1
-22 12 4 217.38 35.9
12 10 4 229.08 36.5
-9 21 -4 29.7 14.2
21 -12 -4 38.8 14.7
-12 -9 -4 21.1 25.9
-9 21 -4 27.3 15.9
12 9 4 14.7 18.4
-21 12 4 10.8 17.9
-8 20 -4 371.26 32
-8 20 -4 373.36 35.5
20 -12 -4 376.06 30.8
-12 -8 -4 316.67 49.3
-20 12 4 380.56 39.5
12 8 4 367.96 40.2
-7 19 -4 35.1 16
-7 19 -4 63.29 17.8
19 -12 -4 26.4 13.1
-12 -7 -4 35.4 28.6
-19 12 4 56.89 18.7
12 7 4 24.8 29.7
-19 12 4 34.5 23.2
-6 18 -4 452.35 37.1
18 -12 -4 410.66 41
-6 18 -4 376.36 32.1
-12 -6 -4 328.57 53.99
12 6 4 408.26 39.8
-18 12 4 347.47 36.9
-18 12 4 416.06 49.1
6 -18 4 352.66 23.8
-5 17 -4 10.5 14.1
-5 17 -4 65.49 18
17 -12 -4 31.9 11.3
-12 -5 -4 63.79 30.4
12 5 4 28.9 18.2
-17 12 4 36.8 16.8
5 -17 4 52.69 11.8
-17 12 4 37.8 24.5
5 -17 4 70.49 18.8
-4 16 -4 518.55 40.6
16 -12 -4 522.55 30.6
-12 -4 -4 380.86 52.89
4 -16 4 504.65 33.4
12 4 4 541.85 44.7
4 -16 4 467.65 49.1
-16 12 4 517.55 40.4
-16 12 4 532.95 52.29
-3 15 -4 78.39 19.6
-12 -3 -4 34.8 25.9
15 -12 -4 63.79 10.6
-15 12 4 49.3 25
3 -15 4 90.59 15.3
12 3 4 77.39 22.4
-15 12 4 96.19 19.9
-2 14 -4 344.47 33.1
-12 -2 -4 388.66 49.4
2 -14 4 344.27 47.2
2 -14 4 396.16 29.8
-14 12 4 331.07 43.8
12 2 4 388.66 37.6
-14 12 4 350.16 30.9
-1 13 -4 19 14.1
-12 -1 -4 45.4 23.7
-13 12 4 44.6 13.6
-13 12 4 13.6 18.3
1 -13 4 39.9 12.8
12 1 4 14.1 16.5
1 -13 4 20.5 19.8
0 12 -4 436.36 37
-12 0 -4 524.05 52.69
0 -12 4 460.35 42.6
12 0 4 443.96 39.9
-12 12 4 444.96 33.1
0 -12 4 441.96 33.4
-12 12 4 368.36 45.1
-12 1 -4 160.38 36.7
1 11 -4 149.99 24.2
-1 -11 4 169.48 22.1
-11 12 4 197.68 21
-11 12 4 167.58 30.2
12 -1 4 160.38 26.4
-1 -11 4 171.28 29.8
-12 2 -4 509.65 53.19
2 10 -4 541.75 42.3
-2 -10 4 601.44 40.2
-10 12 4 556.34 35.9
-10 12 4 536.35 49.99
12 -2 4 551.84 42.4
-2 -10 4 595.24 48.4
-12 3 -4 100.39 29.8
3 9 -4 138.39 23.9
12 -3 4 108.19 23.1
-9 12 4 149.19 18.5
-3 -9 4 114.59 24
-9 12 4 127.09 28.1
-3 -9 4 111.09 18.8
-12 4 -4 547.25 55.39
4 8 -4 606.54 44.4
-4 -8 4 567.44 48.7
-8 12 4 559.14 50.79
12 -4 4 656.03 44.6
-8 12 4 567.34 35.8
-4 -8 4 647.94 41.8
-12 5 -4 239.48 39.8
5 7 -4 282.47 30.4
-5 -7 4 310.67 37.2
12 -5 4 265.97 30.7
12 -5 4 245.38 27.1
-5 -7 4 256.67 26.6
-7 12 4 232.68 37.5
-7 12 4 217.68 20.1
6 6 -4 738.73 50.89
-12 6 -4 690.23 60.89
12 -6 4 721.13 49.7
12 -6 4 757.72 58.39
-6 12 4 713.23 56.09
-6 12 4 734.63 40.7
-6 -6 4 727.63 54.59
5 -12 -4 231.08 29.3
7 5 -4 224.28 29.4
-12 7 -4 292.07 46.3
-7 -5 4 216.38 25.6
-5 12 4 198.08 31.1
-5 12 4 227.08 19.7
12 -7 4 238.38 28.9
12 -7 4 207.38 30.5
-7 -5 4 188.08 30.9
4 -12 -4 583.04 45.1
-12 8 -4 527.85 57.59
8 4 -4 585.44 44.6
12 -8 4 596.64 43
-8 -4 4 608.54 42.4
12 -8 4 585.24 40.5
-8 -4 4 505.45 47.3
-4 12 4 578.64 49.4
3 -12 -4 122.69 23.3
-12 9 -4 38.8 42.6
9 3 -4 171.68 27.9
-9 -3 4 122.09 21.3
12 -9 4 130.19 22.3
-9 -3 4 115.79 26.1
12 -9 4 115.89 20.3
-3 12 4 129.79 27.7
-12 10 -4 555.04 66.39
10 2 -4 583.84 44.7
2 -12 -4 599.64 46.9
12 -10 4 563.74 42.7
-10 -2 4 590.54 50.39
12 -10 4 547.95 39.7
-10 -2 4 578.94 42.5
-2 12 4 537.15 48.1
-12 11 -4 204.78 37.7
1 -12 -4 141.19 28.6
11 1 -4 234.68 29
-1 12 4 165.98 29.3
-11 -1 4 159.38 23.9
-11 -1 4 164.48 32.5
12 -11 4 168.48 25.1
12 -11 4 196.68 23.6
-12 12 -4 410.16 47.7
12 0 -4 447.06 39.3
0 -12 -4 426.96 43.3
-12 0 4 471.65 46.6
0 12 4 400.46 41.9
12 -12 4 490.95 34.6
12 -12 4 468.95 37
-12 0 4 413.66 35.5
-12 13 -4 36.7 23.5
-1 -12 -4 -4.3 19.8
13 -1 -4 15.1 15.9
1 12 4 29.8 18.2
12 -13 4 37.8 15.6
-13 1 4 26.4 12.6
12 -13 4 28.4 12.3
-13 1 4 39.7 21.1
-2 -12 -4 410.96 44.4
-12 14 -4 368.96 44.7
14 -2 -4 317.57 35.7
2 12 4 383.06 39.9
12 -14 4 437.56 31.6
-14 2 4 380.76 44.6
-14 2 4 367.06 35.6
12 -14 4 438.86 34.6
15 -3 -4 89.79 21.6
-12 15 -4 40.1 24.8
-3 -12 -4 77.19 26.4
12 -15 4 65.09 16.3
12 -15 4 99.89 16.9
3 12 4 68.59 22.9
-15 3 4 78.09 20.8
-12 16 -4 511.35 39.4
-12 16 -4 489.45 49.8
16 -4 -4 432.46 41.4
-4 -12 -4 556.24 52.39
12 -16 4 592.74 51.99
12 -16 4 523.55 34
-16 4 4 486.55 42.4
-12 17 -4 41.2 16.2
-12 17 -4 18.5 21.3
17 -5 -4 69.19 20.5
-5 -12 -4 38.4 26.1
12 -17 4 31.7 11.3
12 -17 4 51.89 13.2
-17 5 4 3.4 13.8
5 12 4 74.79 20.6
18 -6 -4 335.17 34.8
-12 18 -4 344.27 34
-6 -12 -4 348.67 50.69
-12 18 -4 413.96 43.9
-18 6 4 406.56 38.8
6 12 4 317.97 36.2
12 -18 4 383.66 25.3
12 -18 4 381.76 24.6
19 -7 -4 82.89 21.6
-12 19 -4 64.09 18.7
-7 -12 -4 3.9 22.4
-12 19 -4 77.59 24
-19 7 4 32.8 18.2
7 12 4 35.3 19.1
-12 20 -4 369.76 42.3
-12 20 -4 437.26 35.7
-8 -12 -4 338.37 50.49
20 -8 -4 377.56 35.9
-20 8 4 307.37 39.5
8 12 4 350.36 38.3
-9 -12 -4 30.7 27.5
21 -9 -4 20.6 13.6
-12 21 -4 12.4 14.8
-12 21 -4 9.5 20.1
-21 9 4 60.29 22.9
-12 22 -4 276.37 31.6
-12 22 -4 260.97 35.2
22 -10 -4 276.37 31
-10 -12 -4 152.48 38.5
10 12 4 201.78 33.4
-11 -12 -4 16 23.5
-12 23 -4 10.9 16.9
-12 23 -4 14.8 15.3
23 -11 -4 6.2 14.3
11 12 4 7.8 17.9
-23 11 4 3.1 19.5
24 -12 -4 188.58 27.5
-12 24 -4 187.88 29.5
-12 -12 -4 212.28 42.3
12 12 4 195.68 34.4
-24 12 4 228.48 40
25 -13 -4 2.4 15
13 12 4 26.6 20.6
-25 13 4 -49.3 35.3
24 -13 -4 120.09 21.5
-11 24 -4 145.49 26.8
-24 13 4 105.69 28.7
13 11 4 81.69 25.7
-10 23 -4 16.1 15.7
23 -13 -4 35.9 15.3
-13 -10 -4 8.7 22.7
13 10 4 -3.9 16.5
-9 22 -4 154.68 25.3
-13 -9 -4 157.38 35.2
22 -13 -4 128.59 19.7
13 9 4 145.49 29.9
-22 13 4 141.19 31
21 -13 -4 2.8 11.5
-13 -8 -4 29.8 27.6
-8 21 -4 24.5 16.8
-21 13 4 13.1 15.4
13 8 4 15.8 17.9
-13 -7 -4 110.29 37.2
-7 20 -4 160.78 25.3
20 -13 -4 199.48 25.4
-20 13 4 141.19 33.3
-20 13 4 155.68 26.6
13 7 4 121.29 26.5
-6 19 -4 14.3 14.5
19 -13 -4 18.9 14.9
-13 -6 -4 -19 21.9
-19 13 4 -1.1 13.2
-19 13 4 38.8 25
13 6 4 17.8 18
-5 18 -4 117.49 23.2
18 -13 -4 143.89 16.5
-13 -5 -4 107.49 36.3
-18 13 4 176.88 38.5
5 -18 4 127.79 15.3
-18 13 4 197.18 28.7
-13 -4 -4 79.09 32.3
-4 17 -4 33.7 16.2
17 -13 -4 17.6 8.5
4 -17 4 30.6 16.6
-17 13 4 30.9 23.2
-17 13 4 43.5 16.2
4 -17 4 32.6 11
13 4 4 20.8 16.1
-13 -3 -4 79.89 27.7
-3 16 -4 168.98 25.6
13 3 4 120.49 24.6
3 -16 4 126.49 24.7
-16 13 4 136.09 31.8
3 -16 4 152.68 18.4
-2 15 -4 45.9 17.5
-13 -2 -4 59.69 31
-15 13 4 50.19 16.1
-15 13 4 23.4 21.8
13 2 4 57.19 19.7
2 -15 4 71.59 14.8
-13 -1 -4 113.29 31.5
-1 14 -4 111.49 22.4
-14 13 4 117.99 28.1
-14 13 4 131.79 20.3
13 1 4 122.39 25.1
1 -14 4 125.99 19.2
1 -14 4 123.59 28.4
0 13 -4 42.2 16.3
-13 0 -4 77.89 30.2
13 0 4 33 17.5
0 -13 4 52.29 14.9
-13 13 4 24.9 22.7
0 -13 4 8 19.6
-13 13 4 36.1 13.5
-13 1 -4 38.2 23.9
1 12 -4 26.1 15.5
-12 13 4 30 21.8
-12 13 4 28.3 12.3
-1 -12 4 49.2 14
-1 -12 4 53.79 22.1
13 -1 4 28.4 15.2
-13 2 -4 43.7 22.9
2 11 -4 26.7 14.8
13 -2 4 22.3 15.7
-2 -11 4 35.9 21.6
-11 13 4 33.2 12.5
-2 -11 4 40.4 14.3
-11 13 4 35.8 21.6
-13 3 -4 56.09 22.4
3 10 -4 102.29 22
-3 -10 4 83.89 17.9
13 -3 4 122.69 23.2
-10 13 4 120.89 17.9
-3 -10 4 69.19 23.3
-10 13 4 60.09 24.6
-13 4 -4 41.9 24.8
4 9 -4 71.79 19.8
13 -4 4 41.2 18.4
-9 13 4 33.3 21.1
-4 -9 4 69.19 16.6
-4 -9 4 46.9 21
-9 13 4 50.49 12.2
-13 5 -4 24.4 25.4
5 8 -4 79.49 20.7
-8 13 4 60.99 12
-5 -8 4 74.59 23.3
-8 13 4 42.3 23.9
13 -5 4 21.5 15.8
-13 6 -4 20.2 21.2
6 7 -4 24 16.4
-6 -7 4 21.8 19.5
13 -6 4 37.7 17.7
-7 13 4 37.8 11.1
-6 -7 4 34 14
-7 13 4 51.09 25.9
13 -6 4 56.29 16.8
-13 7 -4 7.2 21.6
7 6 -4 56.69 18.6
-7 -6 4 35.3 20.9
-6 13 4 25.7 20.5
-7 -6 4 46.5 14.3
13 -7 4 49.2 18.7
13 -7 4 24.3 13.6
-6 13 4 26.6 10.1
-13 8 -4 51.39 25.5
8 5 -4 42.7 18.2
5 -13 -4 36.2 18
-8 -5 4 23.6 13.4
13 -8 4 70.09 20.4
-8 -5 4 34.9 21.1
-5 13 4 64.19 12
-5 13 4 11.8 19.3
13 -8 4 87.69 19.8
4 -13 -4 38.3 18
9 4 -4 53.39 19.6
-13 9 -4 85.09 27.5
-9 -4 4 77.59 22.5
13 -9 4 81.79 18.9
-9 -4 4 51.49 16.6
13 -9 4 75.69 20.2
-4 13 4 42 21.7
3 -13 -4 98.79 22.8
10 3 -4 136.29 25.5
-13 10 -4 96.39 30.2
-10 -3 4 142.49 29.4
13 -10 4 109.49 21.5
-3 13 4 88.29 24.2
13 -10 4 87.89 18.8
-10 -3 4 60.89 17.1
-13 11 -4 21.2 22.5
2 -13 -4 40.9 20.2
11 2 -4 21.9 17
13 -11 4 8.1 15.1
-11 -2 4 63.39 25.8
13 -11 4 32.3 14.2
-2 13 4 17.7 20.6
-11 -2 4 47.7 15.9
-13 12 -4 18.3 21.7
12 1 -4 31.9 17.8
1 -13 -4 42 22
-12 -1 4 5.9 18.5
13 -12 4 9 12.2
13 -12 4 27.4 15.9
-12 -1 4 46.3 16.4
-1 13 4 -3.3 16.2
13 0 -4 65.29 20.3
-13 13 -4 23.8 24.9
0 -13 -4 41.2 23
-13 0 4 62.59 17.6
-13 0 4 10.4 19.9
13 -13 4 22.4 13.2
0 13 4 -3.3 15.6
13 -13 4 27.9 14.9
-1 -13 -4 81.89 25.8
14 -1 -4 116.09 25.5
13 -14 4 127.49 19.5
13 -14 4 202.88 25.5
-14 1 4 135.49 23.9
1 13 4 121.99 26.5
-14 1 4 134.49 28.5
-2 -13 -4 74.89 24.8
15 -2 -4 63.99 20.1
-13 15 -4 38.7 28.3
-15 2 4 71.79 19.4
2 13 4 101.29 24.5
13 -15 4 60.19 15.9
13 -15 4 65.59 16.9
-13 16 -4 131.99 32.3
16 -3 -4 146.89 26.9
-3 -13 -4 116.69 28.5
13 -16 4 116.39 18.4
-16 3 4 106.19 24.7
13 -16 4 113.79 17.8
17 -4 -4 29.6 17.3
-13 17 -4 32.1 22.5
-4 -13 -4 7.3 20.6
-17 4 4 -9.5 12.9
13 -17 4 16.1 13.3
13 -17 4 -0.7 9.8
18 -5 -4 158.08 27.4
-13 18 -4 100.89 28.3
-13 18 -4 155.88 24.6
13 -18 4 146.29 16.7
5 13 4 128.89 25.6
-18 5 4 106.29 24.1
13 -18 4 182.18 17.6
19 -6 -4 13 16
-6 -13 -4 17.9 23.3
-13 19 -4 12.6 20
-13 19 -4 25.2 16.1
6 13 4 -7.9 15
-19 6 4 8.8 16.1
-7 -13 -4 147.99 35.5
-13 20 -4 146.59 24.8
20 -7 -4 162.88 27.7
-13 20 -4 180.18 34.3
-20 7 4 181.48 31.7
7 13 4 128.69 26.2
-13 21 -4 30.4 17.2
-13 21 -4 10.5 22.1
-8 -13 -4 11.6 25.4
21 -8 -4 15 16.3
-21 8 4 -8.7 23.3
8 13 4 6.7 27.6
-13 22 -4 102.89 22.6
-13 22 -4 107.09 27.6
22 -9 -4 125.29 23.3
-9 -13 -4 114.79 34.2
9 13 4 102.09 25.5
-22 9 4 139.29 31.2
-13 23 -4 9.2 19.1
23 -10 -4 36.1 16.3
-13 23 -4 12.7 15.7
-10 -13 -4 7.5 23.8
10 13 4 2.6 17.2
-23 10 4 8.4 18.7
24 -11 -4 102.19 22.6
-11 -13 -4 71.99 33.7
-13 24 -4 116.89 24.7
-13 24 -4 107.09 23.4
-24 11 4 83.39 31.7
11 13 4 109.59 26.9
25 -12 -4 22.6 16.8
-12 -13 -4 55.29 30.6
12 13 4 -18.5 17.2
26 -13 -4 104.19 22.7
-13 26 -4 86.99 23.4
13 13 4 82.39 27.5
-13 27 -4 -18.2 16.7
-14 -13 -4 -19.1 27
27 -14 -4 -16 15.5
14 13 4 -36.1 16
-14 -12 -4 205.48 76.19
26 -14 -4 211.48 27.5
-12 26 -4 154.28 29.7
14 12 4 139.09 32
25 -14 -4 15 15.2
-11 25 -4 55.29 33.4
-25 14 4 -27.6 24.4
14 11 4 26.4 21.2
24 -14 -4 198.08 24.7
-10 24 -4 230.98 37.7
-24 14 4 197.78 36.9
14 10 4 165.78 31.5
23 -14 -4 20.2 13.7
-9 23 -4 47.4 18.6
-23 14 4 50.49 27.7
14 9 4 -2.5 16.9
-8 22 -4 227.98 32.5
22 -14 -4 243.08 26.9
-14 -8 -4 71.19 53.59
-22 14 4 233.18 37.7
14 8 4 138.69 30.9
-7 21 -4 13.1 16.8
-14 -7 -4 51.99 26.3
14 7 4 57.69 22.7
-21 14 4 44.7 18
-21 14 4 28.8 24.2
-14 -6 -4 317.17 53.79
-6 20 -4 323.77 34.1
20 -14 -4 328.07 23.2
-20 14 4 299.07 46.2
-20 14 4 340.87 37.9
14 6 4 319.87 39
19 -14 -4 41.4 9.2
-14 -5 -4 50.99 29.7
-5 19 -4 28.6 17.5
14 5 4 51.09 20.9
-19 14 4 51.79 18.5
-19 14 4 70.99 38.6
-4 18 -4 318.37 34
-14 -4 -4 282.57 48.4
14 4 4 370.76 38.3
-18 14 4 339.77 33.8
4 -18 4 360.46 31.6
-18 14 4 290.97 45.8
4 -18 4 321.87 23.2
-3 17 -4 87.49 21.2
-14 -3 -4 63.69 27.6
3 -17 4 112.09 15.7
-17 14 4 49.99 27.4
-17 14 4 102.19 20.9
3 -17 4 65.89 19.2
-14 -2 -4 444.96 62.09
-2 16 -4 423.86 36.7
14 2 4 431.86 41
-16 14 4 357.46 36.6
2 -16 4 412.16 39.9
-16 14 4 405.36 47.9
2 -16 4 396.86 29.7
-14 -1 -4 26 25.5
-1 15 -4 30.1 16.3
-15 14 4 61.19 15.7
1 -15 4 52.69 28.3
14 1 4 35.7 18.8
1 -15 4 48.4 13.9
-15 14 4 85.79 27.7
-14 0 -4 307.47 47.9
0 14 -4 377.36 33.2
-14 14 4 265.37 39
0 -14 4 276.27 36.7
0 -14 4 287.47 27.1
-14 14 4 309.77 27.3
14 0 4 254.07 33
1 13 -4 162.48 26.8
-14 1 -4 89.29 27.1
14 -1 4 104.39 23.4
-13 14 4 101.89 18.2
-1 -13 4 111.89 19.4
-13 14 4 139.09 30.3
-1 -13 4 109.59 26.2
2 12 -4 404.36 37.6
-14 2 -4 367.66 51.39
-12 14 4 386.16 29.6
-12 14 4 373.66 44.8
-2 -12 4 384.76 32.6
-2 -12 4 404.06 42.1
14 -2 4 404.76 38
3 11 -4 76.89 21.7
-14 3 -4 133.49 31.7
-11 14 4 74.89 26.8
-3 -11 4 114.49 26
-11 14 4 96.69 15.3
-3 -11 4 89.69 18
14 -3 4 56.49 18.9
-14 4 -4 419.26 51.39
4 10 -4 420.46 38
-4 -10 4 401.56 48.5
-10 14 4 391.26 44.7
-10 14 4 419.16 29
-4 -10 4 389.36 42.4
14 -4 4 391.76 37.5
-14 5 -4 102.49 28
5 9 -4 111.59 23.7
-5 -9 4 95.59 25.4
-9 14 4 73.69 25.7
-5 -9 4 105.29 21.2
14 -5 4 126.49 24.6
-9 14 4 79.39 13.3
-14 6 -4 404.06 50.09
6 8 -4 435.66 39
14 -6 4 412.16 37.9
-6 -8 4 471.45 35.6
-8 14 4 432.56 44.4
14 -6 4 420.96 35.6
-6 -8 4 370.76 42.5
-8 14 4 387.26 27.1
-14 7 -4 90.19 28.3
7 7 -4 133.79 25.8
14 -7 4 92.79 20.2
-7 14 4 125.19 15.9
-7 -7 4 99.39 26.4
14 -7 4 126.69 23.9
-7 14 4 159.68 29.9
-7 -7 4 116.29 20.9
8 6 -4 368.76 36.2
-14 8 -4 384.76 48.1
14 -8 4 404.26 34.3
-6 14 4 404.06 26.5
-6 14 4 379.16 43.2
-8 -6 4 406.86 35.5
14 -8 4 418.86 36.5
-8 -6 4 402.36 43.4
-14 9 -4 75.59 28.5
5 -14 -4 74.59 20.8
9 5 -4 108.49 23.7
-9 -5 4 93.39 20.9
14 -9 4 102.99 21.6
14 -9 4 113.49 20.9
-9 -5 4 77.29 24.5
-5 14 4 63.89 25.1
-14 10 -4 455.55 50.59
10 4 -4 470.05 41.9
4 -14 -4 421.16 40
-10 -4 4 486.25 47
-10 -4 4 436.46 37.9
-4 14 4 413.96 44
14 -10 4 445.66 37.6
14 -10 4 427.66 47.6
3 -14 -4 76.59 22.9
11 3 -4 139.29 26.4
-14 11 -4 158.78 36.9
-11 -3 4 102.29 21.1
-3 14 4 134.19 29
14 -11 4 93.79 21.6
-11 -3 4 102.59 26.9
14 -11 4 104.49 21.8
-14 12 -4 450.95 49.1
2 -14 -4 461.25 41.1
12 2 -4 453.65 41.2
14 -12 4 359.06 34.3
-12 -2 4 383.26 43.2
-12 -2 4 332.27 34.3
-2 14 4 311.77 39.1
14 -12 4 397.26 33
-14 13 -4 135.59 31.9
13 1 -4 143.39 26.5
1 -14 -4 134.79 28.5
14 -13 4 98.19 18.9
14 -13 4 112.19 21.4
-1 14 4 96.09 24.3
-13 -1 4 98.29 28.4
-13 -1 4 135.59 25.1
14 0 -4 324.07 35.8
0 -14 -4 295.87 38.9
-14 14 -4 276.97 41.2
14 -14 4 307.57 31.5
-14 0 4 351.36 43.9
-14 0 4 354.76 34.2
14 -14 4 281.47 27.8
0 14 4 323.47 36.4
-14 15 -4 75.79 25.8
15 -1 -4 37.5 19.7
-1 -14 -4 47.2 23.4
14 -15 4 63.69 16.2
14 -15 4 57.29 15.5
1 14 4 47.3 19.2
-15 1 4 47.2 18.6
-2 -14 -4 375.86 44.5
-14 16 -4 325.97 44.6
16 -2 -4 419.06 40.7
14 -16 4 407.56 32
-16 2 4 401.26 39.2
14 -16 4 440.66 31.3
-3 -14 -4 52.49 27.3
-14 17 -4 97.89 34.4
17 -3 -4 110.29 26
14 -17 4 67.39 14.7
-17 3 4 71.69 21.4
18 -4 -4 317.07 36
-4 -14 -4 343.07 42.9
-14 18 -4 197.18 62.89
4 14 4 318.17 35
14 -18 4 318.57 24
-18 4 4 343.87 37.1
14 -18 4 306.87 23.9
-5 -14 -4 43.5 28.6
19 -5 -4 49.99 20.8
-14 19 -4 59.19 26.6
-19 5 4 75.69 23.3
14 -19 4 31.8 10.1
14 -19 4 35.8 8.1
5 14 4 14.8 15.7
-6 -14 -4 261.17 41.7
-14 20 -4 311.27 42.1
20 -6 -4 367.66 37.7
-20 6 4 291.87 38.1
6 14 4 341.77 37
21 -7 -4 50.49 20.3
-14 21 -4 -8.2 19.9
-7 -14 -4 61.59 26.3
-14 21 -4 36.4 18
7 14 4 70.19 21
-21 7 4 5.1 31.5
-14 22 -4 257.17 38.5
-8 -14 -4 188.88 39.2
22 -8 -4 279.37 34.1
-14 22 -4 262.47 32.1
8 14 4 183.88 32.4
-22 8 4 322.27 44.3
-14 23 -4 21.1 17.8
-9 -14 -4 19 24.8
23 -9 -4 26 17.6
-14 23 -4 17.4 21.3
-23 9 4 63.99 26.8
9 14 4 28.9 19.1
-14 24 -4 189.58 30.7
-10 -14 -4 151.68 37
-14 24 -4 161.38 34.5
24 -10 -4 157.48 27.1
-24 10 4 159.58 41.8
-11 -14 -4 47.7 31.2
-14 25 -4 21.7 17.5
25 -11 -4 7.3 16.5
-14 25 -4 52.89 31.6
11 14 4 -3.7 16.6
-14 26 -4 152.88 27.1
26 -12 -4 108.89 24.8
12 14 4 55.29 25.5
27 -13 -4 -3.1 16
-14 27 -4 14.6 18.3
13 14 4 0.1 17.8
-12 27 -4 2.6 17.6
27 -15 -4 7.8 14.5
-15 -12 -4 -5.9 28.8
15 12 4 8.3 20.1
-11 26 -4 96.19 24.8
26 -15 -4 72.19 18.6
-15 -11 -4 119.09 37.9
15 11 4 47.1 23.1
-10 25 -4 33.1 20.1
25 -15 -4 9.2 13.2
-15 -10 -4 23.3 29.2
15 10 4 7.2 17.7
-25 15 4 -51.39 20.6
-9 24 -4 144.49 41.7
15 9 4 54.09 24.2
-24 15 4 101.89 30.1
23 -15 -4 8.6 13.3
-8 23 -4 13.9 16
-23 15 4 0.4 19.2
15 8 4 -13.2 15.6
22 -15 -4 121.19 15
-7 22 -4 111.59 23.2
-22 15 4 137.49 36.4
-22 15 4 111.69 28.3
15 7 4 81.29 25
-6 21 -4 20.1 16.1
-21 15 4 27.9 25.8
15 6 4 10.2 18.9
-21 15 4 2.1 17.3
-5 20 -4 170.28 26.9
-15 -5 -4 70.29 30.2
-20 15 4 123.49 24.6
-20 15 4 127.89 34.6
15 5 4 147.69 29
-15 -4 -4 30.3 22
-4 19 -4 47.8 18
-19 15 4 -18.1 29.9
15 4 4 8.3 17.4
-19 15 4 2.9 15.4
-3 18 -4 101.89 22.4
-15 -3 -4 80.69 31.8
-18 15 4 118.89 31.7
3 -18 4 94.19 20.1
-18 15 4 108.29 22.7
15 3 4 92.49 24.8
3 -18 4 84.99 13
-2 17 -4 2.6 13.5
-15 -2 -4 31.3 25.3
15 2 4 15.6 18.6
-17 15 4 19.8 18.1
-17 15 4 -7.5 18.3
2 -17 4 13.1 16.2
2 -17 4 26.3 11.4
-15 -1 -4 52.09 29.7
-1 16 -4 158.48 25.5
-16 15 4 146.39 31.6
1 -16 4 172.08 20.1
1 -16 4 123.49 31
-16 15 4 129.09 22
0 15 -4 44.5 17
-15 0 -4 24.9 24.9
-15 15 4 29.9 14.4
-15 15 4 29.5 24
0 -15 4 45.9 21.9
15 0 4 23.7 17.4
0 -15 4 24.8 12.9
-15 1 -4 82.39 27.8
1 14 -4 38.8 16.8
15 -1 4 82.49 21.9
-14 15 4 66.79 14.9
-1 -14 4 30.5 21.6
-14 15 4 57.19 25
-1 -14 4 79.89 15.3
-15 2 -4 8.8 22.8
2 13 -4 77.09 20.3
-13 15 4 74.89 16.2
-13 15 4 23.2 21.5
15 -2 4 88.29 22.4
-2 -13 4 66.09 16.2
-2 -13 4 31.1 22
3 12 -4 63.99 19
-15 3 -4 33.3 26.5
15 -3 4 73.79 20
-3 -12 4 77.39 18
-12 15 4 73.69 15.2
-12 15 4 77.09 26.6
-3 -12 4 57.59 23
4 11 -4 47.1 18.2
-15 4 -4 45.4 27.7
-11 15 4 46.7 12.8
-11 15 4 36.6 23.8
15 -4 4 71.59 20.3
-4 -11 4 73.99 25.2
5 10 -4 61.29 20.7
-15 5 -4 8 22.1
15 -5 4 57.59 20
-5 -10 4 40.4 15.9
-10 15 4 27.6 11.1
-5 -10 4 70.79 23.5
-10 15 4 29.8 21.1
-15 6 -4 20.9 20.2
6 9 -4 49.7 19.5
15 -6 4 37.2 17
-6 -9 4 55.59 24.2
-9 15 4 63.39 25.4
-6 -9 4 2.1 13.3
-9 15 4 44.5 10.8
7 8 -4 32.5 18.2
-15 7 -4 32.7 25.3
15 -7 4 12.3 15.3
-8 15 4 47.9 23.3
-7 -8 4 37 16.1
-8 15 4 34.5 10.5
15 -7 4 42.3 17.1
-7 -8 4 46.2 21.7
-15 8 -4 33.8 23.5
8 7 -4 43.6 17.9
15 -8 4 25.4 16.7
-7 15 4 49.3 22.6
15 -8 4 26.4 15.5
-8 -7 4 19.4 14.7
-8 -7 4 66.29 23.5
-7 15 4 31.3 9.9
9 6 -4 33.8 19.4
-15 9 -4 29.5 25.3
-9 -6 4 53.99 22.5
-6 15 4 36 24
-9 -6 4 65.99 19
15 -9 4 56.89 18.6
15 -9 4 51.49 17.2
-6 15 4 47.5 11.4
10 5 -4 48.2 19.3
-15 10 -4 18 25.3
5 -15 -4 73.09 20.3
-10 -5 4 43.8 23.5
-10 -5 4 54.19 18.6
15 -10 4 77.79 19.1
-5 15 4 29.6 21.8
15 -10 4 53.29 16.8
4 -15 -4 48 19.6
11 4 -4 19.9 16
-15 11 -4 59.79 28.7
15 -11 4 37.7 16.9
15 -11 4 33.3 16.5
-4 15 4 21 20.3
-11 -4 4 22.8 15.9
-11 -4 4 69.09 25.1
12 3 -4 58.19 20.2
-15 12 -4 74.19 29.7
3 -15 -4 90.09 23.2
-12 -3 4 58.29 19.1
15 -12 4 30.6 29.3
-3 15 4 76.79 24
-12 -3 4 85.59 27.1
15 -12 4 83.39 19.7
-15 13 -4 42.1 23.8
2 -15 -4 58.69 21.1
13 2 -4 52.09 20.3
-13 -2 4 86.29 27.8
-13 -2 4 73.19 19.4
-2 15 4 44.7 20.3
15 -13 4 41.1 15.3
15 -13 4 76.69 19.6
14 1 -4 87.79 23.2
-15 14 -4 50.99 28.4
1 -15 -4 47.9 21.3
-14 -1 4 47.8 19
15 -14 4 18.1 13.8
-1 15 4 50.29 21
15 -14 4 48.3 17.3
-14 -1 4 84.49 26.3
15 0 -4 64.49 22.2
0 -15 -4 57.19 24
-15 15 -4 30.2 25.8
15 -15 4 41.2 15.3
15 -15 4 8.8 11.7
-1 -15 -4 162.78 30.5
-15 16 -4 191.88 36
16 -1 -4 161.48 29.8
15 -16 4 125.39 18.7
15 -16 4 110.89 19.2
17 -2 -4 19.5 18.1
-15 17 -4 22.4 24.6
-2 -15 -4 34.8 23.2
15 -17 4 49.3 16
15 -17 4 37.5 12.6
18 -3 -4 110.89 27.1
-3 -15 -4 70.59 26.9
-15 18 -4 90.39 29.6
-18 3 4 131.69 29.9
15 -18 4 90.59 15.3
3 15 4 161.58 26.9
15 -18 4 97.39 15.6
19 -4 -4 0.2 19.8
-15 19 -4 19.8 23.2
-4 -15 -4 13.4 23.3
15 -19 4 16.9 8.2
4 15 4 15.3 15.8
15 -19 4 4 8
-19 4 4 6.1 16.4
-5 -15 -4 155.48 37.9
-15 20 -4 188.18 42.5
5 15 4 169.38 28.7
-6 -15 -4 89.49 29.9
-15 21 -4 1.7 34.7
21 -6 -4 4.2 19.4
-21 6 4 11 18
6 15 4 67.29 20.3
-15 22 -4 100.99 29.5
-7 -15 -4 104.89 31
22 -7 -4 112.69 25.9
-22 7 4 130.49 31.1
-15 23 -4 -7.9 21.6
23 -8 -4 -2.4 14
-8 -15 -4 -35 20.9
8 15 4 -5.1 15
-23 8 4 -9.4 21.4
-15 24 -4 103.39 25.7
-9 -15 -4 65.09 32.2
24 -9 -4 124.89 26
9 15 4 61.89 23.3
-10 -15 -4 10.2 27.5
25 -10 -4 23.8 17.4
-15 25 -4 37.8 21.6
-15 25 -4 15.4 18.2
10 15 4 -27.6 15.6
-15 26 -4 124.59 26.5
26 -11 -4 120.99 25.6
-11 -15 -4 130.29 36.8
11 15 4 78.99 26.9
-15 27 -4 39.9 19.5
27 -12 -4 1.2 20.3
12 15 4 31.9 23.6
-16 -11 -4 -33.4 29.2
27 -16 -4 14.1 15.7
-11 27 -4 33.3 22.7
-10 26 -4 79.89 23.4
-16 -10 -4 104.59 37.7
16 10 4 113.49 30.5
-9 25 -4 10.8 17.5
-16 -9 -4 0.5 28.7
25 -16 -4 13.5 9.8
-25 16 4 71.89 29
16 9 4 4 18.7
-16 -8 -4 84.69 31.7
-24 16 4 148.39 44.8
-24 16 4 158.08 36.8
16 8 4 51.79 24.2
-7 23 -4 45.8 23.5
-16 -7 -4 29.4 31
16 7 4 17.5 18.8
-23 16 4 42.7 24.4
-23 16 4 8.9 24.3
-6 22 -4 218.28 33.2
16 6 4 209.08 36.1
-22 16 4 151.88 31
-22 16 4 238.18 43.7
-5 21 -4 23.4 17.3
16 5 4 53.59 21
-21 16 4 49.9 20.5
-21 16 4 52.79 26.2
-4 20 -4 271.47 33.7
-20 16 4 303.67 47
-20 16 4 270.47 34.6
16 4 4 327.27 38.2
-3 19 -4 52.59 19.6
-19 16 4 58.99 19.6
3 -19 4 76.29 14.9
16 3 4 18 18.8
-19 16 4 55.79 44.6
3 -19 4 78.49 16.5
-16 -2 -4 184.28 39.9
-2 18 -4 291.87 33.9
-18 16 4 283.67 31.1
2 -18 4 277.67 30.2
-18 16 4 260.27 41.6
16 2 4 334.87 38.5
2 -18 4 309.07 23.2
-1 17 -4 67.69 18.8
-16 -1 -4 95.99 32.1
1 -17 4 72.99 21.3
-17 16 4 43.4 26.8
1 -17 4 75.79 14.5
16 1 4 54.99 20.8
-17 16 4 35.4 23.1
-16 0 -4 358.46 55.49
0 16 -4 279.27 32.6
16 0 4 276.77 35.1
0 -16 4 310.87 57.59
0 -16 4 305.67 27
-16 16 4 308.67 30.1
-16 16 4 293.47 41.8
-16 1 -4 136.59 37.3
1 15 -4 114.09 22.9
-1 -15 4 189.78 22.8
-1 -15 4 137.19 28.3
-15 16 4 113.49 30.4
-15 16 4 124.79 20.1
-16 2 -4 315.77 47.2
2 14 -4 387.66 37.9
-14 16 4 363.36 45.9
16 -2 4 396.86 39.9
-2 -14 4 425.96 33
-14 16 4 408.56 31.5
-2 -14 4 430.56 42.3
-16 3 -4 70.89 32.2
3 13 -4 136.89 24.7
-3 -13 4 123.89 21.5
16 -3 4 125.49 25.5
-13 16 4 176.58 34.5
-3 -13 4 121.59 27.4
-13 16 4 139.89 19.7
-16 4 -4 504.95 57.09
4 12 -4 544.45 44
16 -4 4 551.74 44.6
-12 16 4 441.66 48.8
-4 -12 4 491.05 47.6
-12 16 4 451.85 33.2
-4 -12 4 545.35 47.9
5 11 -4 270.67 37
-16 5 -4 308.57 49.5
-11 16 4 282.17 23.7
-11 16 4 273.77 38.3
16 -5 4 285.17 34.3
-5 -11 4 290.17 30.5
-5 -11 4 228.38 34.9
6 10 -4 602.24 47.8
-16 6 -4 672.53 62.29
-10 16 4 527.15 34.3
-10 16 4 609.14 53.09
16 -6 4 585.54 46.2
-6 -10 4 524.65 50.19
-6 -10 4 523.85 41.4
7 9 -4 281.77 34.1
-16 7 -4 270.87 44.8
16 -7 4 278.17 32.7
-7 -9 4 254.37 36.5
-7 -9 4 297.37 31.5
-9 16 4 269.67 21.6
16 -7 4 243.28 30.1
-9 16 4 251.57 36.7
8 8 -4 699.83 52.09
-16 8 -4 667.23 63.19
-8 16 4 580.64 53.09
-8 -8 4 683.83 47.2
-8 16 4 607.64 36.2
16 -8 4 563.94 45
-8 -8 4 664.93 54.89
16 -8 4 623.54 47.9
-16 9 -4 223.68 41.6
9 7 -4 281.27 34.8
16 -9 4 274.87 34.1
-9 -7 4 303.37 31.7
-7 16 4 265.37 21.4
-7 16 4 262.97 39.8
-9 -7 4 357.36 42.8
16 -9 4 270.87 30.3
-16 10 -4 579.14 60.19
10 6 -4 712.23 52.19
-10 -6 4 648.04 54.89
16 -10 4 647.14 47.3
-6 16 4 546.25 50.69
16 -10 4 583.04 43.8
-10 -6 4 570.14 45.8
11 5 -4 244.28 35.4
-16 11 -4 264.37 45.9
16 -11 4 280.57 32.9
-11 -5 4 335.47 42.2
-5 16 4 193.98 32.4
-11 -5 4 331.97 33.3
16 -11 4 273.47 30
4 -16 -4 484.35 40.9
12 4 -4 451.65 42.8
-16 12 -4 480.65 54.69
-12 -4 4 512.85 50.69
-4 16 4 510.35 45.5
-12 -4 4 470.25 41.5
16 -12 4 515.05 41.5
16 -12 4 474.45 38.3
3 -16 -4 85.79 23.2
-16 13 -4 92.19 28.2
13 3 -4 107.89 25.2
16 -13 4 142.79 24.6
-3 16 4 125.59 26.1
-13 -3 4 145.59 26.6
-13 -3 4 101.19 27.4
2 -16 -4 412.86 39.8
-16 14 -4 395.26 54.59
14 2 -4 386.16 42.4
16 -14 4 384.46 34.5
-14 -2 4 449.36 48.6
16 -14 4 452.95 36.6
-14 -2 4 380.66 38.8
-2 16 4 422.16 41.1
1 -16 -4 105.29 25.8
15 1 -4 138.89 29.4
-16 15 -4 138.09 34.2
-1 16 4 117.49 24.9
16 -15 4 193.28 23.6
16 -15 4 127.39 20.9
0 -16 -4 337.57 38.9
-16 16 -4 350.26 50.99
16 0 -4 414.36 49.8
0 16 4 353.06 36.6
16 -16 4 314.37 29.2
16 -16 4 298.27 29.3
-16 17 -4 60.89 27.7
-1 -16 -4 71.39 24.5
16 -17 4 44.5 14.4
16 -17 4 89.69 16.7
-16 18 -4 236.68 40.4
-2 -16 -4 280.67 38.4
18 -2 -4 321.67 46.9
16 -18 4 290.07 24.6
19 -3 -4 82.99 24.4
-3 -16 -4 76.09 27.2
-16 19 -4 60.59 30.6
16 -19 4 86.99 12.6
16 -19 4 87.99 12.8
3 16 4 80.49 21.7
-4 -16 -4 359.16 57.69
-16 20 -4 253.67 41.7
20 -4 -4 261.97 37.9
4 16 4 272.57 33.4
-20 4 4 334.67 40
-16 21 -4 64.89 27.7
21 -5 -4 2.8 19
-5 -16 -4 19.6 23.6
-21 5 4 49.6 22.8
5 16 4 55.59 19.9
22 -6 -4 178.28 32.9
-16 22 -4 229.28 39.8
-6 -16 -4 270.87 44.6
-22 6 4 251.17 38.3
6 16 4 287.97 56.89
-16 23 -4 42.9 40.9
23 -7 -4 73.09 23.8
-7 -16 -4 71.79 30.6
7 16 4 27.6 18.4
-23 7 4 27.4 28.1
24 -8 -4 137.39 27.4
-8 -16 -4 140.89 33
-16 24 -4 175.18 35.6
8 16 4 115.69 27.2
-16 25 -4 44 23.7
25 -9 -4 0.1 15.9
-9 -16 -4 21.8 28
9 16 4 68.09 22.4
26 -10 -4 125.89 27.9
-10 -16 -4 84.79 38.2
-16 26 -4 129.49 26.9
10 16 4 117.79 29.5
27 -11 -4 31.8 19.3
-11 -16 -4 -5.9 33
11 16 4 24.2 19.9
-10 27 -4 33.6 21
17 10 4 -19.6 20.9
-17 -9 -4 92.19 35.7
-9 26 -4 64.39 23.4
-26 17 4 66.39 31.2
17 9 4 53.59 25.8
-17 -8 -4 17.4 26.4
-8 25 -4 6.8 16.8
17 8 4 14.6 18.8
-25 17 4 -9.2 21
-25 17 4 7.1 24.2
-17 -7 -4 25.5 32.7
-7 24 -4 46.5 22.3
-24 17 4 60.99 28.7
17 7 4 52.99 23.4
-17 -6 -4 26.6 30.3
-23 17 4 -24.7 18.3
17 6 4 -8.2 15.5
-5 22 -4 97.89 27.2
-17 -5 -4 64.99 30.7
-22 17 4 34 27.1
17 5 4 105.29 25.7
-22 17 4 70.89 24.9
-17 -4 -4 12 41.8
-4 21 -4 15.9 17.7
-21 17 4 39.5 17.3
17 4 4 19.8 19.1
-21 17 4 -23.4 17.7
-17 -3 -4 31.1 40.4
-3 20 -4 89.89 22.5
-20 17 4 133.19 25.7
17 3 4 54.09 22
-20 17 4 67.29 27.8
-2 19 -4 -3.9 14.1
2 -19 4 14.9 8.4
-19 17 4 8.4 15.8
17 2 4 14.5 17.4
2 -19 4 -8.8 12.2
-1 18 -4 84.89 21.6
-18 17 4 93.39 20.3
1 -18 4 143.99 17.5
1 -18 4 84.99 21.4
-18 17 4 53.89 26.9
17 1 4 50.39 20.3
0 17 -4 17.3 15
-17 17 4 7.8 20
-17 17 4 24.5 15.6
17 0 4 10.4 16.7
0 -17 4 22.4 21.6
0 -17 4 15.7 11.4
-17 1 -4 64.89 32.3
1 16 -4 47.2 18.5
-16 17 4 62.09 25.4
17 -1 4 68.39 22.6
-16 17 4 74.59 17.6
-1 -16 4 63.59 15.8
-1 -16 4 32.1 21.7
-17 2 -4 29.4 22.5
2 15 -4 23.7 17.3
17 -2 4 -10.9 14.5
-2 -15 4 26.2 13.8
-15 17 4 19.8 22.2
-15 17 4 61.09 16
-2 -15 4 12 19.3
3 14 -4 99.39 24.2
-14 17 4 64.39 27.1
-3 -14 4 103.09 25.5
-14 17 4 79.39 16.3
-3 -14 4 70.09 18.7
4 13 -4 14 16.1
-13 17 4 33.1 12.2
-13 17 4 26.5 22.4
-4 -13 4 4.2 19
17 -4 4 39.8 19.2
-4 -13 4 36.4 16.6
5 12 -4 27.1 17.6
17 -5 4 67.99 20.2
-5 -12 4 24.2 21.4
-5 -12 4 37 15.9
-12 17 4 4.4 20.3
-12 17 4 15.8 11.2
6 11 -4 17.9 16.8
-17 6 -4 48.2 24.4
-6 -11 4 24.5 21.1
17 -6 4 7.7 15.8
-11 17 4 13.1 9.7
-6 -11 4 21.8 15.8
-11 17 4 10 19.8
7 10 -4 -2.9 15.7
-17 7 -4 50.39 26.1
-7 -10 4 29.4 15.5
-10 17 4 57.29 25.7
-7 -10 4 7.9 19.9
-10 17 4 38.3 11
17 -7 4 9.3 16.1
-17 8 -4 54.19 30.8
8 9 -4 32.5 19.6
-8 -9 4 45.4 17.7
-9 17 4 54.29 24.2
-8 -9 4 61.39 25.3
17 -8 4 39.8 17.4
-9 17 4 52.29 11.4
17 -8 4 49.7 18.9
-17 9 -4 62.39 27.7
9 8 -4 59.49 19.3
17 -9 4 37.2 16.6
-9 -8 4 38.3 17.3
-8 17 4 55.49 10.9
-9 -8 4 35.4 23.2
17 -9 4 36.8 18.5
-8 17 4 52.19 24.4
10 7 -4 36.1 21
-17 10 -4 18.4 26
17 -10 4 53.59 19.8
-7 17 4 33.6 21.3
-10 -7 4 7.8 20.4
-7 17 4 35.4 10.4
-10 -7 4 44.5 18.3
17 -10 4 63.39 19
-17 11 -4 -18.7 21.7
11 6 -4 26.6 19.3
17 -11 4 53.99 18.8
-6 17 4 22.8 21.3
17 -11 4 -1.4 14.3
-11 -6 4 33.3 22.5
-11 -6 4 7.5 15
-17 12 -4 12.1 21.9
12 5 -4 22.8 18.4
-12 -5 4 17.8 20.7
17 -12 4 32.3 16.4
-12 -5 4 55.79 20
-5 17 4 56.89 22
17 -12 4 25.5 16.1
-17 13 -4 37 25.2
4 -17 -4 43.9 18.5
13 4 -4 1.5 21
17 -13 4 11.4 14.6
17 -13 4 25.5 15.6
-13 -4 4 36.2 17.1
-13 -4 4 2.7 19.4
-4 17 4 40.7 21.4
-17 14 -4 10.4 26.3
3 -17 -4 120.09 22.6
-14 -3 4 88.79 26.1
17 -14 4 92.79 20
-3 17 4 35.3 19.7
-14 -3 4 108.69 23.7
17 -14 4 81.59 28.7
15 2 -4 39.4 24.5
2 -17 -4 14 18.3
-17 15 -4 83.19 27.3
17 -15 4 25.7 14.5
-2 17 4 28.4 19.6
-15 -2 4 42.4 17.3
17 -15 4 3.7 13
16 1 -4 53.89 22.3
1 -17 -4 87.29 22.9
-17 16 -4 20.4 25
-1 17 4 44.6 19.2
17 -16 4 40.7 15.3
17 -16 4 70.09 16.2
17 0 -4 34.9 20.5
0 -17 -4 2.3 18.4
-17 17 -4 16.2 24.6
17 -17 4 -14.5 10.8
17 -17 4 -5 11.3
18 -1 -4 75.79 24.4
-17 18 -4 87.99 35.1
-1 -17 -4 116.49 26.8
17 -18 4 89.19 16.3
17 -18 4 70.39 22.3
-17 19 -4 8.9 25.1
19 -2 -4 -9.7 15.8
17 -19 4 -7.6 8.4
17 -19 4 1.8 9.6
2 17 4 7 16.2
-3 -17 -4 108.19 29.5
-17 20 -4 55.99 26.8
20 -3 -4 73.89 24.6
-20 3 4 135.79 30.2
3 17 4 84.69 22.6
-4 -17 -4 -13.3 25.8
-17 21 -4 28.6 24.3
21 -4 -4 40.5 20.6
4 17 4 20.1 18.5
-21 4 4 28.3 22.3
-17 22 -4 58.99 27.7
22 -5 -4 89.29 25.6
-5 -17 -4 50.59 26.5
5 17 4 72.19 23.5
-22 5 4 59.89 25.8
23 -6 -4 -4.3 17.1
-6 -17 -4 -33.1 22.2
-17 23 -4 11.4 21.7
6 17 4 -0.1 15.5
-7 -17 -4 88.89 34.3
24 -7 -4 79.89 25.2
-17 24 -4 72.79 30.5
7 17 4 100.89 26.5
-17 25 -4 -32 25.6
-8 -17 -4 -17.5 24.7
25 -8 -4 22.5 19
8 17 4 14.5 18.4
-17 26 -4 86.09 27
26 -9 -4 113.69 25.6
-9 -17 -4 43.3 29.6
9 17 4 74.79 25.4
27 -10 -4 -10 16.6
-10 -17 -4 46.5 30.7
-17 27 -4 12.7 19.9
10 17 4 15.4 20.1
-9 27 -4 35.1 22.2
-27 18 4 79.09 50.99
18 9 4 24.1 23.3
-8 26 -4 99.29 25.8
-26 18 4 132.09 34.8
-26 18 4 211.98 43.4
-7 25 -4 27.4 19
-18 -7 -4 -12.5 33.4
-25 18 4 21.3 24.1
18 7 4 15.6 18.9
-25 18 4 28.8 28.7
-6 24 -4 94.99 25
-18 -6 -4 102.29 37.3
18 6 4 125.29 30.4
-24 18 4 201.38 37.6
-24 18 4 131.99 40.1
-18 -5 -4 18.5 31.5
-5 23 -4 27.2 19.2
-23 18 4 58.19 23.3
18 5 4 52.09 20.9
-23 18 4 45.9 26.5
-18 -4 -4 155.18 44.6
-4 22 -4 202.78 48.2
18 4 4 167.18 31.7
-22 18 4 131.89 30.2
-22 18 4 124.09 36.4
-18 -3 -4 49.3 28.9
18 3 4 34.1 20.1
-21 18 4 75.09 22.2
-21 18 4 78.29 31.8
-2 20 -4 375.46 57.19
-18 -2 -4 168.78 42.6
18 2 4 204.68 35.2
-20 18 4 207.18 38.5
-20 18 4 269.47 32.8
-1 19 -4 85.19 21.9
-19 18 4 52.79 46.9
1 -19 4 74.29 12.7
-19 18 4 78.59 21
18 1 4 63.99 23.2
1 -19 4 79.59 17.9
0 18 -4 265.57 32.6
0 -18 4 225.78 29.4
-18 18 4 216.38 40.5
18 0 4 203.98 32.7
-18 18 4 204.38 40.7
0 -18 4 220.28 22.5
1 17 -4 109.29 23.8
-17 18 4 68.59 17.8
-1 -17 4 71.59 15.9
-17 18 4 76.29 27.8
18 -1 4 33.1 19.5
2 16 -4 320.37 36.8
-2 -16 4 287.07 27.8
-16 18 4 319.97 45.1
18 -2 4 265.37 34.8
-2 -16 4 315.17 38.2
-16 18 4 300.87 28.4
3 15 -4 80.59 23.5
-15 18 4 91.59 28.4
-3 -15 4 143.39 21.6
-15 18 4 167.18 19.9
18 -3 4 88.19 23.9
-3 -15 4 146.59 28.2
4 14 -4 289.77 37.5
-14 18 4 333.67 28
-14 18 4 333.77 44.9
18 -4 4 357.26 37.6
-4 -14 4 318.27 38.1
-4 -14 4 312.87 39.8
5 13 -4 186.58 30.5
-13 18 4 177.58 20
-5 -13 4 167.98 25.6
-13 18 4 143.29 30.7
-5 -13 4 168.28 31.3
6 12 -4 367.16 39.1
-12 18 4 359.36 26.9
18 -6 4 360.56 38.1
-6 -12 4 388.26 35.6
-6 -12 4 315.67 43.3
-12 18 4 429.66 46.2
7 11 -4 188.28 31.4
-18 7 -4 168.08 40.3
-11 18 4 146.29 30.2
18 -7 4 205.28 32
-7 -11 4 192.68 33.3
-11 18 4 194.98 19.3
-7 -11 4 164.68 26.6
-18 8 -4 391.56 59.79
8 10 -4 405.96 41.9
-8 -10 4 333.47 36.1
18 -8 4 390.56 38.7
-10 18 4 347.97 25.5
-10 18 4 428.36 45.2
-8 -10 4 379.56 45
18 -8 4 375.66 37.7
9 9 -4 165.18 35.7
-18 9 -4 138.19 32.1
-9 18 4 148.89 28.8
-9 18 4 177.08 17.3
-9 -9 4 139.49 31.4
18 -9 4 107.79 23.9
18 -9 4 113.19 22.4
-9 -9 4 115.69 24.1
10 8 -4 356.16 66.29
-18 10 -4 469.55 66.39
18 -10 4 435.96 39.1
-8 18 4 365.06 25.7
-8 18 4 410.46 43.9
-10 -8 4 421.76 39.1
18 -10 4 437.96 37.2
-10 -8 4 335.87 44.4
-18 11 -4 146.79 35.4
18 -11 4 165.18 26.2
-11 -7 4 155.88 27.4
-7 18 4 140.69 30.1
-11 -7 4 139.19 31.3
18 -11 4 185.38 28
-18 12 -4 334.27 49
12 6 -4 391.26 53.39
-6 18 4 403.26 42.2
18 -12 4 340.87 34.2
-12 -6 4 360.66 38.9
-12 -6 4 351.06 44.8
18 -12 4 433.16 38.2
13 5 -4 113.29 28.8
-18 13 -4 186.08 37.8
-5 18 4 110.09 27.7
18 -13 4 153.98 25.1
18 -13 4 137.09 25.3
-13 -5 4 166.58 34.8
-13 -5 4 177.08 28.6
14 4 -4 344.87 41.2
-18 14 -4 212.78 40
-4 18 4 334.67 37.6
-14 -4 4 387.56 52.29
18 -14 4 383.26 34.1
18 -14 4 348.87 33.6
-14 -4 4 296.67 35.5
-18 15 -4 85.89 31.1
15 3 -4 138.19 30.2
3 -18 -4 140.29 24.6
-15 -3 4 111.79 29.4
-15 -3 4 42.9 28
-3 18 4 138.39 26.6
18 -15 4 130.29 22
18 -15 4 102.19 28.9
-18 16 -4 268.67 48.9
2 -18 -4 314.17 33.9
16 2 -4 327.27 40.8
18 -16 4 305.27 30
18 -16 4 282.17 30.2
-2 18 4 286.77 34.1
-18 17 -4 92.09 29.6
1 -18 -4 54.39 22.3
17 1 -4 113.39 29.4
18 -17 4 82.69 18.2
18 -17 4 101.79 18.4
0 -18 -4 256.57 36.2
18 0 -4 196.18 35.5
-18 18 -4 219.08 39.9
18 -18 4 247.48 24.7
18 -18 4 225.08 24.5
-18 19 -4 56.79 28.3
19 -1 -4 107.29 28.3
-1 -18 -4 57.19 23.2
18 -19 4 62.89 20
1 18 4 51.69 18.4
18 -19 4 78.19 14.7
-18 20 -4 247.88 46.3
20 -2 -4 277.87 41.8
-2 -18 -4 267.57 38.8
18 -20 4 290.37 23.8
2 18 4 232.68 32.5
18 -20 4 223.28 17.5
-20 2 4 202.18 42.7
21 -3 -4 66.59 24.7
-3 -18 -4 43.8 22.9
-18 21 -4 77.29 29.7
-21 3 4 66.89 24.6
3 18 4 58.69 20
22 -4 -4 201.18 35.2
-4 -18 -4 167.08 42.1
-18 22 -4 212.38 40
4 18 4 173.48 29.2
23 -5 -4 28 23.1
-5 -18 -4 34.7 26.4
-18 23 -4 63.09 28.4
5 18 4 29.3 22.9
-6 -18 -4 59.99 27.7
-18 24 -4 75.09 29.5
24 -6 -4 149.99 30.5
6 18 4 112.89 25.9
25 -7 -4 33.7 21.7
-18 25 -4 12.9 24.2
-7 -18 -4 76.09 28.8
7 18 4 22.5 18.7
-8 -18 -4 57.19 30.7
-18 26 -4 118.49 59.19
26 -8 -4 92.89 26.7
8 18 4 97.19 26.2
-9 -18 -4 11.2 29.3
-18 27 -4 23.4 23.5
27 -9 -4 -39 17.6
9 18 4 -21.7 19.1
-8 27 -4 12.7 20.5
19 8 4 19.6 21.1
-7 26 -4 84.49 23.8
-26 19 4 61.19 30.2
-26 19 4 44.6 30.8
19 7 4 80.99 27.2
-6 25 -4 3.1 17.6
-25 19 4 1.2 24.9
19 6 4 9.8 20.5
-25 19 4 27 24.5
-5 24 -4 49.7 22
-24 19 4 41.9 25.6
-24 19 4 80.89 32.8
19 5 4 59.59 25
-4 23 -4 2.4 17.8
-19 -4 -4 22.6 30.6
19 4 4 -0.2 17.9
-23 19 4 -8.6 19.1
-23 19 4 15.1 20.8
-19 -3 -4 107.79 39
-3 22 -4 84.69 23.6
-22 19 4 39.7 27.1
-22 19 4 67.99 22.7
19 3 4 89.39 25.8
-2 21 -4 -34.8 14.7
-19 -2 -4 -14.8 22.8
-21 19 4 14.7 23
19 2 4 5.8 17.5
-21 19 4 9.3 17.4
-1 20 -4 80.39 25.7
-19 -1 -4 127.19 37.4
-20 19 4 121.09 31.6
19 1 4 87.29 24.5
-20 19 4 116.29 24
0 19 -4 -6.1 15.9
-19 0 -4 22.5 28.7
-19 19 4 11.3 14.8
0 -19 4 2.5 9.7
0 -19 4 15.9 14.7
-19 19 4 -12.6 24.2
19 0 4 7.4 15.4
-19 1 -4 44.4 29.4
1 18 -4 59.19 33.7
-1 -18 4 99.99 24.9
19 -1 4 63.99 22.6
-1 -18 4 75.89 15.5
-18 19 4 56.19 30
-18 19 4 53.29 28.7
-19 2 -4 40.4 45.9
-17 19 4 -2.2 21.9
-17 19 4 20.3 14
-2 -17 4 39.5 20.1
-2 -17 4 7.6 11.9
19 -2 4 -8.1 14.6
-19 3 -4 74.79 37.5
-16 19 4 73.09 27.4
-3 -16 4 53.49 16.4
-16 19 4 60.79 16.3
-3 -16 4 33.1 22.7
19 -3 4 55.09 21.8
-4 -15 4 4.4 19.2
-15 19 4 -13.1 9.6
-4 -15 4 8.6 20.1
-15 19 4 -7.4 20.4
19 -4 4 -13.3 14.5
-5 -14 4 6.1 19.5
19 -5 4 85.89 22.5
-5 -14 4 20.6 15.1
-14 19 4 54.89 14.5
-14 19 4 64.79 25
6 13 -4 6.3 27.8
-13 19 4 29.4 22.7
19 -6 4 51.79 18.9
-6 -13 4 40.6 16.2
-6 -13 4 17.4 21.1
-13 19 4 32.5 11.9
7 12 -4 49.7 31.6
-12 19 4 26.3 10.8
-12 19 4 72.99 25.6
-7 -12 4 39.6 17.1
-7 -12 4 33.5 23.3
-19 8 -4 21.8 23.5
8 11 -4 -0.4 18
-11 19 4 2.4 9.7
-8 -11 4 22.6 22
-11 19 4 14.2 21.8
-8 -11 4 8.8 15.9
19 -8 4 -8.6 14.6
-19 9 -4 57.19 28.2
9 10 -4 6.8 17
-10 19 4 56.99 23.4
-9 -10 4 93.09 27.2
-10 19 4 24.4 10
-9 -10 4 57.89 20.3
19 -9 4 64.89 19.4
19 -9 4 68.49 21
-19 10 -4 57.19 33
10 9 -4 23.4 19.6
-10 -9 4 42.6 23.8
-9 19 4 21.2 10
19 -10 4 20.7 15.7
-9 19 4 46.6 22.7
19 -10 4 37.9 18.3
-10 -9 4 49.4 19.8
-19 11 -4 4.2 22.6
11 8 -4 19.6 20.3
-11 -8 4 19.9 21.5
-11 -8 4 -5.4 14.4
19 -11 4 23.1 16.8
-8 19 4 3.3 8.8
19 -11 4 22.6 16.3
-8 19 4 16.6 19.9
-19 12 -4 -0.2 21.9
12 7 -4 57.69 20.7
-12 -7 4 48 20
-7 19 4 25.4 21.1
19 -12 4 66.69 18.5
19 -12 4 54.79 19.8
-12 -7 4 41.3 22.6
-19 13 -4 56.69 30.3
13 6 -4 45.3 21
19 -13 4 12.3 16.1
-13 -6 4 38.5 18.2
19 -13 4 7.4 15.6
-6 19 4 66.29 22.4
-13 -6 4 37.3 21.9
14 5 -4 42.9 20
-19 14 -4 -11.1 21.1
19 -14 4 42.2 16.9
-14 -5 4 27.4 24.1
-5 19 4 26.5 19.8
19 -14 4 51.89 18.1
-14 -5 4 31.3 18.4
15 4 -4 9.8 17.9
-19 15 -4 -8.9 21.1
-4 19 4 20.9 17.8
-15 -4 4 1.2 19.1
19 -15 4 6.4 14
19 -15 4 3.1 13.1
-19 16 -4 67.49 24.6
16 3 -4 62.49 24.4
19 -16 4 33.1 15.4
-3 19 4 68.89 21.9
2 -19 -4 -8.9 14
-19 17 -4 -0.9 23.6
17 2 -4 -18.1 18.1
19 -17 4 6.6 13.4
19 -17 4 19.5 13.9
18 1 -4 85.79 26
1 -19 -4 80.59 23.7
-19 18 -4 37.9 27.3
19 -18 4 84.69 17
19 -18 4 55.79 16.6
-18 -1 4 104.19 24.9
19 0 -4 7.6 19.1
0 -19 -4 3.1 17.9
-19 19 -4 16.6 23.2
0 19 4 0.5 14.6
-19 0 4 9.2 16.6
19 -19 4 -20.1 10.2
-19 20 -4 80.09 31.1
20 -1 -4 61.39 23.5
-1 -19 -4 90.09 26
19 -20 4 110.59 14.4
-20 1 4 171.28 32.7
19 -20 4 73.89 13.2
1 19 4 83.39 21.5
21 -2 -4 7.6 18.8
-19 21 -4 53.49 29.1
-2 -19 -4 -10.8 18.5
-21 2 4 -12.1 23.7
2 19 4 -9.3 13.7
-3 -19 -4 104.29 28.4
22 -3 -4 71.09 26
-19 22 -4 124.79 33.8
3 19 4 71.69 23
-4 -19 -4 -18 23.4
23 -4 -4 0.7 21.5
-19 23 -4 -34.8 20.7
-5 -19 -4 40.7 26.7
-19 24 -4 55.29 29.8
24 -5 -4 79.29 25.2
5 19 4 35.5 21.5
-6 -19 -4 -15.5 20.5
-19 25 -4 -20.7 20.6
25 -6 -4 9.4 16.7
6 19 4 -5.2 16.1
26 -7 -4 72.09 27.1
-7 -19 -4 110.19 32
-19 26 -4 104.19 31.3
7 19 4 98.79 27
-19 27 -4 20.6 29.2
27 -8 -4 -17.3 17.3
-8 -19 -4 -31.7 24.4
8 19 4 38.8 21.9
-6 26 -4 73.09 25.2
-26 20 4 166.08 41.9
-26 20 4 132.19 34.8
20 6 4 71.39 28.6
-5 25 -4 33.2 21.8
-25 20 4 75.39 40.7
-25 20 4 17.8 26.5
-4 24 -4 103.69 26.8
-24 20 4 42.5 27.7
-24 20 4 56.59 28
20 4 4 85.29 28.9
-3 23 -4 60.49 20.9
20 3 4 68.09 25.5
-23 20 4 23.2 25.2
-23 20 4 84.09 26.1
-2 22 -4 151.48 27.9
-20 -2 -4 125.39 51.29
-22 20 4 111.49 34
20 2 4 92.49 25.2
-22 20 4 156.68 29.1
-20 -1 -4 30.4 28
-1 21 -4 13.1 16.3
-21 20 4 52.69 28.7
-21 20 4 86.09 22.3
20 1 4 49.6 22.7
-20 0 -4 172.48 48.2
0 20 -4 179.88 31.4
-20 20 4 173.08 29.1
-20 20 4 196.78 38.8
20 0 4 137.79 29.4
-20 1 -4 67.79 33.3
1 19 -4 93.79 23.7
-1 -19 4 124.29 16.5
-1 -19 4 77.19 20.4
-19 20 4 34.7 29.4
-19 20 4 119.89 22.8
20 -1 4 43.2 20.6
-20 2 -4 194.48 47.3
2 18 -4 197.58 32.8
-2 -18 4 232.98 24.7
-18 20 4 238.08 29
20 -2 4 194.88 34.9
-18 20 4 167.28 36.1
-20 3 -4 101.59 34.3
3 17 -4 125.79 26.5
-3 -17 4 81.39 17.6
-17 20 4 93.19 20.5
-17 20 4 66.79 30.7
20 -3 4 84.59 24.8
-3 -17 4 112.99 27.4
4 16 -4 330.57 38.7
-16 20 4 319.27 48.1
-16 20 4 210.18 25.8
-4 -16 4 294.37 37.9
20 -4 4 319.57 37.5
5 15 -4 152.98 30.3
-15 20 4 173.08 35.8
-5 -15 4 119.99 22.8
-5 -15 4 140.49 28.6
-15 20 4 131.49 19.5
20 -5 4 148.69 29.1
6 14 -4 264.87 39.9
-6 -14 4 343.57 32.6
20 -6 4 323.77 37.4
-6 -14 4 349.77 42.5
-14 20 4 295.07 44.9
-14 20 4 292.77 26.7
7 13 -4 212.68 33.9
-13 20 4 179.58 19.6
-13 20 4 99.79 30.6
-7 -13 4 181.08 33.2
-7 -13 4 147.69 25.2
20 -7 4 147.59 28.6
8 12 -4 396.36 42.7
-20 8 -4 427.26 64.09
20 -8 4 344.77 40
-12 20 4 328.87 43.3
-12 20 4 341.07 26.2
-8 -12 4 344.37 44.3
-8 -12 4 375.96 35.2
-20 9 -4 243.98 51.89
9 11 -4 217.18 34.5
-9 -11 4 266.17 32
20 -9 4 175.38 29.5
-11 20 4 230.48 19.7
-11 20 4 137.09 31.8
20 -9 4 176.38 34
-9 -11 4 223.88 36.6
10 10 -4 437.96 43.5
-20 10 -4 273.77 47.5
20 -10 4 341.97 36.8
-10 20 4 354.06 25.1
20 -10 4 375.26 38.9
-10 20 4 366.46 43
-10 -10 4 391.46 38.4
-10 -10 4 379.86 47.1
11 9 -4 177.28 33
-20 11 -4 221.38 45.3
20 -11 4 263.37 33.9
-9 20 4 211.08 18.6
-11 -9 4 198.28 32.5
-9 20 4 213.08 35.8
-11 -9 4 232.58 42.1
20 -11 4 247.98 31.9
12 8 -4 400.06 44.2
-8 20 4 363.76 41.9
20 -12 4 432.66 40.7
-12 -8 4 383.56 39.2
20 -12 4 398.96 37.2
-12 -8 4 373.46 48.2
13 7 -4 159.98 32.3
-20 13 -4 161.38 42
20 -13 4 237.98 29
20 -13 4 159.68 27.4
-13 -7 4 121.19 28.6
-7 20 4 169.18 30.6
-13 -7 4 159.98 33.2
-20 14 -4 343.67 59.69
14 6 -4 248.88 40.2
-6 20 4 242.18 36
20 -14 4 286.57 32.6
-14 -6 4 327.07 45.7
20 -14 4 307.27 34.6
15 5 -4 167.58 35.8
-20 15 -4 94.59 37.8
20 -15 4 144.09 24.4
-5 20 4 143.69 27.2
20 -15 4 141.89 25
16 4 -4 267.47 41.7
-20 16 -4 211.38 44.6
-16 -4 4 284.07 47.1
20 -16 4 316.87 32
-4 20 4 249.58 31.9
20 -16 4 297.57 31.6
-20 17 -4 100.19 30
17 3 -4 75.69 25.6
20 -17 4 77.89 18.5
-17 -3 4 97.59 27
18 2 -4 275.77 41.8
-20 18 -4 248.28 48.4
-18 -2 4 212.88 34.8
20 -18 4 243.68 26.3
20 -18 4 264.77 28.2
19 1 -4 54.99 24
1 -20 -4 70.09 21.7
-20 19 -4 74.69 31.7
20 -19 4 104.69 18
-1 20 4 104.49 21.4
-19 -1 4 110.79 28.5
20 -19 4 81.49 16.1
20 0 -4 140.49 34.2
-20 20 -4 203.68 40.4
0 -20 -4 162.38 28.5
-20 0 4 160.28 32.8
20 -20 4 197.88 21.7
20 -20 4 178.18 19.1
0 20 4 175.78 26.8
-20 21 -4 73.19 31.4
21 -1 -4 75.19 27
-1 -20 -4 28.1 19.9
1 20 4 60.49 20.5
-20 22 -4 177.68 42
-2 -20 -4 236.38 32.9
22 -2 -4 106.19 30
2 20 4 131.59 26.6
23 -3 -4 79.69 27.2
-3 -20 -4 -7.9 21.1
-20 23 -4 52.49 27.4
3 20 4 29.7 19.4
24 -4 -4 83.29 28.2
-4 -20 -4 120.89 31.2
-20 24 -4 102.29 34.9
4 20 4 93.49 25
25 -5 -4 28.8 23
-20 25 -4 39.4 28.4
5 20 4 47.5 22.2
-6 -20 -4 66.09 26.9
26 -6 -4 52.89 26
-20 26 -4 85.39 31.1
6 20 4 97.29 26.5
-5 26 -4 74.69 25.2
21 5 4 53.09 24.9
-26 21 4 16.8 28
-26 21 4 60.09 34.2
-4 25 -4 3.6 20.8
-25 21 4 11.2 23.7
21 4 4 15.1 21.7
-3 24 -4 49 24
-24 21 4 -6.8 22.6
-24 21 4 83.59 32.7
-2 23 -4 8.8 17.4
21 2 4 2.3 17
-23 21 4 6.6 22.7
-23 21 4 14.2 21.4
-1 22 -4 40 18.5
21 1 4 58.99 22.9
-22 21 4 110.29 24.6
-22 21 4 61.59 29.9
0 21 -4 -39.6 15
-21 21 4 -27.2 19.1
21 0 4 -9.8 14
-21 21 4 26.8 18.3
1 20 -4 90.79 23.9
-21 1 -4 68.59 49.4
-20 21 4 81.39 20.5
-20 21 4 81.79 27.7
21 -1 4 31.9 22.7
-21 2 -4 2.6 25.5
2 19 -4 -2 17.2
-19 21 4 -4.9 28.9
-2 -19 4 4.7 17.8
-2 -19 4 9.3 12.1
21 -2 4 11.3 16.5
3 18 -4 58.89 21.7
-21 3 -4 41.1 29.5
-3 -18 4 68.99 16.4
-3 -18 4 75.79 23
21 -3 4 11.2 19.6
-18 21 4 55.49 19.9
-18 21 4 67.49 30.3
-21 4 -4 -6.8 22.5
4 17 -4 4.9 18.2
-17 21 4 -6.7 21.3
21 -4 4 -13.6 14.7
-4 -17 4 -4.3 17.7
-4 -17 4 17.4 20.1
-17 21 4 3.8 13.1
-21 5 -4 57.09 32.7
5 16 -4 63.89 24.3
-16 21 4 47.1 15.3
-5 -16 4 53.69 23.9
-5 -16 4 60.79 18.1
-16 21 4 6 21.2
21 -5 4 32.3 19.2
6 15 -4 24.6 19.5
-15 21 4 20.6 12.1
-15 21 4 33.9 23.4
-6 -15 4 -14.6 18.2
-6 -15 4 17.1 16.1
21 -6 4 16.7 16.9
7 14 -4 26.4 21.5
-7 -14 4 41.9 22.7
-14 21 4 38.9 23.7
-14 21 4 35 12.2
-7 -14 4 43.9 18.6
21 -7 4 35 21
8 13 -4 -5.2 18.3
-21 8 -4 20.5 22.9
-13 21 4 -3.5 20.9
-13 21 4 9.8 10.2
21 -8 4 3 16.5
-8 -13 4 29.1 16.7
-8 -13 4 30.2 23.9
-21 9 -4 10.8 24.2
9 12 -4 22.6 21
-12 21 4 57.99 25.1
21 -9 4 39.8 19.3
-9 -12 4 26.5 22.4
-12 21 4 57.69 12.3
-9 -12 4 34.7 17.6
10 11 -4 -3 16.1
-21 10 -4 -45.2 29.2
21 -10 4 25.4 15.3
-10 -11 4 34.1 24
21 -10 4 15 18.8
-10 -11 4 4.9 16.7
-11 21 4 11.8 8.5
-11 21 4 0.2 18.8
11 10 -4 23 20
-21 11 -4 51.19 39.7
-10 21 4 7.4 20
21 -11 4 22.4 16.4
-11 -10 4 31.1 23.2
-10 21 4 12.4 8.9
-11 -10 4 31.8 17.9
21 -11 4 21.6 17.1
-21 12 -4 118.39 36.4
12 9 -4 36.3 21.5
-9 21 4 41.8 21.1
21 -12 4 15.5 16.7
-12 -9 4 31.7 22.9
-12 -9 4 81.59 21
-9 21 4 28.2 9.1
21 -12 4 20.3 17.1
-21 13 -4 61.39 28.1
13 8 -4 15 18.8
21 -13 4 14.4 15.7
-13 -8 4 15.1 21.6
-8 21 4 9.2 19.3
21 -13 4 2.3 15.7
-21 14 -4 26.4 27.4
14 7 -4 5.2 18.3
21 -14 4 48.3 19
-14 -7 4 30.2 25.3
21 -14 4 46.4 19.6
-7 21 4 41.7 19.5
15 6 -4 -20.2 16.4
-21 15 -4 12.3 26.3
21 -15 4 2.2 14.9
-6 21 4 5.4 15.7
21 -15 4 44.2 18.2
-15 -6 4 6.8 25.2
-21 16 -4 -5.7 22
16 5 -4 50.09 24.8
-16 -5 4 34.8 23.5
-16 -5 4 30.7 21.6
-5 21 4 44.7 17.7
21 -16 4 56.09 19.4
21 -16 4 66.49 18.5
17 4 -4 14.9 21.5
-21 17 -4 11.3 25.8
21 -17 4 28.2 15.9
-17 -4 4 -6.2 18.4
21 -17 4 2.4 13.7
18 3 -4 54.99 24.9
-21 18 -4 32 25.5
-18 -3 4 43.4 23
21 -18 4 46.3 21.6
21 -18 4 33.6 15.5
-21 19 -4 13.5 25.1
19 2 -4 30.3 21.9
21 -19 4 -7.4 11.4
-19 -2 4 14.6 21.2
21 -19 4 -13.1 12.2
20 1 -4 28.8 22
-21 20 -4 30.9 33
21 -20 4 42.1 13.8
-1 21 4 29.5 16.5
0 -21 -4 36.5 18
-21 21 -4 43 29.6
21 0 -4 -20.1 19.3
0 21 4 0.1 15.5
-1 -21 -4 63.99 21.3
-21 22 -4 80.79 37.2
22 -1 -4 69.59 26.8
1 21 4 57.69 19.5
-21 23 -4 15.9 27.1
23 -2 -4 5.4 21.6
-2 -21 -4 -38.8 16.7
2 21 4 1.5 16.2
-21 24 -4 69.19 34
24 -3 -4 99.19 29.1
-3 -21 -4 110.29 26.4
3 21 4 98.09 23.8
-4 -21 -4 10.1 20.7
25 -4 -4 8.9 22.1
-21 25 -4 52.59 30.5
4 21 4 2.6 17.4
-5 -21 -4 77.69 44.8
-21 26 -4 73.29 32.8
26 -5 -4 66.19 27.5
5 21 4 66.79 24.1
-3 25 -4 9.7 21.5
-25 22 4 17.5 27.5
22 3 4 10 20.9
-2 24 -4 79.39 27.4
22 2 4 104.49 31.6
-24 22 4 93.79 32.8
-24 22 4 125.39 31.9
-1 23 -4 15.2 17.9
-23 22 4 51.39 27.8
-23 22 4 35 21.8
22 1 4 52.39 30.8
0 22 -4 89.69 26.6
-22 22 4 112.59 35.7
22 0 4 81.49 25
-22 22 4 96.69 25.5
1 21 -4 73.29 22.5
-21 22 4 50.69 28.5
22 -1 4 64.49 23.4
-21 22 4 113.79 24.2
2 20 -4 139.69 30.9
22 -2 4 161.58 30.8
-20 22 4 174.88 27.4
-20 22 4 111.89 34.8
3 19 -4 116.69 27.3
-3 -19 4 63.59 16.6
22 -3 4 90.59 27.5
-19 22 4 60.49 30.9
-22 4 -4 131.39 61.79
4 18 -4 180.18 33.2
-18 22 4 248.28 30.6
22 -4 4 132.29 30.8
-4 -18 4 176.88 24.4
-18 22 4 167.78 37.2
-4 -18 4 153.58 31
-22 5 -4 35.2 28.2
5 17 -4 68.79 24.2
-5 -17 4 101.49 27.1
-17 22 4 57.99 26.7
22 -5 4 96.59 25.8
-5 -17 4 90.39 24.9
-17 22 4 48.8 17.6
-22 6 -4 170.18 41.2
6 16 -4 197.28 34.5
-16 22 4 247.18 24.6
22 -6 4 136.89 29.2
-16 22 4 241.08 42.1
-6 -16 4 224.08 29.2
-6 -16 4 171.08 34.2
7 15 -4 100.29 28.1
-22 7 -4 138.59 42.1
-7 -15 4 165.68 26.6
-15 22 4 96.69 30.5
22 -7 4 131.39 27.4
-7 -15 4 119.99 30.2
-15 22 4 156.58 19.8
8 14 -4 284.57 43.1
-22 8 -4 282.87 53.59
-8 -14 4 256.87 34.5
-14 22 4 234.68 23.2
22 -8 4 245.28 36.5
-14 22 4 245.18 41.1
-8 -14 4 234.58 40.1
-22 9 -4 131.49 38
9 13 -4 76.59 26
-13 22 4 151.18 17.8
22 -9 4 152.38 28.2
-13 22 4 162.08 32.6
-9 -13 4 162.28 33.2
-9 -13 4 76.19 22.4
10 12 -4 268.57 42.7
-22 10 -4 176.28 39.7
-12 22 4 215.78 35.5
-10 -12 4 275.77 42.6
-12 22 4 275.77 21.9
-10 -12 4 251.37 32.7
22 -10 4 237.18 35.6
-22 11 -4 84.49 33.1
11 11 -4 141.89 32.2
-11 22 4 191.88 33.5
-11 22 4 175.98 17.5
-11 -11 4 147.29 32.8
22 -11 4 128.29 27.5
-11 -11 4 254.87 30.9
-22 12 -4 276.47 51.79
12 10 -4 250.67 40.1
-12 -10 4 276.67 44.7
-10 22 4 216.18 20
22 -12 4 257.57 31.6
-10 22 4 247.18 37.4
-22 13 -4 87.29 34
13 9 -4 149.59 31.9
22 -13 4 109.49 24.3
-13 -9 4 121.59 30.8
22 -13 4 134.79 26.5
-9 22 4 153.98 31.1
-9 22 4 158.98 16.8
14 8 -4 189.28 36.8
-22 14 -4 166.18 38.5
-14 -8 4 346.77 57.19
-8 22 4 222.48 32.8
22 -14 4 186.38 29.1
22 -14 4 233.68 33.7
-14 -8 4 158.98 43.8
15 7 -4 112.39 30.5
-22 15 -4 57.99 33.2
-15 -7 4 141.29 32.3
-15 -7 4 109.49 34.4
-7 22 4 116.19 25
22 -15 4 89.69 23
22 -15 4 106.39 23.3
16 6 -4 213.38 38.6
-22 16 -4 127.19 56.39
-16 -6 4 201.48 39.3
-6 22 4 189.38 29.5
22 -16 4 205.28 31.1
-16 -6 4 225.98 37.1
22 -16 4 277.97 31.6
17 5 -4 103.79 29.9
-22 17 -4 63.29 38.6
-17 -5 4 111.89 29.1
-17 -5 4 109.99 34.1
22 -17 4 64.19 19.6
22 -17 4 82.99 21.4
18 4 -4 188.98 36.8
-22 18 -4 138.19 44.8
-18 -4 4 137.99 32.3
22 -18 4 147.89 37.2
22 -18 4 149.69 23.8
19 3 -4 83.49 28.6
-22 19 -4 64.49 34
22 -19 4 53.29 17.3
22 -19 4 63.39 16.8
20 2 -4 121.69 34.4
-22 20 -4 115.89 37.5
22 -20 4 198.08 23.2
-2 22 4 197.28 27.5
21 1 -4 70.39 28.7
-22 21 -4 127.59 41.8
22 -21 4 58.09 10.6
-1 22 4 60.39 18.6
22 -21 4 44.2 12.5
22 0 -4 178.28 39
-22 22 -4 60.79 34.6
0 22 4 133.19 25.3
-1 -22 -4 51.29 19.1
23 -1 -4 39.3 25.5
-22 23 -4 48 32.7
1 22 4 -2.9 15.4
-2 -22 -4 125.09 24.4
24 -2 -4 134.29 34.1
-22 24 -4 91.29 35.5
2 22 4 153.98 40.9
-3 -22 -4 9.9 20.5
-22 25 -4 23.5 26.8
25 -3 -4 30.8 25.8
3 22 4 20.8 19.8
-1 24 -4 61.29 22.3
-24 23 4 33.8 24.9
23 1 4 35.1 22.1
-24 23 4 52.99 27
0 23 -4 74.59 24.7
-23 23 4 29.7 20.1
23 0 4 10.8 27.5
-23 23 4 -23.4 21.5
1 22 -4 44.1 22.8
-22 23 4 45.8 21.8
-22 23 4 32.8 28.9
23 -1 4 54.19 25.3
2 21 -4 2.3 18.1
23 -2 4 48.2 21.4
-21 23 4 6.9 16.8
-21 23 4 -13.9 23.7
3 20 -4 29.1 20.4
-20 23 4 58.29 27.4
23 -3 4 56.99 24.7
-20 23 4 131.69 23.7
-3 -20 4 53.19 19.6
4 19 -4 -10.2 18.3
-19 23 4 -25.2 22.6
-4 -19 4 11.6 18.8
-4 -19 4 18.8 15
23 -4 4 21.4 21
-19 23 4 -2.8 14.1
5 18 -4 57.59 22.9
-5 -18 4 43.8 22.8
-18 23 4 34.1 16.7
-18 23 4 30.2 24.2
23 -5 4 71.29 24.4
6 17 -4 11.8 18.7
23 -6 4 -7 16.6
-6 -17 4 54.99 23.4
-17 23 4 -12 12.9
-17 23 4 -2.5 21.2
-6 -17 4 17.1 16.8
7 16 -4 18.4 18.8
-16 23 4 26.2 13.1
-7 -16 4 16.3 17.3
-16 23 4 47.6 25.9
-7 -16 4 20.7 22.4
23 -7 4 15 20.4
8 15 -4 15.8 18.6
23 -8 4 1.8 16.5
-15 23 4 -11.1 10.7
-15 23 4 8.1 22.2
-8 -15 4 35.6 23.2
-8 -15 4 25.8 17.7
9 14 -4 36.2 22.3
-23 9 -4 33.5 27.5
-9 -14 4 48 25.8
23 -9 4 43.6 21.4
-14 23 4 29.7 24
-9 -14 4 15.8 19.1
-14 23 4 18.8 11.4
-23 10 -4 1.3 24.7
10 13 -4 29.6 20.4
23 -10 4 43.2 21.6
-10 -13 4 9.6 22.5
-13 23 4 1.5 9.2
-10 -13 4 39.7 18.6
-13 23 4 25.8 21.1
11 12 -4 -3.5 19
-23 11 -4 -0.9 21.3
23 -11 4 4.9 18.3
-12 23 4 28 20.5
-11 -12 4 38.9 24.7
-11 -12 4 19.1 16.9
-12 23 4 15.8 9.8
-23 12 -4 18.3 26.2
12 11 -4 -13.7 16.2
-12 -11 4 43.2 25.8
23 -12 4 11.9 15.4
-11 23 4 30.3 10.3
-11 23 4 -18.7 15.9
-23 13 -4 35.9 27.5
13 10 -4 43.1 21.2
23 -13 4 3.6 17.6
-13 -10 4 -22.7 18.2
-10 23 4 17.8 9.5
23 -13 4 10.9 17.7
-10 23 4 -4.6 17.7
-23 14 -4 23.1 26.2
14 9 -4 28.4 22.3
-9 23 4 20.6 17.8
23 -14 4 46.4 18.3
23 -14 4 40 18.6
-9 23 4 25.4 10.4
-14 -9 4 1 38.3
-14 -9 4 -2.8 28.6
-23 15 -4 3.1 22
15 8 -4 32.4 24.2
-8 23 4 6.6 14.6
23 -15 4 31.9 17.8
-15 -8 4 9.5 22.8
-15 -8 4 24.1 21.5
23 -15 4 -3.3 17.5
-23 16 -4 -8 22.9
16 7 -4 53.09 26.1
-16 -7 4 18.2 24.3
-7 23 4 24.6 15.7
-16 -7 4 27.4 22.4
23 -16 4 9.4 18.6
23 -16 4 12.4 17.5
-23 17 -4 22.3 24.8
17 6 -4 -18.3 19
23 -17 4 -8.7 13.9
-17 -6 4 1 19.8
-17 -6 4 -24.6 20.4
23 -17 4 8.6 18.2
18 5 -4 38.7 25.6
-23 18 -4 49 26.9
-18 -5 4 59.89 28.8
23 -18 4 3.9 17.7
23 -18 4 19.9 15.7
-23 19 -4 22.5 26.6
19 4 -4 22.1 23.8
23 -19 4 3.5 13.4
-23 20 -4 63.29 34
20 3 -4 31.1 26.3
23 -20 4 33.5 16.5
-3 23 4 43.9 17
23 -20 4 67.79 15.8
-23 21 -4 75.99 36.8
21 2 -4 40.9 26.9
-2 23 4 -7.6 13.9
23 -21 4 4 11.9
23 -21 4 6.6 9.9
22 1 -4 28 26.2
-23 22 -4 63.39 39.5
-1 23 4 36.9 19
-23 23 -4 -66.89 48.1
23 0 -4 -25.5 20.9
0 23 4 -1.2 15.4
-23 24 -4 71.49 49
-23 25 -4 -42.8 27.8
0 24 -4 99.89 27.4
24 0 4 84.19 27.5
-24 24 4 148.39 32.7
-24 24 4 58.49 32.1
1 23 -4 29.8 22.3
-23 24 4 31.1 24.4
-23 24 4 51.69 28.9
24 -1 4 44.2 24.6
2 22 -4 60.09 25.9
24 -2 4 79.79 43.8
-22 24 4 115.09 25.6
-22 24 4 59.79 32.4
3 21 -4 66.69 24.9
-21 24 4 30.4 27.9
24 -3 4 44.7 22.8
-21 24 4 61.39 22.9
4 20 -4 124.99 29.6
-4 -20 4 132.39 28.2
-20 24 4 162.38 30.9
-20 24 4 119.99 39.3
24 -4 4 43.1 24.1
5 19 -4 50.69 24.8
-5 -19 4 70.49 25
-19 24 4 105.29 31.2
-19 24 4 62.39 18.8
24 -5 4 51.49 23.2
-5 -19 4 36.3 17.2
6 18 -4 113.39 29.7
24 -6 4 108.39 26.9
-6 -18 4 137.59 28.8
-18 24 4 137.79 22.9
-18 24 4 100.99 32.7
-6 -18 4 114.99 24.6
7 17 -4 67.09 25.1
-17 24 4 47.3 27.1
-7 -17 4 79.09 22.2
24 -7 4 131.09 29.8
-7 -17 4 76.79 26.5
-17 24 4 91.19 18.7
8 16 -4 130.59 30.5
24 -8 4 175.38 33.5
-16 24 4 140.99 32.1
-8 -16 4 147.59 31.1
-8 -16 4 116.29 25.8
-16 24 4 121.99 20.1
9 15 -4 156.78 32.9
-9 -15 4 106.89 31.2
-15 24 4 128.69 18.1
-15 24 4 30 23.9
-9 -15 4 111.09 24
24 -9 4 74.99 25.4
10 14 -4 164.68 36.2
-10 -14 4 176.68 30.5
-10 -14 4 167.68 35.9
24 -10 4 137.89 30.1
24 -10 4 92.49 26.8
-14 24 4 148.89 32.2
-14 24 4 223.98 20.4
11 13 -4 117.39 29.5
24 -11 4 78.79 24.5
24 -11 4 98.59 26.5
-13 24 4 88.19 27.1
-11 -13 4 126.59 31.8
-13 24 4 159.38 17.3
12 12 -4 270.57 44.9
24 -12 4 164.98 30.9
-12 24 4 196.18 18.7
-12 -12 4 119.69 35.1
-12 24 4 155.28 29.4
13 11 -4 144.19 32
24 -13 4 106.19 24.8
-13 -11 4 111.69 32.3
-11 24 4 129.79 27.1
-11 24 4 126.69 15.9
14 10 -4 189.38 36.9
-24 14 -4 72.19 34.4
-14 -10 4 112.39 30.4
24 -14 4 123.29 26.9
-10 24 4 167.28 17.9
-14 -10 4 115.59 32.5
-10 24 4 204.58 30.5
15 9 -4 72.39 30.2
-24 15 -4 37.4 33.6
-15 -9 4 103.19 29.5
24 -15 4 118.39 23.6
-9 24 4 114.59 23.8
24 -15 4 76.89 25.8
-15 -9 4 56.29 29.5
-24 16 -4 65.89 33.7
16 8 -4 138.19 35.7
24 -16 4 155.68 28.2
-16 -8 4 124.39 32.2
24 -16 4 131.29 25.6
-16 -8 4 148.59 35.8
-8 24 4 134.49 34.9
-24 17 -4 72.79 32.3
17 7 -4 105.09 32.2
24 -17 4 82.59 23.2
-17 -7 4 56.19 31.3
-17 -7 4 51.89 29.6
24 -17 4 43 19
-24 18 -4 115.89 38.6
18 6 -4 127.29 34.5
24 -18 4 106.39 23.6
24 -18 4 98.49 24.5
-18 -6 4 81.89 33.1
19 5 -4 48.9 27.9
-24 19 -4 65.19 38.9
-19 -5 4 68.19 29.3
24 -19 4 65.89 20
24 -19 4 119.69 28
-24 20 -4 70.19 35.4
20 4 -4 133.09 36.5
-4 24 4 153.88 22.9
24 -20 4 96.99 21.5
24 -20 4 150.98 21.4
21 3 -4 29.3 29.5
-24 21 -4 7.6 26.8
-3 24 4 46.7 17.8
24 -21 4 36.8 14.2
-24 22 -4 30.2 32.2
-2 24 4 115.69 23.9
23 1 -4 23.4 33.1
-24 23 -4 17.4 33.9
-1 24 4 45.1 19.4
-24 24 -4 35.4 41.1
24 0 -4 85.69 32.2
0 24 4 73.89 28.2
3 22 -4 21.3 20.2
-22 25 4 65.39 32.2
25 -3 4 5.4 19.1
-22 25 4 19.3 18.5
4 21 -4 -30.8 15.7
-21 25 4 -37.9 22.9
-21 25 4 -34.8 16.7
5 20 -4 5.3 21.4
-20 25 4 -27.5 23.1
25 -5 4 29.8 21.3
6 19 -4 -4 18.3
-6 -19 4 -28.7 17.1
-19 25 4 11.6 23.8
25 -6 4 36.2 19.9
-19 25 4 -9.8 14.5
7 18 -4 34.9 23.9
-7 -18 4 44.6 22.3
-18 25 4 74.99 28.4
-7 -18 4 50.19 19.5
25 -7 4 12.1 18.2
-18 25 4 -5.2 15.1
8 17 -4 -4 19.2
-17 25 4 2.3 23.6
25 -8 4 -17.7 16.8
-17 25 4 -22 12.8
-8 -17 4 -5.1 17.7
-8 -17 4 -15.5 19.1
9 16 -4 6.9 19.5
-16 25 4 20.1 23.6
25 -9 4 25.3 21.4
-9 -16 4 29.6 21
-9 -16 4 31.8 23.7
-16 25 4 3.3 12.1
10 15 -4 -9.2 17.9
25 -10 4 27 18.2
-15 25 4 14.9 21.2
-10 -15 4 1.7 23.1
-10 -15 4 34.3 19.7
-15 25 4 -25.7 10.4
11 14 -4 8.2 20.8
-14 25 4 25.9 11.7
-11 -14 4 34.9 25.8
-14 25 4 6.4 18.5
25 -11 4 -3.9 18.6
25 -11 4 11.6 18.5
12 13 -4 20.7 23.5
-13 25 4 2.3 8.9
25 -12 4 21.1 18.7
-13 25 4 2.9 20
-12 -13 4 15.5 25.3
25 -12 4 14.9 19.6
13 12 -4 64.89 26.6
-13 -12 4 -42.8 36.7
-12 25 4 14.6 10.3
-13 -12 4 34.4 26.6
25 -13 4 38.3 25.6
25 -13 4 2.6 17.6
-12 25 4 17.7 19.2
14 11 -4 30.2 23.1
-14 -11 4 16.9 26.5
-11 25 4 -6.5 8.8
-14 -11 4 67.79 26.1
25 -14 4 24.2 21.1
-11 25 4 32.2 19.3
15 10 -4 -5.3 20.2
-10 25 4 -7.7 14.9
-15 -10 4 -21.1 22.4
-10 25 4 17.3 9.1
-15 -10 4 -31.3 19.2
25 -15 4 -21.5 15.5
16 9 -4 37.4 25.5
-16 -9 4 1.5 23.9
25 -16 4 37.9 21.7
25 -16 4 5.8 28.6
-16 -9 4 -15.3 23
17 8 -4 18.8 25.2
-17 -8 4 5.7 24.7
25 -17 4 0.6 17.6
25 -17 4 12.5 21.1
18 7 -4 1.7 22.9
25 -18 4 21 17.5
-18 -7 4 -0.9 26.1
25 -18 4 38.4 21.1
19 6 -4 7 37.2
25 -19 4 -14.5 17.4
-19 -6 4 -47.1 19.7
25 -19 4 17.6 15.9
20 5 -4 37.9 43.4
-20 -5 4 48.5 27.7
-5 25 4 -3 14.1
25 -20 4 44.5 17
21 4 -4 30.8 25.7
-4 25 4 -13.4 13.6
25 -21 4 7.8 15
-25 22 -4 6.7 37.1
22 3 -4 -1.7 24.6
-3 25 4 65.19 19.1
-25 23 -4 -21.5 33.6
5 21 -4 87.59 29.3
-21 26 4 96.39 25.3
26 -5 4 52.69 25.1
-21 26 4 69.59 32.4
6 20 -4 153.08 33.3
-20 26 4 122.79 27.1
-6 -20 4 110.99 26.7
7 19 -4 44.5 25.7
-19 26 4 119.79 22.1
-19 26 4 56.89 29.8
-7 -19 4 55.09 23.4
26 -7 4 49.6 25.1
8 18 -4 101.49 31.1
-8 -18 4 52.69 26.4
-18 26 4 111.19 20.1
26 -8 4 120.39 32
-18 26 4 164.78 35.8
-8 -18 4 106.99 24.7
9 17 -4 102.09 29.8
-9 -17 4 64.59 23.5
-17 26 4 68.69 17.8
-9 -17 4 96.69 29.6
-17 26 4 43.8 28.1
26 -9 4 52.69 25
10 16 -4 182.58 36.7
-10 -16 4 133.79 26.9
-16 26 4 69.79 28.9
26 -10 4 122.29 32.1
-16 26 4 108.89 18.7
-10 -16 4 121.99 33.7
11 15 -4 140.09 34
-11 -15 4 87.19 32.1
-15 26 4 93.79 28.2
26 -11 4 88.29 27.4
-15 26 4 105.39 16.5
12 14 -4 209.78 38.5
-14 26 4 142.39 18.1
26 -12 4 129.59 30.4
-12 -14 4 127.89 36.7
-14 26 4 158.98 31.7
26 -12 4 116.09 29.3
13 13 -4 85.09 32.8
-13 -13 4 61.19 56.29
-13 26 4 91.29 26.1
-13 -13 4 79.89 28.4
26 -13 4 94.89 25.6
26 -13 4 118.19 27
-13 26 4 87.29 14.4
14 12 -4 174.88 39.5
-14 -12 4 152.48 37.4
-14 -12 4 154.98 33.5
-12 26 4 108.29 24.4
-12 26 4 147.29 18
26 -14 4 143.09 30.6
26 -14 4 121.79 30.5
15 11 -4 173.58 39.8
26 -15 4 140.39 29.7
-15 -11 4 124.69 35.2
-15 -11 4 71.59 29.6
-11 26 4 96.59 15.7
-10 26 4 130.19 16.9
-16 -10 4 95.99 34.9
26 -16 4 117.49 29.3
26 -17 4 115.79 27.8
-17 -9 4 59.59 30.8
18 8 -4 161.78 40.5
-18 -8 4 128.39 38.6
26 -18 4 107.19 25.7
26 -18 4 150.48 30
19 7 -4 123.49 33.5
26 -19 4 100.99 24
26 -19 4 117.39 24.8
-7 26 4 68.99 16.8
-19 -7 4 54.09 34.4
20 6 -4 85.89 31.8
-6 26 4 84.59 19.2
-20 -6 4 100.39 34.8
26 -20 4 106.29 21.4
26 -20 4 138.49 29.8
21 5 -4 77.19 30.7
26 -21 4 63.89 20.4
26 -21 4 26.7 16.6
-5 26 4 67.19 17
-21 -5 4 99.39 35.6
-8 -19 4 13.6 21.3
-19 27 4 1.3 14.6
-8 -19 4 -39.7 18.2
-19 27 4 0.6 23.3
-18 27 4 18.4 14.6
-18 27 4 26.1 28.1
-9 -18 4 4.7 21.8
-9 -18 4 32.6 23.8
27 -9 4 21.2 23.1
-10 -17 4 15.9 22.6
27 -10 4 -0.9 20.6
-17 27 4 -2.2 13.5
-10 -17 4 42.4 21.9
-17 27 4 -19 20.4
27 -11 4 -11.1 19.6
-16 27 4 9.1 21.3
-11 -16 4 8.1 24.1
-16 27 4 20.7 13
12 15 -4 -13.7 33.3
-15 27 4 19.9 20.6
-15 27 4 -3.4 11.3
-12 -15 4 27 27.7
27 -12 4 7.4 21.1
13 14 -4 -20.8 25.4
-13 -14 4 32.5 26.3
27 -13 4 -4.2 23.2
27 -13 4 -25 18.7
-14 27 4 45.1 19.9
-14 27 4 5.5 11.2
-13 -14 4 49.8 31.1
14 13 -4 44.8 29.4
27 -14 4 3.3 22.7
-13 27 4 0.2 10
-14 -13 4 18.3 28.9
-13 27 4 -24.9 15.2
27 -14 4 -2 20
-14 -13 4 43.4 26.5
15 12 -4 16.6 24.4
27 -15 4 34.8 23.7
-15 -12 4 14.3 26
-12 27 4 7 10.5
-15 -12 4 12.9 30.3
27 -15 4 20.9 23.7
16 11 -4 34.8 24.6
-11 27 4 12.2 12.8
-16 -11 4 30.8 29.9
27 -16 4 22.7 20.9
17 10 -4 -4.8 24.5
-10 27 4 -13.4 9.4
27 -17 4 -3.5 18.9
-17 -10 4 5 29.1
18 9 -4 -3.2 24.6
27 -18 4 69.19 23.5
27 -18 4 45.3 27.6
-18 -9 4 7.9 25.8
19 8 -4 22.4 24.5
27 -19 4 -14.9 22.1
-8 27 4 35.4 13.1
27 -19 4 -25.4 17.3
-19 -8 4 0.4 27
0 0 -5 484.95 33.5
0 0 -5 468.85 43.8
0 0 5 430.96 44.5
0 1 -5 86.79 17.2
0 1 -5 69.79 20.2
1 -1 -5 50.89 20.2
-1 0 -5 110.29 27.3
1 -1 -5 72.39 16
-1 1 5 55.69 21.2
-1 1 5 65.99 14.9
0 -1 5 43 21.5
0 -1 5 63.79 15
1 0 5 73.79 15.2
1 0 5 103.89 22.1
-1 1 -5 53.59 14.6
1 0 -5 102.29 23.6
-1 1 -5 90.29 26.6
0 -1 -5 72.69 21.3
1 0 -5 57.19 14.5
1 -1 5 70.49 15.3
0 1 5 101.89 27.2
1 -1 5 96.99 23.2
-1 0 5 84.79 15.7
-1 0 5 74.69 23.4
0 1 5 72.19 14.6
2 -1 -5 198.28 30.9
-1 2 -5 181.98 30.1
-1 -1 -5 200.98 34.6
2 -1 -5 174.38 21.2
-1 2 -5 163.58 21.4
1 1 5 192.18 21.7
1 1 5 150.68 27.2
-2 1 5 166.18 21
1 -2 5 189.68 32.5
-2 1 5 153.88 27.6
1 -2 5 199.78 22.3
-1 3 -5 151.38 27.5
3 -2 -5 157.58 27.1
-2 -1 -5 206.58 33
-1 3 -5 209.08 23.3
3 -2 -5 152.28 20.6
-3 2 5 173.18 32.3
2 1 5 194.28 22.3
-3 2 5 207.38 22.1
2 1 5 197.98 36.7
1 -3 5 173.98 29.1
1 -3 5 169.48 22.2
2 -2 -5 1291.17 79.69
0 2 -5 1396.86 72.69
0 2 -5 1385.96 81.79
-2 0 -5 1321.97 82.79
2 -2 -5 1346.37 70.59
0 -2 5 1399.36 73.19
2 0 5 1349.86 72.79
0 -2 5 1437.86 83.99
-2 2 5 1362.26 72.39
-2 2 5 1381.66 83.79
2 0 5 1338.47 83.29
1 1 -5 173.68 23.4
1 -2 -5 188.98 32.5
-2 1 -5 156.78 27.8
1 1 -5 275.27 38.5
-1 2 5 210.18 34.4
2 -1 5 218.98 23.3
-1 -1 5 209.28 34
2 -1 5 234.08 37.8
-1 2 5 208.58 22.1
-1 -1 5 191.68 22.6
2 0 -5 1308.57 69.89
-2 2 -5 1326.07 69.79
0 -2 -5 1244.48 79.09
-2 2 -5 1276.37 79.89
2 0 -5 1334.47 78.19
0 2 5 1270.27 69.59
2 -2 5 1360.66 81.99
0 2 5 1294.47 81.49
-2 0 5 1349.47 71.09
2 -2 5 1324.47 70.79
-2 0 5 1312.27 81.39
3 -1 -5 146.89 26.5
-2 3 -5 229.88 34.5
-1 -2 -5 177.58 29.5
3 -1 -5 163.18 21.5
-2 3 -5 175.68 22.4
2 -3 5 197.18 31.4
2 -3 5 171.58 21.8
1 2 5 160.58 21.1
-3 1 5 185.48 22.4
-3 1 5 144.89 28.8
1 2 5 239.68 34.8
4 -2 -5 947.91 62.99
-2 -2 -5 979.8 67.99
-2 4 -5 1000.9 66.79
4 -2 -5 1037 56.39
-2 4 -5 1005.5 56.79
2 2 5 1020.3 57.09
-4 2 5 948.51 56.59
2 -4 5 1019.9 68.89
2 2 5 1018.9 69.29
-4 2 5 945.41 67.19
2 -4 5 979.5 57.19
-3 -2 -5 71.29 21.1
-2 5 -5 117.29 20.9
-2 5 -5 94.49 24.1
5 -3 -5 87.69 16.7
5 -3 -5 96.79 19.8
3 2 5 117.49 26.9
2 -5 5 132.79 19.6
-5 3 5 68.49 21.3
2 -5 5 101.29 29
-5 3 5 81.49 17.8
3 2 5 82.69 16.8
-1 4 -5 118.09 25.7
4 -3 -5 80.39 15.1
-3 -1 -5 108.19 29.2
4 -3 -5 97.29 23.4
-1 4 -5 120.49 20.3
-4 3 5 95.89 18.8
3 1 5 70.79 21.7
-4 3 5 48.3 22.5
1 -4 5 91.49 26.8
1 -4 5 76.99 17.1
3 1 5 110.29 19.3
3 -3 -5 63.39 21.1
0 3 -5 79.19 17.2
0 3 -5 42.8 20.7
3 -3 -5 41.2 13.4
-3 0 -5 47.4 21.4
0 -3 5 42 12.9
-3 3 5 75.79 16.1
3 0 5 76.09 21.7
0 -3 5 82.09 27.5
3 0 5 88.19 16.7
-3 3 5 54.59 20.7
1 2 -5 177.38 22.5
2 -3 -5 137.99 24
-3 1 -5 131.39 25.8
1 2 -5 147.29 24.4
3 -1 5 175.58 21.6
3 -1 5 138.59 25.7
-1 -2 5 168.08 30
-1 -2 5 157.38 22.1
-2 3 5 151.88 28.8
-2 3 5 203.68 21.4
-3 2 -5 135.79 25.8
2 1 -5 242.98 24.6
1 -3 -5 168.38 29.6
2 1 -5 166.48 27.6
-1 3 5 255.17 37
-2 -1 5 189.38 22.7
3 -2 5 200.08 32.3
-1 3 5 172.08 21.5
-2 -1 5 201.78 32.1
3 -2 5 175.88 21.8
3 0 -5 90.59 17.4
-3 3 -5 68.99 22.3
3 0 -5 94.59 23.6
0 -3 -5 85.29 23.8
-3 3 -5 70.29 16.6
-3 0 5 98.49 18.5
0 3 5 78.49 15.6
3 -3 5 81.69 16.7
-3 0 5 90.49 23.1
0 3 5 40.2 20.4
3 -3 5 44.1 23.8
4 -1 -5 108.69 19.1
-1 -3 -5 103.69 26.6
4 -1 -5 77.39 19.9
-3 4 -5 145.09 21.2
1 3 5 106.39 18.2
3 -4 5 87.69 17.6
-4 1 5 87.39 23.9
3 -4 5 54.09 22.4
1 3 5 58.59 25.4
-4 1 5 119.39 19.2
-3 5 -5 96.79 17.6
-2 -3 -5 85.09 26
-3 5 -5 58.79 21.9
5 -2 -5 66.29 18.2
5 -2 -5 66.19 16.4
2 3 5 92.09 25.3
3 -5 5 73.19 16.8
-5 2 5 117.59 19
3 -5 5 116.59 27
-5 2 5 74.89 20.9
2 3 5 90.89 18.4
-3 6 -5 192.88 24.5
6 -3 -5 201.58 36.7
-3 6 -5 221.08 31.3
-3 -3 -5 175.78 33.9
6 -3 -5 190.48 22.5
3 -6 5 194.28 23.2
3 3 5 195.08 36.1
-6 3 5 186.08 34.1
-6 3 5 217.48 23.9
3 3 5 179.28 23
3 -6 5 216.48 36.4
7 -4 -5 55.59 15
-4 -3 -5 49.6 26.8
-3 7 -5 60.09 16.7
-3 7 -5 67.39 22.4
3 -7 5 73.29 16.9
-7 4 5 50.09 20.5
-7 4 5 39.8 14.3
4 3 5 38 19.7
3 -7 5 38.3 23.3
4 3 5 47.5 15.1
6 -4 -5 795.02 62.29
-2 6 -5 914.31 62.19
-2 6 -5 839.82 52.49
-4 -2 -5 834.82 64.49
6 -4 -5 891.51 49.4
2 -6 5 913.11 52.59
2 -6 5 827.52 62.39
4 2 5 866.71 63.39
-6 4 5 782.02 61.59
-6 4 5 850.91 51.49
5 -4 -5 113.99 17.2
5 -4 -5 96.39 22.2
-4 -1 -5 65.49 22.9
-1 5 -5 101.59 26.5
-1 5 -5 94.19 18.6
-5 4 5 95.39 17
1 -5 5 106.39 26.9
-5 4 5 83.29 23.3
4 1 5 79.49 17.6
1 -5 5 77.49 17.4
4 1 5 125.59 30
-4 0 -5 768.92 59.89
4 -4 -5 752.72 55.29
4 -4 -5 830.12 45.9
0 4 -5 676.43 55.09
0 4 -5 771.42 49.1
4 0 5 780.42 48.9
-4 4 5 862.81 48.7
0 -4 5 810.42 59.39
4 0 5 815.72 60.09
0 -4 5 763.12 48.2
-4 4 5 819.62 59.99
-4 1 -5 58.49 20.3
3 -4 -5 138.89 26.7
1 3 -5 106.19 19.1
1 3 -5 136.29 27.8
-1 -3 5 109.69 27.4
-3 4 5 94.99 25.5
4 -1 5 87.99 26.8
4 -1 5 82.29 15.7
-3 4 5 121.69 18.7
-1 -3 5 89.39 18
-4 2 -5 968.7 68.09
2 -4 -5 1025.2 66.79
2 2 -5 913.81 63.39
2 2 -5 1002.3 57.89
-2 4 5 1043.7 56.99
-2 4 5 989.8 68.39
-2 -2 5 1001.3 57.99
-2 -2 5 1073.79 69.39
4 -2 5 980.1 67.49
3 1 -5 92.89 22.7
1 -4 -5 99.39 23.3
-4 3 -5 135.39 24.2
3 1 -5 92.29 17.3
-3 -1 5 72.69 24.6
-1 4 5 84.79 23
4 -3 5 148.39 18.3
-1 4 5 86.99 16.1
-3 -1 5 73.09 16.2
4 -3 5 114.59 24.4
4 0 -5 689.53 51.99
-4 4 -5 789.82 47.1
4 0 -5 849.12 48.6
0 -4 -5 717.53 56.39
-4 4 -5 718.93 57.59
4 -4 5 721.33 46.9
-4 0 5 812.32 58.79
-4 0 5 761.32 47.9
0 4 5 748.53 58.29
0 4 5 734.93 46.1
4 -4 5 821.22 58.99
5 -1 -5 84.09 19.8
5 -1 -5 123.69 20.1
-1 -4 -5 128.49 25.7
-4 5 -5 121.49 20.6
-5 1 5 95.39 18.3
1 4 5 103.99 25.8
4 -5 5 88.59 23.4
1 4 5 110.79 17.8
-5 1 5 91.39 23.5
4 -5 5 150.58 21.6
6 -2 -5 942.71 52.39
-4 6 -5 861.51 52.19
-2 -4 -5 928.61 65.19
-4 6 -5 875.61 63.49
-6 2 5 805.82 51.19
2 4 5 898.51 51.79
2 4 5 825.72 63.19
4 -6 5 863.61 63.49
-6 2 5 857.91 62.89
4 -6 5 828.22 51.69
-4 7 -5 33.5 22
-4 7 -5 71.89 17
7 -3 -5 44.1 14.6
-3 -4 -5 64.49 26.2
3 4 5 36.3 14.5
-7 3 5 56.59 16.3
3 4 5 6.3 19.9
-7 3 5 141.49 43.6
4 -7 5 49.9 15.2
4 -7 5 35.7 20.8
-4 8 -5 712.93 46.4
8 -4 -5 713.13 44.4
-4 8 -5 650.03 54.99
4 -8 5 778.12 46.3
-8 4 5 699.73 57.99
-8 4 5 664.03 47.4
4 -8 5 669.13 55.99
4 4 5 734.93 46.8
4 4 5 600.04 55.19
-4 9 -5 35.4 16.4
-5 -4 -5 24.3 18.8
9 -5 -5 59.89 15.6
-4 9 -5 73.69 26.2
4 -9 5 61.89 25.1
5 4 5 27.5 20.7
-9 5 5 58.19 23.8
4 -9 5 64.99 16
8 -5 -5 170.58 21.7
-3 8 -5 148.79 27.4
-3 8 -5 251.07 26.3
-5 -3 -5 109.79 26.1
5 3 5 171.78 33.3
3 -8 5 207.18 32.9
-8 5 5 158.68 29.9
3 -8 5 122.79 19.5
-8 5 5 167.88 23.8
7 -5 -5 86.59 15.8
-2 7 -5 80.49 24.8
-5 -2 -5 62.39 40.5
-2 7 -5 100.79 20.1
5 2 5 73.49 20.4
2 -7 5 84.79 16.6
-7 5 5 29.9 20.1
2 -7 5 36.1 25.2
-7 5 5 81.79 17
-5 -1 -5 127.39 41.8
6 -5 -5 130.99 17.8
-1 6 -5 123.39 20.1
6 -5 -5 98.99 28.4
-1 6 -5 95.29 26.1
5 1 5 148.19 30
1 -6 5 99.69 17.2
5 1 5 101.49 19.2
1 -6 5 87.79 25.8
-6 5 5 96.79 27.8
-6 5 5 105.69 18.3
5 -5 -5 102.39 16.1
0 5 -5 130.39 28.6
-5 0 -5 96.39 25.5
5 -5 -5 92.79 22.9
0 5 -5 84.19 17
-5 5 5 128.89 30
0 -5 5 91.59 17.7
5 0 5 118.09 27.7
0 -5 5 77.39 23.7
5 0 5 99.79 19.4
-5 5 5 106.79 18.8
1 4 -5 113.09 18.7
1 4 -5 107.69 25
-5 1 -5 100.99 27.5
4 -5 -5 115.79 25.9
-1 -4 5 111.59 19.4
-4 5 5 94.79 28.6
-1 -4 5 86.09 23.9
5 -1 5 87.69 17.7
5 -1 5 141.29 30.3
-4 5 5 100.69 17.9
2 3 -5 72.79 22.3
2 3 -5 87.59 18.6
-5 2 -5 83.99 24.5
3 -5 -5 79.59 20.5
5 -2 5 86.09 16.4
-3 5 5 88.59 16.4
-3 5 5 113.59 29.7
-2 -3 5 108.49 18.3
5 -2 5 98.49 25.3
-2 -3 5 87.69 25.4
3 2 -5 85.89 22.5
2 -5 -5 118.29 24.3
-5 3 -5 68.99 21.3
3 2 -5 115.19 20.8
5 -3 5 72.19 24.1
5 -3 5 101.09 17.5
-2 5 5 106.69 18.3
-3 -2 5 105.59 26.8
-3 -2 5 97.69 16.5
-2 5 5 89.09 25.5
4 1 -5 111.39 18.7
4 1 -5 83.49 21
-5 4 -5 91.09 24.3
1 -5 -5 113.99 27.2
5 -4 5 80.39 16
-4 -1 5 120.99 29.9
5 -4 5 112.69 28.1
-1 5 5 132.49 19.6
-1 5 5 115.89 30.3
-4 -1 5 50.89 14.5
5 0 -5 101.59 22.1
-5 5 -5 71.29 26.8
5 0 -5 159.78 22.6
0 -5 -5 121.09 28.7
-5 5 -5 80.59 16.6
-5 0 5 136.19 29.9
5 -5 5 104.89 27
0 5 5 63.29 15.7
0 5 5 50.99 23.4
-5 0 5 100.59 17.9
5 -5 5 80.39 16.9
-5 6 -5 113.59 20.8
-5 6 -5 92.29 23.9
6 -1 -5 124.99 21.5
-1 -5 -5 135.49 29.8
1 5 5 80.09 25.9
5 -6 5 151.08 28.2
-6 1 5 95.69 22.9
5 -6 5 101.49 19.2
1 5 5 122.19 20.1
-6 1 5 129.29 27.5
7 -2 -5 84.69 19.1
-5 7 -5 102.69 27.6
-5 7 -5 90.29 18.5
-2 -5 -5 63.49 23.1
2 5 5 91.39 18.2
2 5 5 68.29 27.1
5 -7 5 68.59 16.5
5 -7 5 48.1 22.3
-7 2 5 65.39 24.2
-5 8 -5 155.68 23.6
-5 8 -5 139.59 29.7
8 -3 -5 185.88 24.2
-3 -5 -5 181.78 42.7
3 5 5 141.69 21
5 -8 5 157.08 29.9
5 -8 5 154.58 22.9
-8 3 5 131.89 28.1
3 5 5 144.59 29.9
-5 9 -5 62.29 18
-5 9 -5 36.9 21.3
9 -4 -5 48.1 14.9
-4 -5 -5 35.8 22.8
5 -9 5 42.3 24.2
4 5 5 43.8 21.9
-9 4 5 35.7 14.8
5 -9 5 56.69 15.1
-9 4 5 50.99 21.7
10 -5 -5 178.48 22.7
-5 -5 -5 100.79 28.6
-5 10 -5 145.09 27.8
-5 10 -5 114.99 21.2
5 -10 5 145.49 22.1
5 5 5 191.88 36
5 -10 5 207.58 31.9
-10 5 5 114.49 21.2
-10 5 5 115.59 30.3
-5 11 -5 93.09 27.8
11 -6 -5 37.8 15.1
-6 -5 -5 58.59 29.1
-5 11 -5 57.59 18.7
-11 6 5 32 23.4
-11 6 5 71.39 17.3
5 -11 5 35.8 22.1
6 5 5 63.99 25.4
5 -11 5 71.79 16.2
-4 10 -5 576.14 43.2
10 -6 -5 600.84 39.4
-6 -4 -5 549.74 55.29
-4 10 -5 622.44 52.09
-10 6 5 666.53 58.49
-10 6 5 604.84 54.89
6 4 5 588.94 52.99
4 -10 5 614.34 41.8
4 -10 5 592.44 51.59
-6 -3 -5 30.9 20.2
-3 9 -5 52.99 23.9
9 -6 -5 72.49 16
-3 9 -5 64.09 18.5
3 -9 5 98.49 17.9
-9 6 5 52.19 22.6
-9 6 5 85.89 18.2
6 3 5 96.29 26.9
3 -9 5 28.7 22.4
-6 -2 -5 638.64 58.79
8 -6 -5 725.33 42.8
-2 8 -5 748.53 48
-2 8 -5 654.83 54.49
-8 6 5 703.23 45.7
-8 6 5 755.42 59.19
2 -8 5 694.53 45.6
6 2 5 785.82 58.29
6 2 5 719.43 48
2 -8 5 670.83 56.59
-1 7 -5 96.99 24
7 -6 -5 79.69 15.3
-6 -1 -5 106.09 29.6
-1 7 -5 149.19 24
1 -7 5 162.98 29.6
6 1 5 135.49 28.2
-7 6 5 85.69 16.9
6 1 5 71.89 22.3
1 -7 5 86.89 17.8
-7 6 5 103.59 29.3
0 6 -5 774.92 55.49
0 6 -5 874.41 51.89
6 -6 -5 776.82 44.4
-6 0 -5 669.73 66.79
6 -6 -5 803.02 60.69
0 -6 5 798.72 49.3
0 -6 5 801.52 60.39
-6 6 5 690.43 58.79
6 0 5 833.52 69.49
6 0 5 795.82 60.39
-6 6 5 722.63 46.9
1 5 -5 129.69 21.3
5 -6 -5 126.69 22.8
1 5 -5 166.78 27.1
-1 -5 5 110.79 27.7
-5 6 5 163.98 20.6
-1 -5 5 108.39 20.2
-5 6 5 91.29 25.9
6 -1 5 88.69 23.9
6 -1 5 63.49 28.9
-6 2 -5 842.92 76.59
2 4 -5 857.21 57.89
2 4 -5 902.61 53.79
4 -6 -5 863.21 58.99
-4 6 5 755.82 61.89
6 -2 5 878.21 62.59
-2 -4 5 892.51 53.39
-2 -4 5 798.72 61.89
6 -2 5 765.52 59.39
-4 6 5 817.22 49.1
3 3 -5 168.78 25.8
3 3 -5 208.48 25.7
-6 3 -5 215.18 38.8
3 -6 -5 221.88 32.7
-3 -3 5 232.78 36.9
-3 6 5 221.68 34.1
-3 -3 5 190.08 25.5
6 -3 5 216.28 36.1
6 -3 5 182.98 27
-3 6 5 195.28 22
2 -6 -5 816.32 60.39
4 2 -5 953.3 54.59
4 2 -5 895.61 58.49
-6 4 -5 806.92 63.39
6 -4 5 856.81 63.19
-4 -2 5 827.42 66.59
-2 6 5 876.81 50.69
-4 -2 5 824.12 62.49
-2 6 5 841.22 62.79
-6 5 -5 176.08 33
5 1 -5 124.19 21.2
1 -6 -5 111.79 27.3
-1 6 5 124.39 28.5
-1 6 5 129.39 18.9
-5 -1 5 101.19 35.3
6 -5 5 167.98 32.7
-5 -1 5 53.59 21.1
6 -5 5 87.59 18
0 -6 -5 677.43 57.39
6 0 -5 862.51 50.19
-6 6 -5 790.92 60.19
6 -6 5 719.13 48.3
-6 0 5 742.63 67.09
6 -6 5 691.73 57.49
-6 0 5 738.93 58.79
0 6 5 807.32 60.99
0 6 5 771.52 46.5
-6 7 -5 110.79 19.2
-1 -6 -5 87.79 27.3
7 -1 -5 103.69 19.6
-6 7 -5 141.49 32.3
-7 1 5 93.19 20.7
1 6 5 136.09 33
6 -7 5 67.59 24
1 6 5 126.49 19.2
6 -7 5 57.49 16.1
-7 1 5 96.09 27.7
-2 -6 -5 670.13 58.69
8 -2 -5 721.83 46.6
-6 8 -5 661.83 45.2
-6 8 -5 703.83 56.89
2 6 5 710.33 57.09
6 -8 5 671.73 55.49
-8 2 5 706.53 46.4
-8 2 5 644.24 56.69
2 6 5 680.93 44.1
6 -8 5 674.93 45.1
-6 9 -5 46.5 15.9
9 -3 -5 85.49 18.9
-6 9 -5 16.2 21.1
3 6 5 73.99 27.2
6 -9 5 63.09 15.3
6 -9 5 45.9 24.5
-9 3 5 63.39 16.9
-9 3 5 67.49 25.5
-4 -6 -5 535.35 53.99
-6 10 -5 615.54 43.5
10 -4 -5 623.34 41.9
-6 10 -5 637.14 54.19
-10 4 5 570.94 42.2
6 -10 5 617.54 52.19
-10 4 5 676.43 57.09
6 -10 5 544.55 40.7
4 6 5 670.43 54.79
-5 -6 -5 130.09 33.6
-6 11 -5 26.6 16.1
-6 11 -5 64.49 23.9
11 -5 -5 50.49 16.6
6 -11 5 86.19 26.7
-11 5 5 33.7 23.4
6 -11 5 52.79 15.9
5 6 5 28.4 19.3
-11 5 5 60.79 17.6
-6 12 -5 475.25 39.2
12 -6 -5 466.45 36.3
-6 12 -5 488.65 47.1
-6 -6 -5 437.06 50.69
6 -12 5 423.96 45.1
6 6 5 480.05 47.9
-12 6 5 479.35 51.89
6 -12 5 515.55 36.5
-12 6 5 445.76 38.3
-6 13 -5 36.4 18.1
-7 -6 -5 57.99 31.2
13 -7 -5 20.2 14.1
-6 13 -5 106.89 27.6
6 -13 5 69.79 25
6 -13 5 77.99 17.4
-13 7 5 40.4 26.4
-13 7 5 56.29 17.5
7 6 5 31.7 19.9
-7 -5 -5 139.99 31.4
-5 12 -5 115.19 23.1
12 -7 -5 127.59 20.4
-5 12 -5 119.89 29.7
7 5 5 115.99 29.5
-12 7 5 122.89 20.7
-12 7 5 114.29 31.3
5 -12 5 62.79 26.1
5 -12 5 113.59 20
-7 -4 -5 82.29 31.2
-4 11 -5 43.1 21.7
-4 11 -5 37.7 16.3
11 -7 -5 84.09 17
4 -11 5 51.09 15.1
4 -11 5 75.79 26.6
-11 7 5 59.69 16.2
-11 7 5 68.59 26.1
7 4 5 101.59 27.4
-7 -3 -5 105.79 30.2
-3 10 -5 158.28 22.9
10 -7 -5 103.89 17.2
-3 10 -5 55.19 22.2
3 -10 5 83.09 17.3
-10 7 5 166.88 36.3
3 -10 5 78.59 25.9
7 3 5 133.99 30.3
-10 7 5 107.99 29.2
9 -7 -5 70.99 14.3
-2 9 -5 59.99 18.2
-2 9 -5 82.19 24.4
-7 -2 -5 60.99 24.6
2 -9 5 49.99 15.1
2 -9 5 34.8 22.7
-9 7 5 44.4 15.7
-9 7 5 65.09 24.9
7 2 5 60.19 21.8
-1 8 -5 112.99 20.3
-1 8 -5 95.19 23.6
-7 -1 -5 112.49 30.3
8 -7 -5 123.99 17.2
-8 7 5 94.29 28.7
7 1 5 95.49 25.2
1 -8 5 93.39 18.3
-8 7 5 112.29 19.6
7 1 5 101.99 19.2
1 -8 5 89.89 31.8
-7 0 -5 131.89 31.9
0 7 -5 48.7 21.3
0 7 -5 79.19 19.2
0 -7 5 118.19 25.9
-7 7 5 33.2 22.9
7 0 5 63.89 16.5
0 -7 5 36 17.7
7 0 5 64.19 23.3
-7 7 5 81.19 17.1
6 -7 -5 112.09 28
1 6 -5 104.59 21.2
-7 1 -5 111.59 26.3
1 6 -5 140.69 26.7
-1 -6 5 119.29 26.5
-6 7 5 118.19 30.2
-6 7 5 93.69 17.2
-1 -6 5 96.19 21.8
7 -1 5 84.59 25
7 -1 5 82.99 20
5 -7 -5 50.89 20.6
2 5 -5 55.39 19.9
2 5 -5 96.79 20.1
-7 2 -5 134.39 33.4
-2 -5 5 75.39 23.8
7 -2 5 81.49 21.4
7 -2 5 41.3 16.1
-5 7 5 72.09 27.2
-5 7 5 73.29 15.8
4 -7 -5 60.19 23
-7 3 -5 35.4 24
3 4 -5 68.09 18.5
3 4 -5 56.29 19.7
-4 7 5 29.4 12.2
-4 7 5 35.3 23.1
7 -3 5 42.3 21.5
7 -3 5 76.99 27
-3 -4 5 18.3 20.7
4 3 -5 59.79 17.1
4 3 -5 55.69 20.1
3 -7 -5 46.4 22.1
-4 -3 5 51.29 22.1
-3 7 5 64.59 14.7
-3 7 5 36.7 20.4
7 -4 5 72.69 23.8
-4 -3 5 35.9 22.3
-7 5 -5 15.1 35.3
5 2 -5 68.19 18.5
2 -7 -5 91.29 26.8
7 -5 5 117.29 28.6
-5 -2 5 108.09 28.9
-2 7 5 93.09 17.1
-2 7 5 86.29 27.9
-5 -2 5 93.59 17.4
6 1 -5 123.09 20.6
1 -7 -5 146.89 30.4
-7 6 -5 66.89 25
-1 7 5 67.29 24.2
-6 -1 5 77.19 26.6
-1 7 5 97.19 17.6
7 -6 5 94.79 25.7
-6 -1 5 74.59 16
-7 7 -5 153.38 31.8
0 -7 -5 71.99 25
7 0 -5 64.19 18.6
-7 0 5 49.5 21.4
0 7 5 43.6 23.4
-7 0 5 61.59 15.6
7 -7 5 53.59 21.6
0 7 5 73.29 15.4
7 -7 5 73.99 20.2
-7 8 -5 99.49 19.7
-7 8 -5 102.69 28.7
8 -1 -5 135.89 22.4
-1 -7 -5 121.69 28.3
1 7 5 114.79 31.6
7 -8 5 106.99 23.3
1 7 5 98.49 18.8
-8 1 5 83.09 27
-8 1 5 134.79 22
7 -8 5 94.49 25.7
-7 9 -5 43.8 16.6
-2 -7 -5 68.09 33.1
9 -2 -5 66.79 18.1
-7 9 -5 44.7 20.6
7 -9 5 115.49 27.2
-9 2 5 72.79 17.6
7 -9 5 68.29 17
2 7 5 63.39 21.6
-9 2 5 24.7 21.2
-3 -7 -5 93.79 29.1
10 -3 -5 114.89 20.5
-7 10 -5 147.19 29.3
-7 10 -5 112.69 21.2
-10 3 5 104.49 27.9
7 -10 5 128.59 20.4
-10 3 5 59.29 17
3 7 5 122.49 31
7 -10 5 103.89 26.4
-4 -7 -5 59.99 23.6
-7 11 -5 49.2 16.7
-7 11 -5 80.99 26.4
11 -4 -5 37.1 16.3
4 7 5 38.9 23.3
-11 4 5 48.4 17.5
7 -11 5 106.79 27.9
-11 4 5 51.79 23.8
7 -11 5 30.6 14.8
12 -5 -5 105.69 20.4
-5 -7 -5 101.39 25.9
-7 12 -5 146.99 30.1
-7 12 -5 149.79 24.2
7 -12 5 112.39 18.9
7 -12 5 104.69 26.3
-12 5 5 90.69 27.8
5 7 5 117.39 26.7
-12 5 5 116.19 23.6
-7 13 -5 41.9 17.8
-7 13 -5 32.9 23.8
13 -6 -5 80.39 18.1
-6 -7 -5 57.29 30.1
7 -13 5 45.6 15.8
7 -13 5 50.69 21.9
-13 6 5 55.19 26
6 7 5 20.8 18.3
-13 6 5 62.39 18
-7 -7 -5 5.8 21.1
-7 14 -5 84.29 21
14 -7 -5 44.9 15.6
-7 14 -5 75.59 26.9
-14 7 5 78.29 20.1
7 7 5 49.1 23.5
7 -14 5 108.09 19.5
-14 7 5 77.39 27.6
7 -14 5 86.99 27.8
-7 15 -5 40.9 24.3
-7 15 -5 20.6 16.8
-8 -7 -5 -14 18.4
15 -8 -5 35.1 15.9
-15 8 5 34.3 16.7
7 -15 5 25.7 12.9
7 -15 5 -7.5 17.6
-15 8 5 22.7 25.8
-6 14 -5 400.86 35.5
14 -8 -5 329.87 31.4
-8 -6 -5 316.57 49.1
6 -14 5 415.16 32.2
6 -14 5 459.75 44.7
-14 8 5 329.87 35.5
-14 8 5 298.37 45.4
-8 -5 -5 42.2 28.3
-5 13 -5 30.7 15.7
13 -8 -5 25.8 13.1
-5 13 -5 -9.9 18.5
5 -13 5 25.4 22
-13 8 5 19.5 14
5 -13 5 25.4 13.2
8 5 5 21.8 18.6
-13 8 5 36.7 25.5
-4 12 -5 498.65 45.7
-4 12 -5 434.36 37.7
12 -8 -5 416.56 31.9
-8 -4 -5 497.75 52.59
4 -12 5 397.06 45.3
8 4 5 365.46 44.3
4 -12 5 455.25 34.2
-12 8 5 423.76 35.5
-12 8 5 445.76 50.49
-3 11 -5 81.89 19.6
-8 -3 -5 70.29 26.2
-3 11 -5 53.19 22.1
11 -8 -5 72.59 15
3 -11 5 4.6 23
8 3 5 76.69 23.7
-11 8 5 20.6 23.8
3 -11 5 91.09 18.4
-2 10 -5 485.45 44.6
10 -8 -5 512.35 33.4
-8 -2 -5 542.35 54.09
-2 10 -5 518.85 41
-10 8 5 492.55 38.3
-10 8 5 563.04 54.39
8 2 5 462.45 48.2
2 -10 5 509.55 38.7
2 -10 5 523.75 49.8
-1 9 -5 119.79 25.4
-8 -1 -5 135.49 33.6
-1 9 -5 91.09 20.3
-9 8 5 79.89 17.3
8 1 5 68.19 25.6
1 -9 5 85.99 25.9
1 -9 5 68.49 19
-9 8 5 83.69 28.7
0 8 -5 654.93 45.1
0 8 -5 593.24 47.8
-8 0 -5 627.24 56.69
-8 8 5 581.44 40.7
0 -8 5 578.14 52.99
8 0 5 577.74 52.49
8 0 5 631.74 43.7
-8 8 5 539.85 53.39
-8 1 -5 91.09 28.3
1 7 -5 85.89 24
1 7 -5 112.19 20.6
-7 8 5 109.79 18.9
8 -1 5 106.99 20.5
8 -1 5 71.99 26.1
-1 -7 5 59.19 28.5
-1 -7 5 66.09 24.9
-7 8 5 94.49 28
2 6 -5 740.93 48.6
6 -8 -5 668.53 59.99
2 6 -5 727.23 52.19
-8 2 -5 678.53 59.79
-6 8 5 752.02 45.6
8 -2 5 774.52 48.7
-6 8 5 647.34 57.39
-2 -6 5 720.63 51.89
-2 -6 5 717.83 57.59
8 -2 5 748.33 57.99
5 -8 -5 186.18 30.9
-8 3 -5 107.69 26.5
3 5 -5 179.98 23.1
3 5 -5 156.18 26.4
-5 8 5 130.19 18.9
-3 -5 5 146.09 22.4
8 -3 5 112.59 27.6
8 -3 5 190.98 24.3
-3 -5 5 155.48 29
-5 8 5 159.18 32.4
4 -8 -5 678.73 52.79
4 4 -5 784.72 49.4
-8 4 -5 702.33 59.09
-4 8 5 722.53 43.2
8 -4 5 672.23 55.79
-4 8 5 583.64 55.89
-4 -4 5 667.23 56.29
8 -4 5 694.43 45.8
-4 -4 5 694.43 46.2
3 -8 -5 178.08 32.7
-8 5 -5 153.98 33.1
5 3 -5 210.38 27
-5 -3 5 214.48 24.3
-3 8 5 163.38 20.9
8 -5 5 184.18 24.3
8 -5 5 173.48 31.9
-3 8 5 114.79 27.4
-5 -3 5 179.58 33.3
-8 6 -5 693.63 65.69
2 -8 -5 644.04 54.99
6 2 -5 754.52 49
-6 -2 5 722.03 57.99
8 -6 5 679.33 50.69
-2 8 5 736.03 43.9
8 -6 5 625.94 55.19
-6 -2 5 693.43 46.2
-2 8 5 720.83 57.69
1 -8 -5 86.49 26.1
7 1 -5 116.49 22.3
-8 7 -5 37 24.3
-1 8 5 58.79 24.3
8 -7 5 53.99 19.1
-1 8 5 94.99 17
8 -7 5 89.59 23.8
-7 -1 5 111.79 18.7
-7 -1 5 99.09 27.1
8 0 -5 609.44 43
0 -8 -5 545.15 50.19
0 8 5 540.85 52.39
8 -8 5 640.54 51.89
0 8 5 541.95 38.4
-8 0 5 558.54 52.09
-8 0 5 555.04 41.6
9 -1 -5 39.2 16.6
-1 -8 -5 76.49 25.7
-8 9 -5 153.88 36.4
-8 9 -5 136.69 22.8
-9 1 5 102.29 20.8
1 8 5 36.2 25.7
-9 1 5 73.69 25.7
8 -9 5 104.19 25.8
8 -9 5 72.49 30.6
10 -2 -5 494.55 39.5
-8 10 -5 543.65 52.69
-8 10 -5 531.65 40
2 8 5 503.15 49.1
-10 2 5 490.45 39.8
8 -10 5 548.75 49.1
-10 2 5 503.25 50.89
8 -10 5 494.75 42.9
-8 11 -5 55.29 23.3
11 -3 -5 105.99 21.5
-3 -8 -5 105.89 30.4
-8 11 -5 69.89 18.5
-11 3 5 53.79 16.2
8 -11 5 61.99 23.5
3 8 5 91.09 27.6
8 -11 5 48.4 16.3
-11 3 5 96.59 28.9
-8 12 -5 421.46 36.6
-4 -8 -5 348.47 47.5
-8 12 -5 497.55 49.99
12 -4 -5 431.36 36.5
-12 4 5 477.25 38.6
-12 4 5 526.25 51.19
8 -12 5 482.65 35.8
4 8 5 402.56 45.6
8 -12 5 438.36 45.3
-8 13 -5 31.7 22.5
-8 13 -5 25.3 16.4
-5 -8 -5 16.4 23.2
13 -5 -5 51.59 17.5
8 -13 5 49.8 15.3
-13 5 5 60.69 19.4
-13 5 5 39.4 24.8
8 -13 5 4.8 17.3
5 8 5 36 20.7
-8 14 -5 326.97 32.5
-8 14 -5 339.07 42.4
14 -6 -5 357.36 32.6
-6 -8 -5 243.78 40.6
6 8 5 300.47 42.7
8 -14 5 281.87 38.9
8 -14 5 357.76 31
-14 6 5 260.87 43.8
-14 6 5 296.67 33.6
-8 15 -5 8.5 15.6
15 -7 -5 32.4 16.2
-8 15 -5 26.5 21.9
-7 -8 -5 24.8 25.2
-15 7 5 24.6 23.3
8 -15 5 68.19 25
-15 7 5 25.6 16.2
8 -15 5 22.2 13.4
16 -8 -5 413.76 36.3
-8 16 -5 399.46 38.6
-8 16 -5 509.75 48
-8 -8 -5 441.36 53.19
8 -16 5 420.16 33.8
8 -16 5 411.86 42.7
-16 8 5 446.86 41.3
17 -9 -5 13.3 14.2
-8 17 -5 21.1 21.7
-9 -8 -5 8.5 24.7
-8 17 -5 27.3 16.6
9 8 5 27.4 19.1
8 -17 5 34.4 12.7
-17 9 5 5.6 23.6
8 -17 5 14 17.6
-17 9 5 31.3 16.7
-9 -7 -5 217.78 39.4
16 -9 -5 195.78 24.9
-7 16 -5 204.18 34.2
-7 16 -5 256.07 30.7
-16 9 5 184.58 28.6
7 -16 5 203.38 34.3
9 7 5 115.39 28
-16 9 5 208.68 52.79
7 -16 5 239.78 25.2
-6 15 -5 38.1 22.4
15 -9 -5 44 15.4
-9 -6 -5 18.3 23.3
-6 15 -5 14.1 14.8
6 -15 5 80.99 16.7
-15 9 5 48.2 26.1
-15 9 5 44.3 18.4
6 -15 5 19 20.1
-5 14 -5 100.69 24.8
-9 -5 -5 88.19 31.2
-5 14 -5 55.79 19
14 -9 -5 64.79 15.5
5 -14 5 93.09 18.3
5 -14 5 71.39 26.6
-14 9 5 94.89 20.5
-14 9 5 111.69 32.4
13 -9 -5 70.49 15.6
-4 13 -5 33.9 20.1
-4 13 -5 37.3 17.1
-9 -4 -5 1.3 22
4 -13 5 41.8 24
4 -13 5 43.9 14.8
-13 9 5 22.4 13.6
-13 9 5 0.1 22.3
-9 -3 -5 71.79 29.2
12 -9 -5 80.39 14.9
-3 12 -5 74.59 19.3
-3 12 -5 123.49 24.3
3 -12 5 39.7 14.3
3 -12 5 96.19 28.3
-12 9 5 92.69 19.8
-12 9 5 78.49 28.7
-2 11 -5 27.5 18.8
-2 11 -5 13 15.4
-9 -2 -5 10.5 22.4
-11 9 5 8 13.8
2 -11 5 -9.4 20.7
2 -11 5 31.7 16.6
9 2 5 7.9 17.8
-11 9 5 8 20.7
-1 10 -5 134.29 28
-1 10 -5 127.79 24.3
-9 -1 -5 163.38 36.3
-10 9 5 134.39 21.2
1 -10 5 115.09 30.6
-10 9 5 75.49 25.8
9 1 5 149.59 31.9
0 9 -5 21.9 15.5
-9 0 -5 23.2 24.8
0 9 -5 68.99 21.1
9 0 5 44.3 21.3
0 -9 5 45.4 23.9
9 0 5 38 15.5
-9 9 5 46.8 22.1
-9 9 5 28.6 14
1 8 -5 73.39 19
1 8 -5 114.89 22.7
-9 1 -5 62.09 28.1
-8 9 5 75.09 16.6
-1 -8 5 103.69 19.1
-8 9 5 61.89 27.5
9 -1 5 61.59 25
-1 -8 5 60.39 27
9 -1 5 71.99 17
-9 2 -5 34.2 20.1
2 7 -5 60.09 18.5
2 7 -5 66.49 21.4
-2 -7 5 42.3 23.7
-7 9 5 64.59 15
9 -2 5 83.49 25.4
-2 -7 5 53.39 14.9
-7 9 5 48.7 22.3
9 -2 5 47.5 15.9
6 -9 -5 28.4 27.8
-9 3 -5 36.7 25.4
3 6 -5 88.19 20.1
9 -3 5 67.99 20.9
-3 -6 5 55.79 15
-6 9 5 59.59 14.4
-6 9 5 41.6 23.1
9 -3 5 54.99 17.4
-3 -6 5 58.79 25.3
5 -9 -5 38.9 19.6
-9 4 -5 18.8 17.7
4 5 -5 78.19 18.4
-4 -5 5 27.8 22.9
-5 9 5 28.4 12.1
-4 -5 5 58.69 15.9
-5 9 5 25 21.4
9 -4 5 74.19 25.7
9 -4 5 48.1 15.7
5 4 -5 90.69 19.5
-9 5 -5 50.19 24.8
4 -9 -5 26.6 19
-5 -4 5 53.99 24.7
-5 -4 5 53.69 15.7
9 -5 5 55.69 20.5
-4 9 5 59.29 26.1
-4 9 5 40.4 12.9
9 -5 5 61.19 17.9
6 3 -5 69.89 19.3
-9 6 -5 58.49 26.8
3 -9 -5 44.7 22.1
-6 -3 5 71.29 18.2
9 -6 5 74.69 18.1
-3 9 5 43 13.1
-6 -3 5 60.49 24.9
-3 9 5 57.59 23.4
9 -6 5 45.5 22.8
-9 7 -5 36.9 22.8
2 -9 -5 40.6 22.7
7 2 -5 58.19 18.2
-2 9 5 79.09 25.8
9 -7 5 74.59 24.5
-7 -2 5 14.8 21.5
-7 -2 5 51.89 16.3
9 -7 5 91.19 19.2
-2 9 5 52.59 14.3
-9 8 -5 44.7 23
8 1 -5 55.59 18
1 -9 -5 50.89 23
-8 -1 5 115.49 25.7
-1 9 5 69.39 15.6
-8 -1 5 83.19 18.1
9 -8 5 67.99 25.7
9 -8 5 96.39 19.4
-1 9 5 120.59 31.4
9 0 -5 39.1 17.5
0 -9 -5 35.8 22.1
-9 9 -5 36.8 26
0 9 5 24.9 20.3
-9 0 5 46.1 23.7
9 -9 5 45.6 17.7
0 9 5 54.49 14.7
-9 0 5 40.5 15.5
9 -9 5 53.49 20.9
-9 10 -5 116.29 31.7
10 -1 -5 128.39 22.4
-1 -9 -5 86.69 49.7
9 -10 5 119.19 27.9
-10 1 5 122.19 29
1 9 5 186.18 36.6
-10 1 5 171.98 26.2
9 -10 5 159.88 38.3
11 -2 -5 10.1 13.4
-9 11 -5 20.5 15.7
-9 11 -5 -0.3 34.3
-2 -9 -5 1.2 22.4
-11 2 5 15.8 21.1
9 -11 5 -2.2 17.3
-11 2 5 5 13
2 9 5 11.7 18.9
12 -3 -5 119.99 24
-3 -9 -5 65.49 26.5
-9 12 -5 93.59 20.3
-12 3 5 64.99 17.7
3 9 5 111.69 31.3
9 -12 5 104.69 21.1
9 -12 5 140.39 28.9
-12 3 5 46.3 26.5
-9 13 -5 72.29 31.7
13 -4 -5 37.2 17.3
-4 -9 -5 51.69 24.7
-9 13 -5 62.89 19.3
9 -13 5 59.39 16.4
4 9 5 61.99 23.4
-13 4 5 42.5 16.8
-13 4 5 49.5 26.1
9 -13 5 31.8 19.2
-9 14 -5 82.89 28.4
14 -5 -5 77.29 19.8
-9 14 -5 86.49 20
-5 -9 -5 148.69 35.2
5 9 5 99.99 25.2
9 -14 5 107.59 19.9
9 -14 5 66.99 24
-14 5 5 61.99 25.4
-14 5 5 81.89 20
-9 15 -5 50.39 17.9
-6 -9 -5 29.3 23.1
15 -6 -5 59.89 19.2
-9 15 -5 47.8 24.9
-15 6 5 77.29 26.1
-15 6 5 60.89 20.1
9 -15 5 40.9 22.3
6 9 5 72.29 24.2
9 -15 5 73.69 16.8
16 -7 -5 197.28 27.7
-7 -9 -5 169.18 38.3
-9 16 -5 210.18 27.9
-9 16 -5 189.28 32.9
-16 7 5 220.98 51.79
-16 7 5 271.17 33
9 -16 5 233.18 25.1
-9 17 -5 14 15.8
-9 17 -5 40.6 24.5
-8 -9 -5 40.9 28.1
17 -8 -5 39.5 16.9
9 -17 5 28.5 13.2
-17 8 5 23.3 15.9
-17 8 5 20.7 23.8
8 9 5 28.4 18.9
-9 18 -5 118.39 24
-9 -9 -5 81.49 32.4
18 -9 -5 110.59 21.2
-9 18 -5 119.39 29.6
-18 9 5 147.09 27.6
-18 9 5 90.59 32
9 -18 5 110.09 17.5
9 -18 5 156.58 22.2
-10 -9 -5 -0.7 28.1
-9 19 -5 27.5 22.4
19 -10 -5 15.7 14
-9 19 -5 32.8 17.9
9 -19 5 16.8 11.4
-19 10 5 45.3 29.1
10 9 5 25.9 18.4
-19 10 5 34.8 19.3
-8 18 -5 303.77 39.4
-10 -8 -5 296.97 51.99
-8 18 -5 319.47 34.8
18 -10 -5 295.77 29.6
-18 10 5 319.37 35
-18 10 5 211.98 41.8
10 8 5 329.87 38.7
8 -18 5 295.97 26.7
-7 17 -5 14.8 19.4
17 -10 -5 22.5 14.5
-10 -7 -5 8.7 27.7
-7 17 -5 31.3 18.1
-17 10 5 45.7 19.5
7 -17 5 38.4 13.5
10 7 5 7.5 27.7
7 -17 5 12.9 17.7
-17 10 5 64.69 28.1
-6 16 -5 511.55 41.2
-10 -6 -5 351.36 58.09
-6 16 -5 522.65 45.8
16 -10 -5 436.36 34.7
6 -16 5 565.84 37.2
-16 10 5 426.16 40.7
6 -16 5 513.15 46.5
10 6 5 442.26 43.9
-16 10 5 555.24 72.09
-5 15 -5 4.7 17.3
15 -10 -5 31.6 12.7
-10 -5 -5 17.8 24.8
-5 15 -5 15.6 16.8
5 -15 5 15.4 20.3
-15 10 5 50.99 17.9
-15 10 5 16.7 24
10 5 5 45.2 20.8
5 -15 5 43.4 14.8
-10 -4 -5 310.87 50.69
14 -10 -5 322.67 26.4
-4 14 -5 281.67 36.8
-4 14 -5 327.07 34
4 -14 5 307.77 29.9
-14 10 5 285.97 45.2
4 -14 5 322.77 41.6
-14 10 5 310.77 32
-3 13 -5 78.69 21.2
-3 13 -5 83.19 22.8
-10 -3 -5 16.9 24.9
-13 10 5 73.99 29.3
-13 10 5 79.59 19
3 -13 5 42.5 15.5
3 -13 5 44.5 24.5
-10 -2 -5 376.36 55.49
-2 12 -5 397.46 36.7
-2 12 -5 359.56 38.7
12 -10 -5 413.16 28.3
2 -12 5 362.96 48.6
-12 10 5 454.65 50.49
2 -12 5 390.06 38.6
-1 11 -5 44.7 17.8
-1 11 -5 47 20.5
-10 -1 -5 58.89 30
-11 10 5 75.29 29.1
1 -11 5 15.8 25.7
1 -11 5 41.2 24.2
-11 10 5 80.99 17.6
0 10 -5 447.46 41.1
-10 0 -5 480.25 54.29
0 10 -5 468.75 40.2
-10 10 5 542.05 53.19
0 -10 5 486.95 42.5
-10 10 5 513.75 36.2
0 -10 5 473.15 49.2
1 9 -5 133.99 24.6
1 9 -5 142.49 24.4
-10 1 -5 127.79 36.1
-9 10 5 108.49 30.2
10 -1 5 132.39 27.9
-9 10 5 116.49 19.5
-1 -9 5 164.78 31
10 -1 5 114.29 22.6
-1 -9 5 155.08 23.8
2 8 -5 510.45 41
-10 2 -5 540.75 54.79
10 -2 5 497.35 48.9
-8 10 5 515.25 36.2
-2 -8 5 476.85 49.8
-8 10 5 484.55 51.39
10 -2 5 507.75 40
-2 -8 5 473.85 37.5
-10 3 -5 99.69 26.2
3 7 -5 117.19 22.6
10 -3 5 95.89 28.5
-7 10 5 115.99 18.6
10 -3 5 121.69 21.7
-3 -7 5 128.99 30.9
-3 -7 5 58.29 17.7
-7 10 5 66.49 24.6
4 6 -5 633.04 46.7
6 -10 -5 491.95 66.29
-10 4 -5 657.43 59.39
10 -4 5 591.24 52.99
-4 -6 5 641.24 54.89
-4 -6 5 621.84 43.9
-6 10 5 639.44 40.2
10 -4 5 617.74 44.2
-6 10 5 635.64 56.69
5 -10 -5 151.98 30.3
5 5 -5 121.89 23.7
-10 5 -5 85.59 26.5
-5 10 5 181.78 21
-5 -5 5 153.18 31.5
-5 10 5 131.49 32.7
10 -5 5 213.98 25.3
-5 -5 5 142.99 22.8
10 -5 5 182.58 34.8
-10 6 -5 595.84 55.49
4 -10 -5 577.54 49.5
6 4 -5 627.04 46.1
10 -6 5 564.74 51.89
-4 10 5 559.04 53.09
-4 10 5 587.74 38.1
-6 -4 5 647.74 54.69
10 -6 5 588.14 43
-6 -4 5 510.75 41.4
-10 7 -5 78.19 26.4
7 3 -5 137.79 23.6
3 -10 -5 107.39 25.1
-7 -3 5 123.79 20.8
10 -7 5 79.19 17.9
-7 -3 5 73.69 28.4
-3 10 5 122.79 18.2
-3 10 5 123.59 31
10 -7 5 74.59 23.1
8 2 -5 506.95 41.4
2 -10 -5 533.35 48.2
-10 8 -5 496.65 51.79
-8 -2 5 437.26 48.9
10 -8 5 463.15 37.3
-8 -2 5 557.64 40.4
-2 10 5 450.25 49
10 -8 5 471.55 47.3
-2 10 5 493.65 34.5
9 1 -5 141.09 25.9
1 -10 -5 152.08 31.4
-10 9 -5 149.49 35.9
-9 -1 5 91.69 29.1
-9 -1 5 104.89 20.1
10 -9 5 109.39 27.4
-1 10 5 165.48 21.5
-1 10 5 158.18 32.4
10 -9 5 128.09 21.5
10 0 -5 526.95 42.4
-10 10 -5 536.55 53.39
0 -10 -5 371.06 57.29
-10 0 5 507.25 39.8
10 -10 5 527.45 48.3
-10 0 5 442.26 50.29
10 -10 5 469.35 37.7
0 10 5 437.66 47.4
11 -1 -5 63.99 20.9
-1 -10 -5 37.1 39.9
-10 11 -5 35.9 25.8
1 10 5 32.1 20.6
-11 1 5 54.29 16.5
10 -11 5 94.29 25.4
10 -11 5 29.7 16.8
-11 1 5 36.2 23.8
12 -2 -5 421.46 37.4
-10 12 -5 443.36 47.9
-2 -10 -5 342.17 45.5
2 10 5 352.36 43.6
10 -12 5 390.26 43.3
-12 2 5 350.16 49
-12 2 5 375.76 35.9
-3 -10 -5 83.99 26.7
-10 13 -5 101.69 30.5
13 -3 -5 74.59 20.2
-10 13 -5 93.69 19.8
10 -13 5 46.8 23.8
-13 3 5 77.49 27.2
-13 3 5 65.29 19.6
10 -13 5 50.39 16.9
3 10 5 78.79 24.8
-10 14 -5 287.57 32.2
14 -4 -5 291.77 33.8
-10 14 -5 302.57 47.7
-4 -10 -5 274.17 40.5
4 10 5 338.57 41.1
-14 4 5 347.87 35
-14 4 5 257.17 43.5
10 -14 5 320.37 29.4
15 -5 -5 65.89 19.3
-10 15 -5 16 37.6
-5 -10 -5 18.4 25.4
-10 15 -5 30.4 17.6
-15 5 5 35 24.6
-15 5 5 32.8 18.2
5 10 5 37 19.6
10 -15 5 39.2 14.6
16 -6 -5 511.85 40.7
-10 16 -5 468.55 39.5
-6 -10 -5 470.35 53.49
-10 16 -5 501.05 62.29
-16 6 5 461.15 42.1
-16 6 5 330.17 57.99
10 -16 5 523.95 36.8
17 -7 -5 31.5 16.5
-10 17 -5 31.8 16.8
-7 -10 -5 17.3 24.7
-10 17 -5 15.8 23
-17 7 5 12.2 23
10 -17 5 24.1 13.4
10 -17 5 54.89 17.4
-17 7 5 30.9 17.7
-10 18 -5 305.87 32.7
-10 18 -5 357.76 42.2
-8 -10 -5 266.57 43.9
18 -8 -5 258.17 31.1
-18 8 5 313.77 36.4
-18 8 5 288.87 49.9
8 10 5 339.57 37.3
10 -18 5 255.37 25.9
10 -18 5 304.07 29.9
19 -9 -5 15.5 15.4
-9 -10 -5 29.3 26.3
-10 19 -5 10.1 14.6
-10 19 -5 38.1 23.7
10 -19 5 22.7 11.4
-19 9 5 32.5 18.6
-19 9 5 -28.8 18.6
9 10 5 30.8 19.7
-10 20 -5 277.57 39.2
20 -10 -5 283.17 31.3
-10 -10 -5 295.47 53.99
-20 10 5 247.28 46.9
10 -20 5 256.57 22.4
-20 10 5 249.48 38.4
10 10 5 326.07 40
10 -20 5 300.97 22.5
-10 21 -5 12.7 19.2
21 -11 -5 -7.8 13.7
-10 21 -5 -2 14.7
-11 -10 -5 -25.8 15.3
-21 11 5 -6.8 23.5
11 10 5 -1.7 16
-11 -9 -5 126.19 34.4
-9 20 -5 159.68 28.1
20 -11 -5 183.78 25.8
9 -20 5 234.08 19.2
9 -20 5 177.48 19
11 9 5 145.29 29.5
-20 11 5 122.89 30.2
-20 11 5 205.48 43.9
-11 -8 -5 29.5 26.2
-8 19 -5 7.4 15.8
19 -11 -5 7.6 13.8
-8 19 -5 13.8 17.9
8 -19 5 13.1 11
-19 11 5 7.9 22.8
-19 11 5 55.69 21.2
11 8 5 1.9 18
18 -11 -5 116.59 19.6
-11 -7 -5 72.69 30.1
-7 18 -5 140.19 27.7
-7 18 -5 167.98 28.1
11 7 5 109.79 27.8
-18 11 5 209.98 31.6
7 -18 5 161.08 20.9
-18 11 5 167.28 37
7 -18 5 169.98 30.6
17 -11 -5 13.2 11.9
-11 -6 -5 -3.3 21
-6 17 -5 24.6 16.5
-6 17 -5 11.9 17.9
-17 11 5 -17.6 19.1
11 6 5 -1.4 17.3
6 -17 5 -3 15.3
-17 11 5 18.3 16.1
6 -17 5 10.6 11.8
-5 16 -5 255.47 33.8
16 -11 -5 196.28 23
-11 -5 -5 206.08 44
-5 16 -5 338.07 34.6
5 -16 5 264.17 26.3
5 -16 5 203.78 33.9
-16 11 5 224.18 32.8
-16 11 5 208.88 46.1
11 5 5 185.88 40.1
-11 -4 -5 37.1 28.4
-4 15 -5 -1.2 14
-4 15 -5 37.3 19.3
11 4 5 26.5 17.9
-15 11 5 20.7 15.3
-15 11 5 2.3 21.1
4 -15 5 41.5 15.1
4 -15 5 34.1 20.9
-3 14 -5 104.09 22.1
14 -11 -5 69.29 14.2
-11 -3 -5 57.99 28.4
-3 14 -5 74.19 20.9
-14 11 5 60.39 28.1
-14 11 5 112.99 22.2
3 -14 5 87.79 17.9
3 -14 5 98.79 26.8
11 3 5 92.69 25.4
-11 -2 -5 18.3 24.3
-2 13 -5 21.9 17.3
-2 13 -5 -2.2 12.6
-13 11 5 4.2 12.2
11 2 5 20.8 18.7
2 -13 5 -12.6 12.7
-13 11 5 4.8 20.9
2 -13 5 -2.7 20.5
-1 12 -5 165.08 27.2
-1 12 -5 116.49 23.6
-11 -1 -5 144.49 40.8
1 -12 5 139.29 32.9
-12 11 5 119.29 24.9
-12 11 5 43.8 27
0 11 -5 23.4 16
-11 0 -5 -12.8 20.4
-11 11 5 18.1 22.2
-11 11 5 36.2 14.3
0 -11 5 4.6 12.9
0 -11 5 -9.8 22.8
-11 1 -5 72.69 31.2
1 10 -5 48 17.3
-1 -10 5 65.49 25.1
-1 -10 5 58.89 16.6
-10 11 5 65.49 16.6
-10 11 5 49 25.6
-11 2 -5 1.1 22.6
2 9 -5 43.8 16.7
11 -2 5 21.9 15.7
-9 11 5 24.2 12.8
-9 11 5 -3.5 22.2
-2 -9 5 -0.3 20.3
-2 -9 5 11.5 12.7
-11 3 -5 26.8 23.3
3 8 -5 43.6 17.6
-8 11 5 38.7 22.7
11 -3 5 120.79 23.3
-3 -8 5 82.69 25.5
-8 11 5 67.39 15.3
-3 -8 5 71.69 18.4
4 7 -5 67.19 19.5
-11 4 -5 44.2 24.8
-4 -7 5 48.3 24.3
-4 -7 5 63.99 18.4
-7 11 5 60.79 24.7
11 -4 5 60.09 18.4
-7 11 5 69.99 15.6
5 6 -5 23.8 16.7
-11 5 -5 63.69 27.6
-5 -6 5 60.09 16.8
-5 -6 5 39.2 23.6
-6 11 5 52.39 13.3
-6 11 5 30.2 22.5
11 -5 5 58.39 17.6
5 -11 -5 36.6 22.1
6 5 -5 42.5 18.8
-11 6 -5 11.8 24
-5 11 5 46.8 26.1
-5 11 5 54.39 13.8
-6 -5 5 33.7 24.1
-6 -5 5 68.69 17.3
11 -6 5 21.5 15.8
7 4 -5 64.59 17.6
-11 7 -5 20.8 24.4
4 -11 -5 48.5 21.6
11 -7 5 31.4 15.5
-7 -4 5 68.89 18.8
-4 11 5 59.19 14.3
-4 11 5 35.9 23.5
-7 -4 5 94.79 29.7
3 -11 -5 41.8 22.1
-11 8 -5 70.09 28.7
8 3 -5 81.09 21.8
-8 -3 5 73.19 24
-8 -3 5 65.39 17.1
11 -8 5 49.4 17.8
-3 11 5 106.29 17.4
-3 11 5 71.09 27.8
-11 9 -5 13.6 23.5
2 -11 -5 8 19.3
9 2 -5 -2.9 15.1
-2 11 5 26.3 13.1
-2 11 5 33.8 25.6
-9 -2 5 45.6 24.6
-9 -2 5 -1.7 10.9
11 -9 5 22 14.2
-11 10 -5 83.79 26.5
10 1 -5 87.29 22.1
1 -11 -5 77.99 29.2
11 -10 5 40.1 16.6
-10 -1 5 68.89 18.7
-1 11 5 52.19 24.4
-10 -1 5 51.69 24.4
11 0 -5 20.9 16.1
-11 11 -5 35.1 24.4
-11 0 5 -0.5 13.1
-11 0 5 -3.1 19.3
0 11 5 10.3 19.9
11 -11 5 12.3 13.4
-1 -11 -5 148.59 31.8
-11 12 -5 139.29 30.7
12 -1 -5 159.48 27.8
-12 1 5 85.89 27.9
11 -12 5 122.29 22.5
1 11 5 170.88 35
-12 1 5 106.99 23.2
13 -2 -5 15.1 15
-2 -11 -5 49.9 25.9
-11 13 -5 16.9 21.1
-13 2 5 3 13.4
2 11 5 11.4 20.5
-13 2 5 5.3 20.4
14 -3 -5 80.89 21.5
-11 14 -5 101.49 28.8
-3 -11 -5 50.69 25.9
-11 14 -5 74.19 19.7
-14 3 5 48.7 26.8
3 11 5 103.79 25.9
-14 3 5 80.19 20.6
11 -14 5 57.59 17.2
15 -4 -5 33.5 17.5
-4 -11 -5 6.5 22.1
-11 15 -5 17.3 16.1
-11 15 -5 40.6 26.7
11 -15 5 13.4 17.1
-15 4 5 2 22.4
-15 4 5 0 12.7
4 11 5 11.9 18.9
11 -15 5 28.6 14.4
-5 -11 -5 219.08 42.9
-11 16 -5 227.78 38.8
16 -5 -5 259.67 31.9
-11 16 -5 204.98 30.2
11 -16 5 233.98 29.7
-16 5 5 206.98 41.3
11 -16 5 204.08 25.1
-16 5 5 178.78 28.4
-11 17 -5 8.2 22.3
-11 17 -5 8.4 15.3
-6 -11 -5 24.9 23.3
17 -6 -5 16 16
-17 6 5 -16.6 18.9
11 -17 5 46.4 17
11 -17 5 7.8 11.7
-17 6 5 20 17.9
-7 -11 -5 129.29 34.6
-11 18 -5 188.28 28.3
18 -7 -5 167.08 26.8
11 -18 5 135.69 20.1
-18 7 5 162.98 35
-18 7 5 124.89 26.8
7 11 5 132.89 27.6
11 -18 5 230.68 26.4
-11 19 -5 -25.2 19.2
-8 -11 -5 -5.8 23.1
19 -8 -5 26.4 16.3
-11 19 -5 37.1 16.7
-19 8 5 54.29 28.3
-19 8 5 22.5 18.5
8 11 5 -15.9 23
11 -19 5 10.4 10.9
-9 -11 -5 160.88 40.4
-11 20 -5 123.99 32
20 -9 -5 158.38 25.2
11 -20 5 202.08 19.5
11 -20 5 186.58 18.5
9 11 5 160.88 30.2
-20 9 5 188.98 56.39
-20 9 5 128.09 39
21 -10 -5 20.9 16.6
-11 21 -5 -17.3 13.1
-11 21 -5 23.6 22.1
-10 -11 -5 72.89 26.7
-21 10 5 19.4 20.7
-21 10 5 -18.1 23.1
10 11 5 10.8 17.9
-11 22 -5 165.48 29.9
-11 22 -5 106.59 24.6
22 -11 -5 101.99 21.7
-22 11 5 148.19 37.8
11 11 5 139.09 29.6
-22 11 5 176.58 33.5
23 -12 -5 -9.1 13.9
-11 23 -5 -17.7 17.2
-11 23 -5 39.5 18.6
12 11 5 26.2 19.7
-23 12 5 -10 22.7
-23 12 5 -19.1 25
-10 22 -5 137.19 27.2
22 -12 -5 171.98 25.3
-10 22 -5 201.78 32.3
-22 12 5 268.47 53.59
12 10 5 184.38 33.2
-22 12 5 219.68 36.9
-9 21 -5 36.7 21.3
-9 21 -5 22 18.5
21 -12 -5 22.8 14.5
-21 12 5 9.5 25.4
-21 12 5 99.29 37.2
12 9 5 28.6 18.1
20 -12 -5 326.07 29.6
-8 20 -5 376.86 37
8 -20 5 335.57 24.4
12 8 5 366.96 40.3
8 -20 5 321.47 25.1
-20 12 5 312.07 40.7
-20 12 5 296.57 51.19
19 -12 -5 18.2 12.5
-7 19 -5 31.5 20.8
-7 19 -5 17.6 18.6
-12 -7 -5 46.2 27.6
-19 12 5 44.8 19.1
-19 12 5 31.7 30
12 7 5 43 22.3
7 -19 5 43.1 13.2
-6 18 -5 357.66 37.2
-6 18 -5 315.87 35.2
18 -12 -5 278.37 26.3
-12 -6 -5 332.27 51.59
6 -18 5 310.57 36.4
6 -18 5 346.87 27.9
12 6 5 242.08 36.9
-18 12 5 314.07 49.6
-18 12 5 321.17 37.2
-5 17 -5 34.6 16.9
-5 17 -5 47.2 19
-12 -5 -5 55.59 26.9
12 5 5 37.4 19.2
-17 12 5 62.19 28.1
5 -17 5 26.5 13.6
5 -17 5 35.5 20
-17 12 5 30.7 17.3
-4 16 -5 376.56 37.8
16 -12 -5 382.56 28.1
-4 16 -5 446.86 39.2
-12 -4 -5 450.65 55.89
4 -16 5 405.66 41.9
-16 12 5 396.86 37.8
-16 12 5 410.66 52.89
12 4 5 358.46 42.7
4 -16 5 393.26 33
-3 15 -5 66.39 20.8
-3 15 -5 68.69 20.8
-12 -3 -5 104.39 32.9
3 -15 5 90.89 25.4
-15 12 5 36 24.7
12 3 5 31.5 22.1
3 -15 5 58.69 16.1
-15 12 5 33.8 16.9
-2 14 -5 248.08 33.5
-12 -2 -5 274.07 48.5
12 2 5 278.97 36.3
2 -14 5 307.37 42.9
-14 12 5 297.27 29.3
-14 12 5 292.87 42.6
2 -14 5 281.37 32.5
-1 13 -5 16.3 16
-12 -1 -5 34.8 23.4
-13 12 5 19.8 24.4
12 1 5 65.09 21.9
1 -13 5 30.9 23.2
0 12 -5 344.97 34.2
-12 0 -5 405.06 52.09
-12 12 5 319.57 30.4
0 -12 5 289.27 29.4
12 0 5 329.37 37.6
-12 12 5 219.08 37
0 -12 5 302.37 43.8
-12 1 -5 159.38 39.1
1 11 -5 86.59 21.6
12 -1 5 127.19 25.4
-11 12 5 147.09 21.8
-1 -11 5 142.29 22.5
-1 -11 5 75.79 27.6
-11 12 5 50.19 25.5
2 10 -5 395.26 38.6
-12 2 -5 337.37 51.39
12 -2 5 424.26 40.9
-10 12 5 395.96 48.7
-10 12 5 362.96 31.4
-2 -10 5 483.25 47.5
-2 -10 5 384.36 33.9
3 9 -5 80.89 22
-12 3 -5 59.59 25.1
12 -3 5 49 18.5
-9 12 5 49.2 27.1
-3 -9 5 61.89 18.1
-9 12 5 82.89 17.2
-3 -9 5 32.3 23.5
4 8 -5 441.46 40.1
-12 4 -5 425.86 52.79
-4 -8 5 455.75 37.3
-8 12 5 448.46 49.9
-4 -8 5 454.35 47.2
12 -4 5 378.26 36.7
-8 12 5 422.66 32.2
-12 5 -5 85.99 31.3
5 7 -5 122.69 25.5
-7 12 5 96.99 16.7
-7 12 5 116.39 31.7
-5 -7 5 89.99 19.3
-5 -7 5 126.19 30
12 -5 5 156.58 25.3
6 -12 -5 509.15 61.99
6 6 -5 497.75 41.3
-12 6 -5 409.16 51.09
-6 -6 5 393.96 47.9
-6 -6 5 478.25 38.3
-6 12 5 476.85 49.3
-6 12 5 443.46 32.4
12 -6 5 394.56 36.8
5 -12 -5 139.09 38.1
7 5 -5 106.09 24.1
-12 7 -5 102.69 29.1
-7 -5 5 117.49 23.5
-5 12 5 106.59 27.6
-7 -5 5 114.99 29.2
12 -7 5 146.49 24.9
-5 12 5 106.49 16.9
8 4 -5 454.55 40.3
4 -12 -5 428.76 45.6
-12 8 -5 424.96 51.59
-4 12 5 474.85 48.9
-4 12 5 382.76 30.9
-8 -4 5 435.36 48.7
12 -8 5 410.26 36.5
-8 -4 5 432.76 37.5
3 -12 -5 81.39 24.3
9 3 -5 98.99 24.6
-12 9 -5 52.59 26.6
-9 -3 5 82.39 19.8
12 -9 5 66.29 17.9
-3 12 5 74.49 26
-3 12 5 72.19 15.3
-9 -3 5 82.49 26.5
10 2 -5 452.65 40.8
-12 10 -5 421.16 49.6
2 -12 -5 340.37 49.3
-2 12 5 424.16 31.3
12 -10 5 492.75 37.4
-10 -2 5 347.17 47.3
-2 12 5 364.76 46.2
-10 -2 5 353.86 36.1
11 1 -5 132.49 25.9
1 -12 -5 29.2 41.6
-12 11 -5 35.5 28.8
-1 12 5 80.09 28.5
-11 -1 5 120.49 32
-11 -1 5 136.49 24.2
12 -11 5 127.29 23
-12 12 -5 375.66 47.6
12 0 -5 322.57 35.6
0 -12 -5 312.57 51.19
12 -12 5 353.26 36.1
-12 0 5 341.97 34.6
-12 0 5 409.06 47.9
12 -12 5 324.97 32.3
0 12 5 355.36 42.8
13 -1 -5 37.2 18.3
-1 -12 -5 -21 19.1
-12 13 -5 34.8 23.8
-13 1 5 -0.2 20.3
1 12 5 -4.5 18
-13 1 5 26 15.1
12 -13 5 41.4 19.2
12 -13 5 3.3 13
-2 -12 -5 327.07 45
-12 14 -5 332.77 45.2
14 -2 -5 312.67 36.2
-14 2 5 274.97 41.2
2 12 5 323.67 47.2
12 -14 5 341.17 34.9
-14 2 5 281.97 33.5
15 -3 -5 64.39 20.2
-3 -12 -5 37.8 25.3
-12 15 -5 61.89 24.7
12 -15 5 50.19 18.7
3 12 5 47.1 21.5
-15 3 5 54.39 18.5
12 -15 5 46.2 15.5
-15 3 5 19.7 26.4
-12 16 -5 394.46 37.2
16 -4 -5 443.36 39.5
-4 -12 -5 350.96 48
-12 16 -5 351.76 47.1
4 12 5 408.06 44.7
-16 4 5 394.46 49.9
-16 4 5 379.56 39.4
12 -16 5 415.76 36.9
12 -16 5 379.46 32.5
-5 -12 -5 29.3 27.4
-12 17 -5 23.8 17.5
-12 17 -5 9.5 21.6
17 -5 -5 39.1 17.7
12 -17 5 29.3 16.4
-17 5 5 21.7 25.1
12 -17 5 29.2 13.8
-17 5 5 28.8 18
-6 -12 -5 331.27 51.19
-12 18 -5 278.47 42.1
18 -6 -5 300.37 35.8
-12 18 -5 370.06 36.6
-18 6 5 311.27 52.39
-18 6 5 282.07 38.1
12 -18 5 312.17 28
12 -18 5 349.87 30.6
-12 19 -5 42.1 24.1
19 -7 -5 47.4 19.7
-12 19 -5 46.6 25.5
-7 -12 -5 29.1 24.5
-19 7 5 50.19 22.6
7 12 5 48.8 32.6
12 -19 5 21.9 12.5
-19 7 5 58.89 32.3
20 -8 -5 276.07 33.8
-12 20 -5 331.37 61.09
-12 20 -5 330.67 66.59
-8 -12 -5 460.55 62.39
12 -20 5 308.37 24.8
-20 8 5 323.07 51.79
8 12 5 354.86 39.6
12 -20 5 332.77 24.8
-20 8 5 274.17 53.89
-12 21 -5 5 16.3
-9 -12 -5 38.2 28.8
-12 21 -5 10.9 23.3
21 -9 -5 48.9 19.7
-21 9 5 52.59 23.3
9 12 5 36.9 20.2
-21 9 5 33.5 29.7
-12 22 -5 153.08 28
22 -10 -5 152.38 26.7
-12 22 -5 150.38 31.4
-10 -12 -5 141.99 36.4
-22 10 5 194.08 43.6
10 12 5 215.28 35.2
-22 10 5 238.98 36.7
23 -11 -5 7.1 16.3
-12 23 -5 32.8 20.3
-12 23 -5 13.3 16.7
-23 11 5 44.8 29.7
-23 11 5 55.79 28.1
11 12 5 51.29 23
-12 24 -5 109.29 26
-12 24 -5 85.89 23.6
24 -12 -5 107.69 23.8
-24 12 5 162.98 45.8
12 12 5 149.88 32
-12 25 -5 8.5 19.2
-13 -12 -5 16.9 32.7
25 -13 -5 24.8 19
13 12 5 24.8 21.6
-25 13 5 -3.8 40
-13 -11 -5 109.79 39.6
-11 24 -5 61.59 21.7
24 -13 -5 90.79 20.8
-24 13 5 98.19 37.3
13 11 5 34.8 22.7
-13 -10 -5 24.5 34.1
-10 23 -5 -6.9 15.3
-10 23 -5 16 18.3
23 -13 -5 -7.5 13
-23 13 5 -5.1 24.5
13 10 5 17.3 18.5
-23 13 5 -13 24.9
-9 22 -5 59.89 21.8
-9 22 -5 115.49 23.1
22 -13 -5 98.39 17.9
-22 13 5 82.69 27.9
-22 13 5 54.49 33.7
13 9 5 60.59 24.9
21 -13 -5 3.3 11.3
-8 21 -5 15.6 16.4
-8 21 -5 -11.4 14.8
13 8 5 39.9 22
-21 13 5 33.3 29.4
-21 13 5 -0.4 20.3
-7 20 -5 134.09 38.1
20 -13 -5 153.88 20.3
-7 20 -5 150.58 26.8
-20 13 5 68.79 31.8
13 7 5 132.89 28.5
7 -20 5 188.58 18.4
7 -20 5 165.98 19.6
-20 13 5 199.68 32.4
-6 19 -5 -11.6 27.8
-19 13 5 17.7 27.1
6 -19 5 18.2 12.1
13 6 5 11.6 17.8
6 -19 5 23.9 17.4
-19 13 5 45.4 18.7
18 -13 -5 135.49 17
-5 18 -5 78.49 21.2
-13 -5 -5 92.19 33.8
-18 13 5 138.59 27.2
5 -18 5 105.79 25.3
-18 13 5 129.79 33.2
13 5 5 136.29 29.5
5 -18 5 92.69 17.1
-4 17 -5 2.6 15.1
-13 -4 -5 71.19 27.7
4 -17 5 19.7 13.5
4 -17 5 26.9 21.1
-17 13 5 7.2 25.6
-17 13 5 37.8 18
13 4 5 24.6 20.5
-13 -3 -5 97.99 36.4
-3 16 -5 110.99 23.5
13 3 5 108.89 25.6
3 -16 5 79.99 25.6
3 -16 5 112.49 19.8
-16 13 5 148.99 25.2
-16 13 5 108.09 33.6
-13 -2 -5 61.59 26.9
-2 15 -5 40.5 17.7
2 -15 5 12 22.2
13 2 5 35.6 24.5
-15 13 5 85.49 30.9
2 -15 5 34 15.2
-15 13 5 3.6 14.5
-13 -1 -5 118.19 38.5
-1 14 -5 84.29 21.7
1 -14 5 83.99 28.3
-14 13 5 112.39 21.9
13 1 5 57.69 24.6
-14 13 5 74.79 29.2
-13 0 -5 21.2 26.3
0 13 -5 28 17.5
-13 13 5 46.2 24.3
13 0 5 8.2 16
0 -13 5 -16.5 19.5
-13 13 5 20.8 16
0 -13 5 58.49 16.2
1 12 -5 5.9 15.8
-13 1 -5 58.69 27.8
-12 13 5 8.6 12.8
13 -1 5 15.1 18.1
-1 -12 5 6.8 21.8
-12 13 5 9.2 22.4
-1 -12 5 29.9 13.9
-13 2 -5 26.6 25
2 11 -5 -10.2 14.5
-2 -11 5 28.6 15.2
-11 13 5 -8.9 20.6
13 -2 5 -4.5 16.1
-2 -11 5 -13.9 19.1
-11 13 5 28 13.3
-13 3 -5 67.59 27.5
3 10 -5 61.99 19.8
13 -3 5 113.19 23.9
-10 13 5 38.5 23.7
-3 -10 5 84.39 20.1
-3 -10 5 100.09 29.1
13 -3 5 53.89 21.5
-10 13 5 66.59 16.5
-13 4 -5 2.2 24.3
4 9 -5 48.2 17.8
-4 -9 5 41.8 24.6
13 -4 5 11.6 18.4
-4 -9 5 59.09 17.8
13 -4 5 31.1 17.7
-9 13 5 29.9 24.1
-9 13 5 51.19 14.7
-13 5 -5 -1.7 23.4
5 8 -5 66.19 21.6
-8 13 5 35 26.1
-5 -8 5 15.1 22.4
-8 13 5 26.4 12.6
-5 -8 5 34.7 16.1
13 -5 5 4.7 16.3
13 -5 5 17.2 15.5
6 7 -5 58.19 21.6
-13 6 -5 38.1 28.9
-6 -7 5 73.39 27.7
-7 13 5 52.99 13.4
13 -6 5 60.19 19.1
13 -6 5 75.89 23.7
-7 13 5 49.3 26.8
-6 -7 5 73.09 19.1
-13 7 -5 -10.9 21.6
6 -13 -5 52.29 26.9
7 6 -5 59.09 20.9
-7 -6 5 44 16.3
-7 -6 5 69.79 27.3
-6 13 5 -2.5 21.4
-6 13 5 25.5 12.4
13 -7 5 38.8 16.4
13 -7 5 47.6 21.1
8 5 -5 26 17.6
5 -13 -5 48.2 36.9
-13 8 -5 52.59 29.9
-5 13 5 13.2 11.4
-5 13 5 19.8 23
13 -8 5 20.5 18.8
13 -8 5 55.89 17.6
-8 -5 5 23.2 14.8
-8 -5 5 27 25.4
4 -13 -5 44.4 27.3
9 4 -5 50.09 20
-13 9 -5 46.2 28.6
-9 -4 5 59.09 18.3
-4 13 5 40.7 23.6
-9 -4 5 20.2 22.8
13 -9 5 -3.6 17.3
-4 13 5 58.39 14.8
13 -9 5 54.49 18.6
-13 10 -5 33.1 27.6
3 -13 -5 86.99 28.2
10 3 -5 68.29 21.4
-10 -3 5 90.99 28.4
-3 13 5 72.39 15.9
-3 13 5 77.49 25.4
13 -10 5 95.19 23.3
13 -10 5 82.19 19
-10 -3 5 79.39 19.3
11 2 -5 -8.3 14.6
-13 11 -5 11.3 22.2
2 -13 -5 57.59 37.4
13 -11 5 53.39 19.8
-2 13 5 12.9 23.2
-11 -2 5 -7.8 17.2
-11 -2 5 10.2 13.6
13 -11 5 12.4 14.8
1 -13 -5 27.9 38.3
-13 12 -5 46.3 26.7
12 1 -5 20.7 18.5
-12 -1 5 50.59 18
-12 -1 5 21.2 21.6
13 -12 5 11.5 14
-1 13 5 18.7 24.8
13 -12 5 38.2 19
-13 13 -5 5 21
13 0 -5 6.1 15.1
0 -13 -5 16.5 21.2
13 -13 5 25.9 15.2
-13 0 5 7.8 22.8
0 13 5 23.9 20.8
13 -13 5 16 17.7
-13 14 -5 120.89 32.9
-1 -13 -5 104.59 27.1
14 -1 -5 84.19 21.8
13 -14 5 96.19 21.3
1 13 5 81.99 27.1
-14 1 5 76.89 26.3
13 -14 5 116.59 23.9
-13 15 -5 30.7 23.6
-2 -13 -5 66.89 26.2
15 -2 -5 84.49 23.1
2 13 5 52.49 22
-15 2 5 7.5 15.8
-15 2 5 45 34.4
13 -15 5 0.4 16.7
-13 16 -5 74.59 27.4
-3 -13 -5 133.19 32.2
16 -3 -5 125.29 26.2
13 -16 5 107.29 21.3
13 -16 5 90.99 18.7
3 13 5 48.3 26.2
-16 3 5 109.89 31.5
-16 3 5 106.29 25.7
-4 -13 -5 30.7 26.1
17 -4 -5 18.2 16.9
-13 17 -5 2 21.8
13 -17 5 39 16.2
13 -17 5 34 15
-17 4 5 -2.6 20.4
-17 4 5 7.6 16.4
-5 -13 -5 103.29 28.2
-13 18 -5 88.69 29.7
18 -5 -5 119.79 25.9
-18 5 5 128.39 27.2
-18 5 5 147.09 37.8
13 -18 5 138.99 21.1
13 -18 5 123.89 19.6
-13 19 -5 -11 22.5
-6 -13 -5 23.5 24.2
19 -6 -5 16.7 18.1
13 -19 5 14.9 19.4
-19 6 5 7.4 25.1
13 -19 5 3.8 11.2
6 13 5 8.8 18.7
-13 20 -5 208.08 37.4
-7 -13 -5 122.09 33.8
20 -7 -5 148.49 27.2
-13 20 -5 143.19 31.4
-20 7 5 182.58 32.3
13 -20 5 181.78 19.5
7 13 5 147.39 29.7
-20 7 5 168.28 41.9
-13 21 -5 29.1 24.3
-13 21 -5 4.7 16.7
-8 -13 -5 64.69 30.1
21 -8 -5 10.2 16.8
8 13 5 0.2 18.8
-21 8 5 -10.2 22.6
-21 8 5 48.6 23.7
22 -9 -5 95.89 23
-9 -13 -5 93.69 34.2
-13 22 -5 68.29 23.5
-22 9 5 131.09 34.7
-22 9 5 43.1 26.4
9 13 5 94.39 25.5
-13 23 -5 15 18.1
-10 -13 -5 -56.39 29.3
-13 23 -5 28.5 22.4
23 -10 -5 -4.2 15.4
-23 10 5 -15.4 23.9
10 13 5 -13.1 15.8
-13 24 -5 59.69 22.3
24 -11 -5 40.2 21.2
-13 24 -5 95.69 24.8
-24 11 5 72.09 32.8
11 13 5 67.39 25.1
-13 25 -5 -23.9 16.4
-13 25 -5 16.1 19.1
-12 -13 -5 20.9 34
25 -12 -5 11.4 18.7
12 13 5 24.7 22.8
26 -13 -5 122.59 24.8
-13 -13 -5 108.69 40.9
-13 26 -5 81.69 26.5
-26 13 5 110.49 41.3
13 13 5 56.69 26
-12 26 -5 121.79 30.7
26 -14 -5 101.89 22.6
-14 -12 -5 64.79 43.8
-26 14 5 185.88 48.7
25 -14 -5 -10.8 13.9
-14 -11 -5 -20 28.1
-11 25 -5 2.4 18.8
-25 14 5 -13.1 35.1
14 11 5 -5.1 19.6
24 -14 -5 138.79 21.1
-10 24 -5 118.89 27.6
-14 -10 -5 96.59 39
14 10 5 56.99 24.4
-24 14 5 86.99 36.7
-14 -9 -5 13.7 25.7
23 -14 -5 10.7 13.5
-9 23 -5 55.59 20.4
14 9 5 34.7 21.4
-23 14 5 36.2 22.1
-23 14 5 40.3 31.8
22 -14 -5 217.78 26.5
-8 22 -5 162.88 31.5
-14 -8 -5 146.09 43.8
14 8 5 115.19 29.9
-22 14 5 184.38 42.3
-7 21 -5 33.9 19.6
-21 14 5 48.4 27.9
14 7 5 23.2 20.2
-21 14 5 85.99 25.6
-6 20 -5 259.17 37.5
20 -14 -5 248.08 21.9
14 6 5 306.67 38.6
6 -20 5 311.67 23.5
-20 14 5 300.17 50.69
-20 14 5 311.47 38.9
-5 19 -5 41.5 34.4
14 5 5 76.99 24.7
-19 14 5 0.6 25.2
5 -19 5 85.89 22.7
5 -19 5 40.1 13.1
-19 14 5 94.09 24.5
-4 18 -5 312.97 54.99
-18 14 5 251.57 42.6
-18 14 5 277.97 34.8
4 -18 5 249.38 36.1
14 4 5 215.08 33.4
4 -18 5 284.17 26.7
-14 -3 -5 -25.3 25.1
-3 17 -5 42.5 19.6
-17 14 5 49.5 18.5
3 -17 5 49.1 15.2
-17 14 5 15 25.5
3 -17 5 72.19 24.4
14 3 5 39.3 19.7
-2 16 -5 312.87 37.1
-14 -2 -5 298.67 49.1
-16 14 5 293.47 33.1
2 -16 5 352.46 31
14 2 5 303.27 38
-16 14 5 275.47 48.8
2 -16 5 392.46 42
-1 15 -5 42.5 20
-14 -1 -5 60.89 32.6
-15 14 5 68.49 18.2
-15 14 5 40.4 25.6
14 1 5 33.3 19.3
1 -15 5 29.6 24.4
-14 0 -5 194.58 39.9
0 14 -5 202.38 32.2
-14 14 5 319.87 48.4
0 -14 5 290.07 40.5
-14 14 5 250.77 41.5
14 0 5 187.08 32.9
0 -14 5 198.88 26.3
1 13 -5 111.89 24
-14 1 -5 76.49 29.3
-1 -13 5 96.99 27.6
14 -1 5 111.09 34.5
-13 14 5 99.89 19.9
-13 14 5 40.8 27.2
-1 -13 5 71.79 17.9
-14 2 -5 299.57 48.4
2 12 -5 261.07 33.4
-2 -12 5 334.07 42.7
14 -2 5 249.18 35.9
-2 -12 5 262.47 30.1
-12 14 5 258.17 44.1
-12 14 5 272.37 27.7
3 11 -5 96.09 22.8
-14 3 -5 85.39 39.9
-11 14 5 84.49 17.8
-3 -11 5 22.4 23.5
-11 14 5 70.89 27.9
-3 -11 5 77.49 19.6
14 -3 5 93.29 23.5
-14 4 -5 297.77 45.7
4 10 -5 328.27 37.1
-4 -10 5 337.57 47.2
14 -4 5 320.67 34.4
14 -4 5 335.97 37.1
-10 14 5 355.46 29.4
-10 14 5 360.46 47.1
-4 -10 5 264.97 31.8
-14 5 -5 59.89 28.4
5 9 -5 61.09 19.4
-5 -9 5 91.39 20
-9 14 5 68.29 26.8
-9 14 5 75.99 16.3
14 -5 5 98.29 23.3
-5 -9 5 104.49 30.7
14 -5 5 81.69 21.9
6 8 -5 359.06 37.9
-14 6 -5 421.86 61.19
-6 -8 5 327.47 33.6
14 -6 5 405.06 35.6
-6 -8 5 305.77 41.2
-8 14 5 297.77 40.9
14 -6 5 370.06 39.3
-8 14 5 331.87 28.3
7 7 -5 75.19 23.5
-14 7 -5 109.79 31.2
-7 -7 5 88.09 26.6
-7 14 5 58.49 13.4
14 -7 5 70.69 21.3
-7 14 5 84.29 28.8
14 -7 5 72.59 21.2
-7 -7 5 47.6 18.1
8 6 -5 357.66 38
6 -14 -5 380.76 44.8
-14 8 -5 402.06 52.89
-6 14 5 351.66 28.7
-6 14 5 306.07 43.7
14 -8 5 367.76 39
-8 -6 5 383.16 36
14 -8 5 318.77 34.3
-8 -6 5 359.56 46.1
-14 9 -5 109.59 33.9
9 5 -5 97.39 24.3
-5 14 5 94.79 16.4
-9 -5 5 51.99 18.1
14 -9 5 118.39 24.3
-5 14 5 45.1 25
14 -9 5 88.39 21.3
-9 -5 5 61.99 26.4
4 -14 -5 372.16 67.69
10 4 -5 351.86 37.6
-14 10 -5 351.26 54.39
-10 -4 5 283.67 33
-10 -4 5 333.97 44.9
-4 14 5 306.47 27.1
14 -10 5 332.37 33.7
-4 14 5 282.57 40.8
14 -10 5 334.07 36.4
11 3 -5 78.59 21.9
-14 11 -5 72.89 33.1
3 -14 -5 55.19 39.6
-11 -3 5 86.59 28
-3 14 5 103.59 29.2
-11 -3 5 71.19 20.9
14 -11 5 67.99 21.2
14 -11 5 88.89 20.3
-14 12 -5 290.97 43.5
12 2 -5 281.77 35.4
-12 -2 5 339.27 44.9
-12 -2 5 305.97 33.1
-2 14 5 301.67 45.4
14 -12 5 321.17 35.2
14 -12 5 269.97 31.2
13 1 -5 104.39 23.9
1 -14 -5 113.99 33.3
-14 13 -5 87.39 31.1
14 -13 5 98.79 21.7
-1 14 5 38.6 24.5
-13 -1 5 102.19 31.9
14 -13 5 78.19 22
-14 14 -5 220.28 38.4
0 -14 -5 259.07 42.2
14 0 -5 264.37 34.1
14 -14 5 264.37 29.3
0 14 5 195.68 34.5
14 -14 5 286.37 33.8
-14 0 5 222.88 38.6
15 -1 -5 46.3 21.2
-1 -14 -5 37.9 23.9
-14 15 -5 57.29 26.4
-15 1 5 40.3 26.6
1 14 5 42.6 23.9
14 -15 5 51.19 19.2
14 -15 5 42.2 18.1
-14 16 -5 296.07 45.2
-2 -14 -5 369.76 45.2
16 -2 -5 363.36 46
14 -16 5 362.26 35.4
-16 2 5 346.77 50.59
2 14 5 336.27 41.4
14 -16 5 339.57 44.7
-3 -14 -5 64.39 29.4
17 -3 -5 30.7 35.8
-14 17 -5 61.99 27
-17 3 5 63.99 21.8
14 -17 5 32.2 16.6
14 -17 5 78.89 17.7
-17 3 5 34.6 26.1
-4 -14 -5 275.47 41.6
18 -4 -5 138.69 46.9
-14 18 -5 282.57 45.8
14 -18 5 249.18 28.1
-18 4 5 230.18 43
14 -18 5 261.47 27
19 -5 -5 56.89 23.8
-5 -14 -5 9.1 26.5
-14 19 -5 66.89 29.4
-19 5 5 32.2 18.9
14 -19 5 37.1 14.4
14 -19 5 36.4 13.6
-19 5 5 17.7 24.3
5 14 5 29.8 20
20 -6 -5 289.57 37.4
-14 20 -5 302.57 47.4
-6 -14 -5 248.58 46.5
14 -20 5 233.98 23
-20 6 5 270.87 40
14 -20 5 268.07 29.6
-20 6 5 292.97 50.69
-14 21 -5 23.3 25.4
-7 -14 -5 38.8 30
21 -7 -5 29.8 17.7
7 14 5 40.7 21.2
-21 7 5 29.5 25.8
-21 7 5 22.5 22.3
-14 22 -5 178.88 38.6
22 -8 -5 154.08 30
-8 -14 -5 217.98 44.3
-14 22 -5 148.19 29.4
-22 8 5 212.28 48.9
8 14 5 169.58 31.1
-22 8 5 228.48 54.19
-14 23 -5 59.59 29.5
23 -9 -5 -1.5 17.2
-9 -14 -5 24 24.6
-14 23 -5 46.6 21.7
-23 9 5 55.49 32
9 14 5 32.7 20.3
-14 24 -5 103.09 26.5
24 -10 -5 73.89 24
-14 24 -5 115.49 30.4
10 14 5 91.89 28.3
-24 10 5 141.39 44.3
-14 25 -5 13.3 20.6
-14 25 -5 19.4 20.6
11 14 5 20.6 22.1
-25 11 5 23.6 35.4
-12 -14 -5 149.29 50.49
-14 26 -5 173.18 28.9
-14 26 -5 87.29 27.7
12 14 5 88.49 29
-26 12 5 141.49 42.2
-11 26 -5 74.59 26.3
26 -15 -5 71.29 17.1
15 11 5 73.99 39.8
-26 15 5 146.99 44.8
-10 25 -5 12.3 19.6
25 -15 -5 12 13.7
-15 -10 -5 -19.1 28.5
-25 15 5 24.1 29.8
15 10 5 -3.9 19.1
-9 24 -5 134.59 30.6
-15 -9 -5 90.79 41.6
15 9 5 86.59 26.4
-24 15 5 53.89 30.9
-24 15 5 21 28.2
23 -15 -5 -14.5 10.9
-8 23 -5 19 18.6
-15 -8 -5 -6.5 24.7
15 8 5 -1.2 17.1
-23 15 5 -10.2 19.7
-23 15 5 -1.8 25.9
-15 -7 -5 79.09 34.3
-7 22 -5 131.99 27.1
15 7 5 78.39 26.2
-22 15 5 123.09 35.9
-15 -6 -5 8.6 27.7
-6 21 -5 8.5 16.3
-21 15 5 -6.7 19.2
-21 15 5 5.1 22.8
15 6 5 11.6 19.6
-15 -5 -5 212.58 61.59
-5 20 -5 124.79 25.9
-20 15 5 89.49 35.3
-20 15 5 67.59 24.1
5 -20 5 121.69 15.8
15 5 5 118.39 27.5
-4 19 -5 2.9 16.3
-15 -4 -5 7.4 33.5
-19 15 5 20.7 19.1
15 4 5 24 21.3
4 -19 5 10.4 12.2
4 -19 5 44.3 20.8
-19 15 5 17.9 23.1
-3 18 -5 82.49 34.7
-18 15 5 110.69 24.1
3 -18 5 50.49 22.2
-18 15 5 80.49 34
3 -18 5 101.19 17.9
15 3 5 92.39 24.5
-17 15 5 39.6 18.9
15 2 5 52.29 20.9
-17 15 5 22 26.2
2 -17 5 37.2 21.5
2 -17 5 14.7 14.1
-1 16 -5 88.19 34.7
15 1 5 75.69 23.5
-16 15 5 63.49 19.8
1 -16 5 105.79 31.8
-16 15 5 115.19 32.9
1 -16 5 74.49 27.6
0 15 -5 27.2 19.6
-15 15 5 37.3 16.9
-15 15 5 43 27.2
15 0 5 16.5 17.6
0 -15 5 4.3 14.3
0 -15 5 -6.5 20.7
1 14 -5 51.89 19.5
-15 1 -5 84.09 31.3
-1 -14 5 17.5 22.9
-1 -14 5 54.39 17.5
15 -1 5 54.69 20.9
-14 15 5 91.29 27.6
-14 15 5 32.7 24.4
-15 2 -5 33.4 38.8
2 13 -5 57.29 20.7
-2 -13 5 3.7 14
-13 15 5 36.2 16.1
-2 -13 5 47.3 24.8
-13 15 5 17.6 23.5
15 -2 5 39.9 21.5
3 12 -5 30.4 18.6
-12 15 5 39 15.4
-12 15 5 13.3 21.7
-3 -12 5 70.39 18.7
-3 -12 5 52.59 23.5
4 11 -5 36.5 17.8
-11 15 5 8.9 21.1
-4 -11 5 33.8 25.8
15 -4 5 28.3 18.3
-11 15 5 19.4 13.6
-4 -11 5 28.3 15.6
15 -4 5 -0.4 15.8
-15 5 -5 1.4 26.7
5 10 -5 38.8 17.5
-10 15 5 23.3 13.4
-5 -10 5 17.1 15
-10 15 5 24.6 24.2
15 -5 5 29 17
15 -5 5 33.5 19.3
-5 -10 5 32.5 25.6
6 9 -5 58.09 20.8
-15 6 -5 -4.1 21.4
-9 15 5 28.3 24.8
15 -6 5 70.59 21.4
-6 -9 5 4.6 14.5
-6 -9 5 30.6 22.6
-9 15 5 61.59 15
15 -6 5 68.59 20.1
-15 7 -5 18.7 26.5
7 8 -5 -12.7 15.4
-8 15 5 3.6 21.8
15 -7 5 25.7 18.9
-7 -8 5 36.2 16.8
15 -7 5 22.7 16.9
-7 -8 5 33 24.3
-8 15 5 39.1 13.2
8 7 -5 35.4 20.3
-15 8 -5 37.5 22.5
-8 -7 5 60.39 26.3
-8 -7 5 16.5 14.5
15 -8 5 29.4 16.8
-7 15 5 40 13.6
15 -8 5 34.3 18.9
-7 15 5 29.3 23.7
9 6 -5 63.99 22.5
-15 9 -5 56.69 30.4
15 -9 5 60.49 20.8
15 -9 5 64.29 19.7
-6 15 5 43.7 27.1
-9 -6 5 46.6 17.4
-9 -6 5 34.7 23.4
-6 15 5 64.59 14.9
-15 10 -5 14.6 26.3
5 -15 -5 18.7 29.7
10 5 -5 12.5 15.7
15 -10 5 35.4 19
-5 15 5 1.1 20.3
-5 15 5 24.2 12.5
15 -10 5 2.9 15.4
-10 -5 5 42.1 18
-10 -5 5 26.8 24.3
11 4 -5 9 18.8
-15 11 -5 24.1 25.8
-11 -4 5 64.09 18.9
-4 15 5 9.1 21.3
15 -11 5 19.5 15.9
-4 15 5 16.2 12.2
-11 -4 5 35.4 24.2
15 -11 5 31.9 19
3 -15 -5 33.1 36.4
12 3 -5 54.49 34.6
-15 12 -5 68.59 32
-3 15 5 36 22.2
15 -12 5 48.2 18.1
-12 -3 5 18 22.7
15 -12 5 32.6 19.4
-12 -3 5 89.99 22
-15 13 -5 73.49 26.8
2 -15 -5 54.99 26.5
-13 -2 5 31.7 23.9
-2 15 5 22.6 21.2
15 -13 5 30.6 19.6
15 -13 5 28.5 16.8
-13 -2 5 0.3 19.4
14 1 -5 34.9 32.2
1 -15 -5 36.4 22.4
-15 14 -5 59.09 30
15 -14 5 53.79 19.5
15 -14 5 42.8 17.3
-1 15 5 26.7 23
-14 -1 5 76.29 31.8
0 -15 -5 17.9 22
15 0 -5 55.09 22.1
-15 15 -5 9.5 21.4
15 -15 5 46.1 18.8
-15 0 5 41.5 24.1
0 15 5 35.5 20.5
15 -15 5 31.3 16
-1 -15 -5 115.39 31
16 -1 -5 95.79 25.2
-15 16 -5 122.79 30.3
15 -16 5 118.39 23.1
1 15 5 97.59 27.7
15 -16 5 86.89 29.7
-16 1 5 70.79 29.7
-15 17 -5 -6.5 19.8
-2 -15 -5 -5.1 20.2
17 -2 -5 4.9 17.3
15 -17 5 38.8 16.7
-17 2 5 -1.6 21.8
15 -17 5 38 17.3
2 15 5 29.8 21.1
-3 -15 -5 44.7 25.8
18 -3 -5 60.79 23.1
-15 18 -5 140.29 35.4
15 -18 5 95.89 18.4
15 -18 5 62.69 18.4
-18 3 5 112.39 33.5
-18 3 5 98.19 27
19 -4 -5 0.9 16.2
-4 -15 -5 18.8 24.8
-15 19 -5 -2.6 21.5
15 -19 5 1.5 12.6
-19 4 5 2.4 18.4
-19 4 5 20.7 26.4
15 -19 5 24.6 13.3
-15 20 -5 114.29 32.9
20 -5 -5 109.59 26.5
-5 -15 -5 95.29 31.5
-20 5 5 91.49 32.3
-20 5 5 102.39 27.5
15 -20 5 102.49 16.4
5 15 5 77.79 36.5
-6 -15 -5 1.6 23.8
21 -6 -5 12.9 17.6
-15 21 -5 0.9 22.2
15 -21 5 13.1 7.9
-21 6 5 35.1 22
-21 6 5 23.2 25.1
6 15 5 5.9 18.9
15 -21 5 8.5 11.9
22 -7 -5 104.69 25.8
-15 22 -5 86.49 31.1
-7 -15 -5 63.39 30.1
-22 7 5 67.39 36.8
7 15 5 47 22.9
-15 23 -5 39.5 27.4
23 -8 -5 -9.6 16.3
-8 -15 -5 4.6 26.2
8 15 5 10.5 18.3
-23 8 5 17.5 27.9
24 -9 -5 125.59 25.3
-15 24 -5 79.29 27.6
-9 -15 -5 37 27.3
-24 9 5 29.3 32.2
9 15 5 50.59 23.8
25 -10 -5 2 17.8
-15 25 -5 -11.4 18.8
10 15 5 9.9 20.9
-25 10 5 12.4 31.2
-11 -15 -5 31.5 39.9
-15 26 -5 88.59 27.3
26 -11 -5 115.49 26.6
-15 26 -5 49.3 27.6
11 15 5 55.19 28.7
-26 11 5 83.29 39.6
-10 26 -5 112.99 29.3
26 -16 -5 112.99 21.3
-26 16 5 138.99 42.4
16 10 5 117.49 32.9
-9 25 -5 50.09 21.9
-25 16 5 24.6 29.8
-8 24 -5 83.79 27.1
-16 -8 -5 120.19 47.5
-24 16 5 94.89 36.9
-24 16 5 120.29 38.7
16 8 5 105.79 29.5
-7 23 -5 13.5 18.6
-16 -7 -5 22.3 33.3
-23 16 5 21.3 25.1
-23 16 5 31.4 25.4
16 7 5 16.1 20.1
-6 22 -5 180.88 32.5
-16 -6 -5 98.79 42.5
-22 16 5 150.08 40.8
16 6 5 115.49 28.4
-22 16 5 188.38 37.7
-16 -5 -5 44.6 35.9
-5 21 -5 44 20.5
-21 16 5 76.79 25.6
16 5 5 24.4 19.5
-21 16 5 150.88 39.6
-16 -4 -5 164.68 47.9
-4 20 -5 247.08 35.8
-20 16 5 198.48 31.4
4 -20 5 177.18 28.5
-20 16 5 202.48 41.1
16 4 5 241.48 37.3
4 -20 5 214.58 21
-3 19 -5 44.9 20.6
-16 -3 -5 103.19 39
3 -19 5 81.89 16.6
3 -19 5 107.49 23.7
-19 16 5 35.9 27.4
16 3 5 69.39 23.8
-19 16 5 81.49 23.3
-2 18 -5 246.08 36.9
-16 -2 -5 193.98 51.99
16 2 5 236.88 38
-18 16 5 322.97 39.4
2 -18 5 274.77 27.1
2 -18 5 255.57 36.1
-18 16 5 247.58 44.9
-16 -1 -5 -9.9 35.2
-1 17 -5 72.69 23.9
16 1 5 73.69 24
-17 16 5 46 28.6
1 -17 5 45.9 23.8
-17 16 5 50.69 20
1 -17 5 61.69 17.2
0 16 -5 256.77 41.5
-16 16 5 211.38 40.8
16 0 5 308.87 36.5
0 -16 5 300.17 40.7
-16 16 5 248.38 32.9
1 15 -5 59.29 34.1
-15 16 5 68.79 30.7
-15 16 5 117.99 24.6
16 -1 5 83.49 23.9
-1 -15 5 160.28 31.4
-1 -15 5 63.19 18.1
-2 -14 5 332.37 45.8
-14 16 5 347.97 47
-2 -14 5 346.27 34.1
16 -2 5 348.07 38.8
-14 16 5 267.17 31
16 -3 5 87.39 22.7
-13 16 5 128.89 20.9
-13 16 5 134.69 33.3
-3 -13 5 73.59 28.2
-3 -13 5 104.49 21.9
-4 -12 5 383.06 46.7
-4 -12 5 399.56 36.3
16 -4 5 391.36 41.2
-12 16 5 293.97 43.9
-12 16 5 403.56 32.9
16 -5 5 188.28 29.7
-5 -11 5 146.69 26.9
-5 -11 5 182.68 35.5
-11 16 5 208.38 24.1
-11 16 5 247.48 43.5
-16 6 -5 476.15 65.09
16 -6 5 415.26 43.4
-6 -10 5 522.55 52.49
-10 16 5 464.05 34.7
-6 -10 5 439.56 39.8
-10 16 5 498.45 52.39
16 -6 5 407.56 40.3
-16 7 -5 102.39 32.7
16 -7 5 126.59 24.1
-9 16 5 179.78 35.8
-7 -9 5 215.38 39.8
-7 -9 5 149.59 26.8
-9 16 5 192.68 21.1
16 -7 5 169.48 29.5
-16 8 -5 399.26 54.09
-8 -8 5 364.86 38.8
16 -8 5 396.66 41.1
-8 16 5 402.36 31
-8 16 5 409.36 48.9
16 -8 5 471.55 41.1
-8 -8 5 422.36 49.6
-16 9 -5 189.68 40.9
9 7 -5 284.67 57.09
-7 16 5 164.08 34
-9 -7 5 247.18 42.9
16 -9 5 166.18 28.9
-9 -7 5 151.88 27.8
16 -9 5 253.57 30.5
-7 16 5 208.28 22.7
10 6 -5 465.45 51.59
-16 10 -5 555.74 59.69
-6 16 5 467.95 33.2
16 -10 5 464.05 40.2
-10 -6 5 501.95 43.4
16 -10 5 526.55 44.2
-6 16 5 407.76 49.4
-10 -6 5 404.06 51.89
5 -16 -5 215.38 37.9
-16 11 -5 178.08 40
11 5 -5 229.68 36.5
-5 16 5 223.98 23.3
16 -11 5 224.08 31.8
-5 16 5 200.78 38.3
-11 -5 5 195.88 37.4
16 -11 5 199.28 30.3
-11 -5 5 237.68 34.4
12 4 -5 352.56 40.9
4 -16 -5 511.75 75.09
-16 12 -5 422.76 54.09
16 -12 5 429.96 37
16 -12 5 397.26 39.6
-4 16 5 359.06 44.7
-12 -4 5 368.76 49.6
-12 -4 5 321.57 36.5
13 3 -5 189.88 33.6
3 -16 -5 69.29 31.8
-16 13 -5 74.39 29.5
-13 -3 5 103.39 25.8
16 -13 5 108.39 22.5
-13 -3 5 84.39 28.5
16 -13 5 150.98 26.9
-3 16 5 80.19 27
-16 14 -5 290.87 49.99
14 2 -5 371.66 41.5
2 -16 -5 345.17 47.2
-2 16 5 294.37 42.5
16 -14 5 373.76 37.6
16 -14 5 357.86 34.1
15 1 -5 108.19 26.4
1 -16 -5 85.19 27.5
-16 15 -5 41.5 25.7
16 -15 5 94.59 22.1
-1 16 5 91.49 27.4
-15 -1 5 99.89 30.9
16 -15 5 88.69 20.2
-16 16 -5 201.08 43.8
16 0 -5 243.88 38.2
0 -16 -5 256.47 40.5
0 16 5 303.87 38.9
16 -16 5 216.18 28
16 -16 5 304.47 32.5
-16 0 5 235.78 41.3
17 -1 -5 72.49 24.3
-16 17 -5 83.89 34.4
-1 -16 -5 85.29 29.2
16 -17 5 30 17.3
1 16 5 55.69 22.4
-17 1 5 82.79 31.8
-16 18 -5 254.57 49.6
18 -2 -5 277.17 39
-2 -16 -5 248.18 42.4
16 -18 5 280.67 28.3
-18 2 5 200.38 43
16 -18 5 219.88 28
-18 2 5 258.77 56.79
-3 -16 -5 60.89 26.6
19 -3 -5 100.29 25.7
-16 19 -5 63.59 28.2
16 -19 5 78.39 17.8
-19 3 5 20.8 25.2
16 -19 5 37.9 15.1
-19 3 5 75.79 26.7
-16 20 -5 205.78 42
-4 -16 -5 172.78 37.9
20 -4 -5 190.28 33.4
4 16 5 162.28 30.9
-20 4 5 231.28 39
-20 4 5 220.98 41.2
16 -20 5 165.58 21.2
-5 -16 -5 24.8 26.7
21 -5 -5 6.3 19.1
-16 21 -5 39.9 28.7
16 -21 5 26 10.7
-21 5 5 19.8 28.4
5 16 5 31.3 20
16 -21 5 64.69 11.2
22 -6 -5 109.19 25.6
-6 -16 -5 53.79 29.5
-16 22 -5 116.39 33.8
-22 6 5 182.28 42.7
6 16 5 166.68 32
23 -7 -5 46.3 21.5
-7 -16 -5 17 27.6
-16 23 -5 12.5 25.6
7 16 5 -31.4 14.7
-23 7 5 20.4 27.2
-16 24 -5 87.09 30.1
24 -8 -5 43.5 22.5
-8 -16 -5 140.69 39.7
-24 8 5 75.79 34.9
8 16 5 50.49 25.2
-16 25 -5 40.7 25.6
25 -9 -5 -10.3 17.9
9 16 5 -3.8 19.3
-25 9 5 27.2 31.2
26 -10 -5 118.59 29.3
-26 10 5 189.08 46
10 16 5 87.89 29.4
-9 26 -5 77.49 26.5
-26 17 5 43.7 32.4
17 9 5 106.99 31.9
-8 25 -5 12.1 17.7
-25 17 5 -22.1 26.7
17 8 5 -26.2 26.8
-7 24 -5 45.1 24.7
-24 17 5 50.99 28.6
17 7 5 98.29 27.8
-24 17 5 45.4 31
-6 23 -5 -0.2 16.7
-17 -6 -5 -20.6 32
-23 17 5 -27.4 24.4
-23 17 5 11.4 27.8
17 6 5 18 21.3
-17 -5 -5 72.49 37
-5 22 -5 84.89 24.6
17 5 5 88.99 27.1
-22 17 5 74.29 27.6
-22 17 5 22.3 26.6
-4 21 -5 -17.8 15.4
-17 -4 -5 38.3 27.1
-21 17 5 40.4 21.2
-21 17 5 12.7 23.4
17 4 5 -1.2 17.1
-17 -3 -5 9.4 28.1
-3 20 -5 66.39 23
3 -20 5 75.49 14.6
3 -20 5 76.79 20.7
-20 17 5 40.4 28.6
17 3 5 71.69 25.1
-20 17 5 36.5 20.4
-2 19 -5 -23.9 15.2
-17 -2 -5 -4.2 24.8
2 -19 5 27.8 19
2 -19 5 5.1 12.3
-19 17 5 -20.8 17.5
-19 17 5 29.9 26.7
17 2 5 4 17.3
-1 18 -5 52.99 21.6
-17 -1 -5 44.7 29.6
17 1 5 70.29 24.6
1 -18 5 75.39 17.6
-18 17 5 82.69 32.8
-18 17 5 57.19 20
1 -18 5 55.79 22.8
-17 0 -5 -49.3 23.2
0 17 -5 4 15
17 0 5 -13.7 15.1
0 -17 5 3.2 20.8
-17 17 5 27.3 27.4
-17 17 5 10.5 16.1
-17 1 -5 24.1 27.3
1 16 -5 28.7 18.7
-1 -16 5 71.39 27.3
-16 17 5 69.19 18.5
-16 17 5 53.39 28.6
17 -1 5 50.99 21.8
-1 -16 5 46.2 15.9
2 15 -5 60.09 22
-17 2 -5 7.7 28.2
-2 -15 5 28.4 23.7
-15 17 5 1.9 22.4
17 -2 5 21.6 19
-2 -15 5 12.2 15.8
3 14 -5 21.2 16.9
-14 17 5 17.9 25.6
-3 -14 5 57.29 18.4
-14 17 5 53.39 17.3
17 -3 5 30.6 20
-3 -14 5 47.7 26.9
4 13 -5 44.1 20.2
-4 -13 5 33.5 16.8
17 -4 5 9.4 18.7
-13 17 5 26 22.7
-4 -13 5 47.5 25.3
-13 17 5 42.3 15.7
5 12 -5 29.8 20.3
17 -5 5 31.1 17.1
-12 17 5 40.4 14.2
-12 17 5 40.9 29.1
-5 -12 5 -12.7 19.9
-5 -12 5 33.6 17.7
6 11 -5 4.1 17.8
-11 17 5 26.4 23.3
-11 17 5 14.1 12.3
-6 -11 5 19.4 17.1
17 -6 5 48.5 17.8
-6 -11 5 -5.2 19.9
17 -6 5 23 16.9
7 10 -5 33.3 20.3
-17 7 -5 24 24.8
-10 17 5 32.1 13.4
-10 17 5 8 23.1
-7 -10 5 69.39 28.5
-7 -10 5 52.79 18.6
17 -7 5 49.7 18.8
-17 8 -5 59.39 32.5
8 9 -5 28.9 19.8
-8 -9 5 29.5 17.7
17 -8 5 6.5 14.6
17 -8 5 -4.4 15.1
-8 -9 5 35.2 24.6
-9 17 5 4.5 21.6
-9 17 5 19.8 11.4
9 8 -5 34.1 22.8
-17 9 -5 25.9 25.6
17 -9 5 8 16
-8 17 5 29.1 24.5
-9 -8 5 60.19 28.1
17 -9 5 45.6 20.4
-9 -8 5 -13.2 14
-8 17 5 26.4 11.8
10 7 -5 31.5 19.2
-17 10 -5 32.4 29.5
-10 -7 5 33.4 23.8
-10 -7 5 2.8 16.5
-7 17 5 43.5 12.8
-7 17 5 14.9 23.4
17 -10 5 20 17.5
17 -10 5 30 17.4
11 6 -5 34.8 20.8
-17 11 -5 21.2 25
-11 -6 5 -3.9 13.9
17 -11 5 12.7 16.6
17 -11 5 12.9 17.5
-6 17 5 37.5 12.5
-11 -6 5 2.9 21.3
-6 17 5 11.6 21.6
12 5 -5 58.39 24.1
-17 12 -5 54.39 29.4
-12 -5 5 51.39 20.3
-12 -5 5 15.9 23.8
-5 17 5 27.6 26.3
17 -12 5 33.3 18.3
17 -12 5 33.7 18.8
-5 17 5 68.99 15.9
-17 13 -5 -5.5 22.7
4 -17 -5 29.4 25.4
13 4 -5 21 21.6
-4 17 5 53.79 27.8
-13 -4 5 21.1 24.1
17 -13 5 3.2 15.8
17 -13 5 15.2 17.9
14 3 -5 77.19 27.1
3 -17 -5 30.3 24.2
-17 14 -5 114.99 38.7
17 -14 5 12 17.8
-3 17 5 43.6 24
-14 -3 5 22.8 26.4
17 -14 5 40.4 19.5
-17 15 -5 78.59 29.6
2 -17 -5 59.29 26.2
15 2 -5 56.79 25.1
-2 17 5 20.5 18.8
17 -15 5 17.6 16.9
-15 -2 5 18.7 24.2
17 -15 5 30.5 18.7
-15 -2 5 46.6 24.9
16 1 -5 66.69 23.9
1 -17 -5 69.09 25.8
-17 16 -5 78.69 31
-1 17 5 40.6 20.7
17 -16 5 83.89 21
17 -16 5 52.29 18
-16 -1 5 113.79 36.5
0 -17 -5 16.1 21
17 0 -5 7 18.2
-17 17 -5 21.7 23.9
17 -17 5 19.3 15
17 -17 5 19.1 16.6
0 17 5 -17.4 16.1
-17 0 5 5.8 25.2
18 -1 -5 106.69 26.5
-17 18 -5 77.59 30.3
-1 -17 -5 49 27.2
17 -18 5 109.19 20.6
-18 1 5 54.59 30.7
-18 1 5 58.99 32.6
17 -18 5 42.7 19.6
19 -2 -5 12.9 19.3
-2 -17 -5 9.9 22.7
-17 19 -5 -17.1 21.8
17 -19 5 17.2 14
-19 2 5 -5.1 17.6
17 -19 5 20.2 13.5
-19 2 5 47 29.6
20 -3 -5 93.59 24.8
-3 -17 -5 60.49 28
-17 20 -5 105.89 36.2
-20 3 5 53.59 27.6
17 -20 5 37.1 14.5
3 17 5 95.19 26.6
-20 3 5 75.49 32.7
-4 -17 -5 -25.7 19.7
21 -4 -5 14.5 19.2
-17 21 -5 1.9 23.1
-21 4 5 11.7 26.3
17 -21 5 6.3 9.1
17 -21 5 2 9.7
-17 22 -5 67.49 28.5
22 -5 -5 72.09 24.9
-5 -17 -5 97.39 31.9
5 17 5 54.69 22.7
-22 5 5 62.79 34.4
-17 23 -5 20.4 28.1
23 -6 -5 34.3 19.5
-6 -17 -5 -39.6 23
6 17 5 10.5 18.7
-23 6 5 11.2 25.9
-7 -17 -5 23.4 30
-17 24 -5 24.7 28.4
24 -7 -5 51.99 23.1
-24 7 5 75.49 45
7 17 5 14.2 21.2
-8 -17 -5 24.4 25.3
25 -8 -5 -43.5 17.1
-17 25 -5 -4.1 24.6
8 17 5 -18.7 17.6
-25 8 5 41.5 31.5
26 -9 -5 29.1 21.8
-17 26 -5 69.49 28.7
9 17 5 100.99 31
-26 9 5 107.19 40.4
-7 25 -5 43.5 23.9
-25 18 5 -42.2 24.7
18 7 5 20 21
-6 24 -5 62.69 25.3
-24 18 5 102.99 38.2
-24 18 5 98.19 31.4
-5 23 -5 0.1 18
-23 18 5 14 26.2
18 5 5 24.5 20.7
-4 22 -5 102.99 25.7
18 4 5 60.29 23.9
-22 18 5 90.59 33.5
-22 18 5 175.88 33.2
-3 21 -5 38 21.7
-18 -3 -5 34.2 35.7
18 3 5 42.6 22.9
-21 18 5 105.79 34.8
3 -21 5 67.79 12.7
-21 18 5 24.6 22.6
-2 20 -5 121.69 28.2
2 -20 5 249.18 30.4
-20 18 5 147.69 39.9
-20 18 5 157.48 28.6
2 -20 5 175.28 20.9
18 2 5 162.68 32.4
-18 -1 -5 23.9 29.8
-1 19 -5 41 21.9
-19 18 5 76.19 30.9
-19 18 5 68.29 22.5
18 1 5 48.3 22.3
1 -19 5 41.8 21.3
1 -19 5 64.09 16.3
-18 0 -5 60.69 33.4
0 18 -5 200.38 33.6
18 0 5 152.78 32.1
0 -18 5 182.08 33.1
-18 18 5 210.48 31.4
0 -18 5 176.48 25
-18 18 5 235.68 46.2
-18 1 -5 71.89 36.4
1 17 -5 89.69 24.6
-1 -17 5 78.49 24.7
18 -1 5 84.59 24.7
-1 -17 5 68.19 24.5
-17 18 5 89.79 21.6
-17 18 5 43.5 30.2
-18 2 -5 211.48 42.8
2 16 -5 252.47 36.6
18 -2 5 184.58 33
-2 -16 5 222.58 29.5
-16 18 5 183.38 38.8
-2 -16 5 187.98 36.6
-16 18 5 238.48 28.4
-18 3 -5 67.69 35.3
3 15 -5 89.09 24.3
-3 -15 5 68.49 28.7
-3 -15 5 83.99 20.3
-15 18 5 43.9 29.7
-15 18 5 78.69 23
18 -3 5 109.59 26.9
4 14 -5 263.37 35.1
-14 18 5 305.17 49.5
-4 -14 5 258.97 40.9
-4 -14 5 302.57 31.8
-14 18 5 248.28 28.3
18 -4 5 210.78 33.9
5 13 -5 134.69 27.9
-13 18 5 142.89 35.7
-5 -13 5 128.19 23.9
18 -5 5 107.99 27.4
-5 -13 5 146.69 33.7
-13 18 5 140.19 20.7
6 12 -5 396.06 43.3
-12 18 5 292.77 44.1
18 -6 5 291.97 38
-12 18 5 292.37 29
-6 -12 5 353.46 35.6
-6 -12 5 286.27 45.8
-18 7 -5 148.99 37.5
7 11 -5 95.29 26.3
-7 -11 5 138.69 33.6
-11 18 5 161.58 21.6
18 -7 5 129.39 27.6
-7 -11 5 159.58 26.4
-11 18 5 178.28 34.2
8 10 -5 363.86 40.4
-18 8 -5 264.37 52.89
18 -8 5 336.77 36
-8 -10 5 273.37 44.5
18 -8 5 323.57 38
-8 -10 5 303.67 35.9
-10 18 5 260.47 40.6
-10 18 5 274.97 26.5
9 9 -5 121.69 29
-18 9 -5 108.99 38
-9 -9 5 114.89 25.8
-9 18 5 151.88 19.7
-9 -9 5 183.58 38
-9 18 5 74.19 29
18 -9 5 110.69 23
-18 10 -5 239.68 48.5
10 8 -5 346.67 41.2
18 -10 5 303.77 35.7
18 -10 5 270.87 36.5
-8 18 5 273.17 25.9
-8 18 5 402.86 46.6
-10 -8 5 308.17 34.8
-10 -8 5 357.76 49.9
11 7 -5 168.18 31.6
-18 11 -5 163.28 37.8
18 -11 5 98.19 22.7
-7 18 5 202.48 21.6
18 -11 5 256.37 33
-11 -7 5 176.38 32.7
-11 -7 5 160.28 36.5
-7 18 5 166.48 34.8
-18 12 -5 245.88 50.29
12 6 -5 308.47 41.1
-6 18 5 240.68 42.7
18 -12 5 361.76 39.1
-12 -6 5 263.77 43.9
18 -12 5 380.86 37.4
-6 18 5 344.07 28
-18 13 -5 133.49 38.9
13 5 -5 117.09 30.4
18 -13 5 131.39 25.6
-13 -5 5 199.98 60.39
18 -13 5 82.89 22.8
-5 18 5 91.49 26.7
4 -18 -5 288.67 45.8
14 4 -5 294.27 42.9
-18 14 -5 297.77 50.59
18 -14 5 261.57 34.6
-14 -4 5 176.48 48.4
-14 -4 5 254.07 46
18 -14 5 240.98 31.2
-4 18 5 211.98 37.2
-18 15 -5 22 24.5
3 -18 -5 112.19 31.9
15 3 -5 76.89 25.2
18 -15 5 109.89 23.6
-3 18 5 68.59 25.8
18 -15 5 52.39 21
-15 -3 5 112.99 34.3
-15 -3 5 41.1 27.6
2 -18 -5 295.27 42.2
-18 16 -5 233.28 47.7
16 2 -5 257.57 40
18 -16 5 265.97 31.6
-2 18 5 241.98 37.6
18 -16 5 265.17 32.6
-16 -2 5 280.47 50.09
-16 -2 5 252.17 39.5
-18 17 -5 39.9 28.6
1 -18 -5 92.59 27.5
17 1 -5 120.09 29.7
-17 -1 5 29.5 22
-17 -1 5 137.79 35.2
18 -17 5 88.69 21
18 -17 5 79.69 19.6
-1 18 5 59.89 24
-18 18 -5 193.58 43.5
18 0 -5 189.58 35.3
0 -18 -5 161.48 33.6
18 -18 5 219.88 27.1
-18 0 5 217.88 35.6
-18 0 5 151.18 40.9
-1 -18 -5 21.1 24.5
19 -1 -5 55.09 24.9
-18 19 -5 62.99 31.6
18 -19 5 39.7 15.5
-19 1 5 64.39 25.1
18 -19 5 46.8 16.1
-19 1 5 69.99 31.9
-18 20 -5 71.49 30.7
-2 -18 -5 236.48 40.9
20 -2 -5 165.08 32.4
-20 2 5 127.69 41.4
18 -20 5 153.88 22
18 -20 5 192.38 23
-18 21 -5 84.59 30.1
-3 -18 -5 80.99 30.2
21 -3 -5 22.2 21.7
-21 3 5 22.6 24.6
18 -21 5 28.1 14.1
18 -21 5 50.69 12.9
22 -4 -5 145.09 30.9
-4 -18 -5 105.79 34.1
-18 22 -5 181.08 38.8
-22 4 5 129.39 41.5
4 18 5 94.59 25.9
-5 -18 -5 -5.2 23.7
-18 23 -5 44.5 28.6
23 -5 -5 27.6 21.5
5 18 5 23.2 19.7
-23 5 5 43.7 31.3
-18 24 -5 55.79 31.8
24 -6 -5 25.3 20.8
-6 -18 -5 97.09 32.8
-24 6 5 90.89 46.7
6 18 5 85.89 26.8
25 -7 -5 18.3 22.1
-18 25 -5 31 28.7
-7 -18 -5 20.7 29.3
7 18 5 23.3 20.7
-25 7 5 40.4 35.2
-6 25 -5 5 17.4
-25 19 5 -12.4 27.3
19 6 5 -17.7 17.7
-25 19 5 -7.2 31.6
-5 24 -5 34.4 21.5
19 5 5 59.49 25.6
-24 19 5 0.5 25.4
-24 19 5 112.19 35.1
-4 23 -5 -3.2 18.4
-23 19 5 -1 22.9
19 4 5 31.6 24.8
-3 22 -5 67.69 23.8
19 3 5 117.09 28.5
-22 19 5 68.59 35.5
-22 19 5 41.8 27.3
-2 21 -5 10 19
2 -21 5 -23.2 21
19 2 5 -8.6 16.8
-21 19 5 -10.1 23.2
2 -21 5 -14.4 9.7
-21 19 5 16 18.7
-1 20 -5 65.39 26.1
-20 19 5 74.49 22.8
1 -20 5 59.79 15.1
1 -20 5 58.09 21.8
19 1 5 89.69 25.7
-20 19 5 40 30.1
0 19 -5 -3.1 17.2
-19 0 -5 40.1 34
0 -19 5 30.7 19.9
0 -19 5 9.8 13.3
19 0 5 0.5 18.2
-19 19 5 -2.9 18.4
-19 19 5 40.5 27.7
-19 1 -5 52.19 29.4
1 18 -5 43.9 21.5
-18 19 5 103.89 34
-18 19 5 52.69 21.4
-1 -18 5 48.4 25.1
19 -1 5 42.5 21.6
-19 2 -5 27.1 32.8
2 17 -5 5 17.2
-2 -17 5 -24.8 17.6
-17 19 5 40.1 31
19 -2 5 -1.2 16.6
-17 19 5 -11.6 14.3
-2 -17 5 -5 15.2
-19 3 -5 -1.5 27.3
3 16 -5 25.4 19.1
-16 19 5 92.29 32.2
-3 -16 5 19.6 22.3
19 -3 5 63.89 23.7
-16 19 5 59.69 25.9
-3 -16 5 92.79 21.6
-19 4 -5 -19.4 21.3
4 15 -5 23.5 19.2
-15 19 5 -5.7 21.9
-4 -15 5 2.6 22.6
19 -4 5 5.5 18.5
-15 19 5 -4.4 14.9
-4 -15 5 34.6 18.8
5 14 -5 55.69 22.9
-5 -14 5 54.49 19.7
-14 19 5 50.29 18.4
-14 19 5 10.8 23
19 -5 5 39.9 21.5
-5 -14 5 68.79 28.2
6 13 -5 17.3 19.4
-6 -13 5 22 18.8
-6 -13 5 -7.8 20.8
19 -6 5 2.2 16.6
-13 19 5 5.9 23.7
-13 19 5 6.6 13.2
-19 7 -5 37.6 28.1
7 12 -5 35.1 20.2
-12 19 5 15.5 23.2
-7 -12 5 69.29 26.7
-12 19 5 27.6 14.7
19 -7 5 30.3 19.8
-7 -12 5 37 19.5
8 11 -5 10.5 17.9
-19 8 -5 37.1 40
-11 19 5 -20.4 11
-8 -11 5 2.7 17.7
-8 -11 5 6.7 24.7
19 -8 5 -9.4 15.2
-11 19 5 -5.7 19.6
9 10 -5 28.5 21.8
-19 9 -5 -23.4 37.4
-10 19 5 -5.2 21.8
-9 -10 5 21.4 26.3
19 -9 5 37.7 19.8
-9 -10 5 51.69 20.5
-10 19 5 3.2 11.5
-19 10 -5 36 34.3
10 9 -5 -5.2 20.5
-9 19 5 30.6 24.2
19 -10 5 37 18.2
-10 -9 5 62.39 28.5
19 -10 5 11.6 17.7
-10 -9 5 24 19.3
-9 19 5 13 11.8
11 8 -5 50.39 22.7
-19 11 -5 -10.9 22.1
-8 19 5 2.4 22
-8 19 5 -2.8 11.2
-11 -8 5 25.4 24.4
19 -11 5 41.2 17.9
12 7 -5 34.4 20.5
-19 12 -5 9 27.7
19 -12 5 16.1 18.9
19 -12 5 37.8 21.5
-12 -7 5 11 26.4
-7 19 5 16.2 12
-7 19 5 50.69 24.8
-19 13 -5 62.49 32
13 6 -5 14.1 19.8
-6 19 5 7.9 20.3
-13 -6 5 28.7 24.9
19 -13 5 7.6 17.8
19 -13 5 -0.5 18.2
-13 -6 5 2 36
-6 19 5 -1.6 12.6
14 5 -5 39.7 23.1
-19 14 -5 61.39 34.2
19 -14 5 73.89 20.9
-5 19 5 30.4 22.8
-14 -5 5 43.4 27.8
19 -14 5 33.9 18.6
-14 -5 5 46.4 27.5
15 4 -5 13.6 20
-19 15 -5 -6.6 27.3
-15 -4 5 38.3 21.1
-15 -4 5 32.9 26.4
-4 19 5 17.8 20.4
19 -15 5 9.7 15.7
19 -15 5 1.7 16.1
3 -19 -5 61.59 26.5
16 3 -5 35.9 22.9
-19 16 -5 18 28.6
19 -16 5 59.09 20.4
19 -16 5 98.89 24
-3 19 5 59.39 22.5
-16 -3 5 78.09 31.2
-16 -3 5 115.99 28.5
17 2 -5 -24.7 17.8
2 -19 -5 25.2 24.5
-19 17 -5 8.3 24
19 -17 5 2.2 15.2
-17 -2 5 16.8 24.3
-17 -2 5 -9.1 18.6
-2 19 5 15.6 17.5
19 -17 5 46.8 18.5
18 1 -5 12.3 20.8
1 -19 -5 61.79 25.4
-19 18 -5 -16.5 23.9
19 -18 5 35.6 18.3
-18 -1 5 68.59 26.2
19 -18 5 56.69 18.8
-18 -1 5 64.29 28.9
-19 19 -5 17.1 29.2
0 -19 -5 -11.3 19.4
19 0 -5 -29.7 18.4
-19 0 5 -19.6 21
19 -19 5 12.6 13.5
-19 20 -5 82.29 36.7
-1 -19 -5 31.6 24.5
20 -1 -5 78.59 27.2
19 -20 5 48.7 16.4
19 -20 5 73.39 17.2
-20 1 5 50.39 31.2
-19 21 -5 0.5 21.8
-2 -19 -5 -24.8 20.7
21 -2 -5 20.5 20.7
-21 2 5 8.1 25.1
2 19 5 -17.3 15.8
19 -21 5 -17.4 11.1
22 -3 -5 95.09 27.3
-3 -19 -5 79.19 33.2
-19 22 -5 37.3 29.3
-22 3 5 21.3 34.2
3 19 5 82.69 24.6
-19 23 -5 -17 25.2
23 -4 -5 -27.7 19.1
-4 -19 -5 25.5 26.5
-23 4 5 6 27.8
4 19 5 25.1 19.7
24 -5 -5 45.6 24.4
-19 24 -5 95.99 35.3
-5 -19 -5 60.99 30.5
-24 5 5 35.7 32.2
5 19 5 34.6 22.5
25 -6 -5 -2.4 20.1
-19 25 -5 9.2 29.2
-6 -19 -5 38.7 27.8
-25 6 5 -44.5 25.1
6 19 5 -13.9 18.3
-4 24 -5 114.09 30.4
20 4 5 95.09 28.7
-24 20 5 59.69 36.7
-24 20 5 125.89 35.4
-3 23 -5 18.9 22.3
-23 20 5 43.9 29.9
-23 20 5 -22.8 23.7
20 3 5 40.4 39.8
-2 22 -5 182.78 33.4
-22 20 5 91.69 34.7
-22 20 5 151.68 30.6
-1 21 -5 50.29 24.5
-21 20 5 93.29 26.1
20 1 5 4.4 19.3
-21 20 5 -1.9 26.1
1 -21 5 35.6 11.4
0 20 -5 117.39 29.3
-20 20 5 133.69 36.5
0 -20 5 146.69 20.3
-20 20 5 162.18 27.9
0 -20 5 97.29 24
20 0 5 118.69 28.7
1 19 -5 61.09 23.9
-1 -19 5 35.4 16.9
-19 20 5 62.99 29.1
20 -1 5 46.3 22.2
-19 20 5 70.19 23.1
-1 -19 5 49.2 23.5
2 18 -5 158.18 32.3
-18 20 5 205.98 30.1
-18 20 5 191.78 43.7
-2 -18 5 156.28 32.5
-2 -18 5 205.28 30.3
20 -2 5 137.79 29
-20 3 -5 27.4 35.1
3 17 -5 69.99 22.7
20 -3 5 107.79 27.1
-17 20 5 63.49 19.2
-17 20 5 40.4 31.9
-3 -17 5 89.19 21.1
-3 -17 5 80.49 28.2
4 16 -5 255.47 39.1
-20 4 -5 122.49 42.9
-16 20 5 142.09 40.7
-4 -16 5 223.08 30
20 -4 5 166.88 31.6
-20 5 -5 92.99 41
5 15 -5 130.29 30.4
-5 -15 5 99.39 22.7
20 -5 5 61.99 24
-15 20 5 127.09 22.5
-15 20 5 69.49 32.7
-5 -15 5 72.39 27.5
6 14 -5 295.37 42.5
-20 6 -5 268.47 55.19
-6 -14 5 280.57 42.6
20 -6 5 237.38 38.4
-14 20 5 289.17 29
-14 20 5 262.77 44.8
-6 -14 5 247.38 34.3
-20 7 -5 110.39 43.8
7 13 -5 128.69 30.4
20 -7 5 109.19 27.6
-7 -13 5 145.89 26.7
-7 -13 5 203.38 36.8
-13 20 5 74.19 30.3
-13 20 5 184.28 23.7
20 -7 5 141.99 29.3
8 12 -5 346.07 42.1
-20 8 -5 312.47 58.49
-8 -12 5 294.07 44.4
-12 20 5 251.87 40.8
-8 -12 5 287.87 33.9
20 -8 5 322.27 39.6
-12 20 5 367.86 30.2
-20 9 -5 126.79 36.4
9 11 -5 170.98 33
-11 20 5 171.58 35
20 -9 5 176.08 31.7
-9 -11 5 126.09 26.7
-9 -11 5 168.28 39.8
-11 20 5 185.88 23.4
-20 10 -5 266.87 53.09
10 10 -5 299.37 44.2
-10 20 5 276.87 25.5
-10 -10 5 288.57 45.8
20 -10 5 202.68 34.1
-10 20 5 284.97 46
-20 11 -5 138.69 40.4
11 9 -5 156.78 32.8
20 -11 5 132.89 28.2
-9 20 5 187.98 21.9
-11 -9 5 141.29 34.5
-9 20 5 154.38 33.1
12 8 -5 380.06 44.7
-20 12 -5 342.17 64.09
20 -12 5 357.96 37.4
-8 20 5 253.97 41.1
-8 20 5 307.97 27.4
20 -12 5 268.07 43.8
-12 -8 5 357.26 56.29
-20 13 -5 100.59 39.5
13 7 -5 187.58 34.6
20 -13 5 113.89 26.5
20 -13 5 192.18 29.5
-7 20 5 169.08 21
-7 20 5 92.59 28.7
-13 -7 5 126.09 36.5
14 6 -5 302.17 43.8
-14 -6 5 236.68 37.3
-6 20 5 290.77 27.3
20 -14 5 272.87 35.2
-14 -6 5 257.07 45.7
20 -14 5 247.68 36.5
-6 20 5 241.38 38.2
15 5 -5 116.99 30.5
-20 15 -5 66.19 55.19
20 -15 5 123.79 25
20 -15 5 94.49 24.2
-15 -5 5 102.09 28.9
-5 20 5 78.89 26.8
-15 -5 5 76.29 31.1
16 4 -5 289.67 43.6
-20 16 -5 128.39 45.4
-4 20 5 208.88 34.7
20 -16 5 238.68 32.7
20 -16 5 210.68 31.4
-16 -4 5 150.58 40.3
-16 -4 5 223.68 37.1
17 3 -5 30.4 24.4
-20 17 -5 55.69 35.4
3 -20 -5 79.09 40.5
20 -17 5 19.6 19.5
20 -17 5 97.09 23.2
-3 20 5 71.09 23.9
-17 -3 5 71.79 25.8
-17 -3 5 60.59 30.5
2 -20 -5 203.68 41.8
18 2 -5 171.58 34.8
-20 18 -5 197.38 40.2
20 -18 5 210.68 28.6
20 -18 5 170.38 27.5
-18 -2 5 132.59 40.1
19 1 -5 101.79 29.8
-20 19 -5 53.09 31.6
1 -20 -5 59.69 26.4
-19 -1 5 85.49 36.2
20 -19 5 40.9 17.9
-20 20 -5 106.99 42.7
20 0 -5 112.19 29.7
0 -20 -5 166.38 33.1
20 -20 5 142.99 22.3
-20 0 5 109.39 38.5
20 -20 5 149.69 22
-1 -20 -5 59.99 25.6
21 -1 -5 28.5 24.1
-20 21 -5 -1.6 27.3
1 20 5 60.89 21.8
-21 1 5 -10.1 27.8
20 -21 5 31 14.7
22 -2 -5 139.69 32.8
-2 -20 -5 88.29 30
-20 22 -5 109.29 36.6
2 20 5 82.69 28.4
-22 2 5 106.29 42.3
23 -3 -5 73.19 27.3
-3 -20 -5 -23.7 23.1
-20 23 -5 50.99 32.8
3 20 5 26.5 21
-23 3 5 45.8 42.1
-20 24 -5 66.09 34
24 -4 -5 40.1 25.6
-4 -20 -5 88.39 32.6
4 20 5 84.59 26.7
-24 4 5 74.49 38.3
-3 24 -5 3.4 22.9
21 3 5 50.29 25.3
-24 21 5 27.7 29.6
-24 21 5 69.69 30.6
-2 23 -5 3.9 19.6
21 2 5 31.7 20.9
-23 21 5 33.7 24.3
-23 21 5 10.7 28.3
-1 22 -5 34 22.4
-22 21 5 9.4 28.5
-22 21 5 30.6 25.5
0 21 -5 -17.2 17.7
21 0 5 36.7 20.5
-21 21 5 -32.5 18.8
-21 21 5 -16.5 25
0 -21 5 -5.1 10.6
1 20 -5 41.6 22.6
-1 -20 5 31.3 20.5
-20 21 5 52.09 22.2
-20 21 5 43.5 30
21 -1 5 39.4 22.4
-1 -20 5 16.9 15.1
2 19 -5 -12.7 19.4
-2 -19 5 39.9 24
21 -2 5 10.3 18.3
-19 21 5 -19.2 14.9
-19 21 5 91.59 34.3
3 18 -5 25.6 20.4
-18 21 5 35.7 27.9
-18 21 5 38.6 20.6
21 -3 5 43 21.5
-3 -18 5 41 18.4
-3 -18 5 92.19 28.5
4 17 -5 -23.3 14.8
-17 21 5 -6.8 14.8
-17 21 5 -4.1 25.3
-4 -17 5 24.5 18.2
-4 -17 5 -16.3 20
21 -4 5 1.1 18
5 16 -5 23.6 21
21 -5 5 42 21.7
-5 -16 5 33.1 18.9
-16 21 5 16.6 18.7
-5 -16 5 44.6 25.7
-16 21 5 43.1 26.9
-21 6 -5 -48.4 19.4
6 15 -5 22.4 19.9
21 -6 5 19.8 19.4
-15 21 5 -7.1 22.2
-15 21 5 -12.3 14.1
-6 -15 5 1.6 23.1
-6 -15 5 4.5 17.6
7 14 -5 5.1 19.6
-21 7 -5 71.49 32.3
-14 21 5 67.69 28.1
-14 21 5 11.3 14.1
21 -7 5 3.8 19.5
-7 -14 5 53.29 25.9
-7 -14 5 34 19.9
21 -7 5 27.1 20.9
8 13 -5 -2 19.1
-21 8 -5 -3.3 21.2
21 -8 5 16 15.9
-8 -13 5 10.9 20.8
-13 21 5 5.2 24
-8 -13 5 17.9 16.8
21 -8 5 23.8 19.3
-13 21 5 9.3 13.8
-21 9 -5 64.39 34
9 12 -5 39.2 21.8
-12 21 5 -19.8 11.7
-9 -12 5 -10 21
21 -9 5 -12.8 14.6
-12 21 5 50.09 27.7
21 -9 5 18.7 17.9
-9 -12 5 -1.3 16.7
10 11 -5 -24.1 16.3
-21 10 -5 -8.7 27.4
21 -10 5 -8.4 15.5
-10 -11 5 23.3 25.3
-11 21 5 10.2 24.2
-11 21 5 3 11.3
-21 11 -5 3 23.2
11 10 -5 -11.8 18.7
-10 21 5 80.09 27.9
-10 21 5 -6.3 10.7
-11 -10 5 12.9 22.2
21 -11 5 25.6 19.3
-21 12 -5 -11.4 24.4
12 9 -5 17.2 21.3
-9 21 5 31.1 24
21 -12 5 10.9 18.9
-12 -9 5 28.2 43.4
-9 21 5 34 14.5
-21 13 -5 9 26.1
13 8 -5 -14.2 18.6
21 -13 5 27.2 21.4
-8 21 5 14 12.5
-13 -8 5 29.8 20.9
-13 -8 5 7.7 26
21 -13 5 7.9 18.4
-8 21 5 -2.8 21.6
14 7 -5 34 23.2
-21 14 -5 70.89 29.1
-14 -7 5 44.7 24.2
21 -14 5 70.39 21.9
-14 -7 5 73.99 33
-7 21 5 -2.7 20.3
-7 21 5 24.9 13.8
-21 15 -5 15.4 24.4
15 6 -5 -5.6 17.9
-15 -6 5 10.1 23.8
-6 21 5 20.1 21.5
21 -15 5 -9.4 16.3
21 -15 5 -4.5 18.1
-15 -6 5 17.1 21.2
16 5 -5 55.89 24.8
-21 16 -5 65.89 29.8
-16 -5 5 33.8 22.8
21 -16 5 42.8 19.4
-5 21 5 30.2 22.4
-16 -5 5 1.4 26.1
21 -16 5 34 19.1
17 4 -5 26.6 21.4
-21 17 -5 -1.1 27.4
21 -17 5 -9.9 17.1
21 -17 5 -16.7 14.6
-17 -4 5 -12.2 21.1
-4 21 5 7.3 17.5
18 3 -5 44.3 25.2
-21 18 -5 44.6 37.7
-18 -3 5 50.49 30.2
21 -18 5 75.79 23
21 -18 5 47.3 19
-21 19 -5 5.4 28.6
19 2 -5 25.9 23.1
21 -19 5 5.4 15.6
-19 -2 5 22.4 25.6
21 -19 5 9.3 15.7
1 -21 -5 63.89 30.4
-21 20 -5 13.5 36.2
20 1 -5 40.3 24.2
21 -20 5 34.2 23.5
-20 -1 5 59.39 34.9
21 -20 5 25.5 16
0 -21 -5 -18.5 18.5
21 0 -5 -0.5 20.8
-21 21 -5 16 50.99
21 -21 5 11.4 14.6
21 -21 5 10.9 14.3
-21 0 5 -19.9 25.1
0 21 5 -3.4 17
-1 -21 -5 94.39 29.3
22 -1 -5 83.39 31.5
-21 22 -5 82.79 61.09
-22 1 5 21 28.5
-2 -21 -5 7.4 22.6
-21 23 -5 -17.7 27.3
23 -2 -5 -1.1 24.2
2 21 5 -7.7 18
-23 2 5 -14.7 46.2
-21 24 -5 39 33.3
24 -3 -5 68.19 26.7
-3 -21 -5 25 25.9
3 21 5 15.5 20.4
-24 3 5 35.5 32
-1 23 -5 29.9 23.8
-23 22 5 39.3 31.4
22 1 5 16.7 18.8
-23 22 5 84.79 27
0 22 -5 98.99 28.1
-22 22 5 91.19 30.6
22 0 5 76.09 25.7
-22 22 5 112.09 36.5
1 21 -5 48.6 24.1
-21 22 5 73.39 23
-21 22 5 -11.4 25.8
-1 -21 5 38.2 14.1
2 20 -5 138.69 30.4
22 -2 5 97.99 27.8
-2 -20 5 116.69 21.5
-20 22 5 83.89 37.3
-20 22 5 192.58 31.8
-2 -20 5 112.99 26.2
3 19 -5 66.39 23.5
-19 22 5 32.4 27.6
-3 -19 5 53.09 25.6
22 -3 5 74.19 24.6
-3 -19 5 24.7 23.2
-19 22 5 85.09 22.5
4 18 -5 149.09 32.8
-18 22 5 198.98 29
-4 -18 5 159.78 26.7
-4 -18 5 153.58 32.7
-18 22 5 114.19 34.9
22 -4 5 78.19 26.9
5 17 -5 103.99 29.2
-17 22 5 56.09 26.5
-5 -17 5 58.29 27.7
-17 22 5 57.79 32.9
22 -5 5 18.5 20.9
-5 -17 5 36.3 19.9
6 16 -5 178.18 33.9
-6 -16 5 211.58 30.9
22 -6 5 84.49 28.3
-16 22 5 156.28 38.4
-16 22 5 150.08 25.4
-6 -16 5 126.99 32.9
7 15 -5 80.09 27.2
-7 -15 5 51.89 26.4
-15 22 5 91.99 19.9
22 -7 5 97.39 25.6
-15 22 5 54.59 30.7
22 -7 5 85.39 26.8
-7 -15 5 120.79 24.7
8 14 -5 167.28 35.7
-14 22 5 148.89 24.1
-14 22 5 214.18 40.1
-8 -14 5 218.88 41.3
-8 -14 5 203.38 30.4
22 -8 5 178.88 34.1
22 -8 5 119.29 30.2
9 13 -5 79.69 28
22 -9 5 86.49 24.3
-13 22 5 82.09 31.9
-9 -13 5 57.19 27.4
-13 22 5 65.59 16.9
22 -9 5 70.29 24.5
-22 10 -5 109.69 46.8
10 12 -5 188.38 35.3
22 -10 5 164.48 32.4
-12 22 5 155.08 35.4
-12 22 5 196.28 24.1
22 -10 5 189.48 34
-10 -12 5 202.28 40.6
-22 11 -5 69.79 41.8
11 11 -5 166.18 34.7
22 -11 5 157.58 31.2
-11 -11 5 45.4 32.3
-11 22 5 92.79 30.9
22 -11 5 89.99 25.7
-11 22 5 143.99 20.8
12 10 -5 196.28 36.7
-22 12 -5 230.88 49.99
22 -12 5 177.08 31.8
-12 -10 5 225.68 36.7
-12 -10 5 166.08 41
-10 22 5 203.68 38.6
-10 22 5 211.38 23.3
-22 13 -5 41.5 34.6
13 9 -5 101.69 30.5
-9 22 5 75.89 27.1
-13 -9 5 46.5 28.8
-13 -9 5 94.99 27.4
22 -13 5 97.99 25.9
-9 22 5 85.69 16.6
-22 14 -5 128.19 36.7
14 8 -5 261.97 42.6
-8 22 5 166.98 32.7
-14 -8 5 161.78 33.7
-14 -8 5 111.79 33.6
22 -14 5 131.79 27.3
-8 22 5 150.38 21
15 7 -5 58.29 27.5
-22 15 -5 39.2 25.6
-15 -7 5 43.6 31
-7 22 5 65.49 26.2
-7 22 5 115.79 20.3
-15 -7 5 43.3 25.5
22 -15 5 133.19 25.7
-22 16 -5 96.49 35.5
16 6 -5 218.58 40.1
-6 22 5 126.29 28.6
22 -16 5 127.29 26.6
-16 -6 5 91.29 35.2
22 -16 5 142.69 27.7
-22 17 -5 -4.8 25
17 5 -5 57.89 29.4
-17 -5 5 35.7 28.5
22 -17 5 41.5 20.2
-5 22 5 44.8 19.8
22 -17 5 98.49 24.7
18 4 -5 130.29 35.2
-22 18 -5 60.39 37.2
-18 -4 5 101.69 38.8
22 -18 5 159.28 28.1
22 -18 5 135.99 27.5
-22 19 -5 54.29 35
19 3 -5 -8.3 23.3
22 -19 5 57.19 21
-19 -3 5 88.29 34.1
22 -19 5 55.99 19.1
-22 20 -5 121.79 37.8
20 2 -5 104.99 34.3
-20 -2 5 150.18 41.5
22 -20 5 120.49 22.5
21 1 -5 16.2 22.9
-22 21 -5 89.19 36.6
22 -21 5 23.3 14.8
-1 22 5 12.4 19.3
22 -21 5 63.39 17.4
-21 -1 5 87.99 34.2
22 0 -5 100.19 33.5
-22 22 -5 94.89 34.9
22 -22 5 74.59 16.1
22 -22 5 97.49 15.3
-22 0 5 91.59 41.4
0 22 5 153.18 42.5
-22 23 -5 -14.3 31
-1 -22 -5 11.4 24.5
-23 1 5 19.4 29.5
1 22 5 66.29 23.7
1 22 -5 24.1 23.9
-22 23 5 28.5 30.7
-22 23 5 -0.8 22.3
23 -1 5 42.9 22.8
2 21 -5 -9 19.1
-21 23 5 -8.8 26.3
23 -2 5 14.8 18.8
-2 -21 5 7.7 14.3
-21 23 5 -56.09 19.1
3 20 -5 32.7 22.4
-20 23 5 26.7 19.8
-3 -20 5 35.6 22.6
-3 -20 5 27.1 21.5
-20 23 5 41.5 29.3
4 19 -5 -38.8 17.2
-19 23 5 0.2 17.6
-4 -19 5 -8.9 20.7
23 -4 5 18.4 19.4
-19 23 5 -5.7 25.1
-4 -19 5 -11.5 16.6
5 18 -5 69.29 27
-18 23 5 -0.9 18.6
-5 -18 5 35 18.9
-5 -18 5 -15.6 23.2
-18 23 5 -3 26.4
23 -5 5 7.4 19
6 17 -5 14.8 18.9
-17 23 5 13.2 42.7
-6 -17 5 25.2 24.7
23 -6 5 -4.5 16.3
-6 -17 5 -24.7 18.5
7 16 -5 36 23
-7 -16 5 8.4 25.6
-7 -16 5 35.7 20.6
-16 23 5 4.6 27
23 -7 5 29.4 19
-16 23 5 11 15.2
8 15 -5 -21.1 19.5
-8 -15 5 10 19.5
-8 -15 5 5 24.6
-15 23 5 16.3 15.7
-15 23 5 -0.1 27
23 -8 5 31.3 19.8
9 14 -5 9.3 21.7
23 -9 5 12.3 20.1
23 -9 5 16.2 20.1
-14 23 5 -28.4 12.2
-9 -14 5 59.49 28
-14 23 5 11.6 22.7
10 13 -5 10.4 21.2
-13 23 5 -15.8 12.6
23 -10 5 -25.5 15.7
-10 -13 5 54.99 28.1
23 -10 5 -18.1 17.4
-13 23 5 -35.7 23
11 12 -5 28.1 21
23 -11 5 -10.9 17
-12 23 5 30.3 14.6
-12 23 5 3.3 22.3
-11 -12 5 -12.9 21.4
23 -11 5 31.9 21.6
-11 -12 5 -11.9 28.4
12 11 -5 10 20.1
-11 23 5 38.5 14.1
-12 -11 5 -10.7 20.2
23 -12 5 -8.9 18.5
-11 23 5 19.8 24.5
-12 -11 5 1 24.5
23 -12 5 -11.5 16.7
13 10 -5 -9.6 22.1
-10 23 5 22.5 13
-13 -10 5 25.8 22.8
-13 -10 5 -3.3 24.1
23 -13 5 -5 21.1
23 -13 5 33.4 19.3
-10 23 5 50.69 24.5
14 9 -5 20.3 21.8
23 -14 5 2.8 19.2
-9 23 5 32.2 22
-14 -9 5 16.4 25.2
-9 23 5 23.7 12.9
-14 -9 5 4.6 21.3
15 8 -5 1.5 21.5
23 -15 5 -1 17.2
-8 23 5 -5.7 11.4
-15 -8 5 -1.3 26.7
-8 23 5 -3.5 20.1
-15 -8 5 7.9 28.7
16 7 -5 27.1 23.8
23 -16 5 55.69 22.6
-7 23 5 -7 16.8
-16 -7 5 69.59 31.1
-7 23 5 55.99 17.7
17 6 -5 -13 22.1
23 -17 5 35.7 22.9
-17 -6 5 -17.1 22.6
23 -17 5 -2.4 17.5
-6 23 5 -1.8 16.9
-23 18 -5 36.6 35.6
18 5 -5 29.6 26.8
-18 -5 5 25.1 29.3
23 -18 5 16.7 19
23 -18 5 57.79 23.8
19 4 -5 5.8 25.8
-23 19 -5 18 38.9
23 -19 5 14 19.2
-19 -4 5 -37.4 24.2
23 -19 5 5.6 17.4
20 3 -5 95.49 51.49
-23 20 -5 55.29 33.6
23 -20 5 7.2 16.8
23 -20 5 45.7 20.2
-20 -3 5 51.49 31.4
-23 21 -5 2.3 32.5
-2 23 5 24 19.1
-21 -2 5 1.8 30.6
23 -21 5 -21.1 17.2
23 -21 5 27.8 14.6
-23 22 -5 97.99 38.6
22 1 -5 35.9 25.9
-1 23 5 31 19.9
23 -22 5 34.3 15
3 21 -5 58.89 25.7
-21 24 5 63.49 23.1
-3 -21 5 30.8 17.3
-3 -21 5 -6 17.4
-21 24 5 90.99 33.6
24 -3 5 19.2 22.7
4 20 -5 64.39 28.5
-4 -20 5 124.29 27.3
24 -4 5 63.49 29.2
-20 24 5 86.79 25.4
-20 24 5 59.99 34.1
5 19 -5 68.69 28
-19 24 5 117.19 25.1
-5 -19 5 43.1 26.8
-19 24 5 17.4 27
-5 -19 5 47.6 20.8
6 18 -5 168.88 31.8
-18 24 5 39.7 23.5
-6 -18 5 89.69 25.1
-6 -18 5 47.8 26.7
24 -6 5 62.49 25.7
7 17 -5 45 24.9
24 -7 5 84.79 25.3
-7 -17 5 49.7 24.4
-17 24 5 20 21.1
-7 -17 5 50.89 28.2
8 16 -5 139.99 35
-8 -16 5 127.59 28.3
24 -8 5 97.69 28.2
-16 24 5 107.19 24.1
-8 -16 5 135.89 35.9
-16 24 5 99.09 32.2
9 15 -5 84.59 31.1
-15 24 5 50.59 28
-15 24 5 46.4 20.6
24 -9 5 41.2 25
-9 -15 5 67.89 30
10 14 -5 123.39 32.4
-14 24 5 112.09 33.7
24 -10 5 84.69 27.9
-14 24 5 74.89 19.3
-10 -14 5 66.89 28.7
11 13 -5 45.7 24.9
24 -11 5 56.29 27.1
24 -11 5 56.49 22.8
-13 24 5 60.99 28.3
-13 24 5 51.89 17.3
-11 -13 5 91.19 27.4
-11 -13 5 45.7 52.79
12 12 -5 171.08 35.7
-12 24 5 75.19 28.3
24 -12 5 104.09 27.9
-12 -12 5 95.09 30.3
24 -12 5 141.89 31
-12 -12 5 104.39 35.8
-12 24 5 118.29 21
13 11 -5 73.69 28
-13 -11 5 29.6 29
24 -13 5 61.79 24.2
-11 24 5 80.69 29
24 -13 5 86.49 25.6
-13 -11 5 89.69 29.1
-11 24 5 38.9 14.7
14 10 -5 103.69 31.4
-14 -10 5 34.7 29.5
24 -14 5 155.38 33.9
-10 24 5 86.79 28.7
24 -14 5 90.89 26.3
-10 24 5 103.79 19.7
-14 -10 5 132.29 36.4
15 9 -5 49.3 29
-15 -9 5 52.89 31.5
-9 24 5 30.1 14.2
-9 24 5 30.7 22.5
24 -15 5 38.6 22.2
16 8 -5 143.89 39.2
-8 24 5 103.09 19
-16 -8 5 111.19 40.8
-8 24 5 70.59 23.5
24 -16 5 95.69 28
17 7 -5 89.39 49.6
-7 24 5 40.6 21.5
-7 24 5 34.7 16.2
24 -17 5 63.39 28
-17 -7 5 35.8 29.8
24 -18 5 59.59 24.8
-18 -6 5 88.39 34.8
24 -18 5 125.19 28.8
19 5 -5 69.79 33.5
24 -19 5 47.5 21.3
24 -19 5 60.69 23.3
-19 -5 5 29.9 31.5
20 4 -5 69.79 35.6
-20 -4 5 49.9 29.8
24 -20 5 111.09 25.4
24 -20 5 71.19 21.8
21 3 -5 72.89 29.1
24 -21 5 29.8 16.8
-3 24 5 60.29 21.8
-21 -3 5 81.89 38.1
6 19 -5 -18.4 31.6
-19 25 5 -10.2 26.4
-6 -19 5 -32.7 18.2
-19 25 5 36 21.5
25 -6 5 9.3 21
-6 -19 5 39.5 25
7 18 -5 23.5 35.3
-7 -18 5 44.1 27.3
-7 -18 5 23.6 20.9
-18 25 5 6.2 27.6
-18 25 5 -3.2 23.7
8 17 -5 17.3 34.3
25 -8 5 2.1 19.4
-8 -17 5 18.1 21.2
-17 25 5 -8.6 16
-8 -17 5 22.6 26
-17 25 5 -18.2 45.9
9 16 -5 -53.29 29.1
25 -9 5 7.3 20.2
-16 25 5 -5.3 20.7
-16 25 5 -1.7 15.8
-9 -16 5 1.2 26.3
10 15 -5 36.3 38.4
25 -10 5 4.6 19.3
-15 25 5 20.7 16.4
-15 25 5 -38.1 23.5
-10 -15 5 -5.1 23
-11 -14 5 2.1 24.4
-11 -14 5 -4.4 44.9
-14 25 5 62.89 27.2
25 -11 5 1.1 20.5
-14 25 5 23.2 14.3
25 -12 5 19.3 19.5
-12 -13 5 -8.2 23.4
-13 25 5 13.5 14.9
-13 25 5 0.2 25.1
-12 -13 5 33.5 29.6
25 -13 5 4.2 20.8
-13 -12 5 0.5 24.5
25 -13 5 -19.6 19.5
-12 25 5 27.8 15.5
-13 -12 5 -30.2 23.1
-12 25 5 8.6 22.4
14 11 -5 -26 34.4
25 -14 5 40.5 24.2
25 -14 5 -7.8 19.6
-11 25 5 30.7 13.7
-14 -11 5 48 33.9
-11 25 5 -3.9 20.7
15 10 -5 -15.3 26.9
-10 25 5 13.3 13.5
-10 25 5 5.8 19.2
25 -15 5 -35.7 25.2
-15 -10 5 41.6 30
25 -15 5 21 20.3
16 9 -5 14.9 26.1
-9 25 5 4.8 16.7
-9 25 5 8.5 14
-16 -9 5 -11.6 27.9
25 -16 5 11.6 21.1
17 8 -5 43.8 28.4
-8 25 5 -16.7 15.4
25 -17 5 19 21.3
-8 25 5 4.4 12.6
-17 -8 5 6.9 25.6
18 7 -5 40.9 28.4
-7 25 5 11 15.7
25 -18 5 -8.4 24.7
-18 -7 5 56.49 30.9
19 6 -5 -9.1 24.1
25 -19 5 -8.9 17.9
25 -19 5 -27.1 19.1
-19 -6 5 -30.2 24.5
9 17 -5 87.79 30.4
26 -9 5 28.5 38.1
-17 26 5 65.39 21.8
-17 26 5 81.19 32.7
-9 -17 5 46.3 29.2
10 16 -5 146.39 34.7
-16 26 5 112.99 36.9
-10 -16 5 98.09 33.2
26 -10 5 125.19 33.2
-16 26 5 132.89 24.3
11 15 -5 90.79 30.7
-15 26 5 96.09 22.6
-11 -15 5 59.59 31.4
26 -11 5 78.09 25.8
-15 26 5 89.49 32.3
-11 -15 5 66.09 36
12 14 -5 118.29 34.4
-14 26 5 161.78 22.5
-14 26 5 98.99 34
-12 -14 5 157.28 36.5
26 -12 5 148.19 36.3
-12 -14 5 144.09 39.1
13 13 -5 138.19 35.4
-13 -13 5 36.1 35.5
-13 26 5 54.99 29.1
26 -13 5 85.79 28.7
-13 -13 5 145.49 42.5
-13 26 5 144.29 22.7
14 12 -5 159.48 37.7
-12 26 5 147.29 23.4
-12 26 5 191.28 34.8
26 -14 5 122.49 45.3
-14 -12 5 120.59 37.3
26 -14 5 91.79 27.7
15 11 -5 155.78 39.5
26 -15 5 178.18 41.5
-15 -11 5 123.99 39.7
26 -15 5 80.89 27.4
-11 26 5 98.19 20.5
-11 26 5 62.19 25.6
16 10 -5 176.88 39
-10 26 5 138.59 23.6
26 -16 5 105.69 33
-10 26 5 91.79 24.4
-16 -10 5 97.79 37.4
26 -16 5 53.69 27.3
17 9 -5 118.79 36.8
-17 -9 5 49.2 33.6
-9 26 5 74.69 22.5
26 -17 5 50.99 25.3
-9 26 5 111.39 20.7
0 0 -6 849.41 50.39
0 0 -6 779.32 62.19
0 0 6 756.82 64.79
0 0 6 811.72 51.99
-1 0 -6 37.5 22.8
0 1 -6 100.59 19
0 1 -6 83.19 26.8
1 -1 -6 65.59 17.1
1 -1 -6 77.39 25.2
-1 1 6 91.39 19.4
1 0 6 70.29 17.4
0 -1 6 58.09 27.4
-1 1 6 72.79 27.9
1 0 6 68.09 24.6
0 -1 6 46.5 15.9
-1 1 -6 70.09 16.8
0 -1 -6 64.79 26.3
1 0 -6 74.29 17.4
-1 1 -6 27.6 23.2
1 0 -6 58.09 22.9
-1 0 6 90.19 19
0 1 6 46.4 16.6
1 -1 6 59.49 27.5
1 -1 6 66.89 17.3
-1 0 6 42.2 26.3
0 1 6 37.5 21.6
-1 2 -6 53.09 25.2
2 -1 -6 35.9 17.8
-1 2 -6 59.39 18.1
-1 -1 -6 38.3 20.4
2 -1 -6 59.59 16.7
-2 1 6 16.8 21.6
1 -2 6 39.7 14.8
1 1 6 31.8 23.4
-2 1 6 46.5 15.8
1 -2 6 111.19 31.8
1 1 6 37.4 15.5
-1 3 -6 0.6 19.4
-2 -1 -6 38.6 25.3
3 -2 -6 44.5 14.8
3 -2 -6 31.9 18.4
-1 3 -6 24.6 14.4
1 -3 6 16.7 13
1 -3 6 18.6 22.2
-3 2 6 15.5 21.2
-3 2 6 35.1 15.8
2 1 6 46.9 15.5
2 1 6 33.4 24.6
0 2 -6 383.96 34
2 -2 -6 443.36 44.5
0 2 -6 396.76 45.7
2 -2 -6 466.15 34.4
-2 0 -6 472.25 48.1
2 0 6 417.66 34.8
2 0 6 332.47 46.8
-2 2 6 392.06 48.5
0 -2 6 398.86 48.6
-2 2 6 385.46 34
0 -2 6 450.05 36.1
1 -2 -6 31.4 24.6
-2 1 -6 32 20.4
1 1 -6 65.29 17.3
1 1 -6 32.8 21.6
-1 -1 6 60.69 26.7
2 -1 6 -0.6 18.5
2 -1 6 57.19 16.1
-1 2 6 34.7 25.8
-1 2 6 22.9 13.9
-1 -1 6 37 14.4
-2 2 -6 435.86 35.5
0 -2 -6 390.66 46.4
-2 2 -6 365.96 46.5
2 0 -6 418.66 44.5
2 0 -6 443.76 34.6
0 2 6 454.15 35.4
2 -2 6 457.65 49.5
0 2 6 444.26 49.1
-2 0 6 463.05 36.4
2 -2 6 431.76 35.8
-2 0 6 412.76 49.5
3 -1 -6 76.39 17
-2 3 -6 26.9 14.1
3 -1 -6 35.1 20.9
-2 3 -6 16.4 18.9
-1 -2 -6 20.8 23
-3 1 6 18 13.7
2 -3 6 23.5 13.3
2 -3 6 57.89 26.3
1 2 6 23.8 14.2
-3 1 6 62.79 26.1
1 2 6 26.1 24.5
4 -2 -6 396.46 43.7
-2 4 -6 495.55 49.99
-2 -2 -6 479.15 50.19
4 -2 -6 479.55 36.5
-2 4 -6 477.85 37.9
2 2 6 509.65 38
2 2 6 385.56 49.3
2 -4 6 439.66 37.1
-4 2 6 443.96 50.89
-4 2 6 492.75 37.8
2 -4 6 488.15 51.19
-2 5 -6 52.99 25.2
5 -3 -6 36.4 20.8
5 -3 -6 62.49 16.9
-2 5 -6 42.3 17.1
-3 -2 -6 24.7 21.7
2 -5 6 23.8 14.6
3 2 6 56.39 26.8
-5 3 6 34.6 24.9
-5 3 6 44.7 16.5
2 -5 6 51.69 26.4
3 2 6 71.29 17.7
-1 4 -6 103.99 19.4
-1 4 -6 78.19 27.5
-3 -1 -6 96.59 28.7
4 -3 -6 63.39 22
4 -3 -6 104.69 18.5
1 -4 6 59.79 26.7
3 1 6 70.49 29.1
1 -4 6 117.09 21.5
3 1 6 85.29 19
-4 3 6 75.99 18.5
-4 3 6 40.2 28.2
0 3 -6 25.3 21.3
3 -3 -6 65.19 15.9
-3 0 -6 45.6 21.8
3 -3 -6 37.6 21.5
0 3 -6 43.3 16.5
3 0 6 53.19 16.2
-3 3 6 46.8 22.6
0 -3 6 58.39 16.5
-3 3 6 68.09 17.9
0 -3 6 66.19 28.8
3 0 6 19.4 24.4
1 2 -6 76.99 27.4
2 -3 -6 19.9 21.3
1 2 -6 9.7 13.9
-3 1 -6 24.5 24
3 -1 6 8.7 22.7
3 -1 6 30.8 15.2
-1 -2 6 54.39 27.3
-2 3 6 20.1 24.5
-1 -2 6 31.2 15.3
-2 3 6 38.2 15
-3 2 -6 60.09 27.2
1 -3 -6 20.4 18.2
2 1 -6 29.5 15.9
2 1 -6 45.6 20.7
-2 -1 6 0.8 21.8
-1 3 6 42.3 13.8
-1 3 6 54.39 26.6
-2 -1 6 7.4 12.7
3 -2 6 15.6 19.9
3 -2 6 30.3 13.5
-3 3 -6 66.99 27.4
3 0 -6 58.49 16.4
0 -3 -6 64.09 25
3 0 -6 78.49 24.8
-3 3 -6 53.39 16.7
3 -3 6 53.59 17.1
0 3 6 57.39 15.2
-3 0 6 51.29 15.6
-3 0 6 48 27.8
3 -3 6 47.1 27.7
0 3 6 51.69 23.3
-1 -3 -6 88.19 24.7
-3 4 -6 98.49 21.1
-3 4 -6 95.99 30.3
4 -1 -6 75.99 24.9
4 -1 -6 103.29 19.5
-4 1 6 53.39 15.8
-4 1 6 66.59 25
3 -4 6 82.29 18.5
1 3 6 53.69 16.3
3 -4 6 84.39 24.5
1 3 6 69.09 25
-3 5 -6 39.4 22.9
5 -2 -6 60.79 21.1
5 -2 -6 68.09 17.9
-2 -3 -6 66.69 27.7
-3 5 -6 75.29 18.9
3 -5 6 49.7 28.2
2 3 6 38.1 24.2
-5 2 6 59.79 29.9
2 3 6 22.3 14.9
3 -5 6 42.4 17
-5 2 6 82.99 18.3
-3 6 -6 106.09 21.1
-3 6 -6 125.09 33.2
-3 -3 -6 58.19 27
6 -3 -6 126.79 26.3
6 -3 -6 132.69 21.5
3 -6 6 69.09 18
3 -6 6 105.79 34.2
3 3 6 85.79 29.8
-6 3 6 107.89 21.9
-6 3 6 97.39 29.9
3 3 6 99.99 21.3
7 -4 -6 124.79 20.4
-4 -3 -6 81.29 31.7
-3 7 -6 78.89 26.6
-3 7 -6 79.79 19.6
-7 4 6 49.3 17.2
3 -7 6 95.09 32.2
3 -7 6 90.39 20.2
-7 4 6 41.5 23.5
4 3 6 89.29 19.1
4 3 6 132.99 32.7
-4 -2 -6 516.45 55.49
-2 6 -6 641.34 56.39
-2 6 -6 642.04 45.7
6 -4 -6 538.65 49.4
6 -4 -6 660.43 41.9
-6 4 6 683.73 45.7
4 2 6 600.34 57.59
4 2 6 648.94 45.2
2 -6 6 678.83 45.9
2 -6 6 578.34 57.59
-6 4 6 559.04 56.49
-1 5 -6 41.3 22.9
-1 5 -6 57.39 18.3
5 -4 -6 40.4 15.3
5 -4 -6 79.59 22.7
-4 -1 -6 62.99 24.7
1 -5 6 30.5 26.6
-5 4 6 58.49 27.6
4 1 6 52.39 16.4
4 1 6 25.3 21.3
-5 4 6 83.79 18.2
1 -5 6 35 13.8
0 4 -6 583.74 51.79
-4 0 -6 486.55 51.89
4 -4 -6 526.85 48.1
0 4 -6 596.04 42.2
0 -4 6 525.05 40.4
4 0 6 455.05 52.39
4 0 6 566.04 41.2
-4 4 6 446.76 52.59
-4 4 6 581.24 40.9
0 -4 6 522.65 53.69
-4 1 -6 93.49 28
1 3 -6 88.39 20.5
3 -4 -6 68.49 23.8
1 3 -6 75.59 24.7
-1 -3 6 61.69 26.2
-3 4 6 96.89 27.4
4 -1 6 91.29 28.6
-1 -3 6 53.49 17
4 -1 6 57.09 16.3
-3 4 6 111.89 20.2
-4 2 -6 497.45 51.49
2 -4 -6 428.36 46.4
2 2 -6 393.36 44.9
2 2 -6 493.35 39
-2 -2 6 480.05 51.59
-2 4 6 487.35 51.99
-2 4 6 502.35 37.3
4 -2 6 457.65 37.4
-2 -2 6 493.35 38
4 -2 6 437.96 49.8
1 -4 -6 123.39 31.2
3 1 -6 59.19 18.4
3 1 -6 55.49 20.8
-4 3 -6 105.09 28.5
-3 -1 6 54.19 22.9
-1 4 6 98.89 18.8
-3 -1 6 38.4 15.8
4 -3 6 82.59 26.6
-1 4 6 128.09 34.2
4 -3 6 85.99 19.4
4 0 -6 541.95 40.7
-4 4 -6 574.94 54.59
0 -4 -6 460.65 50.89
4 0 -6 523.65 47.6
0 4 6 549.05 54.49
-4 0 6 500.75 53.79
-4 0 6 532.05 40.8
4 -4 6 547.95 53.39
0 4 6 603.84 40.9
4 -4 6 545.55 41.1
-4 5 -6 83.19 20.2
5 -1 -6 62.29 17.4
-1 -4 -6 74.69 29.2
5 -1 -6 77.79 23.6
-4 5 -6 37.6 24.2
4 -5 6 56.29 17.3
-5 1 6 76.89 27.8
1 4 6 76.89 18.3
1 4 6 69.49 25.5
4 -5 6 49.9 27.4
-5 1 6 34.9 16.3
-4 6 -6 683.73 46.3
6 -2 -6 614.04 43.6
-2 -4 -6 610.74 56.99
6 -2 -6 607.14 50.69
-4 6 -6 603.74 56.89
4 -6 6 613.14 58.49
-6 2 6 624.24 45.4
2 4 6 654.43 59.39
-6 2 6 554.64 56.89
2 4 6 649.74 45
4 -6 6 643.54 45.4
7 -3 -6 88.89 20.2
-4 7 -6 74.19 25.8
-4 7 -6 99.99 20.8
-3 -4 -6 156.78 34.5
3 4 6 60.39 28
3 4 6 103.99 20.8
-7 3 6 81.19 29
4 -7 6 82.99 19.7
-7 3 6 120.19 22.3
4 -7 6 90.69 29.7
-4 8 -6 513.65 52.89
8 -4 -6 566.94 41.1
-4 8 -6 598.84 43.7
-4 -4 -6 472.35 54.09
4 -8 6 495.55 41.6
4 4 6 546.15 41.9
4 -8 6 487.25 53.99
-8 4 6 610.04 43.6
4 4 6 481.25 52.49
-8 4 6 504.85 55.09
9 -5 -6 62.89 17.8
-5 -4 -6 90.39 31.3
-4 9 -6 38.2 17.5
-4 9 -6 64.39 27
4 -9 6 77.59 18.6
-9 5 6 55.09 18
4 -9 6 56.69 29.5
5 4 6 28.8 23.3
5 4 6 76.39 19.7
-9 5 6 59.29 28.7
-5 -3 -6 18.9 26.1
-3 8 -6 49.7 18.9
8 -5 -6 48.8 15.4
-3 8 -6 37.3 22.6
3 -8 6 57.19 26.2
5 3 6 33.6 16.4
-8 5 6 38.8 16.3
3 -8 6 74.59 18.8
-8 5 6 14.2 21.8
5 3 6 0.7 17.6
-2 7 -6 69.89 23.6
-2 7 -6 54.09 19.3
-5 -2 -6 6.1 21.9
7 -5 -6 40.2 14.2
2 -7 6 84.79 19
-7 5 6 28.5 15.8
-7 5 6 34.7 23.1
2 -7 6 40.6 24.4
5 2 6 39.7 16.1
5 2 6 80.89 27.1
-1 6 -6 138.79 31
6 -5 -6 59.69 21.1
6 -5 -6 120.49 20.1
-5 -1 -6 118.09 28.4
-1 6 -6 171.68 26.2
1 -6 6 148.69 23.9
5 1 6 96.79 21.4
5 1 6 86.49 29.3
1 -6 6 170.28 36.3
-6 5 6 120.99 29.8
-6 5 6 101.69 20.4
0 5 -6 70.39 24.9
-5 0 -6 71.49 29.1
0 5 -6 62.99 19.4
5 -5 -6 59.79 20.8
5 0 6 49.3 17.9
5 0 6 41.9 23
-5 5 6 126.39 32.5
0 -5 6 48.4 25.5
0 -5 6 49.8 15.5
-5 5 6 32.1 16.3
-5 1 -6 64.69 41.9
4 -5 -6 96.19 26.9
1 4 -6 59.99 18.4
1 4 -6 15.1 20.3
5 -1 6 51.49 16.7
-1 -4 6 61.89 16.4
-4 5 6 55.99 15.9
5 -1 6 44.7 21.6
-1 -4 6 70.69 28.8
-4 5 6 49.4 25.2
-5 2 -6 25.4 24.4
3 -5 -6 63.49 22.8
2 3 -6 58.69 24.6
2 3 -6 44.6 17.7
5 -2 6 97.19 29.6
5 -2 6 39 14.8
-2 -3 6 67.09 31.4
-3 5 6 54.29 16
-2 -3 6 54.59 16.5
-5 3 -6 82.49 29.6
3 2 -6 59.99 22.2
3 2 -6 74.09 19.5
2 -5 -6 34.9 23.8
-3 -2 6 33.2 27.3
5 -3 6 64.59 17.8
-2 5 6 37.7 23.3
-3 -2 6 61.49 16.9
5 -3 6 37.9 25.2
-2 5 6 55.89 15.8
4 1 -6 112.69 22.6
4 1 -6 60.09 18.8
-5 4 -6 53.59 26.7
1 -5 -6 62.09 24.6
5 -4 6 45.8 25.3
-1 5 6 37.9 14.4
5 -4 6 59.39 17
-4 -1 6 37.7 24.5
-4 -1 6 55.59 16.4
-1 5 6 37.6 24.5
5 0 -6 92.49 25.7
0 -5 -6 55.49 26.5
5 0 -6 82.09 19
-5 5 -6 108.29 29
5 -5 6 29.5 23.3
5 -5 6 43.7 16.5
0 5 6 46.6 27.8
-5 0 6 79.49 18.4
-5 0 6 76.39 26.7
0 5 6 62.69 16.6
6 -1 -6 79.89 18.9
-5 6 -6 80.79 26.9
-5 6 -6 137.49 23.4
-1 -5 -6 118.29 32.4
1 5 6 112.19 20.7
5 -6 6 89.29 19.8
5 -6 6 116.09 31.2
1 5 6 194.38 39
-6 1 6 97.29 21
-6 1 6 105.09 29.9
-5 7 -6 12.2 23.5
-2 -5 -6 75.79 29.1
7 -2 -6 78.79 18.3
-5 7 -6 82.29 21.2
5 -7 6 24.4 24
2 5 6 36.6 24.9
-7 2 6 43.4 27.5
2 5 6 28.7 15.4
-7 2 6 27 15.1
5 -7 6 49.2 17.2
-5 8 -6 21.8 20.9
-5 8 -6 28.7 16.4
-3 -5 -6 97.49 29.4
8 -3 -6 28.8 16.3
3 5 6 12.6 13.7
5 -8 6 42.5 23.7
-8 3 6 29.1 16.2
5 -8 6 57.29 17.6
-8 3 6 2 23.1
3 5 6 17.6 22.6
9 -4 -6 71.09 18.8
-5 9 -6 85.19 21.6
-4 -5 -6 80.99 32.5
-5 9 -6 103.49 28
-9 4 6 111.99 22.5
4 5 6 53.29 23.6
4 5 6 53.99 17.1
5 -9 6 63.79 27.3
-9 4 6 59.09 28.8
5 -9 6 57.09 18.1
10 -5 -6 88.09 19.3
-5 -5 -6 74.59 29.4
-5 10 -6 118.29 22.9
-5 10 -6 54.09 25.7
5 -10 6 76.09 29.9
5 5 6 163.78 32.1
-10 5 6 24.1 22.9
5 -10 6 109.39 20.7
5 5 6 101.59 21.4
-10 5 6 72.29 19.3
11 -6 -6 61.09 17.9
-6 -5 -6 99.49 30
-5 11 -6 81.39 20.9
-5 11 -6 48.9 24.8
-11 6 6 66.69 19.8
5 -11 6 30.5 24.2
6 5 6 62.29 28.4
5 -11 6 58.19 17.5
6 5 6 38.6 16.7
-11 6 6 60.09 29.4
10 -6 -6 530.25 38.9
-6 -4 -6 606.84 57.89
-4 10 -6 499.85 51.49
-4 10 -6 574.84 44.6
4 -10 6 499.55 40.2
6 4 6 507.35 41.7
4 -10 6 501.65 52.59
-10 6 6 591.64 58.89
-10 6 6 510.05 42.5
6 4 6 541.95 54.99
-3 9 -6 102.89 26.8
9 -6 -6 106.39 19.4
-3 9 -6 110.99 25
-6 -3 -6 50.99 23.6
-9 6 6 144.49 24.3
6 3 6 134.29 32.9
-9 6 6 119.69 33.6
3 -9 6 98.79 21.8
6 3 6 121.39 23
3 -9 6 108.49 29.6
-6 -2 -6 444.36 52.99
8 -6 -6 478.55 34.9
-2 8 -6 504.45 48.3
-2 8 -6 530.15 41.7
2 -8 6 433.76 37.2
-8 6 6 474.85 38.8
6 2 6 415.96 49.2
2 -8 6 512.55 52.59
6 2 6 406.26 37.4
-8 6 6 403.96 50.99
-1 7 -6 100.09 26.4
-1 7 -6 100.99 22
7 -6 -6 98.09 18.8
-6 -1 -6 93.49 29.9
1 -7 6 74.59 19.7
-7 6 6 90.39 19.9
6 1 6 104.69 20.9
1 -7 6 122.69 34.2
-7 6 6 144.59 30.9
6 1 6 75.99 31
0 6 -6 681.13 55.39
0 6 -6 656.23 48.6
6 -6 -6 683.03 54.69
-6 0 -6 663.33 60.59
-6 6 6 662.93 47.3
-6 6 6 769.72 64.09
6 0 6 697.83 48.7
6 0 6 561.24 56.89
0 -6 6 756.62 49
0 -6 6 616.14 59.89
1 5 -6 112.89 22.7
-6 1 -6 44.4 20.8
1 5 -6 95.69 25.8
5 -6 -6 111.39 26.3
-1 -5 6 146.69 35.8
6 -1 6 130.49 32
-5 6 6 154.78 23.4
-5 6 6 136.99 35.2
-1 -5 6 105.19 21.2
6 -1 6 110.89 21.7
2 4 -6 681.53 53.19
4 -6 -6 582.14 52.39
2 4 -6 623.24 45.9
-6 2 -6 622.54 57.59
6 -2 6 545.65 43.2
-2 -4 6 535.45 42.6
-2 -4 6 573.04 57.89
-4 6 6 621.44 43.5
6 -2 6 632.84 56.99
-4 6 6 601.74 58.09
3 -6 -6 47.9 22.2
-6 3 -6 45.9 27.2
3 3 -6 73.69 24.8
3 3 -6 124.49 22.6
-3 6 6 53.59 27.7
6 -3 6 92.99 18.1
-3 -3 6 97.49 20.9
6 -3 6 83.09 27.6
-3 6 6 95.29 19
-3 -3 6 177.48 36.2
-6 4 -6 637.84 59.29
2 -6 -6 580.24 54.59
4 2 -6 691.53 47.3
4 2 -6 580.74 51.39
6 -4 6 643.84 45.9
-4 -2 6 691.83 46.8
-2 6 6 513.15 57.19
-4 -2 6 621.24 59.29
6 -4 6 680.13 58.99
-2 6 6 658.93 44.1
-6 5 -6 121.09 32.8
5 1 -6 135.79 23.6
5 1 -6 174.78 30.7
1 -6 -6 63.99 24.6
-5 -1 6 95.79 20.5
-1 6 6 112.59 20.1
6 -5 6 98.89 20.2
-5 -1 6 127.39 31.3
6 -5 6 179.08 37.3
-1 6 6 83.79 29.4
6 0 -6 720.63 49.2
0 -6 -6 681.13 60.29
-6 6 -6 622.24 59.89
-6 0 6 715.33 61.49
-6 0 6 754.32 49.99
6 -6 6 727.33 61.09
0 6 6 601.54 59.89
6 -6 6 748.93 49.4
0 6 6 667.03 46.5
-1 -6 -6 71.89 29.1
-6 7 -6 110.29 27.6
7 -1 -6 71.79 19.2
-6 7 -6 92.39 21.7
1 6 6 61.19 24.1
1 6 6 120.59 21.6
6 -7 6 151.98 31.2
-7 1 6 55.19 23
6 -7 6 92.79 19.4
-7 1 6 78.29 19.2
-6 8 -6 477.25 52.29
-6 8 -6 456.65 39.6
8 -2 -6 497.35 40
-2 -6 -6 486.35 51.89
2 6 6 478.65 52.29
6 -8 6 448.06 37.8
6 -8 6 481.65 51.09
-8 2 6 385.76 49.9
-8 2 6 487.35 39.8
2 6 6 430.36 36.5
-3 -6 -6 97.49 30.3
-6 9 -6 144.59 24.1
9 -3 -6 113.29 21.8
-6 9 -6 39.2 25.8
6 -9 6 141.49 33.6
3 6 6 120.99 21.9
-9 3 6 59.79 24.5
-9 3 6 85.89 21
3 6 6 55.89 28.1
6 -9 6 122.59 22.8
10 -4 -6 533.85 40.2
-4 -6 -6 391.16 52.69
-6 10 -6 520.85 41.6
-6 10 -6 503.15 52.49
-10 4 6 499.75 41.1
6 -10 6 521.95 52.29
4 6 6 374.36 49.9
4 6 6 475.05 40
-10 4 6 517.75 55.99
6 -10 6 487.25 39.9
11 -5 -6 42.5 16.3
-5 -6 -6 70.09 26.7
-6 11 -6 40.8 23.9
-6 11 -6 31.3 19.3
-11 5 6 35.9 26.2
5 6 6 54.39 18.4
5 6 6 56.19 25.7
6 -11 6 49.5 17.1
6 -11 6 78.99 29.5
-11 5 6 29.6 16.9
12 -6 -6 507.45 39
-6 12 -6 436.66 49.99
-6 -6 -6 503.05 55.79
-6 12 -6 484.85 42
6 6 6 431.96 51.19
-12 6 6 454.95 56.79
-12 6 6 473.55 41.2
6 -12 6 503.55 50.89
6 -12 6 505.55 40.3
-6 13 -6 26.7 18
-7 -6 -6 42.2 29.3
13 -7 -6 40.3 16.2
-6 13 -6 -4.1 21
6 -13 6 39.5 17.1
6 -13 6 37.4 24.8
7 6 6 28 20.7
-13 7 6 43.3 18.5
-13 7 6 59.19 37
12 -7 -6 159.68 23.3
-5 12 -6 165.18 27.8
-7 -5 -6 46 26.4
-5 12 -6 65.09 29.3
-12 7 6 138.49 35.8
5 -12 6 88.69 29
7 5 6 92.39 26.6
-12 7 6 139.79 26.3
5 -12 6 144.99 24.5
11 -7 -6 21.4 14.7
-7 -4 -6 61.49 27.9
-4 11 -6 29.1 23.8
-4 11 -6 62.49 20.3
-11 7 6 6.2 25.3
7 4 6 49.6 27.1
-11 7 6 36.4 18.3
7 4 6 41.3 17.4
4 -11 6 45 26.9
4 -11 6 33.6 16
-3 10 -6 43.2 21.7
-7 -3 -6 45.1 28.8
10 -7 -6 98.39 19
-3 10 -6 77.89 21.5
-10 7 6 109.49 22.3
3 -10 6 61.49 18.2
-10 7 6 64.69 27.5
3 -10 6 59.89 29.5
7 3 6 42.7 17.6
7 3 6 52.49 24.8
-7 -2 -6 48.4 30
-2 9 -6 33.6 20.8
-2 9 -6 0.7 14.3
9 -7 -6 28.5 14.1
-9 7 6 21.8 15
-9 7 6 47.4 26.4
2 -9 6 7.2 24.8
7 2 6 35.5 16.7
7 2 6 7 18.3
2 -9 6 22.4 15.1
8 -7 -6 112.49 18.3
-7 -1 -6 132.39 33.8
-1 8 -6 55.69 24.1
-1 8 -6 84.59 20.8
1 -8 6 90.09 28.8
-8 7 6 122.99 22.9
7 1 6 100.39 21.7
7 1 6 73.99 24.2
-8 7 6 89.79 32.5
1 -8 6 59.89 18
0 7 -6 10.4 14.9
-7 0 -6 21.7 19.6
0 7 -6 3.2 20.4
-7 7 6 39.2 25.6
7 0 6 12.5 14.4
0 -7 6 18 13.7
-7 7 6 14.2 14.2
0 -7 6 17.1 23.2
7 0 6 -8.5 15.7
-7 1 -6 73.49 28.2
1 6 -6 146.29 24.7
6 -7 -6 97.19 24.8
1 6 -6 140.19 29.6
-6 7 6 137.09 22.1
7 -1 6 126.89 23.8
-1 -6 6 79.09 19.1
-1 -6 6 75.39 28.9
7 -1 6 45.7 23.8
-6 7 6 84.49 33.2
5 -7 -6 50.89 22.6
2 5 -6 49.6 16.9
2 5 -6 20.4 18.2
-7 2 -6 7.6 19
7 -2 6 67.59 18.6
-5 7 6 44.6 15.8
-5 7 6 24.3 21.6
7 -2 6 33.7 23.5
-2 -5 6 -5 21.4
-2 -5 6 51.29 18.1
3 4 -6 111.19 23.2
-7 3 -6 119.99 33.8
4 -7 -6 57.89 23
3 4 -6 129.09 27.1
7 -3 6 110.49 29.7
-3 -4 6 84.19 28.5
-3 -4 6 68.49 17.6
7 -3 6 96.29 20.5
-4 7 6 63.89 30.6
-4 7 6 87.09 18.6
-7 4 -6 47.2 27.4
4 3 -6 97.99 22.9
3 -7 -6 115.99 29.2
4 3 -6 99.09 25.5
7 -4 6 91.39 19.2
7 -4 6 121.99 31.9
-3 7 6 102.49 31.1
-4 -3 6 124.49 33.9
-3 7 6 87.89 18
-4 -3 6 143.79 24
2 -7 -6 59.69 24.9
-7 5 -6 43.4 23.1
5 2 -6 77.19 21.2
-5 -2 6 71.89 17.8
-2 7 6 26.6 22.3
7 -5 6 68.69 18.8
-5 -2 6 30.2 27.2
7 -5 6 56.59 22.6
-2 7 6 53.39 16
6 1 -6 100.29 21.5
-7 6 -6 36.2 25.6
1 -7 -6 74.69 25.6
-6 -1 6 82.89 18.6
-1 7 6 77.59 18.7
7 -6 6 99.59 31.1
7 -6 6 80.39 18
-1 7 6 54.09 26.4
-6 -1 6 96.49 27.3
-7 7 -6 8.1 23.5
7 0 -6 21 16
0 -7 -6 26.5 24.5
0 7 6 31.7 14.2
7 -7 6 1.9 21.8
-7 0 6 7.2 12
7 -7 6 10.3 13.8
-7 0 6 4.8 25.5
0 7 6 11.6 23.8
8 -1 -6 68.79 19.8
-7 8 -6 67.29 26.3
-1 -7 -6 111.99 31.9
7 -8 6 96.09 29.1
1 7 6 83.99 18.6
7 -8 6 95.69 20.6
1 7 6 134.79 36.5
-8 1 6 72.39 31.9
-8 1 6 70.49 18.8
9 -2 -6 33.2 17.2
-7 9 -6 39.5 26.3
-2 -7 -6 31.9 25.6
-7 9 -6 19.9 16
2 7 6 25.3 25.5
7 -9 6 15.4 13.3
-9 2 6 44 26.2
-9 2 6 7 13.1
7 -9 6 21.9 21.4
2 7 6 7 13.4
10 -3 -6 109.89 22.1
-3 -7 -6 42.4 26.2
-7 10 -6 88.99 21.2
-7 10 -6 74.49 28.7
7 -10 6 48.8 17.6
7 -10 6 89.49 27.8
3 7 6 57.89 18.3
3 7 6 38.4 24.1
-10 3 6 69.09 19.3
-10 3 6 72.39 28.5
-7 11 -6 42.9 18
11 -4 -6 19.4 15.5
-7 11 -6 41.7 25
-4 -7 -6 10.6 21.2
7 -11 6 21.1 22.5
4 7 6 16.5 21
7 -11 6 27.7 15.2
4 7 6 36.6 17.6
-11 4 6 34.9 16.5
-11 4 6 42.9 26.2
12 -5 -6 134.79 22.7
-7 12 -6 145.89 34.3
-7 12 -6 100.49 22.6
-5 -7 -6 137.09 36.2
5 7 6 114.49 29.7
7 -12 6 163.08 25.2
-12 5 6 105.99 23.7
-12 5 6 117.39 34.3
7 -12 6 119.69 30.6
13 -6 -6 32.8 17.4
-6 -7 -6 52.59 25.9
-7 13 -6 22.8 18.5
-7 13 -6 52.59 26.8
7 -13 6 41.9 24.1
-13 6 6 69.19 36.6
-13 6 6 51.49 19.7
6 7 6 -1.1 20.3
7 -13 6 46.2 17.4
-7 14 -6 68.39 26.7
-7 -7 -6 67.79 26.7
14 -7 -6 106.59 21.2
-7 14 -6 80.99 34.9
7 7 6 84.19 25.8
7 -14 6 115.59 31.8
-14 7 6 66.29 22.1
-14 7 6 127.19 35.8
7 -14 6 92.09 20.9
-7 15 -6 34.5 21.2
-7 15 -6 -7.2 21
15 -8 -6 13.7 14.5
-8 -7 -6 -12.1 19.7
-15 8 6 30.2 26.8
7 -15 6 42.2 15.8
7 -15 6 17.2 23
-15 8 6 6.1 16.2
-8 -6 -6 434.16 60.59
-6 14 -6 308.57 58.69
-6 14 -6 303.27 43.7
14 -8 -6 306.87 30.9
8 6 6 273.67 45
6 -14 6 320.17 31.8
6 -14 6 399.66 45.9
-14 8 6 273.07 48.1
-14 8 6 342.37 35.9
13 -8 -6 37.2 15.1
-5 13 -6 55.39 21.3
-5 13 -6 37.5 24
-8 -5 -6 42 24.7
8 5 6 35.2 24.2
-13 8 6 111.19 23.2
5 -13 6 56.69 26.8
5 -13 6 63.99 18.3
-4 12 -6 420.36 46.6
12 -8 -6 397.46 33.5
-8 -4 -6 436.06 60.09
-4 12 -6 458.25 42.3
4 -12 6 421.26 48.9
4 -12 6 432.06 37.4
-12 8 6 419.26 53.49
-12 8 6 469.25 40
8 4 6 456.05 50.49
-3 11 -6 84.99 23.3
11 -8 -6 68.99 15.7
-8 -3 -6 61.89 31.5
-3 11 -6 67.49 27.1
-11 8 6 34.8 30.1
3 -11 6 86.09 19.8
-11 8 6 64.69 19.6
8 3 6 57.49 18.5
8 3 6 38.6 24.7
3 -11 6 79.69 29.8
-2 10 -6 424.76 38.7
10 -8 -6 375.56 30.5
-8 -2 -6 291.07 49.7
-2 10 -6 404.66 44.5
2 -10 6 344.97 48.9
8 2 6 385.86 36.5
8 2 6 463.85 49
-10 8 6 378.46 36.2
-10 8 6 279.87 42.3
2 -10 6 457.95 36.7
-1 9 -6 52.39 24.6
-1 9 -6 49.9 18.9
-8 -1 -6 61.19 29.3
-9 8 6 65.79 18.8
-9 8 6 59.69 28.5
1 -9 6 57.99 29
8 1 6 46 25
1 -9 6 65.59 19.2
8 1 6 78.69 19.1
-8 0 -6 375.56 51.09
0 8 -6 470.55 40.8
0 8 -6 410.76 43.7
0 -8 6 419.36 36.5
8 0 6 364.96 46.6
-8 8 6 381.96 51.49
-8 8 6 497.05 38.2
8 0 6 409.66 38.2
0 -8 6 427.96 50.89
1 7 -6 80.09 25
1 7 -6 89.69 22.1
-8 1 -6 83.49 28.9
7 -8 -6 87.99 23.6
8 -1 6 99.59 30.9
8 -1 6 83.19 19.7
-1 -7 6 71.29 20
-7 8 6 74.09 30.7
-7 8 6 140.49 22.2
-1 -7 6 62.19 28.8
2 6 -6 410.36 44.1
-8 2 -6 506.35 54.19
2 6 -6 511.75 41.6
6 -8 -6 421.46 44.2
8 -2 6 430.86 36.8
-6 8 6 462.15 35.9
8 -2 6 411.56 49.1
-2 -6 6 440.56 37.6
-2 -6 6 398.86 50.89
-6 8 6 460.15 53.69
5 -8 -6 30.4 22.5
3 5 -6 0 16.4
3 5 -6 15.1 15.4
-8 3 -6 37.2 23.1
-3 -5 6 10.2 13
8 -3 6 37.7 15.4
-5 8 6 10 24.5
8 -3 6 25.3 21.8
-5 8 6 43.7 14.6
-3 -5 6 5.5 22.8
4 -8 -6 522.05 50.59
-8 4 -6 588.44 57.69
4 4 -6 641.94 46.4
-4 8 6 544.05 56.49
-4 -4 6 539.25 42.3
8 -4 6 536.65 53.49
-4 8 6 567.54 41
8 -4 6 505.45 42.3
-4 -4 6 553.34 56.79
5 3 -6 30 17.1
-8 5 -6 55.79 25.4
3 -8 -6 57.49 24.4
8 -5 6 60.19 18.7
8 -5 6 65.99 27.7
-5 -3 6 28.6 15.4
-3 8 6 46.8 26.3
-3 8 6 26.7 13.2
-5 -3 6 33.1 25.4
6 2 -6 535.15 42.6
-8 6 -6 480.85 53.29
2 -8 -6 485.85 49.4
8 -6 6 396.16 37.6
-2 8 6 446.86 53.29
-6 -2 6 460.55 37.5
-6 -2 6 463.25 53.69
8 -6 6 466.65 50.39
-2 8 6 491.25 37.4
-8 7 -6 122.59 33.8
1 -8 -6 52.19 23.2
7 1 -6 78.99 21.1
-7 -1 6 112.09 32.5
8 -7 6 98.09 21.3
-7 -1 6 69.29 17.3
-1 8 6 30.5 28.3
8 -7 6 84.29 26.3
-1 8 6 85.29 17.7
8 0 -6 454.55 39.7
0 -8 -6 513.05 51.49
-8 8 -6 348.67 53.39
8 -8 6 439.66 49.3
0 8 6 417.26 35.5
-8 0 6 405.66 50.19
8 -8 6 444.96 37.6
0 8 6 452.45 51.39
-8 0 6 429.56 37.3
-1 -8 -6 29 24.1
-8 9 -6 60.79 25.3
9 -1 -6 75.59 21.5
-9 1 6 37.6 23.7
1 8 6 35.8 28.5
8 -9 6 86.29 18.7
-9 1 6 58.89 17.5
1 8 6 48.6 15.7
8 -9 6 54.09 24.6
-2 -8 -6 433.66 50.49
-8 10 -6 423.66 49.8
10 -2 -6 417.26 38
-8 10 -6 415.16 37.5
-10 2 6 298.97 47
8 -10 6 395.56 36.8
-10 2 6 443.46 38.7
2 8 6 418.36 49.3
2 8 6 449.36 35.9
8 -10 6 380.66 47.3
-8 11 -6 56.29 28.9
-8 11 -6 38.6 18
11 -3 -6 74.19 20.2
-3 -8 -6 47.2 26.4
3 8 6 64.89 18
-11 3 6 105.09 33.4
-11 3 6 44.5 17.9
3 8 6 51.09 23.7
8 -11 6 60.59 18.3
8 -11 6 73.19 26.1
12 -4 -6 398.76 37.4
-4 -8 -6 427.16 51.59
-8 12 -6 393.56 50.39
-8 12 -6 392.76 38.9
4 8 6 415.96 49.3
-12 4 6 421.56 56.49
4 8 6 478.45 38
8 -12 6 440.56 37.6
8 -12 6 385.46 47.1
-12 4 6 435.36 40
-8 13 -6 53.49 25.8
-5 -8 -6 64.29 28
-8 13 -6 51.89 19.8
13 -5 -6 37.9 18.5
8 -13 6 35.5 21.9
-13 5 6 66.49 21.7
5 8 6 33.5 24.7
-13 5 6 13.9 27.3
8 -13 6 54.49 18.6
-6 -8 -6 273.67 48.3
14 -6 -6 310.47 33.3
-8 14 -6 235.98 50.69
-8 14 -6 278.77 40.7
8 -14 6 274.07 43.1
-14 6 6 356.36 51.59
6 8 6 275.57 42.5
8 -14 6 274.07 31.6
-14 6 6 319.97 37.3
-7 -8 -6 35.3 28.4
-8 15 -6 -29.8 14.8
15 -7 -6 2.2 13.9
-8 15 -6 72.79 28.6
-15 7 6 24.2 18.1
8 -15 6 12.6 21.7
7 8 6 19 20.7
8 -15 6 36 16.3
-15 7 6 7.2 24.3
-8 16 -6 338.97 45.2
-8 -8 -6 297.87 50.49
16 -8 -6 375.06 34.4
-8 16 -6 311.37 36
-16 8 6 295.57 37.4
8 -16 6 332.17 42.9
-16 8 6 274.97 46.2
8 -16 6 334.97 32.9
-8 17 -6 38.1 24.8
-9 -8 -6 6.9 18.4
-8 17 -6 29.4 18.9
17 -9 -6 26.8 15.6
-17 9 6 17.2 20.1
8 -17 6 21.6 21.6
-17 9 6 17.1 26.2
8 -17 6 38.8 17.2
-9 -7 -6 131.49 36.9
16 -9 -6 128.99 22.3
-7 16 -6 63.69 26.6
-7 16 -6 125.69 26.1
7 -16 6 104.29 29.7
7 -16 6 100.49 21.7
-16 9 6 127.49 27.6
-16 9 6 73.99 32.4
-6 15 -6 55.69 22.5
15 -9 -6 16.9 14.4
-9 -6 -6 78.29 32.4
-6 15 -6 11.3 21.7
-15 9 6 5.3 16.3
6 -15 6 43.6 16.7
6 -15 6 24.4 20.9
-15 9 6 31.5 27.8
-5 14 -6 117.09 28.6
-9 -5 -6 52.19 29.4
14 -9 -6 35.6 14.7
5 -14 6 46.6 23.9
-14 9 6 115.19 32.5
5 -14 6 50.19 16.9
-14 9 6 73.09 20.5
13 -9 -6 18.7 12.5
-4 13 -6 18.9 19.2
-4 13 -6 69.39 24.4
-9 -4 -6 35.8 26.6
4 -13 6 35.3 16.5
9 4 6 14.8 22
-13 9 6 13.1 15.8
4 -13 6 34.2 26.5
-3 12 -6 84.69 24.3
-3 12 -6 97.39 22.7
12 -9 -6 73.89 15.7
-9 -3 -6 41.8 28.7
9 3 6 44 21.9
-12 9 6 74.09 29.9
-12 9 6 31.9 17.9
3 -12 6 79.79 19.5
3 -12 6 59.69 26.6
9 3 6 51.99 20.4
-2 11 -6 29.5 19
11 -9 -6 34.2 12.8
-9 -2 -6 -12.7 21.4
-2 11 -6 16.6 18.6
-11 9 6 19.8 25.9
9 2 6 21.4 22.8
-11 9 6 4.8 15.3
2 -11 6 15.3 14
9 2 6 17.5 15.8
2 -11 6 23.7 24.3
-1 10 -6 101.59 22.7
-1 10 -6 95.09 25.4
9 1 6 80.29 28.5
1 -10 6 87.69 20.5
9 1 6 78.29 20.8
-10 9 6 42.6 27.4
-10 9 6 95.89 20.8
1 -10 6 94.89 29.8
-9 0 -6 9.9 21.9
0 9 -6 11 19.5
0 9 -6 53.89 18.4
0 -9 6 42.9 25.5
-9 9 6 11.4 20.1
0 -9 6 30.9 15.6
9 0 6 27.8 16
9 0 6 15.1 20.8
-9 9 6 14.8 15.2
1 8 -6 15.2 17.1
-9 1 -6 40.7 26.3
1 8 -6 37.7 21.7
9 -1 6 41.4 20.6
-8 9 6 58.79 17.7
-8 9 6 50.89 24.9
-1 -8 6 61.09 29.3
9 -1 6 51.19 19.5
-1 -8 6 57.09 16.4
7 -9 -6 8.7 15.4
2 7 -6 3.2 18
-9 2 -6 3.1 19.7
2 7 -6 43.5 19.1
-7 9 6 31 25.9
-2 -7 6 15.6 13.8
9 -2 6 33.9 15.7
9 -2 6 59.39 23.1
-2 -7 6 29.5 26.1
-7 9 6 8.9 13.8
6 -9 -6 54.99 22.7
3 6 -6 73.29 22.8
-9 3 -6 95.59 30
3 6 -6 136.49 25
-6 9 6 114.99 21.1
-3 -6 6 83.89 31.9
-6 9 6 62.29 33.3
9 -3 6 112.49 31.7
-3 -6 6 89.49 20.5
9 -3 6 112.39 23.1
5 -9 -6 96.19 27.3
4 5 -6 83.79 21.8
-9 4 -6 73.09 28
-4 -5 6 33.1 16
-5 9 6 75.09 27.5
9 -4 6 74.79 20.7
9 -4 6 52.39 23.6
-4 -5 6 46.3 26.7
-5 9 6 58.29 17.1
5 4 -6 109.29 24.1
4 -9 -6 70.09 23.5
-9 5 -6 59.99 30.1
9 -5 6 65.19 27.4
-5 -4 6 74.39 29.5
9 -5 6 82.39 22
-4 9 6 24.2 15.1
-4 9 6 59.89 27.2
-5 -4 6 63.69 19
3 -9 -6 135.89 30.7
6 3 -6 115.39 24.2
-9 6 -6 116.29 34.1
9 -6 6 135.49 34.8
-3 9 6 84.29 32.4
-3 9 6 95.79 19.9
-6 -3 6 55.99 29.2
-6 -3 6 94.59 20.2
9 -6 6 81.29 20.2
-9 7 -6 35.6 26.9
2 -9 -6 20.7 22
7 2 -6 28.8 18
9 -7 6 10.4 20.3
-2 9 6 17.9 26.8
-2 9 6 -8.5 11.2
-7 -2 6 15.2 14.2
-7 -2 6 40 24.5
9 -7 6 -5.5 12.3
-9 8 -6 67.99 29.3
8 1 -6 75.99 22.5
1 -9 -6 92.19 29.3
-8 -1 6 60.09 26.7
-1 9 6 85.09 31.6
9 -8 6 24 15.1
9 -8 6 42.3 23.3
-1 9 6 68.09 17.3
-8 -1 6 17.7 14.6
0 -9 -6 40.1 25.5
-9 9 -6 5.8 19.7
9 0 -6 18.1 16.7
9 -9 6 40.1 25.4
-9 0 6 39.2 17.9
9 -9 6 25.9 16.7
-9 0 6 44.1 26.5
0 9 6 44.3 15.3
0 9 6 73.69 28.2
10 -1 -6 121.59 24.2
-1 -9 -6 132.19 31
-9 10 -6 135.99 35.7
9 -10 6 87.49 29.1
-10 1 6 125.59 31.2
1 9 6 117.29 32.3
1 9 6 78.19 18.3
-10 1 6 68.99 20.7
9 -10 6 93.29 22.2
-2 -9 -6 1.2 22.5
-9 11 -6 32.1 24.1
11 -2 -6 56.39 19.4
9 -11 6 14.9 16.8
9 -11 6 19.2 21.7
-11 2 6 32 16.9
-11 2 6 69.99 28.9
2 9 6 19.5 21.5
2 9 6 31.1 15.7
-9 12 -6 82.29 28.1
12 -3 -6 95.39 22.7
-3 -9 -6 73.59 29.5
-9 12 -6 71.49 22.6
3 9 6 120.19 22.4
9 -12 6 45.4 24.7
-12 3 6 46.9 29.8
9 -12 6 73.99 20.5
3 9 6 69.59 25.6
-12 3 6 49.6 19.4
13 -4 -6 2.3 16.1
-9 13 -6 12 22.6
-4 -9 -6 16.2 24.2
-9 13 -6 22 21
4 9 6 31.3 23.2
9 -13 6 16.9 15.6
-13 4 6 57.99 21
-13 4 6 32 26.7
9 -13 6 14.9 22.1
14 -5 -6 42.8 18.5
-9 14 -6 37.9 25.2
-5 -9 -6 90.39 31.4
-14 5 6 65.29 30.7
-14 5 6 86.39 22
5 9 6 57.59 23.6
9 -14 6 87.29 28.1
9 -14 6 81.69 20.4
-9 15 -6 45.4 28.1
15 -6 -6 53.39 19.2
-6 -9 -6 30.1 29.4
-9 15 -6 18 17.9
-15 6 6 19.7 17.6
6 9 6 33.7 22
9 -15 6 14.2 15.7
9 -15 6 15 21.4
-15 6 6 6.9 26.3
16 -7 -6 140.79 25.5
-9 16 -6 104.09 31
-9 16 -6 162.98 26.5
-7 -9 -6 95.69 36.6
9 -16 6 114.69 21.3
-16 7 6 112.19 27.1
9 -16 6 107.39 30.4
-16 7 6 125.99 38.8
17 -8 -6 26.8 17.2
-8 -9 -6 50.09 25.9
-9 17 -6 65.59 27.9
-9 17 -6 20.4 17.8
9 -17 6 26.8 17.1
9 -17 6 38.2 23.2
-17 8 6 51.39 21.6
-17 8 6 48.9 27.4
-9 18 -6 95.19 30.9
18 -9 -6 75.49 20.6
-9 18 -6 105.99 25.4
-18 9 6 27.8 28
9 -18 6 97.69 24.3
9 9 6 64.39 25.3
-9 19 -6 3 22.7
19 -10 -6 19.3 15.6
-9 19 -6 2.2 16.2
-19 10 6 20.3 19.7
-19 10 6 30.9 28.2
10 9 6 14.2 18.4
18 -10 -6 229.98 27.6
-8 18 -6 270.67 33.2
-8 18 -6 165.98 32.4
-18 10 6 197.18 43.9
-18 10 6 293.57 40.7
10 8 6 215.28 34.8
8 -18 6 252.57 40.1
8 -18 6 196.68 35.8
-7 17 -6 -10.1 20.3
17 -10 -6 15.9 14.1
-7 17 -6 45.4 19.5
7 -17 6 8 20.5
-17 10 6 24.1 18
-17 10 6 2.2 26.4
7 -17 6 8.7 15.1
10 7 6 -6 18.7
-10 -6 -6 135.79 56.59
-6 16 -6 304.37 43.5
16 -10 -6 313.57 29.2
-6 16 -6 312.07 36.1
-16 10 6 354.76 37.6
6 -16 6 294.67 31.3
6 -16 6 308.77 41.9
-16 10 6 223.08 47.2
-10 -5 -6 31.6 25.4
-5 15 -6 50.09 21
15 -10 -6 64.09 16
-5 15 -6 13.4 20
-15 10 6 34.7 19.9
-15 10 6 23.6 26
5 -15 6 56.79 24.2
5 -15 6 30.4 15.5
14 -10 -6 262.17 26.7
-4 14 -6 270.27 57.19
-4 14 -6 254.67 38.2
-10 -4 -6 280.17 43.6
-14 10 6 300.57 47.1
-14 10 6 298.67 33.8
4 -14 6 343.87 48.6
4 -14 6 334.87 33.5
-10 -3 -6 27.8 27.3
-3 13 -6 72.49 33.9
-3 13 -6 94.29 27.1
13 -10 -6 90.89 17
-13 10 6 142.79 25.6
3 -13 6 132.29 33.6
3 -13 6 126.19 24.3
-10 -2 -6 349.57 56.19
-2 12 -6 280.47 39
-2 12 -6 370.86 38.6
2 -12 6 420.26 49
10 2 6 299.77 44.7
-12 10 6 363.46 56.19
10 2 6 360.66 37.6
-12 10 6 388.26 36.4
2 -12 6 370.56 35.5
-1 11 -6 62.39 23.2
-10 -1 -6 38.7 25.4
-1 11 -6 43.5 20.1
10 1 6 10.9 15.3
10 1 6 17.6 18.2
-11 10 6 7.1 23.1
1 -11 6 68.39 19.3
-11 10 6 61.19 19.1
1 -11 6 35.1 28.5
0 10 -6 417.16 42.3
0 10 -6 445.56 41.4
-10 0 -6 334.87 51.29
-10 10 6 377.46 51.19
0 -10 6 356.46 49.2
-10 10 6 371.96 35.2
10 0 6 382.26 46.8
0 -10 6 366.86 35.6
10 0 6 353.76 36.9
1 9 -6 90.59 22.5
1 9 -6 57.09 22.5
-10 1 -6 61.19 31.3
-1 -9 6 60.39 18.9
-9 10 6 114.59 35.4
10 -1 6 77.69 25.9
10 -1 6 91.09 22.3
-9 10 6 110.79 21.2
-1 -9 6 38.4 28.2
2 8 -6 350.86 40.5
-10 2 -6 409.96 50.89
2 8 -6 442.06 40.3
10 -2 6 318.57 43.7
-8 10 6 416.26 35.8
10 -2 6 413.76 38.5
-2 -8 6 403.96 35.7
-2 -8 6 378.66 49.8
-8 10 6 459.05 52.99
-10 3 -6 52.59 24.3
7 -10 -6 46.7 20.8
3 7 -6 88.99 22.5
-7 10 6 54.39 16.2
-3 -7 6 64.89 18.7
-3 -7 6 40.6 26.1
10 -3 6 51.19 16.8
-7 10 6 56.69 27.8
10 -3 6 53.39 23.1
4 6 -6 547.95 44.9
-10 4 -6 437.06 53.59
6 -10 -6 481.15 46.4
-4 -6 6 511.75 55.79
-4 -6 6 379.36 37.7
-6 10 6 500.45 54.29
-6 10 6 521.45 39.8
10 -4 6 473.65 50.79
10 -4 6 447.96 39.8
-10 5 -6 80.69 25.3
5 -10 -6 44.6 23.2
5 5 -6 102.79 24.3
10 -5 6 72.49 24.8
-5 -5 6 66.49 19
-5 10 6 124.79 30.9
-5 10 6 76.99 19.6
10 -5 6 71.99 19.4
-5 -5 6 83.69 31
6 4 -6 534.75 44.3
-10 6 -6 435.56 53.59
4 -10 -6 544.15 50.09
-4 10 6 466.85 40.4
-4 10 6 511.15 55.79
-6 -4 6 497.95 41
-6 -4 6 576.94 56.39
10 -6 6 478.55 50.59
10 -6 6 447.76 40
-10 7 -6 28.9 25.6
3 -10 -6 68.49 24
7 3 -6 99.39 25.3
10 -7 6 83.69 29.7
-3 10 6 153.18 35.6
-3 10 6 110.89 20.4
10 -7 6 91.49 20.9
-7 -3 6 66.59 25.8
-7 -3 6 42.5 17.6
8 2 -6 424.26 40.2
-10 8 -6 359.76 49.7
2 -10 -6 391.26 46.3
10 -8 6 350.26 44.5
10 -8 6 454.25 38.7
-8 -2 6 375.16 49.1
-2 10 6 402.96 34.2
-8 -2 6 346.47 35.8
-2 10 6 388.46 54.29
9 1 -6 105.79 25.2
1 -10 -6 79.19 30.2
-10 9 -6 48.5 24.3
10 -9 6 99.39 22.3
-9 -1 6 89.29 30.8
10 -9 6 99.09 30.1
-1 10 6 64.19 30.4
-1 10 6 96.19 18
-9 -1 6 58.19 21.1
10 0 -6 404.06 38.8
0 -10 -6 337.67 47
-10 10 -6 375.46 56.09
0 10 6 335.47 49.4
-10 0 6 439.16 43.4
10 -10 6 425.56 37.2
10 -10 6 375.86 45.7
-10 0 6 324.97 48.9
0 10 6 412.66 33.6
-1 -10 -6 44.4 27.2
-10 11 -6 20.4 21.7
11 -1 -6 122.39 25.2
-11 1 6 41.6 17.7
10 -11 6 42.9 21.5
10 -11 6 46.7 17.5
-11 1 6 32.4 24
1 10 6 -0.7 19.9
1 10 6 44.1 17.4
12 -2 -6 414.56 38.2
-10 12 -6 353.46 47.9
-2 -10 -6 412.36 48.8
-12 2 6 277.97 66.59
2 10 6 364.36 33
10 -12 6 325.17 34.2
2 10 6 358.86 46
-12 2 6 333.67 36.7
10 -12 6 351.46 49.99
-10 13 -6 48.1 33
13 -3 -6 81.19 22.3
-10 13 -6 82.09 32
-3 -10 -6 65.79 30
10 -13 6 50.39 24.5
3 10 6 109.19 27.6
-13 3 6 79.89 23.2
-13 3 6 52.39 28.5
10 -13 6 91.79 21.2
-10 14 -6 351.26 52.59
-4 -10 -6 309.07 47.9
14 -4 -6 294.97 35
-10 14 -6 181.78 43.4
10 -14 6 300.77 43.7
10 -14 6 328.97 33.1
4 10 6 305.57 47
-14 4 6 267.27 34.2
-14 4 6 338.47 49.8
15 -5 -6 33.8 19.7
-10 15 -6 55.19 20.4
-5 -10 -6 36.5 29.5
-10 15 -6 60.29 27.4
10 -15 6 26.3 15.3
5 10 6 35.9 24.3
-15 5 6 51.99 20.3
10 -15 6 17.6 19.9
-15 5 6 48 29.4
-10 16 -6 301.97 36.1
-10 16 -6 316.07 49.5
16 -6 -6 315.67 33.2
-6 -10 -6 270.77 48.3
-16 6 6 368.36 40
10 -16 6 341.97 49
10 -16 6 280.47 31.7
6 10 6 170.58 36.4
-16 6 6 220.38 45.2
-7 -10 -6 63.39 30.7
17 -7 -6 28.7 17.4
-10 17 -6 -18.2 18.1
-10 17 -6 -13.4 15.1
-17 7 6 62.29 35
10 -17 6 6.6 14.2
-17 7 6 27.5 27.2
-10 18 -6 199.18 31.5
18 -8 -6 189.88 28.7
-8 -10 -6 106.49 38.3
-10 18 -6 258.27 41.4
-18 8 6 314.57 55.09
-18 8 6 224.68 42
10 -18 6 262.07 36.2
-10 19 -6 -13 22.2
19 -9 -6 17.6 16.4
-10 19 -6 0.7 16.5
-19 9 6 -3.6 19
9 10 6 -22.6 16.4
10 -19 6 26.4 18.2
-19 9 6 -35.9 19.2
-10 -10 -6 117.39 57.69
20 -10 -6 144.39 26.2
-10 20 -6 151.18 31.8
-10 20 -6 119.99 31.7
10 -20 6 163.68 23.2
-20 10 6 165.48 35.4
-20 10 6 187.68 46.2
10 10 6 77.89 26.3
10 -20 6 146.99 23.9
-11 -10 -6 7.3 27.2
-10 21 -6 41.8 25.1
21 -11 -6 4.5 15.2
-10 21 -6 -25.6 17.3
-21 11 6 45.2 34.6
10 -21 6 -15.9 17.1
11 10 6 -5.1 18.7
-21 11 6 45.7 25.8
10 -21 6 5.3 12.9
20 -11 -6 77.89 19
-9 20 -6 105.99 29
-9 20 -6 74.69 23.9
-11 -9 -6 40.2 32
9 -20 6 90.89 20.9
-20 11 6 114.39 37.9
11 9 6 67.89 24.9
9 -20 6 98.29 20
-20 11 6 51.89 27.5
-8 19 -6 15 23.1
-11 -8 -6 39.2 53.89
-8 19 -6 7.7 16.6
19 -11 -6 11.6 13.8
11 8 6 15.8 18.4
8 -19 6 2.9 16.6
-19 11 6 8.5 29.4
18 -11 -6 99.09 19.1
-7 18 -6 145.99 30.1
-7 18 -6 92.59 24.6
11 7 6 83.29 25.6
-18 11 6 79.19 33.1
7 -18 6 124.19 30.8
7 -18 6 146.59 28.2
-18 11 6 76.39 25.7
17 -11 -6 4.6 12.4
-6 17 -6 20.5 20.9
-6 17 -6 20.2 18.8
-17 11 6 -9.3 16.7
11 6 6 17.3 19.4
-17 11 6 -34 22.5
6 -17 6 14.8 21.9
6 -17 6 18.3 15.5
-5 16 -6 125.39 27.6
16 -11 -6 111.99 18.1
-5 16 -6 155.38 29
5 -16 6 60.49 27.7
-16 11 6 104.89 25.2
5 -16 6 117.99 22.8
-16 11 6 118.89 39.4
11 5 6 111.29 28.2
-4 15 -6 50.49 22.8
15 -11 -6 10.4 12.4
-4 15 -6 26.9 18.8
-15 11 6 13.2 16.7
-15 11 6 11 26
4 -15 6 37.7 16.2
4 -15 6 -17 20.2
-3 14 -6 46.6 21.3
-3 14 -6 47.7 21.9
-11 -3 -6 38.2 23.5
-14 11 6 100.39 33
3 -14 6 66.89 19.8
-14 11 6 56.79 19.3
3 -14 6 75.19 30.1
-11 -2 -6 89.39 31.1
-2 13 -6 1.3 17.1
2 -13 6 24.7 16.1
2 -13 6 31.2 23.8
-13 11 6 10 38.4
-13 11 6 12.6 15.2
-1 12 -6 79.69 34.6
-1 12 -6 73.59 22.9
-11 -1 -6 67.39 33.4
1 -12 6 69.39 30.6
1 -12 6 101.59 20.9
-12 11 6 59.99 28.4
-12 11 6 97.19 21.9
11 1 6 42.7 18.7
0 11 -6 25 21.2
-11 0 -6 45.7 29.1
0 11 -6 15.2 17.2
-11 11 6 -12.8 23.5
0 -11 6 23.9 14.4
-11 11 6 -0.9 14.1
0 -11 6 51.09 29.9
-11 1 -6 87.29 37.9
1 10 -6 98.09 24.4
-10 11 6 37.9 24.2
-1 -10 6 100.29 32.2
-1 -10 6 65.89 19.2
-10 11 6 34.6 17
2 9 -6 42.5 21.1
-9 11 6 30.5 15.9
-9 11 6 -25.5 18.1
-2 -9 6 38 27.8
11 -2 6 -11.3 19.4
-2 -9 6 47.8 16.5
-11 3 -6 42.9 27.9
3 8 -6 98.89 25
-3 -8 6 79.19 18.8
-8 11 6 90.09 19.8
11 -3 6 90.49 25.4
-8 11 6 56.39 27.1
11 -3 6 79.29 21.4
-3 -8 6 5.8 22.3
-11 4 -6 64.89 30.3
4 7 -6 12.5 18
-4 -7 6 44.6 16.2
11 -4 6 49.99 20.5
-7 11 6 72.79 30
-4 -7 6 45.5 27.8
-7 11 6 55.89 17.8
11 -4 6 52.69 25.9
-11 5 -6 34 27.4
6 -11 -6 36 21.3
5 6 -6 95.29 23.5
11 -5 6 73.79 20.1
-6 11 6 56.39 26.8
11 -5 6 30.8 20.3
-6 11 6 37.2 16.4
-5 -6 6 48.3 28.1
-5 -6 6 18.1 16.6
6 5 -6 59.19 20.3
5 -11 -6 29.2 21.6
-11 6 -6 78.39 32.1
11 -6 6 52.99 18.7
11 -6 6 27.5 22.3
-5 11 6 54.39 28.7
-6 -5 6 37.9 16.1
-6 -5 6 70.19 27.6
-5 11 6 56.19 19.5
4 -11 -6 5.9 19.8
-11 7 -6 24.5 24.3
7 4 -6 31.4 19.6
-7 -4 6 76.29 21
-4 11 6 32.1 29.2
11 -7 6 44.1 18.1
-4 11 6 46.4 17.7
11 -7 6 36 24.6
-7 -4 6 71.09 28
-11 8 -6 55.49 27.7
8 3 -6 86.59 22.8
3 -11 -6 52.19 24.3
-8 -3 6 61.09 28.1
-3 11 6 71.29 31.6
11 -8 6 70.29 19.9
-8 -3 6 38.7 16.1
11 -8 6 81.39 28.3
-3 11 6 88.89 18.6
9 2 -6 13 18.1
-11 9 -6 -17.6 21.9
2 -11 -6 49.8 22.9
-9 -2 6 6.3 23
11 -9 6 8.9 15.2
-2 11 6 28.6 25.6
-2 11 6 23.9 14.1
11 -9 6 33 23.4
1 -11 -6 85.49 27.5
10 1 -6 60.79 21.2
-11 10 -6 61.39 29.9
-1 11 6 50.79 28.6
-1 11 6 44.4 15.9
11 -10 6 20.6 16.9
11 -10 6 36 24.7
-10 -1 6 18.5 23.9
0 -11 -6 12.9 21.8
-11 11 -6 37.3 22.8
11 0 -6 13.3 17.7
11 -11 6 34.1 21.5
11 -11 6 -4.5 13.7
-11 0 6 1.4 23.2
0 11 6 17 15.9
0 11 6 14.5 21.8
12 -1 -6 75.89 23
-1 -11 -6 98.99 30.4
-11 12 -6 58.89 31
1 11 6 90.49 19.7
11 -12 6 74.89 27.9
11 -12 6 95.99 22.1
1 11 6 33.7 23
-2 -11 -6 31.4 25.2
-11 13 -6 7.7 22.9
13 -2 -6 39 18.7
11 -13 6 8.3 15
-13 2 6 50.09 28
-13 2 6 23.1 17.4
2 11 6 42.8 24
11 -13 6 41.8 22.1
-3 -11 -6 65.49 28.1
-11 14 -6 45.6 28.9
14 -3 -6 90.79 22.4
-14 3 6 43 19.6
11 -14 6 50.39 18.7
-14 3 6 35.2 26.9
3 11 6 58.19 25.6
-11 15 -6 20.2 19
15 -4 -6 -1.1 16.2
-11 15 -6 8.7 25.1
-4 -11 -6 15.5 26.3
-15 4 6 -33.5 19
-15 4 6 8.2 17.8
4 11 6 42.2 26
11 -15 6 36.7 17.7
-11 16 -6 67.29 22.2
-5 -11 -6 82.19 31.9
16 -5 -6 101.79 24.6
-11 16 -6 61.79 28.5
11 -16 6 91.39 20.7
-16 5 6 118.39 31.8
5 11 6 115.59 33.2
-16 5 6 111.89 37.7
-6 -11 -6 -0.4 23.2
-11 17 -6 27.9 18.9
-11 17 -6 30.7 27.7
17 -6 -6 8.1 17.3
-17 6 6 7.5 25.1
11 -17 6 8.1 15
-11 18 -6 121.49 31.9
-11 18 -6 86.29 23.5
18 -7 -6 128.19 25.7
-7 -11 -6 140.89 36.2
-18 7 6 47.3 30.4
11 -18 6 126.99 26.3
11 -18 6 121.99 22.4
-18 7 6 102.69 28.1
-11 19 -6 -16.9 24.2
-11 19 -6 -26.9 14.7
19 -8 -6 -22.7 13.9
-19 8 6 2.8 26.9
-19 8 6 14.1 20.1
8 11 6 -0.2 20
11 -19 6 10.7 16.5
20 -9 -6 66.59 21.7
-11 20 -6 30.1 27.3
-11 20 -6 81.09 22.9
-20 9 6 48.8 29.5
11 -20 6 60.99 19.8
-20 9 6 16.5 23.2
11 -20 6 96.39 19.5
9 11 6 62.79 24.3
-11 21 -6 7.7 24.1
-10 -11 -6 22.3 35.7
21 -10 -6 2.8 16.4
-11 21 -6 -19.5 14.9
-21 10 6 -15.6 37.2
11 -21 6 -18.2 15.8
11 -21 6 5.5 12.9
-21 10 6 -5.7 22.4
10 11 6 -4.7 17.9
-11 -11 -6 8 32.4
22 -11 -6 19.1 17.2
-11 22 -6 43 24.7
-11 22 -6 41.5 22.3
11 -22 6 71.79 13.3
11 11 6 2.3 19.6
-22 11 6 89.69 36.7
11 -22 6 47 15.4
23 -12 -6 12.7 17.8
-12 -11 -6 88.09 39.9
-11 23 -6 -11.5 20.7
-11 23 -6 42.5 22.6
12 11 6 24 20.7
-23 12 6 15.7 34.9
-12 -10 -6 27.2 31.9
-10 22 -6 133.29 29.4
22 -12 -6 87.29 20.6
-10 22 -6 54.79 25.5
12 10 6 73.69 25.7
10 -22 6 98.69 14.5
-22 12 6 122.79 35.9
10 -22 6 123.79 14.9
21 -12 -6 12 14.5
-12 -9 -6 43 29.8
-9 21 -6 3.7 20
-9 21 -6 -0.7 18.2
-21 12 6 16 22
9 -21 6 14.3 18.5
-21 12 6 -2.4 26.2
9 -21 6 26.6 14.5
12 9 6 7.6 17.9
20 -12 -6 216.88 25.1
-8 20 -6 124.49 29
-8 20 -6 170.58 32.3
-12 -8 -6 118.09 36.2
-20 12 6 257.77 38.7
8 -20 6 177.88 24.5
12 8 6 158.78 33
-20 12 6 93.09 36.5
-7 19 -6 11.3 18.7
-7 19 -6 10.1 19.1
-12 -7 -6 27.7 29.9
19 -12 -6 19.2 14.2
12 7 6 13.4 18.5
-19 12 6 39.2 31.2
7 -19 6 21.5 21.8
-6 18 -6 201.48 33.1
18 -12 -6 203.28 24.5
-12 -6 -6 136.99 66.99
-6 18 -6 273.47 38.8
-18 12 6 157.18 44.3
6 -18 6 251.57 39.9
12 6 6 212.98 36.7
-18 12 6 283.77 40.1
6 -18 6 266.47 30
-5 17 -6 29.2 19.2
-5 17 -6 69.19 24.1
-12 -5 -6 -8 35.6
17 -12 -6 38.3 14.1
12 5 6 23.3 21.3
5 -17 6 6.4 15.6
-17 12 6 19.1 18.5
-17 12 6 60.09 30
5 -17 6 57.49 25.6
-4 16 -6 288.27 36.1
-4 16 -6 298.07 37.7
4 -16 6 298.07 32.4
4 -16 6 296.07 42.9
12 4 6 314.87 39.9
-16 12 6 264.77 35.2
-16 12 6 250.37 48.7
-3 15 -6 40.5 22.1
-3 15 -6 69.19 21.4
-15 12 6 98.39 22.7
3 -15 6 81.39 20.3
3 -15 6 49.5 26.7
-15 12 6 16.3 30
12 3 6 96.19 27.7
-2 14 -6 272.27 36.5
-2 14 -6 310.77 37.2
-14 12 6 290.47 51.39
2 -14 6 266.37 41.5
-14 12 6 315.47 34.1
2 -14 6 277.47 30.8
12 2 6 267.07 39.8
-1 13 -6 27.8 19.9
-12 -1 -6 -10.8 18.6
-13 12 6 -20.7 35.9
1 -13 6 8.3 25.9
-13 12 6 34 17.7
1 -13 6 29.4 16.5
0 12 -6 427.56 66.19
-12 0 -6 435.66 54.09
0 -12 6 314.97 48.7
0 -12 6 297.97 32.7
-12 12 6 266.37 44.3
-12 12 6 326.57 33.5
-11 12 6 95.09 20.1
-1 -11 6 75.19 29.8
-11 12 6 54.39 27.8
-1 -11 6 51.09 18.9
2 10 -6 368.36 59.29
-2 -10 6 372.96 35.4
-10 12 6 339.47 50.69
-2 -10 6 349.77 48.2
-10 12 6 369.36 34.2
3 9 -6 82.89 26.7
-3 -9 6 60.79 28.6
-3 -9 6 38.9 18.2
-9 12 6 69.59 17.9
-9 12 6 56.99 28.8
4 8 -6 421.26 45.2
-12 4 -6 424.36 69.79
-8 12 6 432.56 36.4
-4 -8 6 394.26 38.1
-4 -8 6 426.06 51.69
12 -4 6 467.15 41
-8 12 6 419.26 54.89
-12 5 -6 107.39 35.8
5 7 -6 172.58 30
-7 12 6 78.39 20.6
12 -5 6 123.99 25.5
-7 12 6 161.28 37.8
-5 -7 6 65.49 20.7
-5 -7 6 139.19 32.3
6 6 -6 537.85 47.7
6 -12 -6 424.16 46.2
-12 6 -6 435.66 55.79
-6 -6 6 462.85 41.5
-6 12 6 544.35 55.89
-6 12 6 543.25 51.69
-6 -6 6 531.75 56.19
12 -6 6 505.75 43.3
-12 7 -6 98.69 28.8
5 -12 -6 122.39 29.5
7 5 -6 85.29 23.8
-5 12 6 81.89 30.8
-7 -5 6 123.59 23.5
-5 12 6 101.29 27.5
-7 -5 6 112.89 35.4
12 -7 6 112.09 24
-12 8 -6 393.06 53.29
4 -12 -6 479.25 47.9
8 4 -6 546.75 46.6
-8 -4 6 407.56 39.2
-8 -4 6 364.96 49.9
12 -8 6 418.16 39.9
-4 12 6 461.55 52.69
-4 12 6 438.66 38.6
9 3 -6 78.39 25.5
3 -12 -6 51.79 23.6
-12 9 -6 56.49 26.3
-9 -3 6 54.69 18
12 -9 6 68.29 20.1
-3 12 6 58.59 15.7
-9 -3 6 46.8 29
-3 12 6 110.49 32.3
10 2 -6 361.26 40.6
-12 10 -6 270.87 41.6
2 -12 -6 352.76 44.3
-10 -2 6 358.66 54.89
-2 12 6 329.47 30.9
-2 12 6 367.76 54.29
12 -10 6 382.96 36.2
1 -12 -6 38.1 24
11 1 -6 67.19 22.3
-12 11 -6 52.59 30.1
12 -11 6 124.89 23.9
-1 12 6 50.79 28.5
-11 -1 6 33.2 26.1
-1 12 6 52.19 16.6
12 0 -6 347.97 42.3
0 -12 -6 300.37 43.3
-12 12 -6 278.97 44.8
0 12 6 229.28 28.8
12 -12 6 312.07 32.5
-12 0 6 152.18 38
0 12 6 344.17 51.59
13 -1 -6 88.39 28.4
-12 13 -6 53.49 31
-1 -12 -6 48 26.8
12 -13 6 49.3 19.2
1 12 6 42.7 27.9
1 12 6 58.49 17.2
-13 1 6 29.6 26.8
14 -2 -6 200.08 37.6
-2 -12 -6 247.08 45.3
-12 14 -6 194.48 39.2
2 12 6 246.68 46.2
-14 2 6 302.97 37.1
-14 2 6 283.07 50.89
12 -14 6 317.67 32.6
-12 15 -6 37 25.7
15 -3 -6 99.89 43.4
-3 -12 -6 36.8 27
3 12 6 54.19 25.7
-15 3 6 27.1 19.9
-15 3 6 -13.8 24.5
12 -15 6 60.79 19
-4 -12 -6 241.38 46.7
16 -4 -6 230.68 55.99
-12 16 -6 286.27 48.5
-16 4 6 347.87 53.39
12 -16 6 343.07 38.4
12 -16 6 349.37 32.5
4 12 6 205.48 39.3
-12 17 -6 60.89 27.5
-5 -12 -6 6.8 25.7
17 -5 -6 32.4 38.2
-17 5 6 3.9 28.1
12 -17 6 8.8 16.5
5 12 6 45 25.5
12 -17 6 37.6 19.9
-17 5 6 56.79 20.7
-6 -12 -6 212.88 44.3
-12 18 -6 195.58 41.5
18 -6 -6 201.28 52.79
-12 18 -6 258.37 36
-18 6 6 157.18 41.1
12 -18 6 236.88 28.7
-18 6 6 248.68 38.7
12 -18 6 249.78 33
-7 -12 -6 27.8 29.3
-12 19 -6 32.3 19.3
-12 19 -6 12.8 25.9
-19 7 6 48.1 23.2
-19 7 6 -8.7 23.1
12 -19 6 21.9 18.3
-12 20 -6 171.08 39.4
-12 20 -6 93.99 25.9
20 -8 -6 129.29 42.6
12 -20 6 181.18 25.8
12 -20 6 206.88 25.9
-20 8 6 152.48 34.6
8 12 6 127.19 29.8
-20 8 6 138.49 39.4
21 -9 -6 -2.4 19.3
-12 21 -6 4.6 19.8
-9 -12 -6 -14.7 34.5
-12 21 -6 40.3 25.7
12 -21 6 34.7 15.1
-21 9 6 2.3 27.4
12 -21 6 8.2 17.7
9 12 6 15.4 19.9
-10 -12 -6 99.99 35.4
-12 22 -6 79.09 26.6
-12 22 -6 153.18 34.5
22 -10 -6 93.09 24.5
12 -22 6 99.19 17.7
12 -22 6 110.49 16.6
-22 10 6 122.79 38.4
10 12 6 108.19 28.4
-12 23 -6 29.8 21.6
-11 -12 -6 -38.5 28
-12 23 -6 -40 19.8
23 -11 -6 -6.4 17.7
-23 11 6 -27 30.2
11 12 6 -16.2 18.5
-12 24 -6 75.09 27.4
24 -12 -6 69.69 21.7
-12 24 -6 49.6 27.5
-12 -12 -6 49.5 40.5
12 12 6 71.99 27.9
-24 12 6 44.8 31.4
24 -13 -6 25.5 16.6
-11 24 -6 49 27.2
-24 13 6 44.8 31.3
13 11 6 82.69 40
-10 23 -6 21.6 19.2
23 -13 -6 2.9 14.2
-10 23 -6 5.7 34.4
-13 -10 -6 4 35.4
-23 13 6 1.4 24.7
13 10 6 17.3 21.1
-13 -9 -6 69.99 32.6
-9 22 -6 43 22.3
22 -13 -6 30.5 14.9
-9 22 -6 62.99 30.3
-22 13 6 8.9 27.8
9 -22 6 67.99 12.9
13 9 6 70.89 26.8
9 -22 6 39.5 11.8
-8 21 -6 14.7 21.3
21 -13 -6 0.4 12.5
-13 -8 -6 11.4 30.4
-8 21 -6 12.7 21.4
8 -21 6 1.3 13.4
13 8 6 24.5 22
8 -21 6 -4.5 16.6
-21 13 6 60.19 25.3
-21 13 6 17.1 28
20 -13 -6 67.29 15.4
-7 20 -6 50.99 25.2
-7 20 -6 57.69 23
-13 -7 -6 -5.1 29
-20 13 6 121.19 29.5
7 -20 6 70.39 18.2
-20 13 6 83.19 33.5
13 7 6 56.39 25.8
-13 -6 -6 14.2 24.4
19 -13 -6 4.3 12.4
-6 19 -6 -1.5 17.9
-6 19 -6 -9.6 18.5
6 -19 6 17.3 19.2
13 6 6 -2.5 18.5
-19 13 6 -22.9 19.8
-19 13 6 -8.1 23.1
-5 18 -6 49.9 22
-5 18 -6 93.49 24.7
-13 -5 -6 65.59 33.3
-18 13 6 57.69 33.9
-18 13 6 43.8 23.4
5 -18 6 81.39 27.5
5 -18 6 77.29 20.4
13 5 6 54.99 24.6
-13 -4 -6 -24.8 28.4
-4 17 -6 6.6 18.5
13 4 6 21.3 20
4 -17 6 34.6 18.3
-17 13 6 1.4 18.3
4 -17 6 16.1 21.3
-17 13 6 -8.5 24.1
-13 -3 -6 67.79 55.89
-3 16 -6 97.99 25
3 -16 6 78.09 30.1
-16 13 6 34.8 29.8
3 -16 6 84.49 19.8
-16 13 6 75.69 22.4
13 3 6 82.29 26.4
-2 15 -6 27.1 18.1
13 2 6 15.3 19.8
-15 13 6 7.9 16.7
2 -15 6 25.9 25.3
-15 13 6 11.6 26.1
2 -15 6 -2.2 14.2
-1 14 -6 40.7 20.8
-14 13 6 138.09 25.9
1 -14 6 68.29 19.2
-14 13 6 70.99 29.6
13 1 6 52.39 23.9
1 -14 6 29.1 27.2
0 13 -6 -2.1 16.3
-13 13 6 10.1 15.1
13 0 6 4.3 19.1
0 -13 6 -18.7 14.3
0 -13 6 1.2 25.2
1 12 -6 39.2 20.5
-12 13 6 24.2 17.5
-12 13 6 49.7 28
13 -1 6 59.69 23.9
-1 -12 6 90.39 30
-1 -12 6 72.89 20.7
2 11 -6 10 18.4
-11 13 6 4.7 26.5
13 -2 6 54.39 21.5
-2 -11 6 -6.9 15
-11 13 6 26.1 16.2
-2 -11 6 20.4 25.5
3 10 -6 118.99 28.5
-3 -10 6 77.59 19.7
-3 -10 6 109.29 35.1
-10 13 6 77.99 19.7
-10 13 6 77.09 32
4 9 -6 6.3 21.3
-9 13 6 11.7 24.6
13 -4 6 64.29 20.9
-4 -9 6 22.5 25.5
-9 13 6 24.6 14.8
-4 -9 6 32.3 16.3
-13 5 -6 26.7 24
5 8 -6 97.89 30.6
-8 13 6 18 22.3
-5 -8 6 33 27.1
13 -5 6 48.7 19.1
-8 13 6 41.8 17.8
-5 -8 6 43.1 16.9
6 7 -6 54.99 28.1
-13 6 -6 26.9 28.5
-6 -7 6 11.1 25.8
13 -6 6 10.7 15.5
-7 13 6 26 16.9
-6 -7 6 19.4 15.8
-7 13 6 8.4 26
7 6 -6 13 29.6
-13 7 -6 32.5 24.5
6 -13 -6 59.99 21.9
13 -7 6 44.2 18.9
-6 13 6 79.09 27.6
-7 -6 6 45.4 17.3
-7 -6 6 11.2 22.9
-6 13 6 84.89 29.1
5 -13 -6 68.99 25.1
-13 8 -6 38.3 27.8
8 5 -6 61.29 24.9
-8 -5 6 81.89 21.3
-5 13 6 16.1 23.6
-5 13 6 74.49 23.3
13 -8 6 60.99 20.9
-8 -5 6 75.89 29.2
9 4 -6 0.6 17.8
-13 9 -6 -31.1 19.8
4 -13 -6 37.7 24.3
-9 -4 6 41.3 24.7
-4 13 6 35.9 15.1
-4 13 6 -17.4 20.1
13 -9 6 37.9 18.9
-9 -4 6 12.7 14.4
-13 10 -6 108.09 35.5
3 -13 -6 89.19 29.3
10 3 -6 91.09 29.7
-10 -3 6 97.69 30
-10 -3 6 80.89 22.5
13 -10 6 47.1 19.1
-3 13 6 109.79 30.7
-3 13 6 83.09 18.5
11 2 -6 -16.4 17.4
2 -13 -6 -12.2 19.6
-13 11 -6 35.2 24
-2 13 6 4.9 13.2
-11 -2 6 40.1 34.1
13 -11 6 18.3 16.9
-2 13 6 18.3 21.7
12 1 -6 83.19 24.7
1 -13 -6 47.6 28.2
-13 12 -6 19.7 24.3
13 -12 6 77.09 20.7
-1 13 6 35.3 24.3
-12 -1 6 29.8 22.7
-1 13 6 40.5 16.7
0 -13 -6 4.8 24
-13 13 -6 19.2 25.6
13 0 -6 -2.5 17
13 -13 6 -12.8 14.4
0 13 6 28.8 22
-13 0 6 17.3 24.2
0 13 6 5.8 14.2
-1 -13 -6 45.3 26.5
14 -1 -6 79.09 24.4
-13 14 -6 42.2 28.9
13 -14 6 46.7 22.7
1 13 6 52.99 24.9
-14 1 6 70.99 32
13 -14 6 93.09 21.8
-13 15 -6 12 22.3
-2 -13 -6 27.7 26.8
15 -2 -6 6 17.2
13 -15 6 -19.9 14.6
13 -15 6 -3.4 18.5
-15 2 6 41.5 29.4
2 13 6 22 20.4
-3 -13 -6 44.4 26.4
16 -3 -6 42.3 20.7
-13 16 -6 77.09 30.7
3 13 6 102.99 30.7
13 -16 6 36.8 18
-16 3 6 99.69 26.1
13 -16 6 82.49 24.5
-16 3 6 76.29 31.2
-13 17 -6 17.6 28.2
17 -4 -6 31.3 19.5
-4 -13 -6 1.1 24.2
-17 4 6 -15.1 22.1
13 -17 6 0.6 15.1
4 13 6 -13.4 16.6
13 -17 6 -19.4 16
-17 4 6 15.9 18.3
-5 -13 -6 41.7 30.5
18 -5 -6 76.09 24.2
-13 18 -6 55.89 29
13 -18 6 45.8 18.3
-18 5 6 81.09 38.5
-18 5 6 69.09 26.3
13 -18 6 75.49 22.5
-13 19 -6 24.6 28.8
19 -6 -6 40.7 19.4
-6 -13 -6 80.59 29.8
-19 6 6 -24.6 20.4
-19 6 6 -20 21.8
13 -19 6 -18 15.6
-13 20 -6 111.29 35
20 -7 -6 126.39 25.9
-13 20 -6 79.69 24.2
13 -20 6 60.99 18.5
13 -20 6 62.69 19.6
7 13 6 65.89 26.1
-20 7 6 41.9 30.3
-13 21 -6 10.9 19.2
-13 21 -6 4.2 23.7
21 -8 -6 31.3 18.5
-21 8 6 6.6 25.9
13 -21 6 10.4 13.8
13 -21 6 10.4 14.7
8 13 6 -7.9 18.1
-13 22 -6 47.5 23
-13 22 -6 28.7 27.1
22 -9 -6 90.19 24.2
-9 -13 -6 46 44
13 -22 6 57.39 15.3
13 -22 6 74.59 13.9
9 13 6 47 24.7
-22 9 6 14 29.6
-13 23 -6 -5.3 21.9
23 -10 -6 -7.9 19.5
-10 -13 -6 27.5 31.5
-13 23 -6 37 22
-23 10 6 -6.5 52.59
10 13 6 -2.7 19.4
-13 24 -6 -16.9 21.2
-11 -13 -6 -5.6 30.1
-13 24 -6 26.4 22
-24 11 6 26.5 31.7
11 13 6 26.1 23.6
24 -14 -6 97.59 19.7
-10 24 -6 114.19 27.5
-24 14 6 114.09 37.4
23 -14 -6 0.6 13.2
-9 23 -6 50.79 23.9
-23 14 6 -19.3 28.9
14 9 6 25.9 21.8
-14 -8 -6 73.29 68.19
-8 22 -6 131.29 31.3
22 -14 -6 101.29 18.7
14 8 6 120.59 31.2
-22 14 6 33.8 35
-22 14 6 86.09 35.5
8 -22 6 111.49 15.2
8 -22 6 135.69 16.7
-7 21 -6 -5.3 17.9
-14 -7 -6 1.6 29.4
-21 14 6 8.9 28
14 7 6 -0.9 18.6
7 -21 6 22.2 14.2
-21 14 6 -11.1 22.6
-6 20 -6 175.78 31.5
-14 -6 -6 116.69 37.6
6 -20 6 146.89 23.6
14 6 6 161.58 32.9
-20 14 6 90.19 47.6
6 -20 6 83.39 26.5
-20 14 6 124.19 39.7
-5 19 -6 31.8 20.7
-14 -5 -6 62.99 37.3
5 -19 6 24.8 21.2
14 5 6 24.4 20.4
-19 14 6 68.69 23.7
-19 14 6 3.4 28.2
-4 18 -6 184.68 33.4
-14 -4 -6 118.39 41.5
-18 14 6 232.58 35.8
14 4 6 235.48 36.5
-18 14 6 191.28 46.2
4 -18 6 231.68 28.9
4 -18 6 251.27 39
-3 17 -6 35.9 19.7
-14 -3 -6 28.3 27.1
-17 14 6 63.69 34.2
14 3 6 56.69 24.3
3 -17 6 59.19 27.9
-17 14 6 84.59 24.7
3 -17 6 74.09 20.3
-2 16 -6 266.87 38.8
-14 -2 -6 203.68 51.29
-16 14 6 300.47 49.5
-16 14 6 293.57 34.7
2 -16 6 264.47 32.2
2 -16 6 206.88 39.6
14 2 6 205.18 36.9
-1 15 -6 49.6 22.1
-14 -1 -6 24.7 50.49
-15 14 6 35.9 28.7
14 1 6 22.9 20.2
1 -15 6 46.3 19.9
-15 14 6 49 18.2
1 -15 6 43 29.4
0 14 -6 263.47 38.8
-14 0 -6 146.29 44.5
0 -14 6 292.87 43.6
0 -14 6 250.37 29.9
14 0 6 238.98 37.8
-14 14 6 253.07 33.9
-14 14 6 239.88 48.8
1 13 -6 96.19 24.8
14 -1 6 48.9 22.6
-1 -13 6 118.29 33.2
-1 -13 6 78.29 20.3
-13 14 6 101.09 21.3
2 12 -6 281.57 37
-2 -12 6 287.87 32.7
-2 -12 6 235.18 43.3
14 -2 6 187.58 33.1
-12 14 6 340.67 53.69
-12 14 6 280.67 31.7
3 11 -6 9.9 18.9
14 -3 6 47.7 23.3
-3 -11 6 40.7 18.8
-11 14 6 61.59 19.1
-3 -11 6 74.89 31.9
-11 14 6 76.39 31.1
4 10 -6 278.17 37.8
-4 -10 6 332.47 36.5
-4 -10 6 291.57 46.2
-10 14 6 405.96 57.29
14 -4 6 357.16 40.8
-10 14 6 359.96 33.4
5 9 -6 78.99 25
14 -5 6 46.8 21.6
-9 14 6 19.8 26.7
14 -5 6 49.6 23.3
-5 -9 6 64.49 20.9
-9 14 6 34.9 16.4
-5 -9 6 58.69 29.5
-14 6 -6 235.78 47
6 8 -6 280.87 39.4
-8 14 6 286.57 36.5
14 -6 6 307.17 35.2
-6 -8 6 294.87 46.1
-8 14 6 248.98 40.8
14 -6 6 275.27 42.1
-6 -8 6 360.06 36.9
7 7 -6 94.29 26.4
-14 7 -6 50.49 32.2
-7 -7 6 102.99 34.9
-7 14 6 109.49 36.9
-7 14 6 87.99 27.9
14 -7 6 101.09 22.4
-7 -7 6 81.09 22.4
-14 8 -6 237.88 40.3
6 -14 -6 279.87 38.1
8 6 -6 303.57 38.6
-6 14 6 306.87 51.09
14 -8 6 241.98 39.8
-8 -6 6 246.98 43.6
-8 -6 6 292.77 34.4
-6 14 6 279.47 42.2
14 -8 6 292.87 35.6
-14 9 -6 44.4 29.9
5 -14 -6 69.79 26.3
9 5 -6 51.89 22.5
14 -9 6 33.1 21.8
-5 14 6 57.79 28.2
-9 -5 6 22.7 24.7
-5 14 6 57.49 19
14 -9 6 27.1 18
-9 -5 6 75.59 21.6
4 -14 -6 321.77 46
-14 10 -6 284.27 51.49
10 4 -6 325.97 39.2
-4 14 6 302.27 48
14 -10 6 393.46 40.5
-10 -4 6 240.28 40.2
14 -10 6 335.67 35.5
-4 14 6 266.37 29
-14 11 -6 20.1 27.5
11 3 -6 48.4 22.5
3 -14 -6 27.9 23.2
-3 14 6 55.79 16.2
14 -11 6 64.39 20.7
-3 14 6 57.99 27.8
14 -11 6 71.09 24.1
12 2 -6 321.67 38.9
-14 12 -6 183.68 37.1
2 -14 -6 214.78 40.7
14 -12 6 265.47 36.4
-2 14 6 286.47 47.6
14 -12 6 267.57 33
-2 14 6 298.87 30.8
-12 -2 6 251.87 47
13 1 -6 58.19 22.9
1 -14 -6 91.49 29.4
-14 13 -6 33.2 27.5
14 -13 6 43.8 18.5
14 -13 6 39.4 22.5
-1 14 6 65.69 29.5
-13 -1 6 87.79 31.5
-1 14 6 67.49 18.9
0 -14 -6 217.38 40.3
-14 14 -6 228.28 42.8
14 0 -6 256.97 37.3
14 -14 6 180.08 30.9
0 14 6 247.58 43.4
-14 0 6 173.78 43.4
14 -14 6 241.18 30.9
15 -1 -6 33.9 21.6
-14 15 -6 68.49 30
-1 -14 -6 39.8 23.8
1 14 6 45.4 25
14 -15 6 61.19 22.8
-15 1 6 83.99 33.2
14 -15 6 67.39 20.2
-2 -14 -6 324.17 50.59
-14 16 -6 344.87 55.49
16 -2 -6 335.17 40
-16 2 6 225.88 46.9
2 14 6 217.28 39.9
14 -16 6 270.97 32
14 -16 6 291.77 35.6
-16 2 6 254.17 37.8
-3 -14 -6 32.8 28.1
-14 17 -6 67.79 35
17 -3 -6 73.39 24.7
-17 3 6 85.69 32.9
-17 3 6 65.69 25.3
3 14 6 70.49 27.3
14 -17 6 74.79 19.9
14 -17 6 50.39 20.9
18 -4 -6 204.28 34
-4 -14 -6 175.98 38.1
-14 18 -6 181.58 41.9
-18 4 6 193.68 35
-18 4 6 194.08 45.5
14 -18 6 195.48 30.2
14 -18 6 186.58 28.3
-5 -14 -6 48.9 26.9
19 -5 -6 44.9 21.1
-14 19 -6 48.5 29.9
14 -19 6 30.2 18.5
-19 5 6 43 26.7
14 -19 6 43.4 25.2
-19 5 6 43.9 32.1
-14 20 -6 139.79 35.8
-6 -14 -6 149.88 36.5
20 -6 -6 200.38 32.7
-20 6 6 115.99 34.4
14 -20 6 150.58 24.8
14 -20 6 161.78 26.5
6 14 6 129.79 32.6
-14 21 -6 76.49 29.1
21 -7 -6 -13.5 18.1
14 -21 6 9.2 13.8
7 14 6 10.1 21.2
-21 7 6 22.3 29
14 -21 6 28.4 14.6
22 -8 -6 119.89 25.5
-14 22 -6 102.29 34.9
14 -22 6 135.99 18.5
14 -22 6 101.49 18.5
8 14 6 99.99 28.4
-22 8 6 54.79 35.1
-9 -14 -6 -12.8 26.8
23 -9 -6 5.5 19.4
-14 23 -6 50.19 28.7
-14 23 -6 15 19.1
-23 9 6 25.3 39.2
9 14 6 -4.7 20.3
24 -10 -6 47.5 24.4
-10 -14 -6 19.1 33.4
-14 24 -6 25.5 26.6
-14 24 -6 58.29 26.9
10 14 6 28 25.2
-24 10 6 49.7 35.8
-9 24 -6 27.7 25.3
-24 15 6 22.1 30.4
15 9 6 44.4 24.5
-8 23 -6 -2.3 19.2
-23 15 6 -8 31.4
15 8 6 23.3 32.3
-7 22 -6 100.89 26.8
15 7 6 83.29 28
7 -22 6 36.1 14.8
7 -22 6 38.5 11.8
-22 15 6 48.6 33.4
-22 15 6 89.69 31.5
-6 21 -6 -7.3 16.5
15 6 6 14.2 20.1
-21 15 6 -17.5 24.5
-21 15 6 9.4 20.6
6 -21 6 -1.9 13.9
-15 -5 -6 81.19 42.1
-5 20 -6 74.49 23.7
5 -20 6 72.19 18.7
-20 15 6 70.69 35.9
15 5 6 74.49 25.7
5 -20 6 40.4 23.2
-15 -4 -6 12.1 28.3
-4 19 -6 -9.9 17
4 -19 6 -3.6 18.9
-19 15 6 -0.2 27.8
-19 15 6 -9.2 17.1
15 4 6 29.8 21.1
-15 -3 -6 55.09 29.3
-3 18 -6 63.69 22.8
3 -18 6 57.29 20.6
-18 15 6 67.89 25.2
15 3 6 79.79 25.4
3 -18 6 8.8 20.5
-18 15 6 131.19 37.1
-15 -2 -6 16.9 31.1
-2 17 -6 40.2 20.5
2 -17 6 -17.4 18.5
2 -17 6 10.1 16.3
-17 15 6 -18.7 21.7
15 2 6 3.2 20.6
-17 15 6 17.3 18.9
-15 -1 -6 47.4 32.5
-1 16 -6 69.79 24.9
1 -16 6 84.99 31.7
1 -16 6 51.29 19.8
-16 15 6 73.59 35.5
15 1 6 32.7 21.3
-16 15 6 35.1 20.3
-15 0 -6 0.3 27.5
0 15 -6 31 21.3
0 -15 6 1.8 15.7
15 0 6 -4.9 17.8
0 -15 6 -37 20.4
-15 15 6 36.5 18.6
-15 15 6 46.4 27.4
1 14 -6 65.39 22.4
-15 1 -6 100.99 36.8
-14 15 6 42 20.5
-1 -14 6 41.5 27.5
-14 15 6 45.3 27.9
15 -1 6 49.5 23.9
-1 -14 6 29.2 17.7
2 13 -6 27.6 20.5
-13 15 6 31.5 16.8
-2 -13 6 25.8 17.6
-2 -13 6 33.7 26
15 -2 6 2.6 17
3 12 -6 81.49 27
-3 -12 6 64.69 20.3
15 -3 6 57.59 24.2
-12 15 6 61.69 19.9
-3 -12 6 113.49 34.4
-12 15 6 76.89 32.8
4 11 -6 34.6 20.6
-11 15 6 21.3 27
-11 15 6 18 15.3
-4 -11 6 24.8 16.5
15 -4 6 19.5 20.3
-4 -11 6 0 23.3
5 10 -6 71.79 24.9
15 -5 6 56.79 24.2
-5 -10 6 34.8 18
-5 -10 6 24.5 26.8
-10 15 6 43.3 17.2
-10 15 6 -9.1 26.9
-15 6 -6 59.19 30.8
6 9 -6 12.7 20
-6 -9 6 41.6 26.1
-9 15 6 50.79 28.2
-6 -9 6 46.6 16.9
-9 15 6 7.7 15.3
15 -6 6 64.29 22.4
-15 7 -6 13 25
7 8 -6 40.6 20.9
15 -7 6 0.3 17.7
-8 15 6 21.2 20.9
15 -7 6 64.19 22.3
-8 15 6 42.5 29.2
-7 -8 6 46.5 17.4
-7 -8 6 -2.1 21.3
-15 8 -6 23.8 25.6
8 7 -6 34.4 20.6
15 -8 6 23.7 19.8
-7 15 6 32 20.5
-8 -7 6 23.3 23.6
-8 -7 6 47.7 19
15 -8 6 15.7 17.6
-7 15 6 -14.7 21.4
-15 9 -6 34.8 25.3
9 6 -6 25.8 19.1
6 -15 -6 9.7 18.9
-9 -6 6 14 25.4
-6 15 6 28 25.9
-6 15 6 36.4 21.3
15 -9 6 7.9 17.9
-15 10 -6 47 31.4
5 -15 -6 54.49 22.3
10 5 -6 44.4 22
15 -10 6 18.6 23.4
-5 15 6 25.8 26.4
-10 -5 6 23 26.4
15 -10 6 32.2 19.5
-5 15 6 40.2 16.6
11 4 -6 53.29 24
-15 11 -6 22.4 26.7
4 -15 -6 19.2 20.4
-11 -4 6 12 31.2
15 -11 6 -12.6 15.5
-4 15 6 8 22.5
-4 15 6 14.4 13.2
15 -11 6 29.7 21
-15 12 -6 28.4 25.9
3 -15 -6 42.4 23.5
12 3 -6 92.39 27.6
15 -12 6 64.59 21.7
15 -12 6 80.69 24.6
-3 15 6 49 16.2
-12 -3 6 89.59 35.2
-3 15 6 59.09 25.4
-15 13 -6 -1.8 22.1
13 2 -6 4.1 20
2 -15 -6 29.3 23
-13 -2 6 19.4 24.2
-2 15 6 32.6 17.1
15 -13 6 34.8 20.5
-2 15 6 6.9 20.9
15 -13 6 22.3 18.3
14 1 -6 37.2 22.8
1 -15 -6 36 24.7
-15 14 -6 42.8 29.9
-1 15 6 68.19 27
15 -14 6 37.4 21.3
-14 -1 6 -15.7 24.2
-1 15 6 20 15.9
15 -14 6 61.39 21.7
15 0 -6 58.49 22.9
-15 15 -6 -10.1 19.3
0 -15 -6 34.4 25.4
15 -15 6 25.7 19.1
-15 0 6 27.2 27.6
15 -15 6 14.4 17.2
0 15 6 -2.5 20.1
-1 -15 -6 86.09 33.9
-15 16 -6 40.5 29.5
16 -1 -6 84.69 25.4
15 -16 6 61.69 22.5
15 -16 6 74.99 20.9
1 15 6 6.7 20.6
-16 1 6 41.2 28.4
-16 1 6 68.09 24.4
-2 -15 -6 -3.6 22.8
17 -2 -6 9.9 19
-15 17 -6 -8.2 24.6
-17 2 6 -0.8 25.5
-17 2 6 1.3 19
15 -17 6 10.5 17.4
15 -17 6 -18.6 15
2 15 6 -17.9 17.6
-15 18 -6 40.1 29
18 -3 -6 14.3 20.4
-3 -15 -6 52.79 31.7
-18 3 6 40.3 27.2
15 -18 6 62.59 20.5
15 -18 6 37.1 19.5
-18 3 6 62.09 23.4
-4 -15 -6 44 30
19 -4 -6 35.2 22
-15 19 -6 -19.9 24.6
-19 4 6 -0.7 26.1
15 -19 6 -4.1 15.8
15 -19 6 -4.9 15.7
-15 20 -6 106.69 36.1
-5 -15 -6 103.29 32.3
20 -5 -6 42.1 22.1
15 -20 6 86.09 20.3
-20 5 6 32 29.7
-15 21 -6 -5.3 23.7
21 -6 -6 18.5 20.5
15 -21 6 7.4 14.2
15 -21 6 -15.5 12.3
6 15 6 0.8 20
-21 6 6 -17.9 24
-15 22 -6 96.49 34.6
22 -7 -6 49.6 21.8
15 -22 6 40.8 16.5
7 15 6 60.19 24.6
15 -22 6 50.49 14.5
-22 7 6 6.3 28
23 -8 -6 -14.9 18.4
-15 23 -6 -24.9 23.5
-8 -15 -6 5.3 47.5
8 15 6 34.5 22.2
-23 8 6 -13.6 26.9
-9 -15 -6 16.2 34.5
-15 24 -6 55.89 30.8
24 -9 -6 32.1 22.5
-24 9 6 2 30.5
9 15 6 3.4 22.1
-8 24 -6 111.69 30.5
-24 16 6 40.9 34
16 8 6 96.29 30.6
-7 23 -6 43.1 25.6
-23 16 6 55.79 38.9
-6 22 -6 145.19 30.5
6 -22 6 80.69 14.6
16 6 6 91.59 27.3
-22 16 6 115.39 33.1
-22 16 6 130.99 39.6
-5 21 -6 63.59 25.2
5 -21 6 19.8 19
-21 16 6 15.1 22.9
16 5 6 36.2 20.9
5 -21 6 12.5 15.3
-21 16 6 23.7 30.2
-4 20 -6 176.88 33
16 4 6 99.19 26.9
4 -20 6 163.98 33
-20 16 6 124.89 38.1
4 -20 6 120.99 24.8
-20 16 6 186.58 46.5
-3 19 -6 83.59 24.8
-16 -3 -6 45.8 38.3
16 3 6 86.89 25.8
3 -19 6 27.3 21.7
3 -19 6 -3.3 22.2
-19 16 6 70.99 24.8
-19 16 6 22.5 30.6
-16 -2 -6 76.09 39.1
-2 18 -6 182.08 33.5
16 2 6 155.38 31.1
-18 16 6 247.18 36.1
2 -18 6 217.48 28.8
-18 16 6 165.48 44.3
2 -18 6 161.68 33.3
-1 17 -6 81.39 24.3
-16 -1 -6 83.69 35.6
-17 16 6 33.1 27.1
16 1 6 74.79 25.1
1 -17 6 52.89 20.2
1 -17 6 67.69 29.3
-17 16 6 65.99 22.1
0 16 -6 206.48 34.7
-16 0 -6 204.78 45.8
0 -16 6 215.88 31.9
-16 16 6 226.48 31.9
0 -16 6 103.89 33.6
-16 16 6 120.69 37.7
16 0 6 257.87 39.1
-16 1 -6 45.1 35.5
1 15 -6 106.99 27.2
-15 16 6 89.79 23
-1 -15 6 38.7 19.7
-1 -15 6 35.8 30
16 -1 6 62.29 24.8
-15 16 6 52.09 30.3
-16 2 -6 271.17 59.49
2 14 -6 206.28 34.7
-2 -14 6 281.87 33.1
-14 16 6 296.97 32.6
-14 16 6 218.68 44.1
16 -2 6 249.38 37
-2 -14 6 306.87 44.3
3 13 -6 99.89 27.3
-13 16 6 96.69 20.9
-3 -13 6 36.9 18.3
-13 16 6 171.38 72.79
16 -3 6 85.69 25.4
-3 -13 6 60.99 28.7
16 -3 6 82.79 22.9
4 12 -6 328.87 39.7
16 -4 6 265.27 51.89
-4 -12 6 308.27 36.3
16 -4 6 257.17 37.8
-12 16 6 286.67 51.19
-4 -12 6 262.37 43.6
-12 16 6 343.07 33.8
5 11 -6 121.79 29
-11 16 6 47.4 31.4
-5 -11 6 102.69 34.7
-5 -11 6 110.69 25.8
16 -5 6 126.79 28.6
-11 16 6 132.99 23
6 10 -6 291.77 41.8
-16 6 -6 328.77 64.79
-6 -10 6 295.97 35.2
16 -6 6 288.47 38
-10 16 6 327.47 31.5
-10 16 6 289.67 50.09
-6 -10 6 273.17 44.3
-16 7 -6 54.39 36
7 9 -6 94.79 26.6
-9 16 6 188.48 36.5
-7 -9 6 98.89 23.9
-7 -9 6 75.29 31.7
-9 16 6 112.49 25.5
16 -7 6 79.79 24.2
-16 8 -6 269.57 49.4
8 8 -6 330.57 41.4
-8 16 6 355.16 50.19
-8 16 6 287.57 43
16 -8 6 299.57 39.3
-8 -8 6 289.27 44.2
-16 9 -6 114.19 38.3
9 7 -6 101.69 26.5
-9 -7 6 24.4 26.2
-7 16 6 145.39 38.8
-7 16 6 129.19 29.1
16 -9 6 56.19 21.9
-16 10 -6 182.38 39.5
10 6 -6 375.26 42.7
-6 16 6 346.77 52.89
16 -10 6 338.37 37.7
-6 16 6 266.97 32
16 -10 6 342.27 39.2
-10 -6 6 243.48 67.09
11 5 -6 177.08 34.2
-16 11 -6 112.49 31.6
5 -16 -6 113.19 28.2
-5 16 6 206.78 40.7
-11 -5 6 125.99 38.4
16 -11 6 121.09 25.4
-5 16 6 96.79 19
-16 12 -6 209.08 40.9
12 4 -6 342.97 42.3
4 -16 -6 325.57 41.5
-12 -4 6 267.67 45.6
16 -12 6 365.06 38.8
-4 16 6 277.57 29.9
-4 16 6 326.27 51.29
16 -12 6 308.57 39.3
13 3 -6 54.89 25.1
3 -16 -6 48.1 24.3
-16 13 -6 62.59 29.2
16 -13 6 72.69 24
-13 -3 6 77.69 25.2
-3 16 6 76.99 18.4
-3 16 6 47.6 29.8
16 -13 6 52.39 21.6
-13 -3 6 64.09 30.2
14 2 -6 267.47 41.3
-16 14 -6 186.58 44.3
2 -16 -6 319.57 42.3
-2 16 6 260.77 44.1
16 -14 6 264.27 35.9
16 -14 6 261.77 35.3
-2 16 6 250.97 29.4
-14 -2 6 212.68 36.4
-14 -2 6 290.47 51.39
-16 15 -6 77.19 33.1
15 1 -6 69.79 27
1 -16 -6 55.19 25.6
-15 -1 6 41.7 22.5
16 -15 6 82.19 24.6
-15 -1 6 43.5 29.5
-1 16 6 60.59 27.3
16 -15 6 15.9 18.5
0 -16 -6 235.98 41.2
16 0 -6 217.28 37.3
-16 16 -6 242.28 47.8
16 -16 6 263.07 34.6
-16 0 6 214.58 35.9
16 -16 6 210.48 33.5
-16 0 6 225.58 44.5
0 16 6 152.48 36
-1 -16 -6 94.69 30.2
17 -1 -6 46.8 23.3
-16 17 -6 8.1 27.3
-17 1 6 39.8 28.4
-17 1 6 34.3 23.8
16 -17 6 54.39 20.8
1 16 6 56.69 26.3
16 -17 6 111.19 25
18 -2 -6 208.08 35.3
-16 18 -6 139.69 35.9
-2 -16 -6 213.58 41.5
16 -18 6 209.98 30.9
16 -18 6 204.18 31.4
2 16 6 163.18 35.8
-18 2 6 190.18 42.7
19 -3 -6 73.29 26.3
-3 -16 -6 1.2 24.7
-16 19 -6 53.39 30.7
16 -19 6 46.2 20
16 -19 6 51.49 19.4
-19 3 6 42.1 32.5
-16 20 -6 194.68 44
-4 -16 -6 165.88 36.6
20 -4 -6 135.79 31.9
-20 4 6 114.59 39.2
16 -20 6 162.98 26.7
-5 -16 -6 18.6 26.1
-16 21 -6 54.79 31.6
21 -5 -6 56.59 23.3
5 16 6 17.5 21.7
16 -21 6 40 15.4
16 -21 6 12.3 16.9
-21 5 6 -5.4 26.6
-16 22 -6 122.09 35.7
22 -6 -6 96.39 28.2
6 16 6 91.09 26.2
16 -22 6 105.79 18.5
-22 6 6 114.99 49.1
23 -7 -6 3.6 20.7
-16 23 -6 9.8 27.7
-23 7 6 -20.6 24.8
7 16 6 -15.3 21.2
24 -8 -6 39.4 25
-8 -16 -6 43.2 34.6
-16 24 -6 108.39 36.2
8 16 6 52.99 24.9
-24 8 6 53.49 33.4
-24 17 6 -15.1 26.7
-6 23 -6 -5.2 19.9
17 6 6 5.3 20.6
-23 17 6 4.5 31.3
-5 22 -6 59.49 24.6
-22 17 6 36.6 32.5
-22 17 6 37.2 27.6
5 -22 6 20.7 12.3
-4 21 -6 14.3 19.3
17 4 6 28.1 21.1
-21 17 6 -3.4 28.5
4 -21 6 6.2 14.9
-21 17 6 46.3 30
4 -21 6 10.6 18.5
-3 20 -6 29.1 22
3 -20 6 52.19 24.6
17 3 6 55.89 25.1
-20 17 6 36 32.3
-20 17 6 51.59 28.9
-2 19 -6 20.1 20.2
2 -19 6 3.6 21.1
-19 17 6 -12.9 20.8
-19 17 6 13.5 29.6
2 -19 6 4.8 17.2
17 2 6 -5.7 17.1
-1 18 -6 38.1 23.6
1 -18 6 63.89 19.9
1 -18 6 41.9 25.1
17 1 6 66.29 22.7
-18 17 6 68.99 24.6
-18 17 6 40.3 31
-17 0 -6 -11.7 25.8
0 17 -6 -1.2 19.6
0 -17 6 -37.6 15.3
-17 17 6 -5.9 15.8
0 -17 6 -1 22.6
-17 17 6 23.6 29.6
17 0 6 14.7 17.7
1 16 -6 75.79 26.2
-17 1 -6 24.5 33.2
-16 17 6 45.1 19
-1 -16 6 53.29 29.9
17 -1 6 26.3 20.8
-1 -16 6 46.6 19.9
-16 17 6 0.4 24.4
-17 2 -6 9 27.1
2 15 -6 -6.1 18.1
-15 17 6 -11.8 23.4
17 -2 6 6.7 18
-15 17 6 5.4 17.4
-2 -15 6 17.8 25.8
-2 -15 6 5.4 17.7
-17 3 -6 116.19 41.4
3 14 -6 48.8 23.9
-3 -14 6 69.49 22.9
-14 17 6 76.49 21.8
17 -3 6 29.3 21.1
-3 -14 6 23.6 29.5
-14 17 6 84.09 32.3
17 -3 6 41.2 20.9
4 13 -6 37 22.4
17 -4 6 32.2 19.8
-13 17 6 -0.5 16.3
-4 -13 6 22.6 16.4
17 -4 6 11.8 19.7
-13 17 6 12 43.2
-4 -13 6 22.4 26.1
5 12 -6 32.8 22.2
-12 17 6 24.5 31.1
-5 -12 6 37.3 27.4
17 -5 6 47 21.5
-5 -12 6 59.89 21.8
-12 17 6 45.2 18.4
17 -5 6 -8.6 16.5
-17 6 -6 -25.3 24
6 11 -6 37.2 20.4
-6 -11 6 29.6 18.1
-6 -11 6 7.4 24.7
-11 17 6 -14.4 24.3
17 -6 6 -3 17.4
17 -6 6 -2.1 18.6
-11 17 6 2 14.6
-17 7 -6 7.9 23.3
7 10 -6 33.8 21.1
17 -7 6 -5.3 17
-10 17 6 -5.6 13.7
-7 -10 6 12.5 24.1
17 -7 6 -0.5 30.4
-10 17 6 32.2 25.9
8 9 -6 73.29 25.7
-17 8 -6 14.5 33.5
-8 -9 6 28 24.8
-9 17 6 96.89 34.3
17 -8 6 28.8 20.7
-9 17 6 36.2 19.1
9 8 -6 29 19.6
-17 9 -6 -74.19 31.8
17 -9 6 36.9 21.6
-9 -8 6 18.9 25.9
-8 17 6 22 21.2
-8 17 6 44.6 29.2
10 7 -6 24.9 21.7
-7 17 6 -32.5 19.5
-7 17 6 18.8 16.8
-10 -7 6 55.39 41.7
17 -10 6 -7.6 17.7
-17 11 -6 44.7 42.4
11 6 -6 20.1 21.1
-6 17 6 1.9 12.9
17 -11 6 19.6 20.7
-6 17 6 5.2 23
-11 -6 6 56.19 30.8
5 -17 -6 69.89 27.4
12 5 -6 84.49 27
-17 12 -6 27.8 25.5
17 -12 6 60.19 25.1
-5 17 6 35.9 26.6
-12 -5 6 12.4 25.9
17 -12 6 101.29 24.8
-12 -5 6 76.09 22.6
13 4 -6 36.9 21.4
4 -17 -6 -5.2 19.6
-17 13 -6 20 25.4
-13 -4 6 -11.2 25.2
17 -13 6 31.7 17.9
-4 17 6 17 21.9
-13 -4 6 45.3 20.1
-4 17 6 30.1 15.4
-17 14 -6 49.7 34.7
14 3 -6 53.49 23.8
3 -17 -6 67.09 26.9
17 -14 6 98.79 25.5
-3 17 6 78.89 20.5
17 -14 6 94.69 23.7
-3 17 6 99.09 29.8
-14 -3 6 74.99 25.3
-14 -3 6 61.19 31.9
15 2 -6 36.5 22.4
2 -17 -6 12.6 24.4
-17 15 -6 -8.3 21.6
17 -15 6 -3.8 17.8
-2 17 6 10.3 15.4
-2 17 6 23.2 23.3
-15 -2 6 -11.4 16.1
-15 -2 6 6.4 27
17 -15 6 9.1 17.4
-17 16 -6 -18.2 25
16 1 -6 67.19 26.6
1 -17 -6 16.6 23.4
17 -16 6 66.69 23.6
-1 17 6 78.99 30.8
-16 -1 6 65.79 24.2
-16 -1 6 51.19 31.8
17 -16 6 53.29 21.4
-17 17 -6 29.3 25.2
17 0 -6 -8.3 18.6
0 -17 -6 36.9 25.3
17 -17 6 22.7 18
17 -17 6 -16.7 16
0 17 6 14.7 21.4
-17 0 6 -14.3 23.4
-17 18 -6 1.3 27.6
-1 -17 -6 70.59 31.5
18 -1 -6 32.1 24.2
17 -18 6 85.89 22.7
1 17 6 -2.8 21.1
17 -18 6 57.89 21.5
-18 1 6 25.6 29.6
-17 19 -6 -22 24.6
19 -2 -6 -6.2 19.6
-2 -17 -6 7.4 25
17 -19 6 -12.8 16.5
-19 2 6 -2.4 25
17 -19 6 0.7 16.9
-3 -17 -6 8.6 26.5
20 -3 -6 52.09 24.9
-17 20 -6 27.1 28.9
17 -20 6 52.79 28.9
-20 3 6 95.09 34.9
17 -20 6 38.7 18.1
21 -4 -6 10 21
-4 -17 -6 49.99 29.1
-17 21 -6 -11.6 24.1
17 -21 6 -17 15.4
-21 4 6 15.9 28.7
17 -21 6 6.1 13.5
4 17 6 -41.4 16.5
-17 22 -6 44 30.9
22 -5 -6 38.1 23.4
5 17 6 5.7 21
-22 5 6 23.2 32.1
17 -22 6 46.7 15.7
23 -6 -6 14.3 19.4
-17 23 -6 -4.4 26.2
-23 6 6 -16.7 27.3
6 17 6 -22.5 17.4
-17 24 -6 73.99 34.7
-24 7 6 75.29 39.4
-5 23 -6 8.6 21
-23 18 6 -2.4 32.2
-23 18 6 18.5 35
18 5 6 40.1 24.8
-4 22 -6 87.89 26.4
4 -22 6 61.79 14.7
-22 18 6 38.8 31.1
18 4 6 47.1 26.1
-22 18 6 50.19 31.6
-3 21 -6 12 18.9
3 -21 6 58.89 17.6
3 -21 6 20.6 20.8
18 3 6 20.7 34.9
-21 18 6 72.39 36.4
-2 20 -6 163.48 31.5
-20 18 6 79.39 37.8
-20 18 6 170.58 35.5
18 2 6 137.49 33.5
2 -20 6 71.79 27.4
-1 19 -6 83.39 27.6
1 -19 6 112.59 23.8
-19 18 6 36.8 32.8
1 -19 6 45.5 25
-19 18 6 88.39 24.6
18 1 6 52.59 23.3
0 18 -6 152.58 31.7
0 -18 6 196.58 30
0 -18 6 131.69 33
-18 18 6 191.08 34.8
-18 18 6 205.88 49.9
1 17 -6 56.59 24.3
18 -1 6 61.39 23.1
-1 -17 6 8.6 18.5
-17 18 6 54.79 21.3
-17 18 6 25.7 30.6
-1 -17 6 45.3 27.4
2 16 -6 196.28 33.4
18 -2 6 190.68 35.4
-2 -16 6 168.38 28.7
-2 -16 6 198.18 40
-16 18 6 162.08 41.9
-16 18 6 211.88 31.1
3 15 -6 85.49 26.4
-18 3 -6 75.79 42
-3 -15 6 25.6 26.6
-15 18 6 54.09 21.8
-15 18 6 5.7 27.7
-3 -15 6 55.09 22.1
18 -3 6 72.19 24.3
18 -3 6 51.09 23.1
4 14 -6 230.78 39.2
-18 4 -6 178.78 49.7
-4 -14 6 247.08 43.6
-4 -14 6 233.18 32.7
-14 18 6 207.78 43.2
-14 18 6 256.77 34.2
18 -4 6 154.78 33.1
18 -4 6 209.58 35.6
-18 5 -6 93.09 39.7
5 13 -6 66.29 26.4
-5 -13 6 72.69 21.7
18 -5 6 62.29 21.6
18 -5 6 49.7 22.1
-13 18 6 42.6 33.5
-5 -13 6 49 28
-13 18 6 82.09 21
-18 6 -6 133.39 45.3
6 12 -6 284.37 41.8
-6 -12 6 227.98 42.9
-12 18 6 233.38 28.3
18 -6 6 156.58 30.2
18 -6 6 208.98 34.5
-12 18 6 246.68 46.9
-18 7 -6 34.9 30
7 11 -6 158.28 33
18 -7 6 76.89 26.2
-11 18 6 55.39 28.7
-11 18 6 102.89 21.1
18 -7 6 132.09 29.4
-7 -11 6 60.09 29.3
8 10 -6 219.58 35.7
-18 8 -6 172.28 44.3
-10 18 6 243.48 30.9
-10 18 6 173.98 41.4
18 -8 6 217.48 35.4
-8 -10 6 223.08 40.5
18 -8 6 181.18 36.1
9 9 -6 60.39 24.4
-18 9 -6 126.99 38
-9 18 6 46 27.3
18 -9 6 63.39 23.3
-9 -9 6 94.49 33.9
-9 18 6 61.89 19.3
-9 -9 6 87.09 35.1
-18 10 -6 277.87 53.99
10 8 -6 229.68 37.1
-10 -8 6 280.97 50.99
-8 18 6 163.68 37.5
18 -10 6 211.88 33.2
-8 18 6 185.18 29.4
-10 -8 6 240.28 59.39
11 7 -6 129.99 32.5
-18 11 -6 78.79 32.9
-7 18 6 76.29 30.1
-7 18 6 65.19 17.6
-11 -7 6 105.59 26.7
18 -11 6 60.49 23.4
-11 -7 6 53.29 29.9
-18 12 -6 107.19 40.1
12 6 -6 228.78 38.5
-6 18 6 264.17 27.6
-12 -6 6 180.28 33.1
18 -12 6 229.48 35
-12 -6 6 166.58 39.8
-6 18 6 119.19 35.1
13 5 -6 75.29 25.7
-18 13 -6 8.6 25.3
5 -18 -6 52.19 23.2
-5 18 6 66.19 26.1
-13 -5 6 69.79 29.4
-13 -5 6 44.6 22.9
-5 18 6 59.09 17.5
18 -13 6 57.09 22.9
18 -13 6 68.79 24.4
-18 14 -6 125.49 44.6
14 4 -6 191.18 35.2
4 -18 -6 220.58 34.9
-14 -4 6 138.19 40.7
-14 -4 6 226.48 37.1
-4 18 6 163.88 35.9
-4 18 6 217.48 28.5
18 -14 6 216.78 31.7
-18 15 -6 13.4 42.2
15 3 -6 81.39 27.6
3 -18 -6 62.29 26.8
-15 -3 6 20.4 22.9
-15 -3 6 109.89 36.5
-3 18 6 56.99 27.7
18 -15 6 75.09 20.8
-3 18 6 27.8 17.3
18 -15 6 54.49 21.6
2 -18 -6 162.58 34.5
16 2 -6 231.28 39.2
-18 16 -6 7.2 50.39
18 -16 6 176.08 31.6
-2 18 6 149.79 38.3
18 -16 6 218.48 32
-16 -2 6 213.88 45.6
-18 17 -6 5.9 49.2
1 -18 -6 22.2 23.3
17 1 -6 19.6 23
18 -17 6 57.49 23.7
-17 -1 6 66.19 35.1
18 -17 6 59.19 21.7
-1 18 6 36.5 24.5
0 -18 -6 182.38 35.7
18 0 -6 158.38 35.4
-18 18 -6 219.28 62.99
-18 0 6 106.19 38.9
0 18 6 109.79 32.1
18 -18 6 158.78 30.5
18 -18 6 172.88 30.8
-1 -18 -6 76.09 30.7
19 -1 -6 32.3 23.5
-18 19 -6 27.6 34.2
18 -19 6 48.7 21.7
-19 1 6 10.9 28.9
18 -19 6 65.79 21.4
20 -2 -6 137.09 33
-2 -18 -6 123.99 36.5
-18 20 -6 148.99 43.7
-20 2 6 87.69 35.3
18 -20 6 101.39 23.6
18 -20 6 160.68 27.6
-3 -18 -6 60.19 30.4
21 -3 -6 39 25.7
-18 21 -6 66.59 34.5
-21 3 6 28.8 30.6
18 -21 6 30.9 16.9
22 -4 -6 61.49 26.4
-4 -18 -6 131.19 37.5
-18 22 -6 46.9 34
4 18 6 55.99 24.4
-22 4 6 68.29 41.6
18 -22 6 99.69 18.8
18 -22 6 72.59 20.6
23 -5 -6 1 22.2
-18 23 -6 65.99 31.6
-23 5 6 41.2 33.1
5 18 6 41.8 20.4
-4 23 -6 2.4 20.2
-23 19 6 17.1 32.6
19 4 6 1.8 21.9
-23 19 6 44.7 34.1
-3 22 -6 48.8 25.3
3 -22 6 51.29 20.1
3 -22 6 51.39 15.8
19 3 6 58.99 25.6
-22 19 6 42.1 34.6
-22 19 6 106.39 31.1
-2 21 -6 -11.8 19.1
-21 19 6 23.4 30.8
19 2 6 16.9 34.9
2 -21 6 32.7 17.6
2 -21 6 -19.3 18.5
-1 20 -6 34.2 23.5
19 1 6 35.6 23.8
-20 19 6 20.7 26.7
1 -20 6 21.7 21.9
-20 19 6 63.39 37.5
0 19 -6 -6.4 20.6
-19 19 6 15.6 31.3
-19 19 6 51.99 22.7
19 0 6 15.2 19.5
0 -19 6 10.4 22.3
0 -19 6 -6.4 17.8
1 18 -6 25.8 23.4
-1 -18 6 30.2 27
-18 19 6 51.69 32.4
-18 19 6 24.3 22.8
-1 -18 6 41.3 21.3
19 -1 6 66.79 25.7
2 17 -6 -4.7 18.6
-2 -17 6 26.9 26
-17 19 6 -5.4 17.5
19 -2 6 -23.7 17.7
-17 19 6 -27.6 25.2
-2 -17 6 21.4 19.2
3 16 -6 33.9 23.1
-3 -16 6 43.1 28.6
19 -3 6 62.59 24.3
-3 -16 6 28.5 20.4
-16 19 6 60.59 22
-16 19 6 11.7 27.7
4 15 -6 -31.4 17.6
-15 19 6 -28 16.4
-4 -15 6 -4.8 25.9
-4 -15 6 -3.4 17.3
-15 19 6 14.1 25.7
19 -4 6 19.1 20.1
5 14 -6 23.2 21.9
-5 -14 6 36.1 18.7
19 -5 6 9.3 19.6
-14 19 6 8.4 25.7
19 -5 6 43.3 20.9
-5 -14 6 69.29 30.6
-14 19 6 24.8 19.2
6 13 -6 10.1 19
-19 6 -6 16.1 31.1
-6 -13 6 38.5 28.3
-13 19 6 13.7 28.2
19 -6 6 -32.9 15.7
-13 19 6 2.7 14.2
19 -6 6 -0.6 15.9
7 12 -6 27 21.8
-19 7 -6 18.2 25.1
-12 19 6 6.8 23.9
-12 19 6 33.2 16.6
-7 -12 6 -23 23.4
19 -7 6 33.9 20.8
19 -7 6 11.8 19.4
-19 8 -6 -6 28.4
8 11 -6 1.4 19.8
-8 -11 6 19.1 27.6
-8 -11 6 -13.3 22.5
-11 19 6 23.8 15.6
-11 19 6 -8.3 23.6
19 -8 6 -23.6 16.3
19 -8 6 3 18.5
-19 9 -6 12.4 28
9 10 -6 3.9 20.1
19 -9 6 17.2 19.2
-9 -10 6 9.6 45.2
19 -9 6 26.5 20.6
-10 19 6 24.9 24.2
-10 19 6 9 15.5
10 9 -6 43.6 21.8
-19 10 -6 -30.2 23.1
-9 19 6 32.1 15.3
-10 -9 6 1.3 18
19 -10 6 33.6 21.9
-9 19 6 0.7 24
-10 -9 6 26.5 26.4
19 -10 6 -15.1 17.1
-19 11 -6 54.19 32.1
11 8 -6 -22.4 15.8
-8 19 6 16.4 13.2
-11 -8 6 9.7 17.5
19 -11 6 13.8 20.1
-11 -8 6 -24.3 21.6
-8 19 6 -2.9 22.1
-19 12 -6 10.7 31.7
12 7 -6 24.4 23.4
-7 19 6 -11.4 20.2
-7 19 6 35.3 16.6
19 -12 6 23.8 21.2
-12 -7 6 45.6 31.6
-12 -7 6 1.1 17.5
-19 13 -6 -25.5 21.7
13 6 -6 24.9 23.3
-13 -6 6 40.8 22.9
-6 19 6 22.4 23
19 -13 6 11.8 18.7
-6 19 6 7.9 14.2
-13 -6 6 41.4 27.7
-19 14 -6 26 28.2
14 5 -6 69.69 26.4
-14 -5 6 13.2 21.1
-5 19 6 25.7 24.3
-14 -5 6 51.49 29
19 -14 6 14.7 19.7
-5 19 6 39.1 15.4
-19 15 -6 35.6 29.8
15 4 -6 10.2 20.3
4 -19 -6 -3.2 20
-4 19 6 -6.4 14.6
19 -15 6 5.2 18.7
-4 19 6 45.4 26.2
-15 -4 6 29.1 29.6
19 -15 6 8.9 21.2
16 3 -6 56.79 26.9
3 -19 -6 39.5 23.6
-19 16 -6 36.5 32.1
-16 -3 6 38.9 30
-3 19 6 50.09 19.1
19 -16 6 57.79 24
19 -16 6 100.39 24.1
-3 19 6 49.9 25.2
17 2 -6 -1.3 21
2 -19 -6 26.5 23.9
-19 17 -6 4 26.2
-17 -2 6 -18.6 24.1
19 -17 6 2.5 18.2
-2 19 6 3.8 21.5
19 -17 6 7.9 19.9
18 1 -6 65.79 26.8
-19 18 -6 75.39 38.6
1 -19 -6 28.9 27
-1 19 6 48.1 23.6
19 -18 6 40.5 21.8
19 -18 6 64.39 22.3
-18 -1 6 51.79 32.7
0 -19 -6 -43.1 20.5
-19 19 -6 -8.7 27
19 0 -6 -13.6 19.7
19 -19 6 -26.2 17.9
-19 0 6 10 26.9
19 -19 6 -11.3 17
-1 -19 -6 61.59 28.8
-19 20 -6 64.39 30.2
20 -1 -6 33.6 25.5
-20 1 6 -2.1 26.6
19 -20 6 40.8 19.8
19 -20 6 16.2 18.7
-2 -19 -6 10.5 27.2
-19 21 -6 -16.2 26.5
21 -2 -6 15.6 24.2
-21 2 6 17.5 34.1
19 -21 6 -20.1 14.3
-3 -19 -6 46.5 28.3
22 -3 -6 38.8 27.5
-19 22 -6 -31.8 36.1
19 -22 6 15 17.8
3 19 6 15.5 22.2
19 -22 6 62.89 18.8
-22 3 6 53.39 35.9
23 -4 -6 -11.3 22.5
-4 -19 -6 68.09 30.3
-23 4 6 25.3 35.6
4 19 6 -36.6 16.7
-2 22 -6 82.99 29.4
20 2 6 111.79 30.9
-22 20 6 95.59 31.6
-22 20 6 77.79 39.3
2 -22 6 74.59 17.8
2 -22 6 36 20.1
-1 21 -6 24 24.5
1 -21 6 34.2 21.6
1 -21 6 18.8 22.1
-21 20 6 -9.9 39.2
20 1 6 27.8 22.6
-21 20 6 31.8 37.8
0 20 -6 112.89 30.5
-20 20 6 63.09 28.6
0 -20 6 67.09 26.3
0 -20 6 151.68 24.9
-20 20 6 69.69 34.4
1 19 -6 37.5 24.4
-19 20 6 24.2 24.2
20 -1 6 41.7 23.5
-19 20 6 53.89 31.8
-1 -19 6 41.5 26.9
-1 -19 6 65.09 20.9
2 18 -6 105.19 29
20 -2 6 125.39 31.7
-18 20 6 4.9 28.7
-2 -18 6 92.79 25.1
-2 -18 6 140.69 35.5
-18 20 6 111.59 28.8
3 17 -6 64.69 27.6
-17 20 6 15.1 27.9
-3 -17 6 32.4 31.2
-17 20 6 39.4 19.8
-3 -17 6 51.69 24.3
20 -3 6 -4.6 21
4 16 -6 200.28 38.6
-4 -16 6 161.08 39.4
-4 -16 6 191.18 31.9
-16 20 6 115.49 28.5
-16 20 6 203.58 41.8
20 -4 6 106.49 30.5
5 15 -6 61.39 26.7
-15 20 6 73.89 22.2
-15 20 6 101.09 37.9
20 -5 6 45.7 23.3
-5 -15 6 -8.6 19.8
-5 -15 6 44.3 29.2
6 14 -6 144.29 32.7
-14 20 6 163.18 26.9
-14 20 6 164.08 44.5
20 -6 6 104.49 29.3
-6 -14 6 131.29 35.4
7 13 -6 105.89 29.9
-13 20 6 75.29 20.4
20 -7 6 67.49 26.1
-13 20 6 70.49 38.2
-7 -13 6 84.89 34.4
20 -7 6 75.29 25.8
8 12 -6 106.89 29.3
20 -8 6 144.59 31.1
-12 20 6 206.48 27.9
20 -8 6 133.69 31.3
-12 20 6 106.79 37.7
-8 -12 6 165.78 38.2
9 11 -6 79.29 28.1
-9 -11 6 81.89 26.8
-11 20 6 60.99 30.1
20 -9 6 41.6 22.9
-11 20 6 73.79 20
20 -9 6 28.2 20.6
-9 -11 6 150.78 57.69
10 10 -6 141.89 32.1
20 -10 6 148.69 29.7
20 -10 6 162.18 30.9
-10 -10 6 176.78 33.9
-10 20 6 179.18 36
-10 20 6 117.79 23.6
-10 -10 6 183.48 40.8
11 9 -6 83.39 27.9
-20 11 -6 31.2 37.7
20 -11 6 119.79 30.7
-9 20 6 48.7 19.1
20 -11 6 74.69 24.4
-11 -9 6 93.59 32
-11 -9 6 58.79 25.7
-9 20 6 3.9 24.5
12 8 -6 166.48 33.9
-20 12 -6 93.29 40.8
-8 20 6 112.29 34.5
-8 20 6 162.48 24.7
20 -12 6 112.79 28.5
-12 -8 6 154.08 32.7
-12 -8 6 199.68 46.2
20 -12 6 214.18 37.9
-20 13 -6 14.2 27
13 7 -6 56.39 27.6
20 -13 6 61.99 23.5
-13 -7 6 56.49 35.7
-7 20 6 67.19 18.1
-7 20 6 46.6 27.7
-13 -7 6 35.4 24.5
14 6 -6 210.08 39.6
-20 14 -6 106.79 31.8
20 -14 6 142.19 29.7
-14 -6 6 132.79 40.2
-6 20 6 111.89 34.8
-6 20 6 160.78 24.7
-20 15 -6 12.6 25.2
15 5 -6 124.79 33.7
-5 20 6 46.5 18
-5 20 6 75.19 26.8
20 -15 6 40.6 22.3
-15 -5 6 3.7 28.4
16 4 -6 156.78 36.6
-20 16 -6 59.29 31.4
-4 20 6 112.79 31.5
20 -16 6 126.59 33.7
20 -16 6 64.99 29.5
-16 -4 6 136.99 41.7
-4 20 6 160.18 26.8
3 -20 -6 43.3 24.3
-20 17 -6 57.39 35
17 3 -6 40.4 25.7
20 -17 6 125.39 27.4
-3 20 6 37.8 21.7
-17 -3 6 14.8 29.1
-3 20 6 50.59 18.1
20 -17 6 37 23
2 -20 -6 111.59 30.3
18 2 -6 107.59 30.8
-20 18 -6 104.59 39.1
-18 -2 6 132.59 41.9
20 -18 6 122.69 29.3
-2 20 6 85.39 28.6
20 -18 6 108.49 26
19 1 -6 15.3 24.7
-20 19 -6 17.9 35
1 -20 -6 68.59 28.4
-19 -1 6 19.8 31.7
20 -19 6 92.49 24.9
20 -19 6 41.2 21.8
0 -20 -6 96.09 33.4
-20 20 -6 58.69 32.1
20 0 -6 77.39 29.5
20 -20 6 37.1 21.8
-20 0 6 170.58 43.2
20 -20 6 114.29 27.3
21 -1 -6 61.29 30.9
-1 -20 -6 0 25.4
-20 21 -6 22 28.9
20 -21 6 74.89 27
20 -21 6 26.4 18
-2 -20 -6 19 27.4
22 -2 -6 23.7 27.6
-20 22 -6 56.19 35.3
20 -22 6 54.79 18.5
-22 2 6 38.7 34.1
2 20 6 86.19 25.9
20 -22 6 20.1 16.7
0 21 -6 -22.3 21.9
-21 21 6 18.6 28.5
0 -21 6 -4.9 18.6
-21 21 6 2.4 29.5
21 0 6 5.1 18.3
1 20 -6 49.2 24.9
-1 -20 6 15.2 23.2
-20 21 6 45.1 31.8
21 -1 6 -1.9 20.7
-1 -20 6 32.4 20.5
-20 21 6 73.29 28.3
2 19 -6 32.2 23.4
-19 21 6 -7.2 24.7
-19 21 6 55.19 22.6
-2 -19 6 11.9 24.8
-2 -19 6 -22.8 18
3 18 -6 6.9 22.8
-3 -18 6 28 21.6
-18 21 6 15.3 28.4
-3 -18 6 72.29 32.5
-18 21 6 66.29 23.6
21 -3 6 -4.9 19.9
4 17 -6 8.8 23.1
-4 -17 6 30.6 21.3
-17 21 6 -22.8 16.4
21 -4 6 -16.4 18
-4 -17 6 34.3 28.7
-17 21 6 26.5 30.8
5 16 -6 40.6 24.7
-5 -16 6 19.2 26.6
-16 21 6 58.59 30.1
21 -5 6 43.1 24.7
-16 21 6 26.3 22.2
6 15 -6 -39.1 17.2
-6 -15 6 -10.1 23.8
21 -6 6 7.8 19.9
-15 21 6 -12.4 25.4
-15 21 6 10.1 17.7
7 14 -6 40 25.2
21 -7 6 2.2 18.2
-7 -14 6 16.6 26.2
-14 21 6 -10.8 23.1
-14 21 6 10.2 17.1
8 13 -6 -8.3 19.9
-13 21 6 31.2 18.1
-13 21 6 -5.9 26.1
-8 -13 6 -5.5 27.5
21 -8 6 -4 18.5
-8 -13 6 -0.7 22.7
9 12 -6 6 18.8
-12 21 6 4.4 16.1
-9 -12 6 -25.5 22
-9 -12 6 2 20.4
21 -9 6 10 25.3
21 -9 6 13.7 20.3
-12 21 6 8 29.8
10 11 -6 44.8 23.8
-10 -11 6 -18.5 23
-11 21 6 2.9 14.7
21 -10 6 28.4 21.9
21 -10 6 17.6 20.9
-10 -11 6 37.1 24.3
-11 21 6 26 28.4
11 10 -6 -10.1 22.5
21 -11 6 5.3 19.4
-11 -10 6 2 23.5
-10 21 6 7.2 16.4
-10 21 6 1.6 23.6
-11 -10 6 -19 22.6
21 -11 6 27.9 20.5
12 9 -6 8.8 23.6
-12 -9 6 40.2 28.9
-12 -9 6 19.2 24.3
-9 21 6 -12.6 12.7
21 -12 6 27.4 23.5
21 -12 6 -1.3 18.7
13 8 -6 21.6 22.9
-8 21 6 -0.6 13.7
21 -13 6 11.4 21.4
-8 21 6 -17.1 21.7
-13 -8 6 30.3 30.3
21 -13 6 9.3 18.9
14 7 -6 9 23.1
21 -14 6 6.8 18.8
-7 21 6 23.9 24.2
-14 -7 6 36.5 31.9
21 -14 6 16.8 26.7
-7 21 6 31.7 15.6
15 6 -6 0.1 22.2
21 -15 6 25.6 18.8
-6 21 6 3.3 20.3
-15 -6 6 2.3 26.2
-6 21 6 -13.8 12.7
21 -15 6 27.3 28.7
16 5 -6 51.89 27
-5 21 6 23.4 23.7
-16 -5 6 -10.6 28.7
21 -16 6 22.3 19.4
-5 21 6 45.8 18.2
17 4 -6 -22.7 22.6
21 -17 6 -16.1 19.2
-4 21 6 6.8 17.2
-17 -4 6 10.4 29.7
21 -17 6 6.8 34.4
-4 21 6 11.9 19.4
-21 18 -6 23.4 35.7
18 3 -6 53.49 28.6
-18 -3 6 69.99 34.3
21 -18 6 51.59 24.9
-3 21 6 83.99 28
21 -18 6 37.5 23.8
19 2 -6 2.9 23.3
-21 19 -6 32.9 34
2 -21 -6 -30.8 20.8
-19 -2 6 11.5 27.7
21 -19 6 -8.1 19.2
21 -19 6 -24.7 18.7
-21 20 -6 29 35.8
1 -21 -6 2.8 23.7
20 1 -6 40.2 33.8
-20 -1 6 10.1 31.7
21 -20 6 59.29 22.6
21 -20 6 59.29 22.1
0 -21 -6 39.8 25.6
-21 21 -6 -14.2 28
21 -21 6 -40.4 17.8
21 -21 6 -4.5 15.7
-21 0 6 -1 26.5
2 20 -6 127.59 42.3
-20 22 6 43.9 25.3
-20 22 6 64.49 34.7
-2 -20 6 50.39 26.6
22 -2 6 63.19 25.4
-2 -20 6 57.59 23.2
3 19 -6 42.3 24.9
22 -3 6 16.9 21.6
-19 22 6 41 30.8
-3 -19 6 37.7 26.1
-19 22 6 69.59 26.7
-3 -19 6 23.1 22.5
4 18 -6 80.29 32.1
-4 -18 6 74.49 33.3
-18 22 6 138.19 44
-18 22 6 146.19 30.5
-4 -18 6 105.09 25.7
5 17 -6 47.8 24.8
-17 22 6 82.99 22.8
-5 -17 6 29.1 33.4
22 -5 6 76.39 27.2
-5 -17 6 39 29.4
-17 22 6 47.3 31.2
6 16 -6 121.89 30.5
-16 22 6 97.29 35.8
22 -6 6 49 24.9
-6 -16 6 118.79 32.9
-16 22 6 61.49 24.4
7 15 -6 54.89 27.6
-15 22 6 87.59 35.9
-7 -15 6 34.7 28.3
22 -7 6 12.1 20.9
-15 22 6 65.49 20.6
8 14 -6 135.79 33
22 -8 6 59.99 26.1
-14 22 6 124.89 26.1
-8 -14 6 75.39 28.7
-8 -14 6 87.69 58.09
-14 22 6 68.39 32.4
9 13 -6 56.69 25.6
-13 22 6 47.7 31.6
22 -9 6 51.49 25.9
-9 -13 6 24.6 27
-13 22 6 39.8 19.3
-9 -13 6 56.29 26.3
10 12 -6 112.69 30.3
22 -10 6 83.89 27.3
-10 -12 6 166.58 33.7
-12 22 6 31.2 32.6
-10 -12 6 89.79 33.5
-12 22 6 88.89 24.4
11 11 -6 45.6 27.2
-11 -11 6 69.39 32.1
22 -11 6 41.4 22.4
22 -11 6 44.1 27.2
-11 -11 6 36.2 25.6
-11 22 6 -2.2 25.2
-11 22 6 36.7 20.1
12 10 -6 127.19 32.5
-10 22 6 91.99 21.5
-12 -10 6 56.59 31.3
22 -12 6 126.99 32.7
22 -12 6 104.39 27.7
-10 22 6 135.59 35.5
13 9 -6 52.09 29.5
22 -13 6 60.59 23.7
22 -13 6 73.59 28
-9 22 6 26.3 16.8
-13 -9 6 87.19 35.6
-9 22 6 25.3 26.3
14 8 -6 66.39 31.3
-8 22 6 71.39 20.1
22 -14 6 96.79 31.4
-8 22 6 120.89 33.8
22 -14 6 133.99 29.4
-14 -8 6 141.79 42.9
15 7 -6 98.69 32.4
-7 22 6 56.59 18.7
22 -15 6 72.69 34.1
-7 22 6 33.3 23.3
-15 -7 6 26.1 30.3
22 -15 6 15.7 21.5
16 6 -6 140.59 45.7
-6 22 6 67.59 19.3
-16 -6 6 29.7 33.3
-6 22 6 109.69 32.5
22 -16 6 142.49 30.4
-17 -5 6 62.89 34
22 -17 6 31.4 21.7
-5 22 6 7.6 21.9
-5 22 6 30.5 19.7
-18 -4 6 78.49 40
-4 22 6 108.59 30.2
22 -18 6 138.29 46.2
-4 22 6 96.19 24
19 3 -6 52.79 31.8
22 -19 6 12.7 23.7
22 -19 6 48.1 22.4
-19 -3 6 42.7 35.3
20 2 -6 44.5 31.4
22 -20 6 90.99 25.8
-20 -2 6 31.2 50.79
22 -20 6 80.99 26.4
4 19 -6 76.09 43.4
-4 -19 6 34.1 27.8
-19 23 6 -3.9 29.7
-4 -19 6 -19.4 21.3
-19 23 6 43.6 24.5
23 -4 6 15.5 21.9
5 18 -6 43.2 42.4
-5 -18 6 57.59 25.2
-18 23 6 -31 20.1
-18 23 6 11.6 26.9
23 -5 6 27.6 23.1
-5 -18 6 -24.1 25.3
-6 -17 6 14.9 26.3
-17 23 6 -22 16.9
-17 23 6 15.5 30
23 -7 6 -2.3 19.3
-7 -16 6 18.6 29.2
-16 23 6 32.5 33.4
-16 23 6 16.8 22
-15 23 6 12 26.6
23 -8 6 -5 19.3
-8 -15 6 -59.79 20.8
-15 23 6 -2.2 19.8
-9 -14 6 63.99 26.3
-9 -14 6 -8.8 27.2
23 -9 6 51.49 23.8
-14 23 6 4 28.2
-14 23 6 33.2 18.1
10 13 -6 -23.1 43.5
-10 -13 6 6.7 28
-13 23 6 -34.7 21.9
-13 23 6 35.4 18.4
23 -10 6 24.3 22.2
-10 -13 6 -45.5 20.6
23 -11 6 15.3 19.2
-12 23 6 4.4 16.9
-11 -12 6 -1.5 24.6
-11 -12 6 -22.9 26.2
-12 23 6 -6.8 27.2
23 -12 6 -24.3 17.4
-12 -11 6 -2.3 25.7
-11 23 6 -14.4 16.2
-11 23 6 -8.2 23
-10 23 6 24.1 15.5
23 -13 6 7 19
-10 23 6 9.2 23.8
-13 -10 6 -18.2 23.5
23 -13 6 -4.2 30.6
14 9 -6 17.7 40.9
23 -14 6 6.1 27.5
-9 23 6 38.9 15.3
23 -14 6 -3.3 17.8
-14 -9 6 48 36
-9 23 6 1.7 24.6
15 8 -6 -5.5 26.5
-8 23 6 8.5 26
-8 23 6 0.5 15.6
23 -15 6 20.3 20.7
23 -15 6 29 26.7
-15 -8 6 -21.6 26.5
16 7 -6 -18.7 21.6
23 -16 6 -7.3 26.6
-7 23 6 11.8 16.4
23 -16 6 38.6 23.3
-16 -7 6 1.8 29.1
-7 23 6 24.6 24.8
17 6 -6 19.4 25.2
23 -17 6 -15.6 19.5
-17 -6 6 -10.1 27.2
-6 23 6 10.6 20.8
-6 23 6 -2.4 15.3
18 5 -6 27.4 28.4
-18 -5 6 11 30
-5 23 6 48.9 19.5
23 -18 6 49.7 25.5
-5 23 6 37.9 23.5
19 4 -6 11.4 28.2
23 -19 6 82.89 31.1
-4 23 6 20.3 18.4
-19 -4 6 -17 29.6
-7 -17 6 31.3 28.8
-17 24 6 18.9 34.5
8 16 -6 36.5 26.6
-16 24 6 92.49 33.9
-16 24 6 101.39 27
-8 -16 6 63.29 28.1
-8 -16 6 150.48 64.79
9 15 -6 50.69 27.8
24 -9 6 44.5 27.9
-15 24 6 48.6 33.2
-9 -15 6 56.89 28.3
-9 -15 6 -4.2 29.6
-15 24 6 40.5 21.5
10 14 -6 67.59 30.4
-10 -14 6 72.09 30.3
-14 24 6 60.09 31.6
-10 -14 6 51.69 32.8
-14 24 6 106.59 22
24 -10 6 83.29 26.4
11 13 -6 95.69 32
-11 -13 6 9.3 27.5
24 -11 6 19.8 23.2
-13 24 6 25.1 29.9
-13 24 6 64.59 22.3
12 12 -6 17 26.9
24 -12 6 85.49 27.9
-12 24 6 74.29 34.3
-12 24 6 135.69 25.3
-12 -12 6 81.69 34.4
13 11 -6 50.39 30.4
-11 24 6 46.6 29.7
-13 -11 6 17.6 29.3
-11 24 6 53.09 19.7
24 -13 6 1.3 20.2
14 10 -6 28.6 27.4
24 -14 6 45.2 24.9
-10 24 6 104.59 22.7
-10 24 6 82.79 31.9
-14 -10 6 129.59 40.9
15 9 -6 23.3 27.6
-15 -9 6 -10.2 28.3
24 -15 6 79.49 32.8
24 -15 6 32.5 23.9
-9 24 6 58.79 26.3
-9 24 6 73.99 20.6
16 8 -6 165.88 39.2
-8 24 6 17.1 23.9
24 -16 6 111.99 32.9
-16 -8 6 65.29 34.9
-8 24 6 76.49 22.4
24 -16 6 65.29 27
-17 -7 6 83.89 37.5
-7 24 6 50.99 26.1
0 0 -7 -5.2 17.4
0 0 7 -7.3 21.8
0 0 7 2.8 13.1
-1 0 -7 1.7 19.8
0 1 -7 11.9 20.3
0 1 -7 0.9 14.3
1 -1 -7 -4.9 20.6
1 0 7 -10.8 11.9
0 -1 7 -8.1 13.2
0 -1 7 3 24.1
-1 1 7 20.4 25.8
1 0 7 5.9 20.8
-1 1 7 4 13.3
1 0 -7 12.7 19.8
-1 1 -7 3.5 20.7
0 -1 -7 0.5 19.8
1 0 -7 -11.1 13
1 -1 7 22.2 26
1 -1 7 17.1 12.2
0 1 7 -5.8 23.4
-1 0 7 3.7 23.7
-1 0 7 11.5 13.4
0 1 7 12.4 14
2 -1 -7 -23.3 11.7
2 -1 -7 -4.8 17.1
-1 -1 -7 36.1 22.4
-1 2 -7 13.9 14.4
-1 2 -7 19.1 23.4
1 1 7 12.9 23.6
1 -2 7 -8.9 11.5
1 1 7 36.7 16.3
1 -2 7 9.3 23.3
-2 1 7 6.5 24.4
-2 1 7 14.1 13.6
-1 3 -7 10 16.2
3 -2 -7 30.4 22.2
-1 3 -7 65.09 28.6
3 -2 -7 12.8 15
-2 -1 -7 39.8 23.8
2 1 7 16.8 13.4
-3 2 7 0.6 22.1
1 -3 7 11.1 15.2
-3 2 7 28.8 16.3
1 -3 7 66.59 32.2
2 1 7 14.6 22.6
-2 0 -7 121.39 30.3
2 -2 -7 66.09 22.8
0 2 -7 141.39 29.2
0 2 -7 144.99 26.3
-2 2 7 96.69 20.7
2 0 7 121.69 21.9
0 -2 7 66.09 28.7
0 -2 7 99.39 22.1
2 0 7 196.08 36.7
-2 2 7 57.29 29.5
-2 1 -7 1.3 19.7
1 1 -7 -6.4 18
1 1 -7 6.3 15.2
1 -2 -7 20.3 18.4
-1 2 7 30 16.3
-1 -1 7 3.4 22.5
-1 2 7 26.8 24.8
2 -1 7 29 28.6
-1 -1 7 13.6 14.9
2 -1 7 21.1 14.7
2 0 -7 149.39 31.4
-2 2 -7 155.58 35.9
0 -2 -7 123.09 30.7
2 0 -7 135.69 23.4
0 2 7 154.18 24.2
0 2 7 153.48 37.4
-2 0 7 80.79 31.5
-2 0 7 140.19 25
2 -2 7 58.39 25.4
2 -2 7 111.99 23.8
-2 3 -7 13 16.1
-2 3 -7 -3 20.2
3 -1 -7 3.5 14.8
3 -1 -7 25 20.6
-1 -2 -7 35.1 24.9
-3 1 7 40.7 17.4
2 -3 7 47.6 17.9
1 2 7 54.29 30.3
2 -3 7 38.3 28.9
-3 1 7 38.3 26.5
1 2 7 17.7 14.2
-2 4 -7 456.45 49.6
-2 4 -7 340.87 35.3
-2 -2 -7 276.07 44.5
4 -2 -7 339.47 33
4 -2 -7 291.77 39.6
2 2 7 292.07 46
-4 2 7 359.46 34.6
2 -4 7 253.97 45.5
-4 2 7 298.67 43.1
2 -4 7 316.57 34.4
2 2 7 333.67 33.9
-3 -2 -7 13.8 21.3
5 -3 -7 45.2 25.6
5 -3 -7 33.4 16.9
-2 5 -7 24.8 17.1
-2 5 -7 5.4 22.3
3 2 7 74.19 20.6
2 -5 7 27.1 15.7
-5 3 7 55.99 20.1
2 -5 7 -3.2 21.3
-5 3 7 16.3 23.1
3 2 7 42.6 27.7
-3 -1 -7 31.1 24.8
-1 4 -7 63.39 19.1
-1 4 -7 95.29 28.8
4 -3 -7 66.49 17.7
4 -3 -7 61.69 24.2
3 1 7 67.19 28.9
3 1 7 25.6 15.6
-4 3 7 59.69 19.5
-4 3 7 95.49 30
1 -4 7 53.89 16.7
1 -4 7 77.39 29.7
0 3 -7 16 16.6
3 -3 -7 45 23.8
0 3 -7 28.5 20.7
-3 0 -7 33.2 20.9
-3 3 7 40.8 27.2
-3 3 7 32.3 17
3 0 7 15.6 14.8
3 0 7 14.6 23.6
0 -3 7 38.5 16
0 -3 7 36.7 28
2 -3 -7 21.2 22.3
1 2 -7 13.5 18.3
-3 1 -7 -5.1 21.6
1 2 -7 48.3 18.5
3 -1 7 0.9 22.7
-2 3 7 9.1 23.8
-1 -2 7 16.6 25.8
-2 3 7 24 15.7
3 -1 7 4.1 14.8
-1 -2 7 12.5 15.2
2 1 -7 11.8 22.4
2 1 -7 9.4 14.4
-3 2 -7 38.8 25.5
1 -3 -7 23.2 23.4
-2 -1 7 19.3 16
3 -2 7 13.9 24.3
-1 3 7 35.3 16.2
3 -2 7 22.4 16.4
-2 -1 7 14.2 26
-1 3 7 27.3 24.7
3 0 -7 14.6 20.5
-3 3 -7 27.6 22.6
0 -3 -7 27.4 24.4
3 0 -7 3.7 13.7
0 3 7 12.1 22.6
3 -3 7 26.2 24.9
3 -3 7 38.3 16.9
-3 0 7 18.1 14.5
-3 0 7 19.7 26.8
0 3 7 28.4 15.8
-3 4 -7 68.29 29.6
-3 4 -7 39.4 17.7
4 -1 -7 56.69 18.4
4 -1 -7 68.29 24
-1 -3 -7 81.09 29.9
1 3 7 49.7 28.9
3 -4 7 100.99 22.4
3 -4 7 47 29.7
-4 1 7 71.99 32.1
-4 1 7 39.6 16.1
1 3 7 49.7 17.7
-3 5 -7 37.2 25.8
5 -2 -7 42.1 17.2
-2 -3 -7 21.9 24.4
-3 5 -7 51.39 19.1
5 -2 -7 32.7 26.5
3 -5 7 64.39 28.4
-5 2 7 63.19 18.8
3 -5 7 63.39 20.2
-5 2 7 25.1 25.4
2 3 7 18.4 14.4
2 3 7 12.9 24.4
6 -3 -7 10.2 15
-3 6 -7 40.6 18.9
-3 6 -7 25.4 22.2
-3 -3 -7 49 29.3
3 3 7 1.9 13.2
-6 3 7 27.3 17.9
3 -6 7 25.4 23.3
3 3 7 3.1 21.6
-6 3 7 28.9 27.2
3 -6 7 22.9 17.2
-3 7 -7 80.99 38.2
-4 -3 -7 78.99 30.3
7 -4 -7 109.89 20.8
-3 7 -7 100.89 30.8
4 3 7 119.39 37.9
3 -7 7 154.98 35.7
-7 4 7 127.39 24.8
-7 4 7 130.09 43
3 -7 7 114.09 22.8
4 3 7 96.79 22.7
-2 6 -7 450.95 41.4
-4 -2 -7 512.95 55.99
6 -4 -7 482.35 39.1
-2 6 -7 501.65 53.49
-6 4 7 493.75 58.99
-6 4 7 485.45 41.7
2 -6 7 463.35 41
4 2 7 449.86 40.1
4 2 7 471.65 54.39
2 -6 7 407.46 53.09
-4 -1 -7 49.99 30.1
-1 5 -7 64.99 24.7
-1 5 -7 127.09 26.1
5 -4 -7 120.59 29.5
5 -4 -7 112.59 21.1
1 -5 7 44.7 25.8
4 1 7 83.19 20.3
4 1 7 156.18 38.8
-5 4 7 113.89 33.3
1 -5 7 81.39 20.2
-5 4 7 99.49 22.2
0 4 -7 515.85 42.3
0 4 -7 491.55 51.49
4 -4 -7 486.95 49
-4 0 -7 431.46 81.89
4 0 7 506.85 55.09
-4 4 7 512.05 58.69
0 -4 7 494.35 42.2
0 -4 7 454.55 56.19
4 0 7 532.75 43.2
-4 4 7 489.75 41.8
1 3 -7 66.79 21.1
1 3 -7 37.5 24.5
3 -4 -7 77.79 25.3
-4 1 -7 38.9 27.2
-1 -3 7 64.99 19.3
-1 -3 7 45.2 30.7
4 -1 7 20 22.9
4 -1 7 51.69 17.9
-3 4 7 88.99 22.5
-3 4 7 51.89 29.1
2 2 -7 384.06 35.4
-4 2 -7 258.57 46.5
2 -4 -7 322.37 43.8
2 2 -7 337.37 43.7
-2 4 7 294.07 45.5
4 -2 7 413.96 59.69
-2 -2 7 310.97 39.2
4 -2 7 239.38 38.9
-2 4 7 357.76 34.8
-2 -2 7 328.37 49.3
3 1 -7 66.79 19.7
1 -4 -7 42.6 23.6
-4 3 -7 39.8 25.4
3 1 -7 35.5 21.9
4 -3 7 39.8 24.1
-3 -1 7 91.79 31.5
-1 4 7 53.99 17.9
4 -3 7 52.19 19.3
-3 -1 7 46.3 18.2
-1 4 7 46.2 25.8
4 0 -7 559.74 42.6
-4 4 -7 503.25 56.29
0 -4 -7 487.65 55.09
4 0 -7 499.65 50.69
-4 0 7 543.25 44.7
-4 0 7 577.24 59.19
0 4 7 553.34 43.8
0 4 7 501.15 56.79
4 -4 7 497.15 43
4 -4 7 554.54 56.89
5 -1 -7 134.69 23.9
-1 -4 -7 89.39 28.2
5 -1 -7 142.79 32.6
-4 5 -7 59.09 28
-5 1 7 99.09 23.9
1 4 7 114.69 23
4 -5 7 102.29 22.2
1 4 7 89.29 32.6
-5 1 7 68.29 32.4
4 -5 7 161.08 36.5
-4 6 -7 481.15 53.49
6 -2 -7 275.17 52.69
6 -2 -7 491.75 40.6
-4 6 -7 428.76 40.3
-2 -4 -7 575.54 57.29
-6 2 7 483.25 41.8
2 4 7 416.76 53.09
4 -6 7 388.06 52.19
4 -6 7 476.45 41.5
2 4 7 544.15 41.9
-6 2 7 502.25 57.39
-3 -4 -7 120.79 36.5
-4 7 -7 116.49 32.1
-4 7 -7 142.49 41.2
7 -3 -7 90.89 21
-7 3 7 78.49 45.1
4 -7 7 108.69 24.5
3 4 7 122.69 23.7
4 -7 7 136.69 33
-7 3 7 108.79 23.8
3 4 7 144.49 35.5
-4 8 -7 484.95 50.79
-4 -4 -7 476.95 57.89
-4 8 -7 599.14 57.49
8 -4 -7 561.74 43.1
-8 4 7 365.66 59.59
4 -8 7 591.14 46.5
4 -8 7 626.34 59.19
4 4 7 606.84 72.49
4 4 7 544.65 44.8
-8 4 7 602.64 46.6
-5 -4 -7 89.99 31.4
-4 9 -7 61.89 26.8
9 -5 -7 66.29 19
-4 9 -7 84.29 21.5
4 -9 7 68.49 20.9
-9 5 7 38.6 19.4
5 4 7 71.39 22.9
4 -9 7 -7.2 25.9
-9 5 7 58.49 30.7
5 4 7 43.4 39.8
-3 8 -7 83.79 26.4
8 -5 -7 43.3 17
-5 -3 -7 43.6 25.8
-3 8 -7 28.9 19.5
3 -8 7 30.6 27.7
3 -8 7 20.7 15.1
-8 5 7 15.9 15.4
-8 5 7 31.8 33.1
5 3 7 25.9 42.6
5 3 7 28.6 18.4
7 -5 -7 23.7 15.6
-2 7 -7 27.3 29.9
-5 -2 -7 20.9 23
-2 7 -7 2.4 22.7
5 2 7 21.7 27.2
-7 5 7 7 28.3
-7 5 7 13.1 16.5
2 -7 7 27.1 15.3
2 -7 7 14 22.3
5 2 7 15.5 14.9
6 -5 -7 20.1 18.3
-1 6 -7 74.09 28.4
-5 -1 -7 59.69 27.4
-1 6 -7 95.59 23.5
-6 5 7 42.5 18.4
-6 5 7 46.5 27.7
5 1 7 91.39 31.1
5 1 7 60.49 19.2
1 -6 7 35.2 24.7
1 -6 7 36.8 17.1
0 5 -7 9.5 16.7
5 -5 -7 11.9 18.4
0 5 -7 10.2 20.1
-5 5 7 5.1 15.5
5 0 7 20.7 15
-5 5 7 28.2 28.2
0 -5 7 6.1 14.1
0 -5 7 6.5 21.9
5 0 7 60.79 26.9
1 4 -7 96.29 21.6
-5 1 -7 84.49 48.4
4 -5 -7 92.99 26.3
1 4 -7 124.09 31.8
5 -1 7 104.39 26.5
-4 5 7 85.99 35.6
5 -1 7 110.19 31.8
-1 -4 7 89.19 33.2
-1 -4 7 95.49 21.9
-4 5 7 110.19 23.6
3 -5 -7 108.49 29.9
2 3 -7 34.6 19.7
-5 2 -7 41.9 26.3
2 3 -7 27.2 20.6
-3 5 7 41 27.6
-3 5 7 13.9 16.2
5 -2 7 26.7 26.5
-2 -3 7 14.9 26.7
-2 -3 7 26.5 15.9
-5 3 -7 57.79 28.6
3 2 -7 52.99 19.9
2 -5 -7 59.69 26.9
3 2 -7 37.9 20.5
5 -3 7 47.1 24.7
5 -3 7 14.7 18
-2 5 7 30.3 24.9
-2 5 7 32.7 17.2
-3 -2 7 10.4 24.5
-5 4 -7 106.89 30.9
4 1 -7 128.79 23.8
1 -5 -7 138.59 33.6
4 1 -7 66.19 25.2
-1 5 7 49.3 27.7
-4 -1 7 137.49 37.2
-4 -1 7 115.49 34
5 -4 7 89.79 31.6
-1 5 7 63.59 17.8
5 -4 7 82.29 21
5 0 -7 25.3 19.5
-5 5 -7 -7.6 20.9
5 0 -7 27 17.2
0 -5 -7 9.1 22.7
-5 0 7 36.7 17.5
0 5 7 9.8 14.4
5 -5 7 -12.2 12.8
5 -5 7 6.2 26.5
-5 0 7 -3.8 23.7
0 5 7 32.4 29.5
6 -1 -7 35.7 17.6
-5 6 -7 37.8 25.6
-1 -5 -7 37.4 24.1
-6 1 7 51.79 19.5
5 -6 7 21.2 25.9
1 5 7 62.79 30.3
1 5 7 59.49 19.5
5 -6 7 83.89 22.4
-6 1 7 22.2 22.8
-2 -5 -7 50.29 26.4
-5 7 -7 33.7 35.2
-5 7 -7 46.9 29.3
7 -2 -7 24.6 16.2
2 5 7 38.6 25.5
5 -7 7 32.5 18.1
-7 2 7 17 16.6
5 -7 7 76.79 28.3
2 5 7 20.9 15.7
-7 2 7 35.3 43
-3 -5 -7 -1.5 22.5
-5 8 -7 21.8 20.2
-5 8 -7 48.7 23.8
8 -3 -7 17.1 16.2
-8 3 7 8.5 15.9
-8 3 7 30.9 27.5
3 5 7 22.6 26.7
5 -8 7 17.5 24.3
5 -8 7 15 15.4
3 5 7 24.4 17.1
-4 -5 -7 47.2 25.6
-5 9 -7 156.18 40
9 -4 -7 106.69 21.2
-5 9 -7 65.89 21.7
-9 4 7 171.28 43.6
-9 4 7 101.99 23.8
5 -9 7 85.79 32.2
5 -9 7 78.69 21.3
4 5 7 51.89 20.6
-5 10 -7 43.5 19.2
-5 -5 -7 76.89 29.7
10 -5 -7 77.19 19.9
-5 10 -7 8 22.1
-10 5 7 34.5 22.8
5 -10 7 98.69 30.9
5 5 7 13.5 22.5
5 5 7 39.3 19.9
-10 5 7 24.5 18.3
5 -10 7 47.2 18.8
11 -6 -7 81.39 21
-5 11 -7 37.9 20.5
-5 11 -7 52.49 28.2
-6 -5 -7 28 26.3
-11 6 7 96.89 38.2
6 5 7 54.09 29
5 -11 7 67.99 21.7
-11 6 7 89.79 22.4
5 -11 7 27.1 29
6 5 7 52.99 19.2
-4 10 -7 398.06 50.29
10 -6 -7 409.76 35.8
-4 10 -7 439.36 42
-6 -4 -7 313.67 51.29
6 4 7 437.06 52.69
6 4 7 377.76 39.3
4 -10 7 424.76 40.1
4 -10 7 434.46 53.09
-10 6 7 447.76 42.3
-10 6 7 455.15 56.49
-3 9 -7 107.19 33.7
-6 -3 -7 64.49 28.4
9 -6 -7 126.69 22.7
-3 9 -7 77.69 22.3
6 3 7 96.69 22.8
-9 6 7 16.3 23.6
-9 6 7 90.39 24.1
3 -9 7 180.88 40.2
6 3 7 75.79 28.4
3 -9 7 117.29 25.1
-6 -2 -7 426.96 52.79
-2 8 -7 374.66 41.6
8 -6 -7 400.76 35.5
-2 8 -7 481.25 50.59
-8 6 7 337.97 67.29
-8 6 7 444.96 40.6
6 2 7 317.37 67.89
6 2 7 437.06 40
2 -8 7 498.55 54.49
2 -8 7 433.96 39.5
-1 7 -7 67.59 25.9
-6 -1 -7 82.79 33
-7 6 7 59.59 20.2
6 1 7 81.49 21
-7 6 7 197.48 55.99
1 -7 7 47.8 27.7
1 -7 7 95.29 23.4
0 6 -7 544.35 49.9
0 6 -7 364.46 46.8
6 -6 -7 385.86 44.2
-6 6 7 431.06 39.6
0 -6 7 394.56 51.99
6 0 7 345.47 54.49
0 -6 7 438.86 40
6 0 7 430.96 39.3
-6 6 7 306.67 47.9
5 -6 -7 21.6 21.9
1 5 -7 78.79 22.4
1 5 -7 7.4 19.4
6 -1 7 50.89 27.1
-5 6 7 53.89 19.4
-5 6 7 49.9 27.5
-1 -5 7 67.39 30.5
-1 -5 7 78.09 21.7
-6 2 -7 440.96 55.29
2 4 -7 527.75 42.9
4 -6 -7 425.86 48
2 4 -7 433.76 47.6
-2 -4 7 412.46 55.29
-4 6 7 492.85 41.1
-4 6 7 479.45 57.99
6 -2 7 373.36 51.19
3 3 -7 0.5 15.7
3 -6 -7 12.4 20.5
3 3 -7 18.1 20.3
-6 3 -7 16.3 22.7
-3 -3 7 50.59 28.5
-3 -3 7 24.4 27.4
-3 6 7 98.19 30.2
6 -3 7 59.79 26.6
-3 6 7 23.6 16.1
2 -6 -7 371.16 48.1
4 2 -7 563.54 43.7
-6 4 -7 479.15 56.49
4 2 -7 454.55 46.9
-2 6 7 434.56 39.5
6 -4 7 437.06 53.09
-4 -2 7 499.45 57.19
-2 6 7 508.65 56.39
6 -4 7 470.55 42.2
-6 5 -7 46.3 30.5
1 -6 -7 44.3 28.6
5 1 -7 34.3 18.8
5 1 -7 -0.6 17.4
6 -5 7 96.79 32.6
-1 6 7 35.8 15.7
-1 6 7 108.39 34.7
-5 -1 7 46.2 27.2
6 -5 7 47 19.2
-6 6 -7 480.75 52.69
0 -6 -7 354.56 49
6 0 -7 406.96 39.5
-6 0 7 390.46 40.4
6 -6 7 471.35 52.19
-6 0 7 448.76 63.09
6 -6 7 423.36 38.7
0 6 7 292.37 49.3
0 6 7 454.75 38.1
7 -1 -7 58.99 20.2
-6 7 -7 101.79 35.5
-1 -6 -7 69.09 27.8
-7 1 7 104.09 41.8
6 -7 7 73.49 30.8
1 6 7 114.09 22.1
1 6 7 96.39 31.3
6 -7 7 114.69 24.8
-7 1 7 107.79 24.2
-2 -6 -7 391.26 51.29
-6 8 -7 382.96 43
-6 8 -7 335.67 50.19
8 -2 -7 376.96 37
-8 2 7 380.16 38.6
2 6 7 412.86 60.29
-8 2 7 353.96 64.09
6 -8 7 434.96 38.9
2 6 7 421.96 38.8
6 -8 7 436.76 51.19
-6 9 -7 117.69 34.3
-6 9 -7 125.19 26.3
9 -3 -7 101.29 23.6
-3 -6 -7 103.59 33.5
6 -9 7 110.29 22.9
6 -9 7 102.09 33.7
3 6 7 68.09 19.3
-9 3 7 85.59 21.8
3 6 7 55.59 34.1
-9 3 7 71.99 28.3
10 -4 -7 372.86 36.5
-6 10 -7 403.66 50.39
-6 10 -7 374.16 39.3
-4 -6 -7 418.06 52.99
-10 4 7 371.56 39.5
4 6 7 298.87 52.19
4 6 7 298.67 35.6
-10 4 7 462.85 55.59
6 -10 7 380.86 38
6 -10 7 359.16 48.9
-6 11 -7 79.49 31.5
11 -5 -7 88.69 20.8
-5 -6 -7 39 24.5
-6 11 -7 93.39 24.1
-11 5 7 77.49 32
5 6 7 114.99 35.7
5 6 7 34.5 17.8
-11 5 7 87.99 22.7
6 -11 7 87.39 29.5
6 -11 7 51.49 20
12 -6 -7 315.87 33.5
-6 12 -7 420.06 49.9
-6 12 -7 386.46 39.2
6 -12 7 363.26 38.5
6 6 7 324.17 50.49
6 -12 7 409.46 50.19
-12 6 7 377.86 60.99
-12 6 7 382.16 39.2
6 6 7 342.47 37.4
-6 13 -7 13.8 18.8
13 -7 -7 4.6 14.5
-6 13 -7 13.1 23.8
-13 7 7 19.9 18.9
-13 7 7 34.5 30.1
6 -13 7 9.7 18.2
6 -13 7 40.4 28.6
7 6 7 3.3 15.1
7 6 7 9.7 21.6
12 -7 -7 78.29 19.5
-5 12 -7 109.29 26.1
-5 12 -7 59.79 26.9
5 -12 7 53.69 20.7
-12 7 7 5.9 27.1
5 -12 7 7.9 23.8
-12 7 7 69.59 23.2
7 5 7 85.49 21.8
7 5 7 83.39 33
-4 11 -7 8.7 23.1
-4 11 -7 64.89 22.6
11 -7 -7 33.7 16.4
4 -11 7 23.7 28.9
-11 7 7 21.3 29.4
-11 7 7 13.7 17.4
7 4 7 47.5 20.7
7 4 7 57.19 27.6
4 -11 7 18.1 17.2
-3 10 -7 41.8 20
-3 10 -7 -1.7 21.9
10 -7 -7 48.6 16.7
-10 7 7 13.6 27.9
7 3 7 41.8 24.4
3 -10 7 69.99 29.9
-10 7 7 23.3 19.1
3 -10 7 29.7 18.2
7 3 7 37.5 17.7
-2 9 -7 35.2 21.9
-2 9 -7 9 17
-7 -2 -7 5.5 20.6
9 -7 -7 19.9 14.6
-9 7 7 40 18.9
7 2 7 3.8 19.6
2 -9 7 90.49 21.4
7 2 7 20.1 17.2
-9 7 7 3.2 20.7
2 -9 7 14.1 28.1
-1 8 -7 54.19 20.3
-7 -1 -7 25.3 23.3
-1 8 -7 21.9 19.9
1 -8 7 59.59 30.4
-8 7 7 12.9 16.6
-8 7 7 -11.4 27.1
1 -8 7 32.1 17.8
7 1 7 44.7 25.6
7 1 7 29.5 18.5
0 7 -7 -15.4 18.4
0 7 -7 -3.2 17.2
7 -7 -7 27.2 20.1
7 0 7 -16.5 12.9
0 -7 7 -0.6 23.5
-7 7 7 7.3 41.4
-7 7 7 10.2 15.5
7 0 7 25.8 29.3
0 -7 7 13.1 16.3
6 -7 -7 120.29 29.1
1 6 -7 143.19 33.6
-6 7 7 102.49 22.9
-6 7 7 73.39 29.2
-1 -6 7 53.09 29.9
-1 -6 7 145.69 26.2
5 -7 -7 29.8 21.7
2 5 -7 21.3 21
2 5 -7 42.6 23
-5 7 7 21.4 24.6
-2 -5 7 16.4 26.2
-5 7 7 21.9 15.8
7 -2 7 37.2 30.1
-2 -5 7 11 15.4
3 4 -7 159.18 32.3
3 4 -7 155.68 29.4
-7 3 -7 76.89 29.1
4 -7 -7 121.09 29
-4 7 7 71.59 30
-3 -4 7 124.69 24.8
7 -3 7 74.49 29.5
-4 7 7 110.59 22.8
-3 -4 7 147.39 37.5
4 3 -7 137.89 31.2
4 3 -7 104.89 25
3 -7 -7 75.29 27.6
-7 4 -7 137.59 37.5
7 -4 7 103.69 31.1
7 -4 7 134.99 26.7
-3 7 7 109.29 34
-3 7 7 124.99 23.6
-4 -3 7 121.59 31.2
-7 5 -7 24.7 26.2
2 -7 -7 89.89 29.1
5 2 -7 35.2 19.1
7 -5 7 34.2 26.8
7 -5 7 45.8 20.3
-2 7 7 66.79 33.9
-5 -2 7 5.6 24.1
-2 7 7 7.1 13.3
6 1 -7 120.59 26.1
1 -7 -7 139.79 35
-7 6 -7 134.59 37.7
7 -6 7 112.39 25.3
-6 -1 7 62.59 31.4
-1 7 7 63.89 18
-1 7 7 53.99 27.8
7 -6 7 78.99 30.5
-7 7 -7 -10.3 20.7
7 0 -7 -9.8 15
0 -7 -7 6.1 21.9
7 -7 7 -2.2 16.1
-7 0 7 16 38.2
7 -7 7 14.2 22.3
0 7 7 -10.9 22.1
0 7 7 19.2 14.6
8 -1 -7 13.8 17.2
-7 8 -7 75.39 29.6
-1 -7 -7 33 24.1
7 -8 7 27.7 25
1 7 7 38.9 15.8
7 -8 7 19.6 15.9
1 7 7 89.39 35
-8 1 7 81.89 20.8
-8 1 7 -16.4 22.8
-7 9 -7 21.8 26
9 -2 -7 4.1 15.7
-2 -7 -7 -4.5 22
2 7 7 31.7 25.1
7 -9 7 30.1 17.4
-9 2 7 10.5 26.6
7 -9 7 -4.8 19.9
2 7 7 23 15.2
-9 2 7 17.3 16.3
-3 -7 -7 -2.4 22.4
-7 10 -7 55.99 21.7
10 -3 -7 37.9 18.3
-7 10 -7 83.29 28.8
7 -10 7 47.2 18.8
3 7 7 3.6 36.6
-10 3 7 62.09 20.4
-10 3 7 14.5 25.6
3 7 7 34.5 17.4
7 -10 7 8.3 22.6
-7 11 -7 -4.4 22.7
-4 -7 -7 45 24.6
11 -4 -7 26 17.6
-7 11 -7 19.3 19.4
4 7 7 39.2 30.3
-11 4 7 50.29 19.5
7 -11 7 29.1 19
-11 4 7 41.5 30.9
7 -11 7 4.2 22.8
4 7 7 18.3 15.8
-7 12 -7 74.79 26.9
12 -5 -7 61.19 20.1
-7 12 -7 94.99 24.1
7 -12 7 73.79 29
5 7 7 79.29 27.9
7 -12 7 52.79 21
-12 5 7 18.1 19
5 7 7 72.89 21.6
-12 5 7 45.9 26.6
-7 13 -7 -3.1 16.8
13 -6 -7 45.8 18.6
-7 13 -7 -2.3 22.9
6 7 7 50.39 20.4
6 7 7 -3.3 20.7
7 -13 7 6.3 17.1
7 -13 7 30.7 26.6
-13 6 7 41.4 20.1
-13 6 7 28.6 29.6
-7 14 -7 133.49 28.8
-7 14 -7 81.59 32.7
14 -7 -7 106.39 22.7
7 7 7 96.39 33.7
-14 7 7 120.19 43.2
7 7 7 161.78 28.9
-14 7 7 148.39 39
7 -14 7 89.99 30.3
7 -14 7 99.29 23.6
-7 15 -7 -4.6 17.7
15 -8 -7 -12.8 14.3
-8 -7 -7 8.7 58.39
-7 15 -7 20.3 23.3
7 -15 7 10.9 19.7
-15 8 7 -11.5 24.5
7 -15 7 4.3 22.3
8 7 7 27.8 26.4
8 7 7 8.2 18.8
-15 8 7 58.59 37.9
14 -8 -7 262.37 30.3
-6 14 -7 340.17 43.3
-6 14 -7 253.47 40.4
-8 -6 -7 157.18 45.2
-14 8 7 276.77 52.59
8 6 7 212.18 41
6 -14 7 257.87 32.6
6 -14 7 388.36 49.7
-14 8 7 236.68 35.4
-5 13 -7 8.8 21.4
13 -8 -7 12.7 14.5
-5 13 -7 18.9 17.9
-13 8 7 31.7 27.6
8 5 7 39.5 27.1
5 -13 7 9.1 18.4
-13 8 7 25.3 18.7
5 -13 7 10.7 23.4
8 5 7 29.3 19.7
-4 12 -7 253.37 40.5
-4 12 -7 285.87 36.3
12 -8 -7 332.17 30.1
-12 8 7 293.37 35.4
8 4 7 348.57 36.4
4 -12 7 264.77 44.8
-12 8 7 210.48 44
8 4 7 264.07 50.79
4 -12 7 205.78 31.8
-3 11 -7 37.7 24.7
11 -8 -7 75.49 17.9
-3 11 -7 59.19 24.3
8 3 7 102.49 23
8 3 7 101.09 30.7
3 -11 7 98.09 23.3
3 -11 7 76.59 33.7
-11 8 7 98.69 23.3
-11 8 7 54.39 31.3
-2 10 -7 355.56 44.5
-2 10 -7 292.47 37.1
2 -10 7 256.57 43.7
-10 8 7 339.37 56.39
-10 8 7 306.27 36.1
2 -10 7 256.27 32.6
8 2 7 287.17 46.8
8 2 7 183.58 30.6
-1 9 -7 52.69 22.7
-1 9 -7 91.89 30.8
-9 8 7 37.7 26
1 -9 7 108.19 33.4
1 -9 7 84.79 20.5
-9 8 7 90.69 22.5
8 1 7 113.69 31.6
8 1 7 66.09 22.1
0 8 -7 245.48 36.7
0 8 -7 303.57 46
0 -8 7 271.47 48.2
-8 8 7 266.97 53.69
0 -8 7 295.67 31.9
8 0 7 234.58 44.8
-8 8 7 281.97 32.7
1 7 -7 44.2 23.6
1 7 -7 28.7 20.2
7 -8 -7 19.7 18.2
-7 8 7 5.8 39.8
-1 -7 7 73.09 34.2
-1 -7 7 46.6 17.4
8 -1 7 1.8 22.7
-7 8 7 51.79 20
6 -8 -7 339.57 44.1
2 6 -7 420.96 46.4
2 6 -7 357.56 43
-2 -6 7 376.36 36.8
-2 -6 7 369.36 54.49
-6 8 7 470.35 58.89
8 -2 7 405.76 52.09
-6 8 7 364.46 36.2
3 5 -7 -9.2 16.4
5 -8 -7 16.5 18.8
3 5 -7 17.2 33.6
-8 3 -7 63.59 33.6
-5 8 7 73.09 22
-3 -5 7 39 30.1
-3 -5 7 34.7 17.8
-5 8 7 9 26.9
8 -3 7 39.9 36.1
4 4 -7 484.55 49.4
4 -8 -7 454.75 50.59
-8 4 -7 566.04 59.69
4 4 -7 592.04 83.49
8 -4 7 480.55 44.2
-4 8 7 459.75 57.59
-4 -4 7 506.95 58.79
-4 -4 7 595.64 45.1
-4 8 7 477.25 40.4
3 -8 -7 9.5 20.1
5 3 -7 -1.2 18.2
-8 5 -7 22.4 24.7
8 -5 7 19.5 16.3
-3 8 7 25.3 14.3
-5 -3 7 29.1 28.1
8 -5 7 53.89 37.4
-3 8 7 28.3 29.9
2 -8 -7 413.46 49
-8 6 -7 378.96 51.69
6 2 -7 466.45 42.5
-2 8 7 450.55 54.99
-6 -2 7 255.27 46.2
-2 8 7 356.26 34.9
8 -6 7 399.06 38.8
8 -6 7 499.75 72.99
1 -8 -7 26.9 25.7
-8 7 -7 -7.2 21.9
7 1 -7 25.4 18.3
8 -7 7 30.1 17.2
8 -7 7 71.49 29.6
-1 8 7 51.69 30.5
-1 8 7 42.6 16.7
0 -8 -7 269.77 45.1
8 0 -7 309.47 34.2
-8 8 -7 170.38 36.9
0 8 7 272.77 30.5
0 8 7 358.66 55.09
-8 0 7 161.18 37.4
8 -8 7 298.87 47.9
8 -8 7 309.47 34.6
-8 9 -7 70.79 31.8
9 -1 -7 67.89 21.6
-1 -8 -7 85.49 31.2
8 -9 7 113.19 25.1
-9 1 7 67.19 29
1 8 7 66.79 32.8
-9 1 7 79.09 22.4
1 8 7 58.19 18.4
8 -9 7 67.29 32.2
-8 10 -7 293.57 47.7
10 -2 -7 294.47 34.8
-2 -8 -7 313.77 53.39
-10 2 7 291.27 52.59
8 -10 7 278.37 45.7
-10 2 7 208.18 32.3
8 -10 7 267.47 33.2
2 8 7 258.67 32.2
-8 11 -7 60.89 21.7
-3 -8 -7 108.89 31.3
11 -3 -7 74.99 22.1
-8 11 -7 30.4 27.3
3 8 7 62.99 20.8
3 8 7 74.89 32
-11 3 7 70.99 29.5
-11 3 7 45.4 20
8 -11 7 59.99 26.5
8 -11 7 73.09 20.7
-8 12 -7 376.36 48.5
-8 12 -7 317.37 37
12 -4 -7 375.76 36.1
-4 -8 -7 170.08 39.6
8 -12 7 232.58 44.7
4 8 7 264.37 34.1
-12 4 7 248.18 52.39
-12 4 7 263.07 37.9
8 -12 7 297.27 35.2
4 8 7 263.97 47.9
-8 13 -7 37.5 21
13 -5 -7 72.49 20.2
-8 13 -7 29.9 24.7
5 8 7 19.6 16.6
-13 5 7 44.2 23.8
8 -13 7 30.9 19.7
8 -13 7 19.4 24.7
5 8 7 81.09 32.4
-13 5 7 -0.5 26.6
14 -6 -7 286.97 33.8
-8 14 -7 282.47 40.4
-8 14 -7 282.47 42.8
6 8 7 307.07 36.1
-14 6 7 223.48 44.6
6 8 7 321.67 51.79
8 -14 7 303.17 45.6
8 -14 7 286.37 37.8
-8 15 -7 34.6 23.4
-8 15 -7 4.2 18
-7 -8 -7 6.1 32
15 -7 -7 2.9 15.5
8 -15 7 20.9 24.8
-15 7 7 6.8 19.6
8 -15 7 -11.1 16.9
-15 7 7 15 25.7
7 8 7 26.5 21.9
16 -8 -7 198.08 28.7
-8 16 -7 212.88 34.8
-8 16 -7 163.08 38.2
-8 -8 -7 92.99 33.3
8 -16 7 199.88 39.2
8 -16 7 259.57 33.3
-16 8 7 188.88 46.7
-16 8 7 257.37 39.6
8 8 7 174.08 31.6
8 8 7 105.99 30.8
-8 17 -7 -8.9 17.9
-8 17 -7 -28.1 22.3
17 -9 -7 -4.9 14
-9 -8 -7 47.9 34.7
8 -17 7 6.7 21.6
8 -17 7 33.4 19.7
-17 9 7 7.1 30.6
-17 9 7 -31.5 19.8
-7 16 -7 128.89 36.5
16 -9 -7 78.59 18.6
-7 16 -7 72.39 24.4
-9 -7 -7 51.29 29.8
7 -16 7 76.89 31.7
-16 9 7 80.19 27.4
-16 9 7 41.4 29.1
9 7 7 77.59 24.4
7 -16 7 118.79 24.8
-6 15 -7 22.6 26.8
-6 15 -7 -9.3 16.6
-9 -6 -7 -25 22.6
15 -9 -7 26.6 15.5
6 -15 7 36.9 20.3
-15 9 7 31.4 31.7
9 6 7 33.3 24.4
6 -15 7 -8 24.4
9 6 7 29.1 19
-5 14 -7 34.9 21.9
-9 -5 -7 124.39 53.69
14 -9 -7 78.49 18.2
-5 14 -7 93.49 28.4
5 -14 7 44.7 19.2
5 -14 7 99.99 29.6
9 5 7 17.6 21.6
-14 9 7 82.99 24.2
9 5 7 42 26.7
-14 9 7 78.59 34.7
13 -9 -7 7.8 14.6
-4 13 -7 8.3 20.3
-4 13 -7 29.7 20.1
-9 -4 -7 38.2 35.6
-13 9 7 35.7 21.1
4 -13 7 53.29 27.5
-13 9 7 39.5 28.4
4 -13 7 -5.3 16.8
9 4 7 36.6 25.3
-3 12 -7 12.3 18.4
-3 12 -7 70.39 28
3 -12 7 40.4 29
3 -12 7 25.2 18.4
-12 9 7 14.2 18.1
9 3 7 16.8 17
-12 9 7 10.5 24.1
9 3 7 25.9 23.7
-2 11 -7 42.1 21.5
-2 11 -7 6.3 18.7
9 2 7 8.1 16.4
9 2 7 33.2 22.4
-11 9 7 13.6 28
2 -11 7 39.8 29.4
-11 9 7 44.9 20.1
2 -11 7 -4.1 15.3
-1 10 -7 -8.5 18.5
-1 10 -7 49.6 22.3
-10 9 7 8.4 25.8
-10 9 7 9.1 17.8
1 -10 7 42 17.1
9 1 7 86.09 27.9
1 -10 7 53.29 30.1
9 1 7 28.7 19
0 9 -7 24.4 21.8
0 9 -7 8.3 16.9
-9 9 7 20.2 28.1
-9 9 7 0.7 15.6
0 -9 7 6 24.8
9 0 7 32 23.8
0 -9 7 2.3 14.2
1 8 -7 76.99 25
1 8 -7 85.19 25.2
-1 -8 7 129.89 37.1
9 -1 7 91.29 31.5
-8 9 7 36.7 28.9
-1 -8 7 86.79 20.3
-8 9 7 67.79 21.3
7 -9 -7 21.6 18.7
2 7 -7 3.7 17.9
2 7 -7 17.9 18.2
9 -2 7 33.8 21.3
-2 -7 7 63.59 32.5
-7 9 7 31.7 16.5
-2 -7 7 27.9 16.2
6 -9 -7 87.19 24.9
3 6 -7 111.69 25.4
3 6 -7 88.19 24.6
-3 -6 7 136.09 26.2
-6 9 7 114.39 22.8
-3 -6 7 95.59 33
9 -3 7 116.09 35.1
-6 9 7 107.99 54.29
5 -9 -7 80.09 24.3
4 5 -7 69.09 25.5
-9 4 -7 56.19 29.9
-4 -5 7 41.7 27
9 -4 7 26.4 20.1
-5 9 7 63.19 32.5
9 -4 7 12 20.2
-5 9 7 87.89 20.6
-4 -5 7 44 18.3
5 4 -7 77.79 23.9
-9 5 -7 10.6 25.4
4 -9 -7 48.9 26
9 -5 7 33.1 17
-4 9 7 86.19 20.1
9 -5 7 37.7 27
-5 -4 7 55.89 31.6
-4 9 7 13.8 26.8
-5 -4 7 51.59 19
6 3 -7 104.99 29.2
3 -9 -7 121.69 31.7
-9 6 -7 72.19 29.6
-3 9 7 96.99 20.4
9 -6 7 66.09 21
9 -6 7 93.89 40.1
-6 -3 7 58.39 32.7
-3 9 7 46.1 27.6
-9 7 -7 8.4 21.9
7 2 -7 71.19 41.4
2 -9 -7 15 23.4
9 -7 7 35.7 17.5
-2 9 7 28.6 15.4
-7 -2 7 -23 33.7
9 -7 7 44.5 31.5
-2 9 7 21.6 27.2
-9 8 -7 35.4 26.9
1 -9 -7 50.49 27.3
-1 9 7 157.28 36.5
-1 9 7 70.99 19.5
-8 -1 7 56.99 29.9
9 -8 7 89.39 22
0 -9 -7 -4.4 20.9
9 0 -7 6.4 32.3
-9 9 -7 7.3 25.3
9 -9 7 59.79 39.4
9 -9 7 -10.9 14.9
0 9 7 16.5 13.5
-9 0 7 -2 24
0 9 7 22.1 27.7
10 -1 -7 51.59 38.5
-1 -9 -7 95.89 33
-9 10 -7 6.6 24.1
-10 1 7 5.2 22.2
9 -10 7 90.69 41.9
9 -10 7 56.59 19.3
1 9 7 8.9 15.4
-10 1 7 40.5 21
1 9 7 21.6 42.9
11 -2 -7 6.3 18.2
-9 11 -7 -0.1 24.2
-2 -9 -7 42.4 23.6
9 -11 7 9.6 17.1
-11 2 7 10.2 16.1
2 9 7 20.3 16
-11 2 7 -0.5 25.3
2 9 7 -9.3 18.9
9 -11 7 -3.3 20.9
12 -3 -7 12.5 17.8
-3 -9 -7 13.8 20.6
-9 12 -7 -13.7 21.8
-12 3 7 13.3 22.9
3 9 7 49.3 31.4
9 -12 7 7.4 16.4
9 -12 7 20 24.6
3 9 7 21.6 15.8
-12 3 7 70.79 26.2
-9 13 -7 12.4 23.2
-9 13 -7 -18.6 16
13 -4 -7 18.6 18.3
9 -13 7 35.2 25.9
4 9 7 16.9 23.1
4 9 7 30.2 16.8
9 -13 7 24.7 19.2
-13 4 7 41.5 29
-9 14 -7 62.99 23.8
-9 14 -7 40.8 28.9
14 -5 -7 45.7 20
9 -14 7 107.39 25.4
5 9 7 79.89 29.9
-14 5 7 35.3 30.8
9 -14 7 60.69 30.6
5 9 7 66.89 20.4
-14 5 7 81.89 26.8
-9 15 -7 -2.1 18.3
15 -6 -7 21.1 17.6
-9 15 -7 29.7 24.9
-15 6 7 27 27.6
6 9 7 -2.1 21.9
-15 6 7 10.6 20.4
9 -15 7 -19 17.3
9 -15 7 35.2 25.5
6 9 7 -17.7 17.3
-9 16 -7 85.19 32.7
-9 16 -7 141.09 30.3
16 -7 -7 63.79 19.5
-16 7 7 70.19 34.2
9 -16 7 92.69 23.5
7 9 7 62.09 23.2
7 9 7 83.89 32.7
9 -16 7 62.89 26.7
-16 7 7 44 24.1
-8 -9 -7 30.3 30.1
-9 17 -7 -8.5 22.8
17 -8 -7 16.7 15.6
-9 17 -7 -7.4 18.6
-17 8 7 -31.3 23.1
9 -17 7 15.3 18.6
9 -17 7 23 23.4
-17 8 7 0.9 24.2
-9 18 -7 83.19 24
18 -9 -7 63.89 20.1
-9 18 -7 57.39 28.5
-9 -9 -7 4.9 28.3
9 -18 7 44.8 20.7
-18 9 7 10.2 25.2
-18 9 7 46.7 36.3
9 -18 7 50.09 27
-9 19 -7 -8.3 18.3
-10 -9 -7 -32.9 23.6
-9 19 -7 4.1 24.2
19 -10 -7 -2.1 14.7
10 9 7 42.6 23.8
9 -19 7 1.3 21.1
-19 10 7 -12.8 25.2
9 -19 7 -1.5 18.3
18 -10 -7 117.09 22.1
-8 18 -7 137.19 34.1
-10 -8 -7 80.39 30.5
-8 18 -7 126.59 28
-18 10 7 133.99 31.5
-18 10 7 103.69 38.5
8 -18 7 86.39 28
8 -18 7 128.49 26.6
-10 -7 -7 -20.1 27.5
-7 17 -7 -20 19.9
17 -10 -7 34.3 16.3
-7 17 -7 -9.1 17.4
-17 10 7 -17 27.3
7 -17 7 16.1 23.5
-17 10 7 2.1 22.6
7 -17 7 28.3 18.7
-6 16 -7 112.69 32.3
-6 16 -7 180.28 32.1
16 -10 -7 211.58 26.9
-10 -6 -7 187.18 44.2
10 6 7 204.08 33.7
6 -16 7 247.88 35
-16 10 7 249.58 41.7
-16 10 7 163.08 43.5
6 -16 7 217.08 39.7
-5 15 -7 -8.8 18.4
15 -10 -7 62.49 16.7
-5 15 -7 24.8 24.6
-10 -5 -7 5.4 24.5
5 -15 7 12.2 20.7
-15 10 7 20.3 21.7
-15 10 7 12.3 30.5
10 5 7 41.2 19.8
5 -15 7 29.1 25.7
-4 14 -7 202.28 33.7
-4 14 -7 255.77 44.3
14 -10 -7 211.78 26.7
-10 -4 -7 181.98 43.8
4 -14 7 230.68 42.6
10 4 7 225.68 34.4
-14 10 7 249.88 37.4
-14 10 7 199.08 43.6
4 -14 7 293.67 33.3
-3 13 -7 82.19 26.4
-10 -3 -7 64.99 39.4
-3 13 -7 73.29 25.9
-13 10 7 91.99 31.9
10 3 7 57.69 25.5
-13 10 7 63.29 22.1
10 3 7 64.19 31
3 -13 7 40.6 27
3 -13 7 48.8 20.9
-2 12 -7 259.17 42.8
-10 -2 -7 234.28 76.99
-2 12 -7 216.58 34.6
2 -12 7 296.97 34.5
-12 10 7 298.97 49.6
10 2 7 288.47 48.7
2 -12 7 239.98 47.8
-12 10 7 254.67 37
-1 11 -7 38.4 22
-10 -1 -7 34.4 37.5
-1 11 -7 91.19 23.5
-11 10 7 67.09 21
10 1 7 53.59 21.7
1 -11 7 79.29 23
-11 10 7 57.09 33.1
10 1 7 28.2 24.2
1 -11 7 40.6 28.9
0 10 -7 224.78 39.6
0 10 -7 207.28 32.6
10 0 7 264.77 50.89
0 -10 7 305.07 33.1
-10 10 7 260.47 34.8
-10 10 7 228.58 43.1
0 -10 7 288.67 51.09
1 9 -7 18.2 19.2
1 9 -7 23.4 18.9
-1 -9 7 16.1 27.4
-9 10 7 62.09 35
10 -1 7 57.79 28.1
-1 -9 7 45.1 18.2
-9 10 7 34 18.4
2 8 -7 258.67 39.8
2 8 -7 264.47 37
-8 10 7 211.08 45.3
10 -2 7 215.78 37
-8 10 7 319.87 35
-2 -8 7 258.97 42.9
-2 -8 7 307.87 34
3 7 -7 29.8 20
7 -10 -7 17.6 18.5
-7 10 7 34.9 17.3
-7 10 7 93.59 48.4
10 -3 7 39.2 23.8
-3 -7 7 34.5 18.6
6 -10 -7 415.76 46.7
4 6 -7 524.95 45.1
-10 4 -7 346.47 59.39
10 -4 7 354.16 48.2
-4 -6 7 349.96 39
-6 10 7 420.46 87.59
-6 10 7 416.66 39.1
-4 -6 7 435.06 55.39
5 5 -7 55.69 22.8
5 -10 -7 52.69 24.3
-10 5 -7 9.7 22.7
-5 -5 7 49.8 33.4
10 -5 7 131.19 40.5
-5 10 7 -3.8 27.8
-5 -5 7 28.7 18.9
-5 10 7 27.3 15
10 -5 7 122.19 37.1
6 4 -7 464.85 44
4 -10 -7 376.06 47.4
-10 6 -7 266.57 46
10 -6 7 386.46 49.6
10 -6 7 476.75 47.7
-4 10 7 482.65 66.49
-4 10 7 387.16 36.1
-6 -4 7 347.27 73.79
7 3 -7 40.1 22.4
-10 7 -7 10.3 24.5
3 -10 -7 17.6 22.6
-7 -3 7 22 27.4
-3 10 7 30.7 29.1
-3 10 7 36.4 15.6
10 -7 7 35.5 17.8
10 -7 7 7.4 22
-10 8 -7 296.47 51.09
8 2 -7 303.17 36.7
2 -10 -7 200.28 40.8
-8 -2 7 296.47 50.39
10 -8 7 262.57 41.1
10 -8 7 290.77 33.3
-2 10 7 135.69 37
-2 10 7 239.88 30.3
1 -10 -7 11 22.4
9 1 -7 58.19 20.8
-10 9 -7 22 24
-1 10 7 44.8 40.2
10 -9 7 61.69 18.9
-9 -1 7 5.9 25.2
10 -9 7 -15.9 20.4
-1 10 7 3 13.9
0 -10 -7 267.47 47.5
-10 10 -7 160.98 36.3
10 0 -7 264.07 36.5
-10 0 7 147.09 37.5
0 10 7 232.58 29.6
10 -10 7 287.87 51.79
10 -10 7 282.17 34.3
-1 -10 -7 80.69 28.3
-10 11 -7 12.2 24.3
11 -1 -7 73.99 23.8
1 10 7 25.3 31.4
-11 1 7 40 29.8
10 -11 7 104.19 23.8
1 10 7 46 17.2
10 -11 7 89.79 37.8
-2 -10 -7 349.37 52.79
12 -2 -7 266.37 37.7
-10 12 -7 154.18 36.1
2 10 7 205.48 40.2
10 -12 7 254.27 33.2
-12 2 7 235.28 47.7
10 -12 7 217.48 64.39
2 10 7 247.08 29.8
-3 -10 -7 44.2 23.2
-10 13 -7 68.19 31.5
13 -3 -7 47.5 20.5
-13 3 7 89.29 35.8
10 -13 7 81.19 42.4
-13 3 7 83.09 27.1
3 10 7 45.9 18.2
3 10 7 20.4 25.6
10 -13 7 44 20.1
14 -4 -7 233.18 39.9
-10 14 -7 225.18 45.6
4 10 7 308.87 51.49
10 -14 7 255.47 33.7
-14 4 7 287.37 37.1
4 10 7 213.78 32.1
-14 4 7 234.48 46.4
-10 15 -7 36.9 30.4
-10 15 -7 43.7 21.9
15 -5 -7 25.3 23.6
-15 5 7 20 20.2
10 -15 7 18.1 43.4
-15 5 7 2.8 26.6
5 10 7 48.4 18.6
10 -15 7 12.3 19.7
5 10 7 25.9 23.2
-10 16 -7 192.08 41.8
-10 16 -7 217.88 35.1
16 -6 -7 165.68 47.9
-16 6 7 127.79 42.9
10 -16 7 135.59 27.2
-16 6 7 239.08 38.4
10 -16 7 200.78 50.09
6 10 7 210.28 40.6
-10 17 -7 19.6 19.4
-7 -10 -7 15.9 25.9
-10 17 -7 5.2 25.1
10 -17 7 -8.7 22.7
10 -17 7 25.5 19.2
-17 7 7 10.6 28.5
-17 7 7 57.39 26.9
18 -8 -7 86.79 26.3
-10 18 -7 70.99 31.1
-8 -10 -7 172.28 46.1
-10 18 -7 107.39 26.9
10 -18 7 155.68 27.3
-18 8 7 144.89 44.1
-10 19 -7 -23.8 22.2
-9 -10 -7 24.5 29.2
-10 19 -7 -43.1 16.1
19 -9 -7 27.5 18
10 -19 7 9.2 19.3
-19 9 7 12.4 28.8
-10 -10 -7 53.59 37.3
-10 20 -7 36.9 29.6
-10 20 -7 121.09 30.1
20 -10 -7 53.89 21.1
10 10 7 68.19 27.4
10 -20 7 145.29 25.4
-20 10 7 143.09 44.9
-10 21 -7 7.5 20.5
21 -11 -7 0.3 16.7
-10 21 -7 -5.7 21.7
10 -21 7 14.3 18.3
-21 11 7 -10.4 34.8
11 10 7 -22.3 18.9
10 -21 7 -17.1 18.6
20 -11 -7 16.2 15.9
-9 20 -7 31 24.7
-9 20 -7 32.3 25.2
11 9 7 35.8 22.9
-20 11 7 41.7 37.3
9 -20 7 58.09 21
-8 19 -7 53.89 28.4
-11 -8 -7 65.59 39.1
19 -11 -7 -8.1 14.2
-8 19 -7 -4.7 20.4
8 -19 7 9.2 19
-19 11 7 13.6 29.5
11 8 7 23.5 23
8 -19 7 5 21.6
-11 -7 -7 62.89 32.1
-7 18 -7 25.1 23.6
-7 18 -7 44.6 21.6
18 -11 -7 52.09 16.8
7 -18 7 51.49 20.6
7 -18 7 61.29 28.2
-18 11 7 47.6 33.4
-18 11 7 78.09 27.7
11 7 7 39.9 25.6
-6 17 -7 24.1 21.3
-6 17 -7 -10.5 20.2
17 -11 -7 -12.4 12.7
-11 -6 -7 -14.7 25.4
6 -17 7 -25 23.2
-17 11 7 -3.2 25.7
-17 11 7 41.2 22
6 -17 7 17.8 18.8
-5 16 -7 65.29 24.3
-5 16 -7 28.2 22
16 -11 -7 67.79 16.8
-11 -5 -7 54.29 33.4
11 5 7 23.4 22.1
-16 11 7 26 31.2
5 -16 7 47 26.5
5 -16 7 38 20.9
-11 -4 -7 8.8 28.6
-4 15 -7 -0.2 20.2
-4 15 -7 13.2 21.7
4 -15 7 -11.9 19.1
11 4 7 10.6 19.1
4 -15 7 -8.6 18
-15 11 7 -0.2 28
-15 11 7 30.6 21.3
-11 -3 -7 51.69 28.4
-3 14 -7 44 23.9
-3 14 -7 61.69 24.5
3 -14 7 68.39 33
3 -14 7 111.79 24.5
-14 11 7 29.2 21.1
-14 11 7 51.99 33.6
11 3 7 45.4 19.2
-2 13 -7 5 18.7
-2 13 -7 -4.9 18.3
-11 -2 -7 -14.4 24
11 2 7 0.3 16.9
2 -13 7 32.2 18.4
2 -13 7 16.5 27.8
-13 11 7 5.8 17.2
-13 11 7 37.4 27.4
-1 12 -7 9 18.5
-11 -1 -7 72.89 36.2
-1 12 -7 54.29 23.7
-12 11 7 13.1 29.3
1 -12 7 82.79 21.9
1 -12 7 46.2 28.6
11 1 7 32.9 24.5
-12 11 7 45.8 21.4
11 1 7 45.4 22.9
-11 0 -7 21.3 47.8
0 11 -7 30.9 20.4
0 11 -7 3.2 18
0 -11 7 2.9 25.7
11 0 7 -1.1 16.9
-11 11 7 30.8 31.5
-11 11 7 15.4 16.5
0 -11 7 40 17.8
1 10 -7 32.9 20.9
11 -1 7 60.99 29.7
-1 -10 7 60.59 19.9
-10 11 7 96.09 22.4
-10 11 7 106.69 35.6
-1 -10 7 91.89 35.9
2 9 -7 15.2 20.6
-2 -9 7 16.5 15.4
11 -2 7 24.4 22.1
-2 -9 7 24.2 29.2
-9 11 7 17.3 27
-9 11 7 33.6 17
3 8 -7 109.09 25.9
-8 11 7 63.49 20.1
-3 -8 7 58.89 22.9
11 -3 7 51.79 26.9
-3 -8 7 59.99 33
-8 11 7 76.89 32
7 -11 -7 25.3 17.9
4 7 -7 45.9 20.4
-4 -7 7 58.89 32.5
11 -4 7 47.7 26
-7 11 7 35.4 16.2
-7 11 7 38.9 33.6
5 6 -7 121.19 29
-11 5 -7 26 23
6 -11 -7 63.39 24.6
-5 -6 7 85.19 32.1
11 -5 7 68.79 30.7
-6 11 7 63.89 19.1
-11 6 -7 42.1 31.2
6 5 -7 61.19 23.6
5 -11 -7 72.39 26.4
11 -6 7 56.59 25.7
-5 11 7 62.89 41.3
-5 11 7 72.49 18.7
7 4 -7 38.5 23.6
4 -11 -7 21.7 23.7
-11 7 -7 33 26.9
-7 -4 7 3.8 23.6
-4 11 7 39.6 15.5
11 -7 7 -1 18.7
-4 11 7 75.29 36.5
8 3 -7 100.29 26.5
3 -11 -7 57.49 25.5
-11 8 -7 77.89 32
-8 -3 7 105.39 36.3
-3 11 7 46 17.4
11 -8 7 47.9 26.9
-3 11 7 87.09 44
2 -11 -7 1.6 18.9
-11 9 -7 13.2 24.6
9 2 -7 10.3 18.5
-2 11 7 13.2 14.1
11 -9 7 45.1 21.9
-9 -2 7 15.5 28
-2 11 7 5.7 27.7
11 -9 7 38.2 20.1
-11 10 -7 85.09 37.5
1 -11 -7 77.69 32.5
10 1 -7 53.19 22.7
11 -10 7 34.9 22.5
-1 11 7 31.4 16.1
11 -10 7 103.79 24.5
-10 -1 7 73.59 30.5
11 0 -7 9 16.8
-11 11 -7 29.8 24.9
0 -11 -7 40.8 23.5
-11 0 7 36 27
11 -11 7 1.3 21.7
0 11 7 -1 28.6
0 11 7 22.8 16.4
11 -11 7 10.3 17.2
-11 12 -7 43.6 28.4
-1 -11 -7 49.3 25.4
12 -1 -7 60.09 22.7
11 -12 7 40.8 18.7
-12 1 7 14.1 20.8
11 -12 7 17.1 22.7
1 11 7 37.2 25.7
1 11 7 15.1 16
-12 1 7 74.69 34
-11 13 -7 20.5 25.2
-2 -11 -7 22.4 22.9
13 -2 -7 -4.3 19.3
-13 2 7 44.1 20.9
2 11 7 15.9 16.9
2 11 7 26.6 25.6
11 -13 7 54.59 20.7
11 -13 7 29.6 26
-13 2 7 31.5 30.4
-11 14 -7 48.9 31.6
14 -3 -7 36.6 22.3
11 -14 7 104.09 22.6
11 -14 7 32.9 24.9
3 11 7 79.29 21.3
-14 3 7 41.4 21.7
3 11 7 39.4 25.3
-14 3 7 30.8 27.6
-11 15 -7 50.79 32.1
15 -4 -7 7.5 18.1
-15 4 7 40.8 29.9
11 -15 7 -7.5 17
4 11 7 -0.3 17.4
11 -15 7 -30.9 18.9
4 11 7 3.2 22.7
-15 4 7 19.7 20.2
16 -5 -7 98.39 24.2
-11 16 -7 75.89 32.1
11 -16 7 37 26.4
-16 5 7 90.69 28.3
5 11 7 31.9 25.4
5 11 7 68.59 34.3
11 -16 7 22.7 20.3
-16 5 7 39.2 30.6
17 -6 -7 17.4 17.7
-6 -11 -7 64.49 48.5
-11 17 -7 -9 16.8
-11 17 -7 40 27.1
-17 6 7 49 28.7
11 -17 7 4.6 18.3
-17 6 7 0.1 38.7
6 11 7 19.2 22.7
-11 18 -7 79.29 23.4
18 -7 -7 40.2 18.8
-11 18 -7 63.39 31.4
-7 -11 -7 23.3 29.2
-18 7 7 18.4 32.3
11 -18 7 31.9 19.8
-8 -11 -7 -0.9 29.3
19 -8 -7 5.6 16.2
-11 19 -7 44 27.4
-19 8 7 38.3 29.1
11 -19 7 12.7 19.8
-11 20 -7 21.7 20.2
-9 -11 -7 -6.5 27.2
-11 20 -7 57.99 29.8
11 -20 7 61.69 21.3
9 11 7 21.3 24
11 -20 7 26.4 22
-20 9 7 29.5 36.7
-11 21 -7 23 30.5
-11 21 -7 -9.3 19.6
-21 10 7 -1.7 31.5
11 -21 7 9.5 18.5
11 -21 7 16.4 19.5
10 11 7 -17.8 19.4
-11 22 -7 69.69 28.7
22 -11 -7 33.4 19
-11 22 -7 24.4 26.2
11 -22 7 26.9 20.8
-22 11 7 1.6 32.7
-10 22 -7 100.59 29.4
-10 22 -7 76.39 28.3
22 -12 -7 58.99 20.2
-22 12 7 44.1 37.6
10 -22 7 40.6 21.1
-9 21 -7 -23.9 18.3
-9 21 -7 41.3 25.2
21 -12 -7 24.6 17.1
-21 12 7 33.4 48.4
9 -21 7 14.8 18.5
12 9 7 38.5 24.9
-8 20 -7 63.79 27.3
20 -12 -7 107.79 21.1
-8 20 -7 101.29 29.1
8 -20 7 52.09 28.3
-20 12 7 89.49 36.3
8 -20 7 99.39 23.7
12 8 7 96.69 28.1
19 -12 -7 -4.6 13.7
-7 19 -7 18.3 22
-7 19 -7 -32.8 17.8
12 7 7 -0.3 19.7
7 -19 7 5.2 19.6
-19 12 7 62.69 40.5
7 -19 7 -11.7 20.6
-19 12 7 -11.3 26.4
-12 -6 -7 65.09 38.8
18 -12 -7 104.49 19.4
-6 18 -7 118.59 30.5
-6 18 -7 110.89 27.1
-18 12 7 68.89 38.6
12 6 7 110.09 29.6
6 -18 7 132.39 27.5
6 -18 7 123.59 32.4
-18 12 7 154.48 35.5
-5 17 -7 64.69 25.8
-5 17 -7 43.6 24.9
-12 -5 -7 20.4 32.2
5 -17 7 27.5 24.3
5 -17 7 1.5 17.5
12 5 7 35.4 25.5
-17 12 7 77.69 34.6
-17 12 7 13.4 22.5
-4 16 -7 178.88 32.4
-4 16 -7 140.29 32
-12 -4 -7 115.29 35.6
-16 12 7 288.17 56.69
12 4 7 107.59 30.4
4 -16 7 211.38 33.5
-16 12 7 310.47 59.89
4 -16 7 235.58 43.7
12 4 7 114.29 31.2
-3 15 -7 67.89 23.8
-12 -3 -7 63.39 36.3
-3 15 -7 83.99 29
3 -15 7 102.09 25.1
-15 12 7 107.29 26.5
3 -15 7 61.29 31.8
-15 12 7 80.99 34.7
12 3 7 39.6 20.5
-2 14 -7 303.67 43.7
-2 14 -7 250.07 37.4
-12 -2 -7 185.68 46.8
-14 12 7 270.97 39.7
2 -14 7 288.47 33.1
-14 12 7 194.98 48
12 2 7 234.28 37.2
2 -14 7 245.18 49.99
-1 13 -7 72.09 24.9
-12 -1 -7 59.09 30.9
-13 12 7 62.99 22.8
-13 12 7 114.49 38
12 1 7 76.39 23.9
1 -13 7 54.29 20.4
1 -13 7 46.7 32.7
0 12 -7 298.27 41.1
-12 0 -7 162.68 37.1
0 -12 7 272.67 45.6
-12 12 7 280.97 35
-12 12 7 227.78 48.6
0 -12 7 282.67 34.2
1 11 -7 48.8 23.2
-11 12 7 62.89 21
-1 -11 7 24.2 32.6
-11 12 7 16.8 25.4
-1 -11 7 57.59 22.5
2 10 -7 343.17 40.1
-10 12 7 252.47 31.9
-10 12 7 180.28 44.3
-2 -10 7 213.68 44.7
3 9 -7 44.6 24.8
-9 12 7 28.7 30.9
12 -3 7 4.5 21.4
-3 -9 7 23.5 27.3
-9 12 7 27.6 18.3
4 8 -7 303.97 40
-8 12 7 289.27 50.39
-8 12 7 302.27 34.1
-4 -8 7 294.07 47.2
12 -4 7 257.67 46.8
5 7 -7 86.29 24.5
-12 5 -7 69.79 29
7 -12 -7 69.69 24.7
12 -5 7 93.19 30.2
-7 12 7 75.19 21.1
-7 12 7 39.8 30.9
-5 -7 7 75.49 37.6
6 -12 -7 397.16 45.4
-12 6 -7 289.87 53.89
6 6 -7 416.06 43.6
12 -6 7 218.08 42.4
-6 12 7 434.76 72.79
-6 -6 7 372.96 92.99
-6 12 7 364.16 35.1
5 -12 -7 73.79 26.9
7 5 -7 80.19 26.4
-12 7 -7 90.29 36.5
-5 12 7 59.19 17.3
12 -7 7 40.1 28.2
-7 -5 7 32.7 27.5
-12 8 -7 218.48 43.9
8 4 -7 294.67 41.6
4 -12 -7 196.68 35.8
12 -8 7 335.37 52.19
-4 12 7 281.87 31
-8 -4 7 252.47 44.6
3 -12 -7 22.7 23.4
9 3 -7 42.6 23.4
-12 9 -7 0.6 21.2
12 -9 7 52.69 28.9
-3 12 7 25.8 15.4
-9 -3 7 27.4 28.1
-12 10 -7 143.49 38.9
10 2 -7 266.47 39.6
2 -12 -7 269.67 43.5
-10 -2 7 231.58 42.5
-2 12 7 224.68 60.99
-2 12 7 212.08 28
12 -10 7 208.18 40.7
-12 11 -7 26 28.7
1 -12 -7 48.6 24.7
11 1 -7 61.49 24.4
-11 -1 7 28 25.7
12 -11 7 12.2 20.4
12 -11 7 90.89 35
-1 12 7 36.7 32.6
-1 12 7 59.29 17.8
0 -12 -7 361.86 47.5
-12 12 -7 182.48 45
12 0 -7 279.27 40.2
12 -12 7 208.18 35.7
0 12 7 255.77 31.9
0 12 7 272.57 49.4
12 -12 7 331.37 50.79
-12 0 7 200.18 46.8
-12 13 -7 72.29 29.2
13 -1 -7 74.19 24.7
-1 -12 -7 32.3 21.9
-13 1 7 42.9 25.2
1 12 7 25.6 27.5
12 -13 7 70.19 30.6
1 12 7 42.2 18.8
12 -13 7 65.29 22.6
-13 1 7 79.19 24.9
-12 14 -7 205.28 42.5
14 -2 -7 219.48 35.1
-14 2 7 214.28 38.1
2 12 7 280.07 50.59
12 -14 7 299.87 33
-14 2 7 206.78 45.2
2 12 7 256.47 34.7
-12 15 -7 52.29 31.1
15 -3 -7 28.6 23.7
-15 3 7 44.2 30.2
3 12 7 33.8 17.4
12 -15 7 69.59 22.5
3 12 7 65.89 25.5
-15 3 7 33 23.3
-12 16 -7 208.78 45.3
16 -4 -7 218.38 35.7
-16 4 7 200.88 40.1
4 12 7 242.58 45.6
12 -16 7 233.08 34.9
4 12 7 180.78 32.4
-16 4 7 158.78 44.1
-12 17 -7 31.5 28.1
17 -5 -7 17.6 20.8
12 -17 7 21.3 20.5
-17 5 7 39 30
5 12 7 41.9 27.8
5 12 7 12.6 27.3
-6 -12 -7 72.69 33.9
18 -6 -7 96.29 26.5
-12 18 -7 116.49 34.1
-18 6 7 55.99 31.6
12 -18 7 163.28 31.1
12 -18 7 143.39 27.4
-12 19 -7 7.8 19.6
-12 19 -7 30.2 31
-7 -12 -7 1.6 25.6
19 -7 -7 14.3 18
-19 7 7 71.79 37.9
12 -19 7 13.7 20.2
12 -19 7 4.6 20
-8 -12 -7 125.49 40.7
20 -8 -7 47.5 22.4
-12 20 -7 118.59 30
-12 20 -7 33.6 27.6
8 12 7 75.99 31.1
12 -20 7 98.59 28
-20 8 7 33.7 39.7
12 -20 7 143.69 27
-12 21 -7 14.5 28.5
-9 -12 -7 43.6 41.8
-12 21 -7 27.3 22.2
21 -9 -7 -8.7 17.1
12 -21 7 18.7 18.7
12 -21 7 24.5 22.4
-21 9 7 -7.7 30.5
9 12 7 -8.9 21.2
-12 22 -7 51.19 31
-12 22 -7 97.09 29
22 -10 -7 73.19 22.3
12 -22 7 54.09 20.8
10 12 7 66.49 29.3
-22 10 7 96.29 41.9
-9 22 -7 51.79 27.5
22 -13 -7 30.5 15.4
-9 22 -7 38.3 24.1
13 9 7 48.6 25.8
-22 13 7 47.5 36.9
9 -22 7 -5.4 18.8
-8 21 -7 17.4 20.5
-8 21 -7 -2.4 20
8 -21 7 35.4 20.7
-21 13 7 27.1 46.8
-7 20 -7 21.9 23.4
-7 20 -7 7.9 21.8
13 7 7 40.6 22.7
-20 13 7 28.6 34.6
7 -20 7 68.09 22.8
7 -20 7 17.9 23.7
-6 19 -7 39.3 24.1
-6 19 -7 -47.7 17.7
-19 13 7 43.6 34.8
6 -19 7 -17.8 20.4
-19 13 7 -28.3 21.5
13 6 7 4.3 18.9
6 -19 7 -24.9 17.5
-5 18 -7 65.09 26.1
-5 18 -7 66.19 26.6
5 -18 7 43.7 26.4
13 5 7 38.8 23.5
5 -18 7 47.5 21.9
-18 13 7 1.4 24.3
-18 13 7 49.8 37.4
-4 17 -7 23.5 19.7
-13 -4 -7 -34 31.8
4 -17 7 -12.2 18.7
-17 13 7 -6.9 26.2
13 4 7 10.3 20.3
-17 13 7 6.7 25.4
4 -17 7 -3.5 23.2
-3 16 -7 34.6 21.9
-13 -3 -7 20.8 29.9
3 -16 7 64.09 22.1
-16 13 7 21.2 25.2
3 -16 7 8.1 25.6
-16 13 7 52.79 33.5
13 3 7 55.99 24.3
-13 -2 -7 6.9 25
-2 15 -7 14.8 18.6
2 -15 7 5.7 23.4
13 2 7 -7.9 15
-15 13 7 -23.1 23.3
2 -15 7 62.49 20.4
13 2 7 -20 18.4
-15 13 7 5.5 18.2
-1 14 -7 111.19 27.4
-13 -1 -7 48.6 33.3
13 1 7 66.39 25.3
13 1 7 45.1 21.7
1 -14 7 29.8 27.4
-14 13 7 65.29 36.5
-14 13 7 36.8 21.4
1 -14 7 105.79 24.4
-13 0 -7 34.9 34.6
0 13 -7 15.9 20.2
13 0 7 34 18.9
-13 13 7 12 18.1
0 -13 7 45.6 30.3
0 -13 7 -5.5 14.7
-13 13 7 17.1 29.1
-13 1 -7 40.3 31.6
1 12 -7 32.9 22
-12 13 7 12 25.2
-12 13 7 61.59 20.7
-1 -12 7 92.69 34.9
2 11 -7 28.7 20.5
-11 13 7 14.2 18.6
-2 -11 7 7.1 26.9
-11 13 7 -22.1 24.9
3 10 -7 51.99 23.4
-10 13 7 41.1 29.6
-10 13 7 85.99 23
-3 -10 7 74.99 33.3
4 9 -7 -7.3 20.1
13 -4 7 10.1 17.1
-4 -9 7 39.3 31.5
-9 13 7 9.3 23.6
-9 13 7 26.1 17.3
5 8 -7 28.9 21.1
-13 5 -7 18.4 28.7
-8 13 7 33.9 28.1
-8 13 7 34.4 17.8
-5 -8 7 -28.6 48.6
6 7 -7 44.1 21.3
-13 6 -7 3.2 40.5
-6 -7 7 1.7 27.2
-7 13 7 19.4 25.5
-7 13 7 3.3 15.7
7 6 -7 27 22.8
-13 7 -7 -1.1 53.99
6 -13 -7 53.39 23
-7 -6 7 39.3 24
-6 13 7 48.2 17.3
-7 -6 7 24.2 29.4
-6 13 7 -2.9 24.9
5 -13 -7 58.59 24.4
-13 8 -7 31.1 32.8
8 5 -7 49 23.3
-8 -5 7 49.6 27.8
-5 13 7 -2.9 31.5
-5 13 7 37.2 16.5
4 -13 -7 60.99 24.4
9 4 -7 20.2 21.4
-13 9 -7 38.5 27.4
-4 13 7 25.7 15.3
-9 -4 7 -4.2 21.7
-9 -4 7 6.9 18.1
-4 13 7 169.78 55.39
10 3 -7 88.79 28.3
-13 10 -7 48.7 26
3 -13 -7 62.69 25.8
-3 13 7 111.99 22.1
-10 -3 7 81.59 29.9
-3 13 7 62.89 40.3
-10 -3 7 88.79 23.7
-13 11 -7 34.9 24.2
2 -13 -7 45 25.1
11 2 -7 1 19.5
-11 -2 7 -9.7 23
-2 13 7 -5.2 14.3
-2 13 7 22.2 29.7
-11 -2 7 22.1 28.7
-13 12 -7 30.1 28.4
12 1 -7 62.79 25.3
1 -13 -7 51.39 27.5
-12 -1 7 44.1 30.2
-1 13 7 64.49 19.8
-1 13 7 34.5 28.6
13 0 -7 1.2 18.7
0 -13 -7 25.2 22.2
-13 13 -7 19.6 25.1
13 -13 7 -19.7 19.9
0 13 7 -27.5 17.3
-13 0 7 47.8 27.2
0 13 7 -1.1 15
-13 0 7 -26.2 17.6
-13 14 -7 16.8 25.2
14 -1 -7 81.39 26.1
-14 1 7 85.09 26.8
1 13 7 6.9 23.2
1 13 7 64.39 20.1
13 -14 7 10.3 18.5
-14 1 7 59.29 31.7
15 -2 -7 -5 19.8
-13 15 -7 9.7 24.3
2 13 7 -6.9 20.9
13 -15 7 16.7 17.9
-15 2 7 37.1 32
-15 2 7 9.8 23.6
2 13 7 -5.6 15.9
16 -3 -7 43.3 23.2
-13 16 -7 49.2 29.9
3 13 7 12.8 23.8
3 13 7 56.39 20.4
-16 3 7 -11.4 28.5
13 -16 7 20.6 21.1
-13 17 -7 1 25.9
-4 -13 -7 46.5 45.1
17 -4 -7 -6.9 18.6
-17 4 7 24.1 30.2
13 -17 7 5.7 19.3
13 -17 7 57.39 22.8
4 13 7 3.2 24.4
-5 -13 -7 0.2 30.5
18 -5 -7 49.6 23.6
-13 18 -7 77.99 31.5
13 -18 7 60.99 24.5
13 -18 7 40.3 22.4
5 13 7 71.49 30.6
-18 5 7 12.4 28.6
19 -6 -7 -9.3 18.6
-13 19 -7 7.6 31.8
-6 -13 -7 -35.3 23.3
-19 6 7 13.3 30.7
13 -19 7 -29.1 17.5
13 -19 7 16.7 21.5
20 -7 -7 -10.1 19.1
-13 20 -7 43.8 30.7
-7 -13 -7 61.99 38.4
13 -20 7 13.6 21
13 -20 7 52.79 22.6
-20 7 7 36.5 41.1
-8 -13 -7 -11.4 29.2
21 -8 -7 -28.5 16.9
-13 21 -7 8.1 27.6
13 -21 7 20.2 20.5
13 -21 7 5.2 18.8
-21 8 7 -23.2 30.3
8 13 7 46.3 26
-13 22 -7 85.69 36
-13 22 -7 141.79 30.8
22 -9 -7 73.29 25.1
9 13 7 37.5 23.5
-22 9 7 34.9 34.6
13 -22 7 38.9 20.6
-8 22 -7 115.69 32.8
14 8 7 46.6 25.2
-22 14 7 104.39 46.9
-7 21 -7 56.19 27.4
-21 14 7 24.7 38.6
7 -21 7 -10.1 22
7 -21 7 39.3 21.4
-6 20 -7 112.29 30.6
6 -20 7 74.99 24.6
-20 14 7 54.79 38
14 6 7 29.5 25.6
6 -20 7 54.19 27.7
-5 19 -7 -15.8 19.3
-19 14 7 79.59 34.7
5 -19 7 26.8 22.1
5 -19 7 21.2 24.2
-19 14 7 36.7 26
14 5 7 -15.7 18
-4 18 -7 159.48 31
14 4 7 113.49 29.2
4 -18 7 138.89 35.2
-18 14 7 189.98 49.8
4 -18 7 85.99 25.8
-18 14 7 147.39 33
-3 17 -7 109.49 31.1
3 -17 7 74.99 30.3
3 -17 7 53.09 22.3
-17 14 7 42.2 32.9
14 3 7 21.9 21.5
-2 16 -7 181.08 34.2
-16 14 7 305.47 38.7
2 -16 7 218.68 32.2
2 -16 7 163.68 40.4
14 2 7 182.08 33.5
-16 14 7 184.58 39.9
-14 -1 -7 36.4 36.6
-1 15 -7 114.19 29.3
1 -15 7 95.59 25.8
-15 14 7 127.89 29.3
-15 14 7 -4 22.8
1 -15 7 72.89 30.1
14 1 7 64.79 25.2
0 14 -7 309.27 44
-14 0 -7 152.48 47.5
-14 14 7 245.78 36.9
14 0 7 212.78 36.9
0 -14 7 219.08 43.6
0 -14 7 223.18 40.5
14 0 7 258.17 40.2
-14 14 7 202.58 39.6
-14 1 -7 60.59 30.8
1 13 -7 26.8 22.3
14 -1 7 55.09 21.5
-13 14 7 44.2 31
-1 -13 7 137.49 38
-13 14 7 95.49 23.8
14 -1 7 28.2 24.1
-14 2 -7 167.38 42.6
2 12 -7 235.48 36.8
14 -2 7 214.88 37.8
-12 14 7 226.48 50.39
14 -2 7 226.28 36.2
-12 14 7 243.58 34.5
3 11 -7 64.89 23.8
-14 3 -7 16 33.7
-11 14 7 47.8 20.2
-3 -11 7 45.6 32.8
14 -3 7 62.69 23.3
14 -3 7 33.4 23.9
-11 14 7 50.89 29.5
-14 4 -7 259.27 61.59
4 10 -7 308.87 39.6
14 -4 7 220.08 35.9
-10 14 7 213.68 31.2
-10 14 7 151.58 37.5
-4 -10 7 244.78 56.19
5 9 -7 69.49 27.1
-14 5 -7 67.79 34
14 -5 7 51.49 22.4
-9 14 7 96.09 23.5
-9 14 7 69.49 33.9
-5 -9 7 81.59 54.99
-14 6 -7 445.76 58.29
6 8 -7 363.66 42.8
-8 14 7 281.87 36.2
14 -6 7 347.87 41.6
-8 14 7 275.77 52.19
-6 -8 7 395.26 60.79
-14 7 -7 40.9 30.4
7 7 -7 161.38 31.5
-7 -7 7 73.49 30.8
14 -7 7 101.39 32.9
-7 -7 7 88.29 40.3
-7 14 7 115.99 23.2
-7 14 7 85.39 34.2
-14 8 -7 258.47 52.59
6 -14 -7 281.97 43.4
8 6 -7 267.37 42.4
-6 14 7 304.17 33.9
-8 -6 7 278.77 36.6
-8 -6 7 326.07 55.69
-6 14 7 174.68 42.2
-14 9 -7 71.99 33
5 -14 -7 75.09 25.6
9 5 -7 62.79 26.1
14 -9 7 85.99 34.2
-5 14 7 61.39 36.9
-9 -5 7 64.09 22
-5 14 7 68.59 20
-9 -5 7 50.69 31.6
10 4 -7 279.27 40.3
4 -14 -7 238.38 40.4
-14 10 -7 161.68 41.8
-4 14 7 170.08 37.8
-4 14 7 219.18 29.6
-10 -4 7 292.87 48.5
-10 -4 7 238.28 35.6
3 -14 -7 104.89 29.8
-14 11 -7 59.69 46.7
11 3 -7 36.9 22.5
-3 14 7 6.9 27.5
-11 -3 7 45.8 32.1
-3 14 7 64.29 19.5
-11 -3 7 40.6 24
2 -14 -7 205.38 37
12 2 -7 307.67 39
-12 -2 7 251.17 49.6
-2 14 7 188.88 28.3
-12 -2 7 205.28 33.4
-2 14 7 147.39 35.2
13 1 -7 66.09 23.7
1 -14 -7 26 25.4
-14 13 -7 17.8 52.99
-13 -1 7 55.79 24.2
-1 14 7 31.6 17.4
14 -13 7 55.49 25.6
-1 14 7 32.6 26.9
-13 -1 7 32.6 26
14 0 -7 283.27 42.2
-14 14 -7 216.48 54.19
-14 0 7 214.98 49.1
-14 0 7 204.78 37.6
14 -14 7 275.97 39.6
0 14 7 269.67 33
0 14 7 185.58 39.6
-14 15 -7 79.29 46.9
15 -1 -7 87.39 27.1
1 14 7 49.99 19.2
-15 1 7 73.79 42.5
14 -15 7 50.69 25
14 -15 7 35.1 24.7
1 14 7 88.89 34.9
-14 16 -7 214.88 44.9
16 -2 -7 225.08 38.1
-16 2 7 261.97 55.29
2 14 7 179.58 31
14 -16 7 304.77 35.2
-14 17 -7 20.2 29
17 -3 -7 10.9 21.3
14 -17 7 73.29 23.4
14 -17 7 48.5 25.3
-17 3 7 59.19 37.6
3 14 7 70.19 31.4
3 14 7 90.49 36
-4 -14 -7 143.49 63.19
-14 18 -7 150.48 40.4
18 -4 -7 157.08 32.2
-18 4 7 87.89 37.7
4 14 7 133.59 35.9
14 -18 7 112.99 28.1
14 -18 7 146.99 30.3
19 -5 -7 26.1 22
-5 -14 -7 63.29 32.3
-14 19 -7 64.39 36.2
14 -19 7 27.8 22.3
14 -19 7 2.7 19.1
-19 5 7 87.59 41.2
-6 -14 -7 104.09 36.7
20 -6 -7 88.69 25.9
-14 20 -7 48.1 31.6
14 -20 7 71.59 24.5
14 -20 7 112.29 27.5
-20 6 7 67.69 62.99
-14 21 -7 62.69 34.1
-7 -14 -7 -6.5 33.2
21 -7 -7 31.2 22.9
14 -21 7 29 20.2
14 -21 7 25.6 21.1
-21 7 7 11.4 28.4
7 14 7 12.4 24
22 -8 -7 78.19 25.2
-14 22 -7 58.99 34
8 14 7 44.3 25
-22 8 7 80.69 41.8
14 -22 7 32 19.7
-6 21 -7 5.5 21.3
15 6 7 29 22.5
6 -21 7 -17.3 18.8
6 -21 7 34.4 23.8
-21 15 7 -31.9 50.29
-5 20 -7 31.9 20.9
5 -20 7 58.19 28.2
-20 15 7 2 31.8
5 -20 7 73.69 26
-4 19 -7 -19.9 21.2
-19 15 7 -5.6 24.7
4 -19 7 20.3 21.1
4 -19 7 -1.2 22.9
-19 15 7 1 30.8
15 4 7 23.9 21.8
-3 18 -7 14.8 20.7
-18 15 7 56.39 28.1
3 -18 7 34.2 26
-18 15 7 14.3 31.7
3 -18 7 22.3 21.3
15 3 7 22.6 21.6
-2 17 -7 20.4 22.6
2 -17 7 24.1 22.6
-17 15 7 22.3 31.1
2 -17 7 -13 22.3
15 2 7 9.5 20.6
-1 16 -7 79.99 26
-16 15 7 75.79 26.4
1 -16 7 86.99 23.3
15 1 7 13.3 20.4
-16 15 7 45.6 35.9
1 -16 7 15.1 26.7
0 15 -7 23.6 21.9
0 -15 7 22.1 27
-15 15 7 -16.3 26.1
-15 15 7 -23.3 19.4
15 0 7 -13 17.2
0 -15 7 30.7 23.6
1 14 -7 33.5 23.7
-15 1 -7 -33.4 28.6
-1 -14 7 62.19 31
-14 15 7 131.69 44.3
-14 15 7 76.99 27.3
15 -1 7 32.1 21.9
2 13 -7 12.8 19.1
-15 2 -7 42.7 28.6
15 -2 7 6.7 19.8
-2 -13 7 60.89 30.6
-13 15 7 10.4 25.8
15 -2 7 11.6 17.1
-13 15 7 34.5 21
-15 3 -7 18.3 26.4
3 12 -7 86.49 25.8
-12 15 7 51.19 30.8
15 -3 7 12 21.5
-3 -12 7 41.7 32.7
-12 15 7 94.99 25
15 -3 7 48.3 22.1
-15 4 -7 23.1 24.7
4 11 -7 6.6 21.1
15 -4 7 6.5 20.4
-4 -11 7 93.09 51.99
15 -4 7 12.6 17.5
-11 15 7 16.3 27
-11 15 7 36.1 19.2
5 10 -7 22.1 22.6
-15 5 -7 -28 25.7
15 -5 7 34.1 22.1
-10 15 7 38.5 19.3
15 -5 7 32.8 21.5
-10 15 7 24.7 26.6
-5 -10 7 -3.1 28.2
-15 6 -7 50.19 34.4
6 9 -7 -5.5 19.9
-6 -9 7 -0.9 26.8
-9 15 7 9.9 16.5
-6 -9 7 35.8 30
-9 15 7 40.9 34
15 -6 7 19.8 19.3
15 -6 7 26.1 21.7
-15 7 -7 -21.2 20.2
7 8 -7 1.5 19.4
-7 -8 7 12 20.7
-8 15 7 12.9 16.7
15 -7 7 27.4 20.6
-7 -8 7 24.1 30.7
-8 15 7 37.9 28.4
15 -7 7 51.19 24.1
8 7 -7 -5.4 21
-15 8 -7 14.2 28.5
15 -8 7 9.2 22.1
-7 15 7 16.2 26.8
-8 -7 7 5.8 24.9
15 -8 7 19.4 20.1
-7 15 7 14.2 14.9
-8 -7 7 -2.2 18.5
6 -15 -7 63.59 24.7
-15 9 -7 -7.8 26
9 6 -7 17.9 21.8
-9 -6 7 23.6 20.5
-6 15 7 10.9 25.6
15 -9 7 17.6 21.4
-9 -6 7 13.1 27
-6 15 7 14.7 15.5
15 -9 7 13.2 23.8
5 -15 -7 54.49 25.6
-15 10 -7 35.7 26.3
10 5 -7 37.3 23.6
-10 -5 7 15.2 20.8
15 -10 7 36.7 22.3
-5 15 7 47.4 17.2
-10 -5 7 23 31.5
-5 15 7 2.3 25.7
-15 11 -7 16.8 24.9
11 4 -7 -3 20.8
4 -15 -7 -11.5 17.1
-4 15 7 12.6 15.3
-4 15 7 5.7 23.7
-11 -4 7 15.9 20.1
-11 -4 7 12.1 26.8
15 -11 7 4.2 20.7
3 -15 -7 80.19 30.1
12 3 -7 15.9 23
-15 12 -7 63.09 32.8
-3 15 7 22.7 28.6
-3 15 7 82.29 21.2
-12 -3 7 66.39 22.9
15 -12 7 105.19 27.8
-12 -3 7 19.4 26.5
13 2 -7 18.7 22.1
2 -15 -7 13.5 20.7
-15 13 -7 18.8 28.2
-2 15 7 -22.3 19
-13 -2 7 4 17.2
15 -13 7 3.8 21
-2 15 7 -0.6 14.2
-13 -2 7 -26 24.4
14 1 -7 66.69 27.7
-15 14 -7 55.89 35.1
-1 15 7 78.69 21.1
15 -14 7 68.19 25.5
-1 15 7 18.3 25.8
-14 -1 7 154.18 40.6
15 0 -7 -27.2 20.6
-15 15 -7 13.6 27
0 15 7 -6.9 19.9
15 -15 7 8 20.8
-15 0 7 -9.4 25.9
0 15 7 8.9 17
16 -1 -7 53.69 26.4
-15 16 -7 64.29 33.8
1 15 7 52.89 28.3
-16 1 7 53.89 34.1
1 15 7 56.99 21.5
15 -16 7 48.3 26.3
15 -16 7 51.19 26.5
-15 17 -7 43.6 38.5
17 -2 -7 -15.8 22.1
15 -17 7 -13.2 19.7
2 15 7 -20 18.8
15 -17 7 -47.7 30
2 15 7 -35.9 16.3
-17 2 7 5 31.3
-15 18 -7 21.2 40.3
18 -3 -7 56.89 25.6
15 -18 7 21.7 21.3
-18 3 7 21.4 36.5
3 15 7 51.79 29.1
3 15 7 55.49 29.4
15 -18 7 79.49 25.9
19 -4 -7 12.6 20.8
-15 19 -7 -31.1 47.1
-4 -15 -7 14.5 30.9
-19 4 7 -21.8 26.5
15 -19 7 -0.2 22.2
15 -19 7 13.7 21.2
20 -5 -7 17.9 20.9
-5 -15 -7 56.19 34.9
-20 5 7 60.39 54.19
15 -20 7 57.69 23
15 -20 7 -17.5 19.7
-6 -15 -7 17.6 35.3
-15 21 -7 27.3 53.59
21 -6 -7 -15.6 20
-21 6 7 22 35.8
15 -21 7 1.1 20.5
15 -21 7 -19.8 17.4
6 15 7 -30.2 19.8
-5 21 -7 37.6 25.9
16 5 7 50.69 26.1
-21 16 7 7.3 39.6
5 -21 7 -11.7 21.5
5 -21 7 -3.8 20.4
-4 20 -7 88.59 29.7
4 -20 7 85.69 31.4
16 4 7 97.49 30.8
-20 16 7 89.69 35.8
-20 16 7 57.79 34.7
4 -20 7 101.39 26.3
-3 19 -7 51.99 25.3
-19 16 7 54.69 32.5
3 -19 7 4.9 21.7
3 -19 7 28.3 28
-19 16 7 116.19 44
-2 18 -7 164.08 34.3
2 -18 7 168.58 37.4
-18 16 7 127.19 35.1
2 -18 7 216.28 34.4
-18 16 7 117.99 39.6
16 2 7 123.99 33.4
-1 17 -7 60.19 27.2
1 -17 7 60.49 31.7
16 1 7 27.1 23.5
1 -17 7 84.19 25.4
-17 16 7 82.89 44.7
-17 16 7 66.79 34.7
0 16 -7 163.88 34.6
-16 16 7 157.28 44.6
-16 16 7 226.38 37.4
16 0 7 185.48 34.5
0 -16 7 236.28 42.6
1 15 -7 47.1 24.5
-15 16 7 90.99 24.9
-1 -15 7 71.39 31
-15 16 7 51.09 33.8
16 -1 7 67.29 23.6
2 14 -7 255.57 42
16 -2 7 205.28 36.4
-2 -14 7 211.28 45.7
-14 16 7 180.98 33
-14 16 7 138.49 38.4
3 13 -7 27.1 22.8
-3 -13 7 42.1 33.7
-13 16 7 18.9 20.3
-13 16 7 7.6 28
16 -3 7 7.7 19.4
4 12 -7 203.08 37.3
-16 4 -7 44.9 44.3
-12 16 7 178.68 43.1
-12 16 7 176.08 31
16 -4 7 185.08 34.2
16 -4 7 149.09 36.2
-16 5 -7 47.1 33.2
5 11 -7 72.09 27.8
-5 -11 7 30.5 30.4
-11 16 7 61.69 20.8
-5 -11 7 37 25.5
16 -5 7 61.29 24.6
-11 16 7 66.39 31.9
16 -5 7 89.49 24.6
-16 6 -7 222.38 49.6
6 10 -7 262.27 40.6
16 -6 7 206.58 36.1
-10 16 7 203.48 30.6
-6 -10 7 240.98 36.5
-10 16 7 161.78 44.9
16 -6 7 153.18 30.2
-6 -10 7 205.48 42.9
-16 7 -7 99.29 40
7 9 -7 47.3 26.3
-9 16 7 88.99 34
16 -7 7 77.39 26.5
-9 16 7 81.19 22.8
16 -7 7 101.19 30
-7 -9 7 70.99 35.2
-7 -9 7 63.09 22.9
-16 8 -7 173.38 42.6
8 8 -7 239.78 41.9
16 -8 7 199.18 35
-8 -8 7 156.28 31.2
-8 -8 7 159.78 40.4
-8 16 7 232.08 41.8
-8 16 7 212.98 32.2
16 -8 7 142.99 32.7
9 7 -7 97.09 28.9
-16 9 -7 49.1 33.7
-9 -7 7 55.99 32.5
-7 16 7 49.99 29.8
-9 -7 7 81.19 25.7
-7 16 7 85.19 19.6
16 -9 7 74.69 27.4
16 -9 7 93.49 26.9
-16 10 -7 180.88 47.4
6 -16 -7 88.59 29.7
10 6 -7 190.28 38.5
-10 -6 7 209.38 34.9
-10 -6 7 152.68 38.1
16 -10 7 250.47 38
-6 16 7 227.38 28.9
16 -10 7 163.78 34.4
-6 16 7 199.28 44.7
5 -16 -7 34.7 25.9
11 5 -7 46.5 26.6
-16 11 -7 116.79 40.3
16 -11 7 13.4 22.9
16 -11 7 89.19 27.2
-5 16 7 80.89 30
-11 -5 7 37.7 21.3
-5 16 7 81.69 20.3
-11 -5 7 45.9 26.5
4 -16 -7 69.89 30.2
12 4 -7 241.88 41.9
-16 12 -7 170.98 44.7
-4 16 7 150.48 41.2
-4 16 7 256.27 30.1
16 -12 7 174.78 32.6
-12 -4 7 180.48 39.9
16 -12 7 166.78 45.6
-12 -4 7 198.28 45.3
3 -16 -7 69.59 28
-16 13 -7 59.89 37.8
13 3 -7 1.5 23.3
16 -13 7 83.09 26.3
-3 16 7 42.3 28.8
-3 16 7 43.2 18.2
-13 -3 7 -23.4 23.6
14 2 -7 229.08 40.2
-16 14 -7 232.48 49.8
16 -14 7 222.58 35.8
-2 16 7 181.48 41.7
-14 -2 7 192.88 42.8
-2 16 7 152.78 28.1
-16 15 -7 -2.8 23.2
15 1 -7 62.69 28.1
-15 -1 7 26.3 31.8
-1 16 7 63.49 21.9
16 -15 7 25.7 23.1
-1 16 7 50.49 27.4
16 0 -7 230.98 39.3
-16 16 -7 195.58 48.4
0 16 7 312.87 35.3
-16 0 7 282.57 58.69
0 16 7 170.08 40.7
16 -16 7 197.58 37.2
17 -1 -7 37.5 27.3
-16 17 -7 7.9 27.9
1 16 7 55.79 27.6
1 16 7 96.79 23.4
16 -17 7 54.99 27.6
-17 1 7 57.59 39.4
16 -17 7 58.19 26
18 -2 -7 156.78 34.3
-16 18 -7 139.59 38
16 -18 7 128.29 39.6
16 -18 7 198.28 33.6
2 16 7 127.79 34.5
-18 2 7 145.19 45.4
19 -3 -7 54.89 26.3
-3 -16 -7 35 35.1
-16 19 -7 -5.1 27.8
16 -19 7 44.5 23.7
-19 3 7 52.19 40.5
16 -19 7 37.2 21.8
20 -4 -7 137.39 32.1
-16 20 -7 98.19 35.1
-4 -16 -7 159.88 45.7
16 -20 7 65.29 25.5
-20 4 7 176.98 49.1
16 -20 7 93.69 28.9
21 -5 -7 41.3 23.5
-16 21 -7 29.6 36.4
-5 -16 -7 28.6 34.5
16 -21 7 -18.6 19.2
-21 5 7 -23.2 31.8
16 -21 7 16.6 20.7
-21 17 7 -85.59 33.5
17 4 7 -13 18.1
4 -21 7 -30.6 18.9
-3 20 -7 117.49 30.5
-20 17 7 6 29.5
17 3 7 25 22.1
3 -20 7 58.99 23.9
3 -20 7 45.7 28.2
-20 17 7 30.9 32.1
-2 19 -7 -43.4 17.7
-19 17 7 39.8 34.1
17 2 7 66.79 27.5
2 -19 7 -37.3 19.3
2 -19 7 16.9 24.2
-19 17 7 -6.7 24.8
-1 18 -7 44.6 24.3
17 1 7 36.7 28.5
-18 17 7 24.8 30.4
1 -18 7 98.69 26
-18 17 7 33.6 31.8
1 -18 7 49.5 30.7
0 17 -7 19 20.5
-17 17 7 1.3 26.8
0 -17 7 21.4 27.9
-17 17 7 -2.1 26.8
17 0 7 -9.7 18
1 16 -7 60.49 24.7
17 -1 7 121.79 28
-16 17 7 2.2 33.3
-1 -16 7 78.29 32.8
-16 17 7 36.7 25.2
2 15 -7 15.2 20
17 -2 7 10.6 20.6
-2 -15 7 -1.8 25.6
-15 17 7 15.4 20.6
-15 17 7 16.2 29.5
3 14 -7 53.59 26.4
-3 -14 7 36.1 37
17 -3 7 51.79 24.8
-14 17 7 19.4 29.3
-14 17 7 9.2 22.4
4 13 -7 1.4 23.4
-13 17 7 3.5 28.3
17 -4 7 16.2 21
-4 -13 7 20.7 51.69
-13 17 7 12.3 19.4
5 12 -7 23.7 23.9
-12 17 7 18.8 18
-5 -12 7 -1.3 19.1
17 -5 7 51.09 25
-5 -12 7 29.4 28
-12 17 7 39.4 27.2
6 11 -7 17.5 21.2
-11 17 7 14.5 25.6
-6 -11 7 25.3 22.8
17 -6 7 -13.9 30.7
-6 -11 7 -2.8 26.5
17 -6 7 -2.1 17.6
-11 17 7 -17.6 16.5
7 10 -7 15 21.8
-10 17 7 -24.7 23.5
-7 -10 7 48.7 31.5
-7 -10 7 17.3 20.9
-10 17 7 -24.2 16.6
17 -7 7 28.9 21.9
17 -7 7 -4.7 18.3
8 9 -7 23.7 25
-17 8 -7 18.2 30.5
-8 -9 7 9.4 29.6
17 -8 7 22.5 23.8
17 -8 7 51.49 22.7
-9 17 7 -0.2 24.9
-8 -9 7 13.5 20.3
-9 17 7 9.5 16.5
-17 9 -7 27.8 37.3
9 8 -7 36.3 22.3
-9 -8 7 -19.6 18.7
-8 17 7 23.8 27.5
17 -9 7 -36.7 17.6
-8 17 7 25.6 17.1
17 -9 7 2.3 21.6
-9 -8 7 -4.7 23.6
-17 10 -7 -14.2 20.7
10 7 -7 -20.2 18.1
17 -10 7 -16.1 21.6
-7 17 7 24.3 16.5
-7 17 7 0.6 28.4
-10 -7 7 20.6 26.3
17 -10 7 23.4 20.8
-10 -7 7 10 21.9
-17 11 -7 21 29.2
11 6 -7 24 23.1
-6 17 7 -20 20.4
17 -11 7 46 25.8
-11 -6 7 -2.6 22.6
-6 17 7 -1.4 14.3
-11 -6 7 23.7 31.9
17 -11 7 22.2 20.6
-17 12 -7 18 30.1
12 5 -7 60.29 24.9
-5 17 7 28.7 27.9
-5 17 7 18.6 16.7
17 -12 7 51.19 24.8
-12 -5 7 21.7 30.4
17 -12 7 4.7 21.1
13 4 -7 31.5 23
-17 13 -7 -24.7 21.7
-4 17 7 5.5 15
17 -13 7 -7.1 22.1
-4 17 7 15.3 24.2
-13 -4 7 -6.6 24.5
17 -13 7 -6.8 18.8
14 3 -7 90.09 28.8
-17 14 -7 -1.1 24.5
-3 17 7 44.4 20
17 -14 7 42.7 23.9
-3 17 7 39.7 29.7
17 -14 7 26.7 39.6
-14 -3 7 73.59 37.4
-17 15 -7 -9.4 25.6
15 2 -7 15.3 24.5
17 -15 7 -11.5 20.3
-2 17 7 -12 16.1
-15 -2 7 0 28.8
-2 17 7 -6.6 22.8
-17 16 -7 20.8 30.2
16 1 -7 62.19 28.5
-1 17 7 85.99 35.1
-1 17 7 41.5 22.4
17 -16 7 93.99 27.1
-16 -1 7 36.1 35.1
17 0 -7 16.2 24.2
-17 17 -7 8.3 27.5
17 -17 7 30.1 21.9
0 17 7 6.8 22
-17 0 7 -57.89 22.4
0 17 7 -5.8 19.6
18 -1 -7 82.89 30.4
-17 18 -7 79.79 37.4
17 -18 7 63.29 30.3
1 17 7 66.29 28.4
-18 1 7 24.7 35.7
-17 19 -7 -2.5 30.6
19 -2 -7 21.3 26
17 -19 7 10 23.1
-19 2 7 3.8 42
2 17 7 -25.9 18.6
2 17 7 3.4 22
17 -19 7 5.9 23.3
-17 20 -7 64.49 38.8
-3 -17 -7 29.9 34.2
20 -3 -7 53.89 26.8
17 -20 7 38.3 23.9
-20 3 7 8.4 34.3
17 -20 7 44.1 27.3
-17 21 -7 14 30.7
21 -4 -7 -0.1 23.5
-4 -17 -7 -16 31.1
17 -21 7 -14.3 19.6
-21 4 7 -15 33.8
17 -21 7 -8.5 19.4
2 -20 7 52.39 31
18 2 7 67.39 27.2
-20 18 7 129.59 41.5
-20 18 7 110.29 46
2 -20 7 92.49 27.3
-1 19 -7 -17.9 23.4
18 1 7 87.19 29.5
1 -19 7 33.7 23.6
-19 18 7 37.9 34.6
1 -19 7 6.8 27.9
-19 18 7 39.8 27.6
0 18 -7 153.78 33.5
0 -18 7 127.09 31.8
-18 18 7 106.29 37.9
18 0 7 189.78 49.6
0 -18 7 101.59 35.9
1 17 -7 80.19 26.7
-1 -17 7 2.9 27.1
18 -1 7 39.7 33.5
-17 18 7 102.79 30.6
-17 18 7 23.1 28.5
2 16 -7 124.39 30.8
-16 18 7 44 33
18 -2 7 88.59 27.9
-16 18 7 98.99 31.2
-2 -16 7 178.78 41.1
3 15 -7 11.6 23.2
-15 18 7 95.69 27.5
18 -3 7 66.39 25.4
-3 -15 7 22.1 38.6
-15 18 7 65.59 36.9
4 14 -7 173.68 35.6
-14 18 7 151.48 32.9
-4 -14 7 101.59 43.8
-4 -14 7 136.79 31.5
-14 18 7 123.79 40.7
18 -4 7 90.09 27.2
5 13 -7 42.2 24.8
-5 -13 7 44.8 22.9
-13 18 7 39.8 23.1
-13 18 7 2.2 28.5
-5 -13 7 48.1 33.4
18 -5 7 36.6 24.4
6 12 -7 89.19 30.9
-12 18 7 58.79 32.7
-6 -12 7 148.49 38.7
18 -6 7 135.29 30.3
-6 -12 7 103.19 27.9
-12 18 7 92.19 24.7
7 11 -7 50.79 29.1
18 -7 7 26.7 21.7
-7 -11 7 7.4 23
-11 18 7 87.49 24.9
-7 -11 7 -14.5 25.4
-11 18 7 40.7 31.3
8 10 -7 107.59 30.9
-10 18 7 148.09 27.8
-8 -10 7 206.98 48.4
-8 -10 7 99.89 30
-10 18 7 89.09 34.3
18 -8 7 70.99 27.5
9 9 -7 52.79 24.1
-9 18 7 18.7 26
-9 -9 7 29.9 24.9
-9 -9 7 2.3 25.9
-9 18 7 44.5 20.7
18 -9 7 32.8 23.3
18 -9 7 3.6 23.1
10 8 -7 126.59 30.5
18 -10 7 94.99 28.1
-8 18 7 105.29 37
-8 18 7 117.49 23.7
-10 -8 7 82.89 39.3
-10 -8 7 113.89 37.8
18 -10 7 196.18 37.8
11 7 -7 78.39 28
-7 18 7 38.1 18.7
-7 18 7 107.99 32.5
18 -11 7 89.69 29.3
-11 -7 7 18 29.4
18 -11 7 55.39 25.3
12 6 -7 130.89 33.4
-6 18 7 118.99 24.8
-6 18 7 123.49 37.8
18 -12 7 96.79 29.9
18 -12 7 138.19 31.3
-12 -6 7 103.69 38.4
13 5 -7 1.5 22.9
-13 -5 7 59.59 36.9
-5 18 7 12 17.6
-5 18 7 4.3 22.9
18 -13 7 43.1 23.8
18 -13 7 30 24.4
-18 14 -7 32.8 54.09
14 4 -7 110.79 32.2
-14 -4 7 88.29 39.9
-4 18 7 85.19 23.5
18 -14 7 192.58 32.8
18 -14 7 115.49 30.1
-4 18 7 169.28 41.1
-18 15 -7 -1 30.9
15 3 -7 46.5 24.6
-3 18 7 37.8 19.6
-3 18 7 41 27
18 -15 7 -5.2 19.9
-15 -3 7 39.9 34.2
18 -15 7 80.09 30.7
-18 16 -7 221.08 72.19
16 2 -7 120.79 33.4
-2 18 7 132.79 36.6
-2 18 7 157.08 27.9
-16 -2 7 114.39 38.6
18 -16 7 120.99 30.1
17 1 -7 54.49 25.3
-18 17 -7 35 34.6
18 -17 7 17.7 23
-1 18 7 6.4 24.3
-17 -1 7 11.7 29.2
-1 18 7 54.59 21.7
-18 18 -7 82.49 44.5
18 0 -7 139.09 34.4
18 -18 7 141.99 31.6
-18 0 7 150.98 45.8
0 18 7 83.49 28.2
19 -1 -7 34 26.4
-18 19 -7 17.7 32.5
18 -19 7 32.7 24.4
1 18 7 18.7 23.2
1 18 7 65.69 29.1
-19 1 7 71.29 44.5
20 -2 -7 63.09 29.5
-18 20 -7 20.8 39.2
-2 -18 -7 19.2 38.1
-20 2 7 70.89 43.8
18 -20 7 133.59 31.7
18 -20 7 117.89 27.9
0 -19 7 24.7 23.9
-19 19 7 -14.3 31.2
19 0 7 44.7 23.1
-19 19 7 -59.69 31.4
0 -19 7 35.2 28.9
1 18 -7 59.59 44
19 -1 7 46.9 22.9
-18 19 7 35.2 36.9
-1 -18 7 34.6 31.6
2 17 -7 -4.2 28
-17 19 7 -37.2 22.3
-2 -17 7 2.3 26.6
-17 19 7 37.4 34
19 -2 7 -18.5 28.7
3 16 -7 42.4 27.7
-3 -16 7 91.49 57.29
-16 19 7 10.3 29.6
-16 19 7 -13.5 24.2
19 -3 7 27 35.2
4 15 -7 10 22.6
-4 -15 7 -38.6 20.8
-15 19 7 -23.8 20.7
19 -4 7 26.7 20.4
-4 -15 7 -0.5 30
-15 19 7 -23.2 25.9
5 14 -7 18.8 24.8
-14 19 7 12.7 22.3
19 -5 7 27.9 22.6
-5 -14 7 26.6 29.6
-14 19 7 40.3 31.7
-5 -14 7 59.49 25.9
6 13 -7 19.5 24.4
19 -6 7 53.89 24.5
-6 -13 7 7 23.9
-6 -13 7 -25.2 27.9
-13 19 7 56.09 34.6
-13 19 7 12.1 19.2
7 12 -7 26.3 22.4
19 -7 7 5.1 20.9
-12 19 7 1.1 24.9
-7 -12 7 33.9 30.5
-12 19 7 22.3 18.8
-7 -12 7 -4.4 22.1
8 11 -7 58.59 25.6
-11 19 7 7.4 17.7
-11 19 7 -5.7 26.6
-8 -11 7 1.6 26.9
19 -8 7 5.6 19.8
-8 -11 7 3.9 21.6
9 10 -7 17.5 24.2
-10 19 7 10.4 28.6
-10 19 7 -0.9 18.5
-9 -10 7 16.2 26.8
19 -9 7 3.9 19.5
10 9 -7 33 23.2
-9 19 7 -5.8 17
-10 -9 7 -38.1 23.9
19 -10 7 38.3 22.7
-9 19 7 -27.3 23.4
11 8 -7 53.29 27.3
19 -11 7 -1.9 20
-11 -8 7 -0.5 26
-8 19 7 -19.7 13.5
19 -11 7 -54.39 25.7
-8 19 7 -15.2 22.3
12 7 -7 -24.9 20.8
-7 19 7 -6.8 14.7
-12 -7 7 58.79 29.3
19 -12 7 37.6 26.5
19 -12 7 11 19.8
-7 19 7 15.3 29.2
13 6 -7 -9.9 20.8
19 -13 7 27.7 21.6
-6 19 7 42.4 27.1
-13 -6 7 21.5 28.4
-6 19 7 -11.2 14.9
19 -13 7 10.2 24.3
14 5 -7 32.4 24.9
-5 19 7 32.4 18.3
-5 19 7 5.3 27
-14 -5 7 -13.9 29.9
19 -14 7 38.5 22.4
19 -14 7 18.6 25
15 4 -7 31.3 26.6
19 -15 7 14.1 21.2
-4 19 7 -12.2 16.1
19 -15 7 -8.7 23.3
-15 -4 7 6.9 29
-4 19 7 -21.3 23.8
16 3 -7 -19.5 23.4
19 -16 7 8.3 23.5
-3 19 7 24.6 18.4
19 -16 7 50.79 29.4
-3 19 7 65.49 28
-16 -3 7 40.3 33.1
17 2 -7 -11.8 22
19 -17 7 -11.2 22.7
-17 -2 7 4.7 30.1
-2 19 7 6.3 24.3
-2 19 7 13.2 19.1
18 1 -7 -33.4 22.1
19 -18 7 60.69 27.5
-18 -1 7 25.7 34.4
-1 19 7 16.6 22.2
-1 19 7 63.69 28.4
19 0 -7 30 40.5
0 19 7 7 20.9
19 -19 7 9.5 28.5
-19 0 7 15.6 34.3
0 19 7 12.6 27.5
2 18 -7 81.99 37.4
-18 20 7 136.29 46.5
20 -2 7 115.29 31
-2 -18 7 149.49 39.9
3 17 -7 62.99 48.9
-3 -17 7 20 51.29
-17 20 7 -28.5 29
20 -3 7 14.1 22.6
-17 20 7 75.79 26.6
-16 20 7 74.49 26.9
-4 -16 7 72.09 31.2
-4 -16 7 52.59 36.6
-16 20 7 52.59 36.5
20 -4 7 54.29 31.1
-15 20 7 59.39 32.5
20 -5 7 48.6 33.9
-5 -15 7 41 30.7
-5 -15 7 64.09 27.7
-15 20 7 14.6 24
6 14 -7 56.09 35.8
20 -6 7 57.99 24.1
-14 20 7 95.79 25.9
-14 20 7 35.9 28.8
-6 -14 7 30.6 29.4
-6 -14 7 99.69 31.2
7 13 -7 14.1 32.4
-7 -13 7 54.49 35.8
-7 -13 7 8.1 25.3
-13 20 7 45.4 31.1
-13 20 7 101.99 25.1
20 -7 7 6.5 21.6
8 12 -7 144.49 38.1
-12 20 7 58.09 37.5
-8 -12 7 13.9 32.6
-8 -12 7 117.89 37
-12 20 7 134.99 26.7
20 -8 7 113.49 30
9 11 -7 43 29
-11 20 7 68.79 36.2
-11 20 7 46.4 20.6
20 -9 7 28.4 22.9
-9 -11 7 13.3 30.1
10 10 -7 48.4 32.8
-10 20 7 61.89 33.6
-10 -10 7 51.69 31.9
20 -10 7 94.29 28.9
-10 20 7 126.49 28.7
11 9 -7 42 29.1
-11 -9 7 28 27.9
-9 20 7 51.09 18.9
20 -11 7 2.4 21.5
-9 20 7 30.8 27.4
12 8 -7 135.49 36.8
20 -12 7 57.39 24.6
-8 20 7 79.69 21.2
-8 20 7 90.09 37
-12 -8 7 45.2 31.7
13 7 -7 55.99 43.1
-7 20 7 69.89 20.1
20 -13 7 46.6 25.4
-7 20 7 19.6 29.1
20 -13 7 72.69 36.3
-13 -7 7 51.49 32.3
-14 -6 7 54.29 32.8
20 -14 7 75.59 29.2
20 -14 7 27.9 25.1
-6 20 7 109.09 23.6
-6 20 7 46.5 29.3
-5 20 7 80.19 20.4
20 -15 7 1.2 25.1
20 -15 7 2.8 26
-15 -5 7 36.7 33.7
-5 20 7 3.2 24.9
-16 -4 7 49.7 36.9
-4 20 7 113.99 26.5
-4 20 7 55.99 29.6
20 -16 7 96.89 30.3
20 -16 7 174.38 37.1
17 3 -7 12.5 33.7
-17 -3 7 97.79 43.3
-3 20 7 54.89 20.6
20 -17 7 31.2 25.2
20 -17 7 85.49 31.1
-3 20 7 -10 22.6
18 2 -7 40.2 29.9
20 -18 7 149.59 36.9
-2 20 7 96.29 35.2
-18 -2 7 97.79 77.29
-2 20 7 95.79 27.5
4 17 -7 9.6 25
-4 -17 7 36.6 33.7
-4 -17 7 2.8 26
-17 21 7 -3.6 30.7
21 -4 7 1.8 21.8
-17 21 7 -42 21.7
5 16 -7 21.4 26.7
-5 -16 7 34.2 36
-16 21 7 23.9 32.2
-16 21 7 -4.7 23
-5 -16 7 71.89 29.9
21 -5 7 31.8 23.4
6 15 -7 8.4 23.1
-15 21 7 50.99 32.2
-6 -15 7 -0.6 31.9
21 -6 7 40 38.7
-6 -15 7 -35.1 25.2
-15 21 7 -36.1 21.8
7 14 -7 26 25.6
-7 -14 7 -15.9 25.4
-14 21 7 7.4 26.8
-14 21 7 25.4 22.6
-7 -14 7 -21.6 27.4
8 13 -7 28 24.9
-8 -13 7 3.7 29
21 -8 7 -8.9 22.8
-13 21 7 5 28.7
-13 21 7 10 19.3
9 12 -7 12.2 27.3
21 -9 7 -16.6 19.9
-9 -12 7 12.7 30
-12 21 7 4.7 21.2
-12 21 7 -37.9 24.4
10 11 -7 13.6 26.1
21 -10 7 -10.8 21
-11 21 7 23.8 21.7
-11 21 7 -29.9 23.7
-10 -11 7 -12.4 27.2
11 10 -7 17.4 30.8
-11 -10 7 16.3 30.9
-10 21 7 -20.4 19.4
-10 21 7 -20 25.9
21 -11 7 -5.1 20.3
12 9 -7 9.7 24.9
-12 -9 7 6.8 29.3
-9 21 7 -21.9 23.5
-9 21 7 -4.6 17
21 -12 7 11.6 22.2
13 8 -7 28.8 25.5
21 -13 7 11.4 21.2
-13 -8 7 54.19 33.2
-8 21 7 -5.9 16.1
-8 21 7 16.2 27
14 7 -7 -23.7 22.4
21 -14 7 46.2 23.3
-7 21 7 48.4 20
-14 -7 7 18.5 30.6
-7 21 7 31.7 27
15 6 -7 13.5 27.3
-15 -6 7 -1.6 28.9
-6 21 7 -17.3 21.7
21 -15 7 1.3 22.7
-6 21 7 -26.5 16
21 -15 7 -4.5 27.2
16 5 -7 8.8 28.8
21 -16 7 -21.2 26.6
-5 21 7 32.5 28.6
-16 -5 7 21.3 33.5
-5 21 7 -32 16.8
21 -16 7 6 23.7
17 4 -7 23.6 28.7
-4 21 7 20.3 24.9
-4 21 7 -15.7 18.3
-17 -4 7 -37.5 32
21 -17 7 -28.4 28.2
21 -17 7 -12.7 21.4
8 14 -7 104.69 31.4
-14 22 7 55.89 38.6
22 -8 7 76.49 31.9
-8 -14 7 39.4 36.1
-14 22 7 157.38 30.7
9 13 -7 15.6 25.9
-9 -13 7 33 34.6
-13 22 7 29.4 33
-13 22 7 75.39 25.1
10 12 -7 98.89 35.4
-10 -12 7 46.2 39.2
-12 22 7 72.69 33.8
22 -10 7 47.2 28.3
-12 22 7 122.29 31.2
11 11 -7 24.2 28.1
-11 22 7 70.49 24.2
-11 -11 7 30 30.9
22 -11 7 30.2 24.1
-11 22 7 33.7 30.6
12 10 -7 100.49 32.4
-12 -10 7 39.9 33.9
22 -12 7 102.79 30
-10 22 7 110.49 42.2
-10 22 7 41.3 23.5
13 9 -7 49.99 31.4
-9 22 7 33.6 30
-9 22 7 51.49 20.9
22 -13 7 48.2 27.3
-13 -9 7 61.79 31.4
14 8 -7 103.19 33.2
22 -14 7 72.29 27.3
-8 22 7 94.49 22.8
-8 22 7 68.39 36.9
-14 -8 7 21.3 35.2
0 0 8 317.47 56.59
0 1 -8 106.69 34.9
1 0 8 -3.4 25
0 -1 8 0.5 23.6
-1 1 8 18.7 16.4
-1 1 8 2 26.2
1 0 8 40 28.9
-1 1 -8 -20 21.4
1 -1 8 6.1 26.3
0 1 8 27.7 17.7
0 1 8 -17.2 21.3
-1 0 8 24.5 28.4
-1 2 -8 37.2 26.8
1 1 8 9.3 23.3
1 -2 8 -8 22.8
-2 1 8 58.59 21.2
-2 1 8 177.18 42.8
-1 3 -8 -13.2 15.5
-1 3 -8 17.2 24.6
-3 2 8 26.7 16.3
2 1 8 20.3 17.8
-3 2 8 35.2 29.7
2 1 8 20.6 28.8
1 -3 8 13.5 23.7
0 2 -8 170.88 29
0 2 -8 176.98 36.5
-2 2 8 179.18 28.9
0 -2 8 174.58 44.1
2 0 8 120.49 38.4
2 0 8 140.59 34.7
-2 2 8 211.48 43.5
1 1 -8 -0.6 15.5
1 1 -8 33.7 24.6
2 -1 8 10.8 26.6
-1 2 8 37 19.3
-1 -1 8 13.2 27.6
-1 2 8 20.1 26.5
-2 2 -8 147.59 39.9
2 0 -8 147.69 49.3
2 0 -8 122.99 39.5
0 2 8 155.28 27.3
-2 0 8 155.18 38.2
0 2 8 131.69 36.7
2 -2 8 63.79 31.6
3 -1 -8 19.1 19
-2 3 -8 -13.6 20.8
-3 1 8 55.29 32.4
2 -3 8 -15 23.7
1 2 8 -10.3 24.2
-3 1 8 12.1 16
1 2 8 37.4 18.7
4 -2 -8 344.67 34.2
-2 4 -8 272.07 48.8
-4 2 8 237.88 45.4
2 -4 8 303.97 51.19
2 2 8 261.57 33.1
2 2 8 352.86 57.39
-4 2 8 279.87 35.3
-2 5 -8 36.1 20.3
-2 5 -8 45.8 30.4
-5 3 8 -22.1 22.8
2 -5 8 69.89 35.4
3 2 8 36.1 30
-5 3 8 12.2 17.7
3 2 8 18.6 16
-1 4 -8 66.99 22
-1 4 -8 59.59 30.2
3 1 8 51.09 31.9
-4 3 8 101.69 26
3 1 8 55.99 21.5
-4 3 8 3.5 28.3
1 -4 8 71.69 37.4
0 3 -8 33.5 25.5
0 3 -8 -0.1 16.4
3 0 8 5.3 21.8
3 0 8 9.8 23.6
0 -3 8 46.2 32
-3 3 8 2.1 28.7
-3 3 8 40.4 19.9
1 2 -8 8.4 21
1 2 -8 2.1 16.8
3 -1 8 -28.2 21.2
-2 3 8 21.8 17.8
-1 -2 8 3.2 24.8
-2 3 8 2.3 23.3
2 1 -8 9.3 17.2
-3 2 -8 10.7 24.1
2 1 -8 14.6 23.5
-2 -1 8 18 27.2
-1 3 8 20 18
-1 3 8 -1.7 25.3
3 -2 8 -4.8 22.8
-3 3 -8 47.5 28.7
3 0 -8 35.3 25.2
3 0 -8 26.5 20.8
0 3 8 51.09 32.7
-3 0 8 38.5 28.7
3 -3 8 10.2 28.4
0 3 8 77.69 22.7
4 -1 -8 53.29 38.8
-3 4 -8 32.1 26.7
-4 1 8 72.99 34.8
1 3 8 98.79 23.7
-4 1 8 46.7 20.7
1 3 8 123.09 39.1
3 -4 8 28.5 28
5 -2 -8 37.1 19.4
-3 5 -8 -12.7 24.3
2 3 8 24.7 27.7
3 -5 8 12.4 24.6
-5 2 8 25.7 28.6
-5 2 8 48.5 20.3
2 3 8 4.6 14.5
-3 6 -8 8 18.3
-3 6 -8 42.4 26.6
6 -3 -8 22.3 19.1
3 3 8 28.6 17.9
3 3 8 32.9 27.3
-6 3 8 -2.7 27.7
3 -6 8 42 30
-6 3 8 29.2 21.7
-4 -3 -8 55.09 39.5
-3 7 -8 17.9 25.6
-3 7 -8 80.79 23.4
7 -4 -8 74.29 21.1
4 3 8 76.29 37.4
4 3 8 41.3 29.6
-7 4 8 35.1 29
3 -7 8 67.69 32.5
3 -7 8 77.59 34.4
-7 4 8 131.19 33.4
-2 6 -8 412.86 52.49
-2 6 -8 377.96 41.4
4 2 8 378.36 43.9
-6 4 8 380.76 60.39
4 2 8 270.37 49.9
2 -6 8 418.56 54.39
2 -6 8 324.57 58.69
-6 4 8 427.76 42.2
-1 5 -8 6.6 23.6
-1 5 -8 58.99 21.9
4 1 8 49.7 20.3
1 -5 8 56.29 31.1
-5 4 8 49.2 20.2
4 1 8 39.5 33.1
-5 4 8 22.7 30
0 4 -8 394.96 42.3
0 4 -8 426.26 52.09
-4 4 8 359.06 58.79
-4 4 8 454.65 43.8
4 0 8 469.05 57.49
0 -4 8 355.66 52.59
4 0 8 421.36 54.69
1 3 -8 27 19.3
1 3 -8 34.5 24.3
-1 -3 8 94.89 37
-3 4 8 120.49 26.4
-3 4 8 62.89 34.1
4 -1 8 37.2 26.7
2 2 -8 232.58 40.9
-4 2 -8 266.67 47.8
2 2 -8 293.17 34.3
-2 -2 8 263.97 49.9
-2 4 8 246.48 45.9
4 -2 8 239.48 46.2
-2 4 8 280.27 36
-4 3 -8 38.7 26.8
3 1 -8 17.3 22.1
3 1 -8 120.39 26.4
4 -3 8 56.69 29.9
-1 4 8 34.4 19.8
-3 -1 8 63.49 34.5
-1 4 8 47.8 32.3
-4 4 -8 326.97 49.7
4 0 -8 507.35 51.99
4 0 -8 405.76 40.6
4 -4 8 302.27 48.8
-4 0 8 458.85 60.49
0 4 8 375.16 39.4
0 4 8 451.95 67.49
5 -1 -8 43.4 29.9
-4 5 -8 110.09 34.4
5 -1 -8 43.8 32.4
-1 -4 -8 46.9 37.7
1 4 8 26.7 18.6
1 4 8 92.19 37.1
4 -5 8 44 32.3
-5 1 8 23.5 26.8
-5 1 8 62.19 24.9
-2 -4 -8 321.17 67.79
-4 6 -8 270.57 44.1
6 -2 -8 300.97 57.99
2 4 8 362.66 57.99
-6 2 8 339.97 62.89
4 -6 8 364.36 58.29
-6 2 8 397.16 57.59
2 4 8 350.56 37.7
7 -3 -8 52.09 21
-4 7 -8 120.09 35.8
-3 -4 -8 24.9 54.19
-4 7 -8 48.5 20.2
4 -7 8 58.49 33.8
-7 3 8 72.99 35.7
4 -7 8 82.09 34.8
3 4 8 55.89 23
3 4 8 26 29
8 -4 -8 221.58 31.3
-4 8 -8 217.98 45.9
-4 -4 -8 268.87 48.3
-4 8 -8 322.97 37
4 4 8 297.27 52.19
-8 4 8 159.98 42.3
4 -8 8 263.17 47.1
9 -5 -8 39.7 20.1
-4 9 -8 12.9 18.8
-5 -4 -8 11.7 23.2
-4 9 -8 68.99 27.5
-9 5 8 1.6 27.9
-9 5 8 31.6 22.9
5 4 8 17.2 24.2
4 -9 8 -14.2 24.5
5 4 8 62.49 21.2
-3 8 -8 34.5 28.3
8 -5 -8 14.9 16.7
-5 -3 -8 8.8 22.4
-3 8 -8 38.7 20.1
-8 5 8 -9.1 27.6
5 3 8 32.3 28.2
5 3 8 -19.1 24
3 -8 8 30.4 26
-8 5 8 60.49 36.6
-2 7 -8 15.4 21.8
-5 -2 -8 36.3 30.2
-2 7 -8 7 18.2
-7 5 8 2.5 17.5
2 -7 8 41.1 31.3
5 2 8 6.8 24.1
-7 5 8 26.8 28.1
-1 6 -8 40.1 21.1
-1 6 -8 24.5 23.1
-6 5 8 45 20.5
5 1 8 44.9 28.4
-6 5 8 42.8 32
1 -6 8 30.4 29.6
0 5 -8 22.3 25.6
5 -5 -8 51.99 30.4
0 5 -8 7.5 16.9
5 0 8 51.79 29.8
-5 5 8 -11.6 27.5
-5 5 8 -1.7 16.4
0 -5 8 -18.2 22.3
1 4 -8 33.3 20.3
1 4 -8 56.19 29.5
4 -5 -8 3.3 25.8
5 -1 8 43 25.2
-4 5 8 55.19 22.3
-1 -4 8 44.3 34.5
-4 5 8 118.49 39.8
2 3 -8 2 17
2 3 -8 27.9 21.7
-3 5 8 39.5 26.8
-3 5 8 22 20.6
5 -2 8 -2.2 24.9
-2 -3 8 17.7 30.1
3 2 -8 24.3 23.5
-5 3 -8 36.4 31.2
3 2 -8 41.3 19.6
-3 -2 8 -0.9 26.1
5 -3 8 -9.9 20.1
-2 5 8 38.2 29.3
-2 5 8 18.2 19.1
-5 4 -8 42.4 28.2
4 1 -8 83.69 22.2
4 1 -8 24.3 21.8
-4 -1 8 24 29.6
-1 5 8 85.19 35
5 -4 8 51.29 30.5
-1 5 8 79.19 24
5 0 -8 18.3 17.8
-5 5 -8 22.9 26
5 0 -8 4.4 22.2
0 -5 -8 -26.1 23.6
0 5 8 34.1 18.8
5 -5 8 2.7 24.2
0 5 8 38 31
-5 0 8 78.09 35.4
5 -5 8 44.9 32.1
-5 6 -8 81.49 32.3
-1 -5 -8 17.3 29
6 -1 -8 4.2 16.5
1 5 8 89.19 35.3
1 5 8 28.4 18.5
-6 1 8 7.7 27
5 -6 8 26.9 27.5
-5 7 -8 70.69 33.9
7 -2 -8 37.2 21.3
2 5 8 5.8 15.9
2 5 8 -9 23.2
-7 2 8 -8.8 29.3
-7 2 8 7.9 25.2
5 -7 8 25.6 27.2
-3 -5 -8 -13.8 21.7
8 -3 -8 1.3 30.6
-5 8 -8 78.09 32.4
-5 8 -8 37.6 20.2
3 5 8 19.2 27.2
5 -8 8 -40.7 21.2
-8 3 8 -54.79 20.1
-8 3 8 22.9 21.3
3 5 8 -1.6 19.3
-4 -5 -8 42.5 29.1
-5 9 -8 2.8 18.5
-5 9 -8 3.4 22.9
9 -4 -8 33.2 19.1
-9 4 8 51.69 22.5
5 -9 8 65.29 33.7
-9 4 8 24.6 30
4 5 8 21.7 34.1
4 5 8 19.9 27.8
-5 -5 -8 51.49 31.7
-5 10 -8 34.6 21.2
-5 10 -8 13.7 27.4
10 -5 -8 57.69 19.9
5 -10 8 81.49 31
-10 5 8 37.4 22.1
5 5 8 79.59 33.9
5 5 8 3.1 18.9
-10 5 8 42 31.6
-5 11 -8 28.4 21.4
-5 11 -8 23.8 25.6
11 -6 -8 23.5 17.3
-6 -5 -8 -8.1 23.4
5 -11 8 -48.7 34.2
-11 6 8 -13.4 24
5 -11 8 5.4 28
6 5 8 0.2 17.3
-11 6 8 52.39 21.3
6 5 8 25.4 27.1
-4 10 -8 225.68 45.9
-6 -4 -8 110.59 33.2
-4 10 -8 252.67 36.4
10 -6 -8 245.88 30.9
-10 6 8 251.67 38.9
6 4 8 166.58 38.1
4 -10 8 309.67 53.99
-10 6 8 152.28 40.1
6 4 8 202.58 33.2
-3 9 -8 38 24.1
9 -6 -8 85.49 21.4
-6 -3 -8 44.4 31.1
-3 9 -8 95.69 25.5
-9 6 8 34.3 30
6 3 8 39.2 18.4
6 3 8 49.1 26.5
3 -9 8 74.29 33
-2 8 -8 286.57 47.5
-2 8 -8 282.87 38.3
-6 -2 -8 156.08 35.6
-8 6 8 218.18 47.9
-8 6 8 221.18 37
6 2 8 147.19 37.4
6 2 8 126.69 26.9
2 -8 8 209.68 45.8
-1 7 -8 106.19 26.3
-1 7 -8 53.59 26.9
6 1 8 83.69 24.6
-7 6 8 94.69 36.4
1 -7 8 13.8 27.8
6 1 8 100.59 32.9
-7 6 8 75.79 23.9
6 -6 -8 231.18 55.29
0 6 -8 303.07 44.6
0 6 -8 231.68 34.1
0 -6 8 301.47 47.1
6 0 8 247.28 54.69
-6 6 8 330.77 37.3
6 0 8 226.08 48
-6 6 8 238.58 43.4
1 5 -8 67.09 22.5
1 5 -8 92.09 30.3
-5 6 8 83.49 35.6
-5 6 8 27.3 20.2
6 -1 8 70.29 31.8
-1 -5 8 76.89 32.4
2 4 -8 392.16 47.7
2 4 -8 414.96 41.2
4 -6 -8 273.87 55.39
-4 6 8 455.75 63.89
-2 -4 8 317.87 50.59
-4 6 8 394.36 41.2
6 -2 8 321.07 55.99
-6 3 -8 49.8 48.6
3 -6 -8 6.2 28.8
3 3 -8 10.5 19
3 3 -8 34.7 24.1
-3 -3 8 -9.8 24.5
-3 6 8 27.1 27.4
6 -3 8 10.8 23.1
-3 6 8 18.9 18.8
-6 4 -8 262.57 65.99
2 -6 -8 243.18 55.49
4 2 -8 270.87 44.8
4 2 -8 389.46 38.6
-4 -2 8 335.77 58.09
-2 6 8 199.88 43.7
-2 6 8 318.67 37.4
6 -4 8 385.26 59.79
5 1 -8 33.1 35.3
-6 5 -8 82.79 41.9
1 -6 -8 27.4 28.9
5 1 -8 52.89 20.6
6 -5 8 38.2 28.8
-1 6 8 6 15
-1 6 8 15.3 27
-5 -1 8 34 30.9
0 -6 -8 381.96 74.39
-6 6 -8 318.97 58.99
6 0 -8 357.26 37.3
-6 0 8 298.97 53.89
6 -6 8 243.78 43.2
0 6 8 376.26 55.59
0 6 8 280.47 34.7
-6 7 -8 23.4 31.4
7 -1 -8 79.89 24.1
1 6 8 47.1 35.3
6 -7 8 27.6 25.7
1 6 8 56.19 19.1
-7 1 8 36 28.6
-7 1 8 65.49 23.3
-6 8 -8 171.18 38.8
-2 -6 -8 145.29 45.4
8 -2 -8 215.28 32.4
-8 2 8 208.08 32.5
6 -8 8 175.08 38.2
2 6 8 148.59 27.2
-8 2 8 213.78 46.7
2 6 8 181.88 44.9
9 -3 -8 70.29 22.5
-6 9 -8 42 27.2
-3 -6 -8 43.5 29.4
-9 3 8 15.4 26.1
3 6 8 81.69 37
6 -9 8 34.7 27.9
-9 3 8 53.19 21.5
10 -4 -8 124.99 41.2
-6 10 -8 172.08 42.3
-4 -6 -8 148.09 42.1
-6 10 -8 260.77 37.6
4 6 8 188.18 32.9
4 6 8 159.98 44.9
-10 4 8 239.88 51.49
6 -10 8 234.78 46.4
-10 4 8 214.58 35
-6 11 -8 35.6 26.6
-5 -6 -8 5.3 27.9
-6 11 -8 16.9 18.5
6 -11 8 16.1 26.6
-11 5 8 29.5 21.7
6 -11 8 29.5 38.2
5 6 8 49 30.4
5 6 8 48.5 19.3
-11 5 8 34.8 33.9
12 -6 -8 240.88 31.3
-6 -6 -8 286.17 54.79
-6 12 -8 119.39 34.9
-6 12 -8 219.08 36.3
-12 6 8 140.99 39.4
6 -12 8 293.67 51.29
6 6 8 179.38 32.5
6 6 8 214.58 46.9
6 -12 8 308.37 66.29
-12 6 8 200.08 34.4
13 -7 -8 4 15.4
-7 -6 -8 58.79 31
-6 13 -8 -14.2 18.4
-6 13 -8 29.1 26
6 -13 8 22.5 38.4
6 -13 8 33.1 27.1
-13 7 8 -5.9 22.6
7 6 8 32.8 27.4
-13 7 8 -27.9 18.3
7 6 8 10.7 18.4
12 -7 -8 46.3 18.7
-7 -5 -8 104.39 37.1
-5 12 -8 34 21.9
-5 12 -8 4.2 24
-12 7 8 69.59 25
7 5 8 105.99 26.7
5 -12 8 48.6 45.1
7 5 8 77.39 32.3
5 -12 8 76.19 31.6
-12 7 8 36.4 29.8
-4 11 -8 23.4 19.8
-4 11 -8 53.09 29.4
11 -7 -8 4.6 14.8
-7 -4 -8 9.7 26.4
4 -11 8 -31 31.5
7 4 8 -24.1 20.7
7 4 8 14.9 18.3
-11 7 8 0.6 26.4
-11 7 8 56.79 22.8
4 -11 8 7.4 27.2
-3 10 -8 46.3 23.2
-7 -3 -8 45 27.7
-3 10 -8 46.4 26.1
-10 7 8 27.9 22.6
7 3 8 -3 16.3
-10 7 8 34 30.2
7 3 8 40.9 26
3 -10 8 -17.1 24.6
-2 9 -8 20.6 22.6
-7 -2 -8 12.4 25.1
-2 9 -8 -6.4 18.9
7 2 8 13.6 15.8
2 -9 8 -9.9 23.7
7 2 8 -19.3 19.8
-9 7 8 -11.6 26.7
-1 8 -8 72.79 28.9
-7 -1 -8 51.49 30.4
-1 8 -8 19.8 19.4
-8 7 8 28.8 22.4
1 -8 8 35.7 28.2
7 1 8 36.2 18.6
-8 7 8 55.79 31.6
7 1 8 26.7 26.6
0 7 -8 -12.3 17.4
0 7 -8 21.8 19.2
0 -7 8 7.6 26.1
-7 7 8 -11.2 24.7
7 0 8 -23.8 22.3
7 0 8 10 16.8
-7 7 8 -6.6 16.5
0 -7 8 -8.8 26.1
1 6 -8 26.5 20.7
1 6 -8 28.9 23.3
6 -7 -8 26 23.1
-6 7 8 32 31.3
-1 -6 8 83.69 37.7
7 -1 8 39.9 28.9
-1 -6 8 96.49 38.4
-6 7 8 72.39 24.2
2 5 -8 31.1 21.6
5 -7 -8 53.79 49.8
2 5 -8 13.9 19
-5 7 8 -8.4 24.8
7 -2 8 33.5 26.4
-2 -5 8 49.3 28.2
-5 7 8 31 19.8
-2 -5 8 32.1 28.2
3 4 -8 120.39 27.1
-7 3 -8 39.2 27.3
3 4 -8 113.59 32
-3 -4 8 72.19 34.3
-4 7 8 25.4 31.9
-3 -4 8 103.69 30.1
7 -3 8 47 30.8
-4 7 8 40.9 21.7
4 3 -8 91.99 24.6
4 3 -8 47.7 26
-7 4 -8 58.89 40.7
-3 7 8 32.4 18.7
7 -4 8 9.5 25.3
-4 -3 8 91.59 36.2
7 -4 8 121.39 41.3
-3 7 8 41.6 31.8
5 2 -8 17.6 17.1
2 -7 -8 0.7 27
-7 5 -8 -7 24.8
-2 7 8 7.6 14
-2 7 8 22.9 25.7
7 -5 8 22.5 25.8
7 -5 8 44.1 30.6
-5 -2 8 21.3 29.2
6 1 -8 50.89 19.8
-1 7 8 29.6 17
-6 -1 8 18.5 28.9
7 -6 8 40.6 36.3
-1 7 8 41 26.5
7 -6 8 35.1 27.5
-7 7 -8 30.4 48.4
7 0 -8 12.7 18.1
-7 0 8 -22.9 23.4
-7 0 8 11.8 26.6
0 7 8 45.9 29.2
7 -7 8 -10.5 22.1
0 7 8 -3.4 13.4
8 -1 -8 38.2 19.8
-7 8 -8 -18.2 43.8
-1 -7 -8 5.2 27.2
-8 1 8 69.19 35.4
1 7 8 23.4 17.2
1 7 8 13.9 25.4
7 -8 8 20.8 28.1
-8 1 8 45 21.2
-2 -7 -8 32.7 27.8
9 -2 -8 -18.5 15.9
-7 9 -8 18.9 32.1
7 -9 8 72.79 30.1
-9 2 8 -28.8 16.7
7 -9 8 -74.19 26.3
2 7 8 3.8 24.5
2 7 8 20.4 27.2
-7 10 -8 72.39 39.8
10 -3 -8 34.7 19.5
-3 -7 -8 42.9 28.3
-10 3 8 -3.5 27.6
-10 3 8 60.59 23.1
7 -10 8 18.7 26.5
3 7 8 74.29 32.6
3 7 8 -0.8 21.4
7 -10 8 26.5 27.4
-7 11 -8 24.6 31.8
11 -4 -8 19.5 16.5
-7 11 -8 -1.3 18.3
-4 -7 -8 -39 22.6
7 -11 8 -5.2 28.1
4 7 8 30.9 18.2
7 -11 8 12.2 26.8
-11 4 8 -4.5 24.7
4 7 8 8.5 22.9
-11 4 8 17.6 19.5
-7 12 -8 41.6 22.2
-5 -7 -8 60.39 33.5
-7 12 -8 80.09 35.3
12 -5 -8 69.59 21.4
7 -12 8 75.49 43.6
5 7 8 51.59 30.4
7 -12 8 18.6 26.9
5 7 8 82.79 22.2
-12 5 8 101.29 28.3
-12 5 8 26.6 33.2
-6 -7 -8 -2.8 25.1
13 -6 -8 14.2 31.4
-7 13 -8 7.7 34
-7 13 -8 17.2 20.1
6 7 8 -7.8 18.8
7 -13 8 17.8 26.5
6 7 8 8.2 27.6
7 -13 8 21 34
-13 6 8 65.59 39.1
-13 6 8 3.9 21.9
-7 -7 -8 79.69 35.7
14 -7 -8 136.39 34.6
-7 14 -8 98.49 26.6
-7 14 -8 43.5 36.8
-14 7 8 106.99 50.59
7 7 8 81.29 30.6
-14 7 8 58.99 39.7
7 -14 8 120.49 47.5
7 -14 8 53.99 32.5
7 7 8 134.49 39.8
15 -8 -8 4.5 15.6
-7 15 -8 3 20.8
-7 15 -8 21.3 36.3
-15 8 8 -3.3 31.6
7 -15 8 29.7 28.9
8 7 8 0.7 23.6
-6 14 -8 173.38 38.1
-6 14 -8 214.08 36.8
14 -8 -8 150.38 25.6
-8 -6 -8 78.89 41.8
6 -14 8 108.49 49.9
6 -14 8 168.88 39.2
-14 8 8 228.18 41.1
-14 8 8 102.39 34.2
8 6 8 183.78 43.7
-8 -5 -8 12.2 25.5
13 -8 -8 11 16.8
-5 13 -8 -8.3 16.4
-5 13 -8 40.8 25.4
-13 8 8 58.59 35
8 5 8 13.5 20.6
5 -13 8 -7.2 28
8 5 8 -10.8 18.9
5 -13 8 -8.8 22.8
-13 8 8 -2.2 21.7
-4 12 -8 206.48 34.5
-8 -4 -8 172.98 43
-4 12 -8 203.08 38.2
4 -12 8 155.08 34.5
8 4 8 111.09 35.3
-12 8 8 234.08 35.9
-12 8 8 189.28 49.2
4 -12 8 221.18 48.2
8 4 8 245.48 38.2
-3 11 -8 46.8 22.1
-3 11 -8 -8.2 22.2
-8 -3 -8 -32.1 21
3 -11 8 -4.8 22.4
8 3 8 25 18.6
-11 8 8 10 32.3
-11 8 8 45.5 23.1
3 -11 8 7.1 28.9
8 3 8 43.3 27
-8 -2 -8 108.69 35.9
-2 10 -8 143.99 31.9
-2 10 -8 155.48 29.7
8 2 8 150.48 35.5
8 2 8 91.59 23.9
-10 8 8 130.99 42.4
2 -10 8 149.88 34
2 -10 8 152.58 40.5
-1 9 -8 50.79 26.3
-1 9 -8 40.3 21.8
-8 -1 -8 -11.3 23
8 1 8 53.29 21.2
1 -9 8 19.3 31.1
-9 8 8 42.2 30.2
-9 8 8 58.59 35
1 -9 8 -4 20.3
8 1 8 17.3 23.2
0 8 -8 146.99 32.7
0 8 -8 197.98 34.3
-8 0 -8 159.78 40.2
0 -8 8 127.89 43.5
0 -8 8 139.29 31.5
8 0 8 182.98 41
-8 8 8 162.98 29.6
8 0 8 130.99 26.7
-8 8 8 133.99 39.6
1 7 -8 19.4 22.2
7 -8 -8 11.6 23.2
1 7 -8 30 20.9
-1 -7 8 39.7 22.5
-7 8 8 30.8 30
8 -1 8 50.09 30.4
-1 -7 8 11.1 30.4
-7 8 8 22.7 18.3
2 6 -8 224.18 38
2 6 -8 200.68 31
6 -8 -8 194.78 37.2
8 -2 8 182.28 39.3
-2 -6 8 204.38 32.4
-6 8 8 164.08 42.5
-6 8 8 229.98 34.8
-2 -6 8 169.68 42
3 5 -8 -9.9 19.1
-8 3 -8 5.6 25.3
5 -8 -8 -9.5 24.2
3 5 -8 20.1 20.7
-5 8 8 1.5 17.7
8 -3 8 -0.5 23.2
-3 -5 8 12.4 29.4
-3 -5 8 47.1 20.9
-5 8 8 25.5 29.2
-8 4 -8 157.98 41.1
4 -8 -8 226.18 60.29
4 4 -8 354.86 39.4
-4 -4 8 274.57 35.2
-4 8 8 384.56 59.59
8 -4 8 166.48 39.6
-4 -4 8 216.88 47.2
-4 8 8 330.87 36.2
8 -4 8 333.47 38.7
-8 5 -8 8.4 24.7
5 3 -8 19.5 18.8
8 -5 8 -32.1 19.8
-3 8 8 29.7 19.9
-3 8 8 44.1 33.9
-5 -3 8 -21.9 23.7
8 -5 8 0.8 17.4
-8 6 -8 166.68 41.4
6 2 -8 271.17 35
-2 8 8 222.88 48.2
8 -6 8 266.07 38.5
-2 8 8 240.78 31.1
8 -6 8 164.28 42.5
-6 -2 8 139.59 37
1 -8 -8 32.2 29.9
7 1 -8 1.9 17.4
-8 7 -8 37.9 29.6
-7 -1 8 -19.6 23.8
-1 8 8 -1.2 24.8
8 -7 8 46 21.4
8 -7 8 12.5 23.6
-1 8 8 15.2 14.5
8 0 -8 127.29 28.2
-8 8 -8 74.39 37.7
0 -8 -8 246.98 54.29
8 -8 8 157.88 31.3
0 8 8 174.18 29.2
-8 0 8 176.78 31.5
8 -8 8 174.98 41
0 8 8 147.69 38.8
-8 0 8 127.09 37.3
9 -1 -8 46.8 19.7
-1 -8 -8 22.8 27.6
-8 9 -8 3.4 37.5
-9 1 8 23 21.6
1 8 8 8.4 23.7
8 -9 8 19.5 24.2
8 -9 8 8.9 20.1
1 8 8 59.59 23.1
-9 1 8 0.2 27.4
-8 10 -8 70.39 38.4
-2 -8 -8 135.69 34.4
10 -2 -8 126.29 28.6
8 -10 8 210.98 44.6
2 8 8 147.09 36.7
-10 2 8 102.99 34.5
-10 2 8 165.38 32.3
8 -10 8 191.58 36.1
-3 -8 -8 6.4 23.2
11 -3 -8 9 17.9
3 8 8 17.4 15.4
8 -11 8 0.4 21.2
-11 3 8 11.3 30.2
3 8 8 40.5 26.4
-11 3 8 3.9 20
8 -11 8 -3.5 23.7
-8 12 -8 147.89 60.49
-4 -8 -8 133.19 37.8
12 -4 -8 180.18 30.6
8 -12 8 201.68 45.3
-12 4 8 145.79 31.8
-12 4 8 181.18 43.3
4 8 8 207.18 43.3
8 -12 8 174.98 37
4 8 8 159.28 30
-8 13 -8 29.2 41.3
-5 -8 -8 -17.8 21.8
13 -5 -8 15.8 17.3
-8 13 -8 31.1 20.7
8 -13 8 19.7 26
-13 5 8 -2.1 25.4
-13 5 8 -27.5 25.2
5 8 8 7.8 18.8
5 8 8 20 25.9
8 -13 8 -2.7 24.6
-8 14 -8 201.38 35.1
-8 14 -8 177.38 60.59
14 -6 -8 154.08 26.4
-6 -8 -8 86.09 35.8
8 -14 8 201.28 42
8 -14 8 79.59 35.7
6 8 8 154.98 30.6
-14 6 8 97.39 40.3
6 8 8 141.99 38.2
-8 15 -8 25.9 23.8
15 -7 -8 -11.3 16.3
-8 15 -8 30.1 44.9
-15 7 8 -21 24.8
8 -15 8 52.69 28.4
7 8 8 -22.3 19.6
-8 16 -8 79.59 56.29
-8 16 -8 171.88 32.9
8 8 8 80.49 32.9
-16 8 8 159.28 40.4
8 -16 8 100.09 34.9
17 -9 -8 11.6 17.2
-8 17 -8 18.9 22.5
-8 17 -8 -23.5 40.5
-17 9 8 -14.8 29.1
8 -17 8 -30.9 23.3
-7 16 -8 88.09 27.1
-7 16 -8 44.1 48.2
16 -9 -8 55.59 20.1
-16 9 8 80.99 37.5
7 -16 8 52.49 28.8
-6 15 -8 8.5 19.2
15 -9 -8 31.2 18.4
-6 15 -8 12.1 25
9 6 8 -6 20.2
-15 9 8 13.8 31.2
6 -15 8 -29.6 21.9
6 -15 8 20.8 40.4
-5 14 -8 64.79 24.6
14 -9 -8 55.89 18.9
-5 14 -8 31.2 26.5
5 -14 8 2.8 24.4
9 5 8 10 25.4
-14 9 8 44.3 35.3
5 -14 8 41.7 27.1
-14 9 8 118.59 31.6
-4 13 -8 6.3 20.5
-9 -4 -8 14.4 40.9
-4 13 -8 49.8 27
4 -13 8 15.1 23.8
-13 9 8 15.5 21.4
9 4 8 17.6 25.2
-13 9 8 -32.5 26.4
4 -13 8 10.2 26.7
-9 -3 -8 63.99 36.6
-3 12 -8 42.2 23.6
-3 12 -8 37.5 29.3
3 -12 8 68.09 31.8
-12 9 8 55.29 22.3
9 3 8 34.8 28.3
9 3 8 9.8 21.2
3 -12 8 25.3 23.4
-12 9 8 -3 28.4
-2 11 -8 12.5 20.9
-2 11 -8 12 19.6
-9 -2 -8 -2.8 25.6
2 -11 8 -2.7 19.9
9 2 8 9.5 23.7
-11 9 8 32.4 25.2
2 -11 8 25.7 29.5
9 2 8 41.2 20.1
-11 9 8 60.69 35.3
-1 10 -8 -16.1 18.7
-1 10 -8 -10.3 16.8
-9 -1 -8 19.4 29
1 -10 8 44.1 21.4
9 1 8 6 18.7
9 1 8 62.39 29.5
1 -10 8 7.3 27
-10 9 8 -10.3 26.5
0 9 -8 25.6 20.1
-9 0 -8 19 28.5
0 9 -8 16.1 23.1
0 -9 8 -0.6 26.3
9 0 8 -3.1 20.9
0 -9 8 12.2 19.3
9 0 8 -2.7 17.8
-9 9 8 18.8 23.1
-9 9 8 3.5 27.2
-9 1 -8 -10.1 25.2
1 8 -8 -0.4 20.2
1 8 -8 -1.1 17.3
-8 9 8 21.4 30.5
-1 -8 8 11.7 18
-1 -8 8 32.3 27.7
9 -1 8 19.2 19.8
9 -1 8 31.4 24.9
-8 9 8 28.2 20.7
2 7 -8 9.4 19.6
-9 2 -8 -73.79 28.5
2 7 -8 -0.9 18.2
7 -9 -8 41.6 24.7
-2 -7 8 21 32.1
9 -2 8 25.3 25.3
-7 9 8 17.2 30.9
-2 -7 8 10.6 17.4
-7 9 8 -6.1 16.9
3 6 -8 87.79 26.6
6 -9 -8 24.5 23.3
-9 3 -8 37.7 29.4
-6 9 8 49.8 22.2
-6 9 8 35.9 29.3
-3 -6 8 68.89 21.5
9 -3 8 6.7 26.5
9 -3 8 20.3 24.5
-3 -6 8 101.29 37.1
-9 4 -8 29.2 24.2
4 5 -8 39.5 22.1
5 -9 -8 15.3 23.5
-4 -5 8 49.99 21.4
-5 9 8 5.3 18.1
-4 -5 8 51.39 31.8
9 -4 8 21.3 27.9
-5 9 8 7.1 27
9 -4 8 5.8 17.3
4 -9 -8 2 21.4
-9 5 -8 -4.4 21.3
5 4 -8 7.3 18.9
9 -5 8 56.49 27.8
-5 -4 8 21.1 18.4
9 -5 8 49.99 22.3
-4 9 8 52.09 31.5
-4 9 8 24.8 19.5
-5 -4 8 -21.1 26
-9 6 -8 76.39 33.2
6 3 -8 48.2 24
3 -9 -8 13.2 27.6
-3 9 8 25 29
-3 9 8 26.4 17.9
-6 -3 8 43.3 28.5
9 -6 8 31.2 27.6
-6 -3 8 51.19 21.4
9 -6 8 86.99 24.9
-9 7 -8 -15.2 24.2
2 -9 -8 -17.1 22
7 2 -8 3.1 18.5
9 -7 8 0.7 21.5
9 -7 8 16.4 18.8
-2 9 8 6.2 15.3
-7 -2 8 -22.1 20.7
-2 9 8 -53.69 20.8
-7 -2 8 30.6 29
-9 8 -8 -0.8 26.2
8 1 -8 53.19 22.9
1 -9 -8 20 27.7
9 -8 8 16.4 20.8
-8 -1 8 -13.5 20
9 -8 8 36.9 25.4
-1 9 8 55.39 18.7
-1 9 8 52.29 32
-8 -1 8 39.1 26.1
9 0 -8 1.5 17.6
0 -9 -8 3.5 23
-9 9 -8 47.4 29.8
0 9 8 7.3 25.2
-9 0 8 0.2 16.7
-9 0 8 18.6 29.9
9 -9 8 34.2 26.4
0 9 8 12.7 14.9
9 -9 8 12.1 20.5
-1 -9 -8 28.2 27.1
-9 10 -8 22 30.2
10 -1 -8 14.7 18.7
9 -10 8 49.3 24
1 9 8 9.3 26.5
-10 1 8 28 21.1
1 9 8 -41 26.8
-10 1 8 29.2 30.5
9 -10 8 14.3 23.3
11 -2 -8 18.7 19
-9 11 -8 18 25.3
-2 -9 -8 36.9 29.8
2 9 8 16.4 26.3
9 -11 8 30.2 22.3
2 9 8 35 27.4
-11 2 8 18.9 19.3
9 -11 8 2.5 21.7
-11 2 8 -3.1 22.3
-9 12 -8 21.9 31.7
-3 -9 -8 28.7 31.7
12 -3 -8 34.5 20.2
9 -12 8 4.8 22.1
3 9 8 9 25.1
-12 3 8 60.59 34.6
9 -12 8 -7.2 22.8
-12 3 8 20.2 25.3
3 9 8 30.6 18.5
-4 -9 -8 38.9 32
13 -4 -8 -14.3 16.8
-9 13 -8 -0.7 24.7
4 9 8 -21.9 16.7
-13 4 8 45.7 34.4
9 -13 8 -17.1 19.8
4 9 8 12.6 25.9
9 -13 8 -16.3 24.2
-5 -9 -8 89.69 41.2
14 -5 -8 17.4 17.6
-9 14 -8 -23.1 25.9
5 9 8 83.19 32.3
9 -14 8 26.6 27.9
5 9 8 72.09 24.8
9 -14 8 34.5 28.5
-14 5 8 24.8 35.7
-6 -9 -8 17.8 32.6
-9 15 -8 32 28.8
-9 15 -8 36.4 21.7
15 -6 -8 10.3 17.3
-15 6 8 42.7 34.3
6 9 8 -13.6 30.1
6 9 8 0.2 22.8
9 -15 8 16.5 37.3
16 -7 -8 66.69 21.6
-9 16 -8 75.69 36.7
-9 16 -8 36 22.9
9 -16 8 38.4 29.6
-16 7 8 40.7 38.7
7 9 8 73.69 35
-9 17 -8 -22.1 25.6
17 -8 -8 23.2 18.8
-9 17 -8 52.09 24.7
9 -17 8 6.2 24.6
-17 8 8 6.4 40.1
-9 18 -8 16.4 36
18 -9 -8 35.9 29
-9 18 -8 48.4 35.7
9 -18 8 20 28.5
-18 9 8 72.59 35.8
-9 19 -8 7.9 25
19 -10 -8 13.8 27.4
-9 19 -8 13.7 27
-19 10 8 12.7 36.3
9 -19 8 -24.8 24.6
18 -10 -8 124.59 23.8
-8 18 -8 123.79 55.49
-18 10 8 116.49 44.9
8 -18 8 59.29 32.6
-7 17 -8 -10.3 33.1
-7 17 -8 -3.9 18.7
17 -10 -8 15.8 17.2
7 -17 8 54.09 29.2
-17 10 8 -6.2 27.9
16 -10 -8 146.19 24.1
-6 16 -8 112.69 40.4
-6 16 -8 84.69 28.4
6 -16 8 64.79 32.4
-16 10 8 104.49 48.4
-5 15 -8 -1.2 21.5
-5 15 -8 5.6 26.3
-15 10 8 1.5 38.1
5 -15 8 15.1 25.6
5 -15 8 23.6 29.3
-15 10 8 9.8 27.4
-4 14 -8 162.18 34.9
-4 14 -8 191.48 40.3
-14 10 8 198.48 51.79
10 4 8 121.89 39.4
4 -14 8 76.39 31.2
-14 10 8 257.17 39.1
4 -14 8 176.78 41.8
-3 13 -8 46.1 24.1
-3 13 -8 13.7 24.3
10 3 8 4 24.4
-13 10 8 79.79 39.3
3 -13 8 -1.1 21.9
-13 10 8 76.49 25.4
3 -13 8 55.99 30.3
-2 12 -8 216.88 36.3
-2 12 -8 146.89 34.1
-10 -2 -8 191.18 63.79
2 -12 8 99.39 41.1
-12 10 8 262.67 39.2
2 -12 8 205.18 35.6
10 2 8 145.19 44.1
-12 10 8 62.79 39.4
-1 11 -8 21.3 22.4
-10 -1 -8 18.3 26.6
-1 11 -8 63.59 25
-11 10 8 11.9 32
10 1 8 -0.5 23.3
1 -11 8 20.2 22
10 1 8 25 19.9
1 -11 8 5.4 26.5
-11 10 8 48.5 32.2
0 10 -8 100.89 29.7
0 10 -8 174.58 37.4
-10 10 8 217.18 52.19
10 0 8 126.99 35.9
0 -10 8 165.38 30.4
-10 10 8 190.28 48.2
0 -10 8 188.78 49.1
10 0 8 216.48 34.5
1 9 -8 31.5 21.3
1 9 -8 17.6 21.1
-10 1 -8 40 27.2
-9 10 8 68.19 31.6
-1 -9 8 -4.6 27.9
-9 10 8 11.5 18.9
10 -1 8 1.9 19
10 -1 8 1.9 17.4
-1 -9 8 23.9 20.9
-10 2 -8 121.29 34.9
2 8 -8 129.89 31.4
-2 -8 8 168.68 41.3
-8 10 8 235.58 34.5
-2 -8 8 175.58 31.9
10 -2 8 120.39 30
10 -2 8 136.89 41.5
-8 10 8 166.48 46
7 -10 -8 24.9 24.2
-10 3 -8 20.4 32.6
3 7 -8 16.1 20.4
-3 -7 8 35.5 20.4
-3 -7 8 2.9 27.1
10 -3 8 29.1 28
10 -3 8 16.1 20
-7 10 8 -20.4 24.7
-7 10 8 32.2 20.1
6 -10 -8 172.68 36.2
4 6 -8 216.28 37.7
-10 4 -8 186.88 39.7
-4 -6 8 339.67 56.49
10 -4 8 200.18 33.8
-6 10 8 392.86 59.99
-4 -6 8 156.68 28.9
10 -4 8 229.88 46.4
-6 10 8 325.87 41.5
-10 5 -8 -13.3 26.1
5 5 -8 16.2 21.2
5 -10 -8 34.4 24.1
-5 10 8 25.7 20.4
10 -5 8 59.29 23
-5 10 8 40.8 32.2
10 -5 8 17.9 24.4
-5 -5 8 72.69 25.3
-5 -5 8 43.1 32.5
4 -10 -8 189.98 38.3
6 4 -8 287.17 37.3
-10 6 -8 164.38 38.7
10 -6 8 195.68 41.4
-4 10 8 187.88 42.7
-6 -4 8 193.48 33.4
10 -6 8 288.77 37.3
-4 10 8 165.58 28.6
-6 -4 8 179.28 40.4
3 -10 -8 53.09 30.9
-10 7 -8 12.4 24.1
7 3 -8 46.2 22.5
-3 10 8 -21.5 21.9
10 -7 8 21.8 20.1
-7 -3 8 39.4 20.5
-7 -3 8 17.4 29.3
10 -7 8 30 26
-3 10 8 29.9 17.1
-10 8 -8 57.49 32.3
8 2 -8 161.78 32.2
2 -10 -8 186.08 36.4
10 -8 8 155.48 40.4
-8 -2 8 111.79 35.4
-2 10 8 155.98 26.7
10 -8 8 184.88 31.5
-8 -2 8 171.58 29.6
-2 10 8 99.89 35.9
-10 9 -8 4.2 25.3
1 -10 -8 59.39 31
9 1 -8 4.3 19
-9 -1 8 21.6 27.4
10 -9 8 36.3 22.5
-1 10 8 -7.8 22.2
-9 -1 8 26.1 19.2
-1 10 8 32.8 17
10 -9 8 -22.3 21
10 0 -8 160.88 31
0 -10 -8 116.39 35.7
-10 10 -8 110.89 35.8
0 10 8 152.58 35.2
10 -10 8 137.79 36.9
-10 0 8 57.09 24.3
-10 0 8 139.29 44.7
0 10 8 90.69 29.5
-1 -10 -8 8.2 22.3
11 -1 -8 48.8 22.6
-10 11 -8 61.69 33.3
-11 1 8 70.79 31.9
-11 1 8 -11.9 22
10 -11 8 25.6 27.7
1 10 8 99.09 32.8
10 -11 8 21.4 21.6
-10 12 -8 204.38 45.1
12 -2 -8 159.08 30.6
-2 -10 -8 130.59 36.6
-12 2 8 215.98 53.89
2 10 8 188.38 42
2 10 8 113.19 26.8
10 -12 8 203.58 33.8
10 -12 8 172.98 40.6
-10 13 -8 -15.6 24.4
13 -3 -8 -24.1 16.6
-3 -10 -8 36.2 30.8
10 -13 8 18.4 25.3
10 -13 8 49 25.4
-13 3 8 16 28
3 10 8 25 28.8
3 10 8 32.8 19
-4 -10 -8 99.39 34.8
-10 14 -8 151.98 37.1
14 -4 -8 178.38 29.6
10 -14 8 148.89 33.2
-14 4 8 183.88 40.6
10 -14 8 128.79 40.3
4 10 8 117.79 27.6
4 10 8 116.69 37.8
15 -5 -8 28.2 19.8
-10 15 -8 31.2 28.7
-5 -10 -8 -1.4 27.3
-15 5 8 31.8 29
10 -15 8 -9.7 24.4
10 -15 8 -32.3 20
5 10 8 22.6 25.8
5 10 8 52.89 23.2
-10 16 -8 114.59 37.1
16 -6 -8 114.19 25.4
10 -16 8 100.09 48.1
-16 6 8 108.39 37.8
10 -16 8 156.08 42
6 10 8 163.88 39
-10 17 -8 17.6 27.1
-10 17 -8 -0.4 20.8
17 -7 -8 -13.6 16.1
-17 7 8 63.69 57.19
10 -17 8 -13.3 26.3
7 10 8 18.9 26.2
18 -8 -8 116.99 25.2
-10 18 -8 182.88 43.1
10 -18 8 184.48 41
-18 8 8 117.89 46.6
-10 19 -8 -3 24
-10 19 -8 -0.2 29.5
19 -9 -8 -4.5 18.7
-19 9 8 18.4 33.7
10 -19 8 17.7 26.2
19 -11 -8 -16.5 17.2
-8 19 -8 -9.5 23.1
11 8 8 21.1 24.9
8 -19 8 41 27.6
-19 11 8 51.79 39.6
18 -11 -8 61.49 19.6
-7 18 -8 60.59 37.8
-18 11 8 12 38.1
7 -18 8 39.3 27.4
-6 17 -8 39.4 27.4
-6 17 -8 8.8 20.7
-17 11 8 23.8 37.7
6 -17 8 10.3 26.8
-5 16 -8 11.4 22.2
-5 16 -8 25.7 25.5
-16 11 8 46.8 37.3
5 -16 8 69.89 32.8
-4 15 -8 11.6 24.5
-4 15 -8 1.4 19.7
-15 11 8 4.7 26.2
4 -15 8 2.1 25.3
4 -15 8 5.1 23.2
-15 11 8 -5.5 29
-3 14 -8 51.49 25
-3 14 -8 34.2 24.4
-14 11 8 -7 24.3
3 -14 8 40.2 24
3 -14 8 41.5 30
-14 11 8 45.6 38.7
-2 13 -8 16.8 22.1
-2 13 -8 4.1 19.2
-13 11 8 21.3 22.8
2 -13 8 -30.6 18.9
11 2 8 0.7 20.3
-13 11 8 45.6 38.8
2 -13 8 18.1 29.8
-1 12 -8 11.3 21.8
-1 12 -8 9 18.7
1 -12 8 -51.69 20
-12 11 8 15 24
11 1 8 -6.2 20.5
-12 11 8 5.1 32.8
1 -12 8 16.7 20.5
0 11 -8 35.8 26.1
0 11 -8 28.5 23.5
0 -11 8 2.6 25.2
0 -11 8 57.19 23.9
-11 11 8 26.8 31.5
11 0 8 1.8 21.7
1 10 -8 -21.9 17.2
-11 1 -8 32.7 32.3
-1 -10 8 3.5 18
11 -1 8 0.3 21.9
11 -1 8 39.8 28.7
-10 11 8 22.4 29.8
-1 -10 8 13 28.8
-10 11 8 12.4 26.7
2 9 -8 34.4 22.4
-11 2 -8 57.09 33.9
-2 -9 8 17.7 20.5
-9 11 8 28.1 30.4
-9 11 8 22.6 20.9
11 -2 8 22.2 20.8
-2 -9 8 32 31.5
11 -2 8 -1.6 19.7
-11 3 -8 46.6 30.9
3 8 -8 4 19.7
-3 -8 8 16.8 31.1
-3 -8 8 26.7 19.5
11 -3 8 40.2 24
-8 11 8 23.1 32.4
-8 11 8 28.9 22.2
11 -3 8 48.5 30.6
-11 4 -8 18.2 24.4
7 -11 -8 44.4 23.3
4 7 -8 -11.6 18.8
-4 -7 8 33.1 32.8
-7 11 8 26.3 20.2
11 -4 8 62.89 27.7
11 -4 8 20.1 19.7
-4 -7 8 -12.1 16.5
-7 11 8 42.3 34.5
6 -11 -8 1.8 18.7
5 6 -8 12.7 22.3
-11 5 -8 32.6 30.9
-5 -6 8 30.5 20.4
11 -5 8 1.5 25.7
-5 -6 8 78.79 37.8
-6 11 8 -18 24.7
11 -5 8 41.1 22.4
-6 11 8 43.3 21.8
-11 6 -8 43.2 29.6
5 -11 -8 11.1 22
6 5 -8 21.3 20.7
11 -6 8 -7.2 18.9
-6 -5 8 32.4 21.4
-5 11 8 36.7 20.6
-5 11 8 12.3 27.8
-6 -5 8 22.8 29.5
11 -6 8 -20.6 18.8
7 4 -8 -29.2 16.2
-11 7 -8 0 23.2
4 -11 -8 -3.6 19.2
-7 -4 8 -11.7 25.1
11 -7 8 18.3 20.4
-4 11 8 55.79 31.5
11 -7 8 3.5 24.2
-7 -4 8 11.8 19.3
-4 11 8 17.1 16.9
8 3 -8 50.99 22.4
3 -11 -8 33.2 25.4
-11 8 -8 11.1 25.9
-8 -3 8 35.7 20.8
-3 11 8 6.6 24.9
11 -8 8 34.3 21.8
-8 -3 8 19.3 26.4
-3 11 8 53.39 19.4
11 -8 8 21.9 23
2 -11 -8 56.09 28.7
-11 9 -8 -35 22.1
9 2 -8 9.3 20.8
11 -9 8 38.5 25.9
-9 -2 8 -3.3 27
-2 11 8 6.6 14.5
-2 11 8 47.9 34.2
-9 -2 8 25.8 19.5
11 -9 8 21.8 21.8
1 -11 -8 52.09 27.2
10 1 -8 80.39 27
-11 10 -8 15.5 24.9
-10 -1 8 39.2 26.5
11 -10 8 66.09 25.1
-1 11 8 0.8 29.2
11 -10 8 57.19 30.1
-1 11 8 31.8 19.4
-10 -1 8 28.2 34.1
0 -11 -8 65.39 31.9
11 0 -8 31.6 20.5
-11 11 -8 26.3 27.6
11 -11 8 17.2 22.4
11 -11 8 14.6 21.1
0 11 8 29.8 28.2
-11 0 8 19 29.6
12 -1 -8 2.2 19.2
-11 12 -8 41.9 31.1
-1 -11 -8 29.5 29.9
-12 1 8 -7.3 30.2
1 11 8 12.8 23
1 11 8 6.8 19
11 -12 8 30.1 23
11 -12 8 18.7 25.2
-11 13 -8 -11.6 23.5
-2 -11 -8 -25.8 25.4
13 -2 -8 52.19 23.5
2 11 8 3.3 16.5
2 11 8 22.4 25.9
11 -13 8 5.1 22
11 -13 8 18 26.9
-13 2 8 45.3 30.4
14 -3 -8 57.99 22.5
-11 14 -8 4.5 31.4
-3 -11 -8 23.1 32.1
-14 3 8 2.4 26.5
11 -14 8 71.89 32.7
11 -14 8 41.2 25
3 11 8 40.7 22.1
3 11 8 19.3 26.4
15 -4 -8 19.2 19.1
-4 -11 -8 -25.2 28.7
-11 15 -8 40.8 29
4 11 8 24.7 20.4
11 -15 8 51.79 28.2
4 11 8 -5.1 23.9
11 -15 8 10.3 26.8
-15 4 8 9 29.5
-11 16 -8 18.1 30
16 -5 -8 43.3 20.9
-5 -11 -8 83.89 45.1
5 11 8 39.5 25.3
11 -16 8 72.29 31
11 -16 8 21.4 30.4
-16 5 8 -17.9 28.2
17 -6 -8 31 21.2
-11 17 -8 -1.1 27.4
6 11 8 -6.5 20.7
11 -17 8 15.9 24.3
-17 6 8 14.1 38.9
18 -7 -8 53.29 22.2
-11 18 -8 69.29 33.4
-18 7 8 47.8 34.3
19 -8 -8 6 18
-11 19 -8 2.5 23.1
-11 19 -8 -49.99 25.2
-19 8 8 14 38.9
-7 19 -8 -9.9 30.5
-7 19 -8 -1.5 23.5
12 7 8 -5.5 22.9
7 -19 8 40.2 29.2
-19 12 8 -19 27.8
-6 18 -8 95.19 33.1
12 6 8 88.59 43.3
-18 12 8 45.2 38.3
6 -18 8 105.29 34.5
-5 17 -8 -4.4 23.6
-5 17 -8 21.8 21.3
-17 12 8 8 38.6
5 -17 8 -24.2 24.8
-4 16 -8 151.88 35.8
-4 16 -8 116.09 32.6
4 -16 8 98.49 33.8
4 -16 8 104.89 36
-16 12 8 93.69 37.6
-3 15 -8 38.3 24.8
-3 15 -8 37.8 25.4
-15 12 8 73.89 26.7
3 -15 8 11.6 21.9
3 -15 8 12.8 28.3
-15 12 8 76.59 37.4
-2 14 -8 116.29 30.2
-2 14 -8 131.09 32
2 -14 8 153.38 29.7
2 -14 8 89.99 38
-14 12 8 219.08 39.6
-14 12 8 74.19 38
-1 13 -8 50.29 25.4
-13 12 8 70.39 27.2
-13 12 8 31.1 36.5
1 -13 8 34.9 25.1
1 -13 8 52.59 31.6
0 12 -8 175.38 34.9
0 -12 8 76.89 27.1
-12 12 8 109.99 33.5
0 -12 8 131.39 38.4
-12 12 8 69.19 40
1 11 -8 11.4 20.2
-11 12 8 62.49 34.2
12 -1 8 11.5 21.8
-1 -11 8 16.2 29.4
-1 -11 8 29.3 23
2 10 -8 110.89 29.3
-2 -10 8 134.69 40.6
-10 12 8 205.68 39.8
12 -2 8 119.69 33.6
-10 12 8 109.69 38.3
-2 -10 8 180.78 33.9
3 9 -8 39.2 23.5
-3 -9 8 29.2 23.3
-3 -9 8 28.6 30.9
12 -3 8 43.3 38.8
-9 12 8 38.6 21.6
-9 12 8 34 32.1
12 -3 8 26.6 24.7
4 8 -8 238.28 39.7
-12 4 -8 148.59 49.2
-8 12 8 266.87 38.2
12 -4 8 186.78 36.6
-8 12 8 143.59 41
-4 -8 8 212.58 34.3
-4 -8 8 164.38 46.3
12 -4 8 218.58 47.3
-12 5 -8 42.8 31.1
5 7 -8 26.9 21.3
-5 -7 8 36.8 31.4
12 -5 8 37.1 25.1
-7 12 8 103.49 26.5
12 -5 8 58.09 27.9
-7 12 8 83.39 35.2
-5 -7 8 88.39 28
6 6 -8 261.47 41.5
-12 6 -8 168.08 47
6 -12 -8 284.77 44.5
-6 -6 8 143.29 33.1
-6 12 8 263.47 37.4
12 -6 8 214.18 40.9
-6 12 8 209.78 46.2
12 -6 8 303.77 39.4
-6 -6 8 180.08 47.4
-12 7 -8 52.39 27
7 5 -8 42.4 24.9
5 -12 -8 71.19 29.1
12 -7 8 64.49 23.1
-5 12 8 69.99 19.8
12 -7 8 62.09 30.7
-7 -5 8 55.79 34.5
-5 12 8 94.29 37.3
-7 -5 8 62.69 26.2
8 4 -8 144.09 32
4 -12 -8 264.07 46.2
-12 8 -8 154.08 42.2
-8 -4 8 125.69 37.7
12 -8 8 149.69 37.9
-8 -4 8 168.88 34.9
-4 12 8 177.98 29.8
-4 12 8 207.18 45.7
12 -8 8 211.88 34.3
-12 9 -8 15.7 28.2
3 -12 -8 48.8 29.6
9 3 -8 -1.9 20.6
12 -9 8 59.29 25.7
-3 12 8 49.6 18.9
12 -9 8 56.09 30
-3 12 8 38.6 33
-9 -3 8 35.9 32.2
2 -12 -8 165.48 40.7
10 2 -8 201.88 37.4
-12 10 -8 157.68 46.9
-10 -2 8 201.68 50.49
12 -10 8 213.78 36.5
12 -10 8 169.38 41.9
-2 12 8 161.08 42.7
-2 12 8 154.48 28.9
1 -12 -8 -5.4 23.8
-12 11 -8 1.4 25.2
11 1 -8 -0.3 21.7
12 -11 8 61.69 31.2
12 -11 8 64.29 26.2
-11 -1 8 17.1 29.2
-1 12 8 13.3 24.8
0 -12 -8 197.18 44.1
-12 12 -8 84.49 31.1
12 0 -8 107.69 28.4
0 12 8 225.38 47.5
12 -12 8 72.29 32.7
0 12 8 134.49 43.3
-12 0 8 126.09 43
12 -12 8 145.29 33.9
-12 13 -8 -16.8 27.5
13 -1 -8 35 24.9
-1 -12 -8 58.79 31.6
-13 1 8 20.9 32.1
1 12 8 12 16.9
1 12 8 34.1 29.3
12 -13 8 51.59 23.5
12 -13 8 33.2 30
14 -2 -8 173.18 32.3
-2 -12 -8 149.49 40.6
-12 14 -8 123.39 37.2
12 -14 8 178.08 32.2
2 12 8 198.48 46.9
12 -14 8 139.69 38.9
2 12 8 129.99 29.5
-14 2 8 104.99 45.9
15 -3 -8 -16.9 19.7
-12 15 -8 12 32.9
-3 -12 -8 10.9 30.1
12 -15 8 12.3 25.1
12 -15 8 29.4 23.2
-15 3 8 11.3 31.4
3 12 8 43.2 29.1
3 12 8 12.3 19.8
-4 -12 -8 92.09 58.49
-12 16 -8 61.99 34.6
16 -4 -8 126.99 29
4 12 8 42.5 28.9
-16 4 8 104.19 47
12 -16 8 78.69 32.7
4 12 8 71.09 43.1
-12 17 -8 6 34
17 -5 -8 -19.6 18
5 12 8 -15.2 20
12 -17 8 29.1 32.8
-17 5 8 156.28 78.69
18 -6 -8 107.49 26.2
-12 18 -8 138.39 44.1
6 12 8 56.39 30
-18 6 8 72.69 39.3
-12 19 -8 -31.6 27.5
19 -7 -8 4.7 20.2
-19 7 8 -14.8 30.5
-6 19 -8 -47.4 22.2
-6 19 -8 -10.3 20.5
13 6 8 -2.5 21.2
-19 13 8 74.19 38.3
6 -19 8 16.2 28.4
-5 18 -8 36.8 39.2
5 -18 8 7.2 27.3
-18 13 8 4.3 31.3
13 5 8 -5.1 23.1
-4 17 -8 31.6 38.7
-17 13 8 5.8 38.4
4 -17 8 -2.6 25.4
4 -17 8 8.2 28.9
-3 16 -8 40.2 26.6
-16 13 8 12.1 35.7
3 -16 8 21 27.3
3 -16 8 30.9 23.2
13 3 8 27.9 26
-2 15 -8 30.1 24.9
-15 13 8 -25.7 23.9
2 -15 8 22.7 21.2
-15 13 8 28.3 31.6
2 -15 8 -12.7 27
1 -14 8 58.59 24.3
1 -14 8 52.29 32.5
-14 13 8 -15.6 22.9
-14 13 8 57.59 38.3
0 13 -8 38.3 24.4
0 -13 8 -18.8 20.4
-13 13 8 5.6 29.9
-13 13 8 40.1 24.6
0 -13 8 -2.5 26.6
1 12 -8 -0.3 22
-1 -12 8 43.9 23.8
-12 13 8 39.3 30.2
-1 -12 8 23.1 32.8
-12 13 8 36.7 31.4
2 11 -8 1.8 22.6
-2 -11 8 67.09 33.6
-2 -11 8 -20.4 21
-11 13 8 43.3 30
3 10 -8 22.1 22.5
-3 -10 8 25.1 31.1
-3 -10 8 45.6 23.3
-10 13 8 32.1 23.6
-10 13 8 17.3 30.5
4 9 -8 -2.4 21.2
-4 -9 8 10.7 20
-9 13 8 2.4 27.9
-9 13 8 10.1 19.5
-4 -9 8 41.4 31.5
5 8 -8 38.1 24.6
-8 13 8 21.5 21.8
-5 -8 8 7.8 30.6
-5 -8 8 -21.1 18.8
-8 13 8 6.2 30.5
6 7 -8 19.8 22.6
13 -6 8 60.19 43.4
-7 13 8 -18.4 24
-7 13 8 17.7 21.4
-6 -7 8 24.9 27.4
-6 -7 8 24.6 22.2
13 -6 8 11 22.4
6 -13 -8 -21.4 18.8
7 6 -8 -21.9 19.4
-6 13 8 37.4 30.4
13 -7 8 -18 23.2
-7 -6 8 -20.8 20.8
13 -7 8 13 25.7
-7 -6 8 21.4 33.9
-6 13 8 -15.3 18.2
5 -13 -8 23.3 23.6
8 5 -8 26.8 24.8
-13 8 -8 -3.3 27.2
-5 13 8 34.7 19.3
13 -8 8 14.1 24.7
13 -8 8 13.1 21.9
-5 13 8 -22.7 21
-8 -5 8 -28.1 25.5
4 -13 -8 16.8 23
9 4 -8 -37.6 18.6
-13 9 -8 -4.1 29.8
13 -9 8 9.2 24.4
13 -9 8 11.3 21.9
-4 13 8 21 18
-4 13 8 37.9 27.3
-9 -4 8 51.69 36.6
3 -13 -8 27.9 27.8
-13 10 -8 59.69 35
10 3 -8 -3.8 20.3
-10 -3 8 70.29 39.7
13 -10 8 26.1 23.1
-3 13 8 16.7 16.3
13 -10 8 -1 23.5
-3 13 8 27.6 27.2
-13 11 -8 11.4 29.6
11 2 -8 -8.6 18.9
2 -13 -8 34.5 28.1
-2 13 8 18.2 22.3
-2 13 8 43 30.9
13 -11 8 -2.6 21
13 -11 8 36.2 25
-11 -2 8 11.3 27.5
1 -13 -8 26 24.9
12 1 -8 49 23.8
-13 12 -8 28.6 28.4
13 -12 8 13 24
13 -12 8 98.39 31.8
-1 13 8 10.6 25.9
-12 -1 8 5.1 28.1
-13 13 -8 -1.5 24
13 0 -8 -9.6 18.2
0 -13 -8 -1.4 23.4
13 -13 8 22.4 23.7
0 13 8 53.19 33.6
-13 0 8 13 27.7
0 13 8 5.9 17.5
-1 -13 -8 44.9 29.6
14 -1 -8 21.2 21.7
-13 14 -8 11.3 31.8
13 -14 8 33.5 25.5
-14 1 8 9.2 36.7
1 13 8 -15.4 23.9
1 13 8 51.69 20.9
-2 -13 -8 -13.9 24.3
-13 15 -8 7.1 27.5
15 -2 -8 21.9 22.6
13 -15 8 -1 23.1
2 13 8 30.1 21.2
-15 2 8 57.59 36.9
2 13 8 22.8 26.7
16 -3 -8 13.2 22
-13 16 -8 -8.5 26.8
-3 -13 -8 8.3 28.6
13 -16 8 2.1 25.3
3 13 8 73.49 30.1
3 13 8 17.1 27.6
-16 3 8 42.7 37.9
-13 17 -8 32.2 38.7
17 -4 -8 -19.3 19.9
4 13 8 10.7 24.9
13 -17 8 42 30.1
-17 4 8 5.1 36.5
18 -5 -8 29.2 23.3
-13 18 -8 13.7 38.8
13 -18 8 33.1 29.2
-18 5 8 17.5 29.3
5 13 8 -17.5 23.4
19 -6 -8 -1.9 20.2
-13 19 -8 60.89 34.5
13 -19 8 21.6 27.7
-19 6 8 50.09 37.7
-4 18 -8 133.09 36.8
4 -18 8 100.49 38.5
14 4 8 111.59 30.5
-18 14 8 102.19 45.3
3 -17 8 46.7 31.3
14 3 8 20.2 24.4
3 -17 8 25.1 29.6
-17 14 8 13.8 42
-2 16 -8 166.78 44.6
-16 14 8 77.39 45.6
2 -16 8 84.49 31.4
-16 14 8 72.19 54.69
2 -16 8 103.29 35.5
-1 15 -8 14.8 23.4
1 -15 8 12.6 24
1 -15 8 24.7 31.2
14 1 8 53.49 29.7
-15 14 8 12.2 30.5
-15 14 8 33.9 28.9
0 14 -8 160.08 33.8
0 -14 8 80.29 36.6
14 0 8 158.98 33.9
-14 14 8 63.49 33.2
-14 14 8 245.48 41.7
0 -14 8 174.78 34.4
1 13 -8 0.6 23.1
-1 -13 8 -17.6 28.4
-13 14 8 -8.2 29.3
-13 14 8 77.29 26.4
-1 -13 8 -5.4 21.8
2 12 -8 125.89 32.8
-2 -12 8 142.09 32.7
-12 14 8 145.39 44.2
-12 14 8 256.07 56.29
-2 -12 8 179.68 46.9
3 11 -8 34.2 24.6
-11 14 8 27.5 33
-3 -11 8 23.9 31.9
-3 -11 8 22.5 23
4 10 -8 156.98 33.4
-4 -10 8 146.99 33.6
-10 14 8 78.39 34.9
-10 14 8 180.48 38.8
-4 -10 8 161.68 46.1
5 9 -8 10.7 22.7
-5 -9 8 -18.8 23.9
-9 14 8 52.59 25.6
-5 -9 8 40.1 31
-9 14 8 45.3 35.2
6 8 -8 147.89 33.6
-8 14 8 195.28 34.5
-6 -8 8 201.28 47
-8 14 8 142.39 41.4
7 7 -8 170.18 36.3
-7 -7 8 59.59 34.1
-7 14 8 121.19 29.1
-7 14 8 57.79 32.6
8 6 -8 173.08 36.3
6 -14 -8 179.98 36.2
-8 -6 8 116.99 42.4
-6 14 8 286.37 37.8
-6 14 8 139.49 37.7
5 -14 -8 33.5 26.4
9 5 -8 99.49 29.4
-5 14 8 25.7 28.3
-9 -5 8 114.39 39
-5 14 8 64.99 21.3
14 -9 8 69.29 33.8
4 -14 -8 146.99 38.1
10 4 -8 222.68 40.6
-4 14 8 164.48 40.4
-10 -4 8 146.39 44.5
-4 14 8 148.39 29.1
14 -10 8 190.18 38.5
11 3 -8 74.69 28.5
3 -14 -8 71.39 28
-3 14 8 29.2 26.5
14 -11 8 23.6 23.7
-3 14 8 40.3 25.8
-11 -3 8 0.6 26.6
12 2 -8 194.38 37.2
2 -14 -8 145.89 37.9
-2 14 8 94.29 34.1
-12 -2 8 151.48 48.6
14 -12 8 128.19 34.6
13 1 -8 43.9 25.3
1 -14 -8 3.7 24.9
-1 14 8 -20.8 19.5
-1 14 8 72.49 23.8
-13 -1 8 32.8 31.8
14 -13 8 67.69 28.6
0 -14 -8 79.49 34.2
14 0 -8 111.89 31.3
0 14 8 119.69 39
14 -14 8 181.68 35.3
-14 0 8 126.89 46.2
0 14 8 138.49 28.3
-1 -14 -8 70.79 35.7
-14 15 -8 18.8 38.9
15 -1 -8 57.39 28.6
1 14 8 16.4 20.4
14 -15 8 27.6 25
-15 1 8 10 30.7
1 14 8 61.49 32.8
16 -2 -8 123.19 30.9
-2 -14 -8 48.1 34.4
-16 2 8 53.79 42.4
2 14 8 111.89 41
14 -16 8 203.58 37.8
2 14 8 191.88 34.9
14 -16 8 122.49 32.9
17 -3 -8 41.5 23.9
-17 3 8 31.2 39.2
3 14 8 18.4 25
14 -17 8 -8 28.3
14 -17 8 50.69 28.8
18 -4 -8 56.09 25.9
14 -18 8 101.49 29.4
-18 4 8 183.98 51.19
14 -18 8 78.49 36.8
4 14 8 171.88 46
-3 18 -8 51.09 27.7
-18 15 8 -1.7 31.9
15 3 8 -26.9 20.5
3 -18 8 15.8 29.1
3 -18 8 15.8 30.2
-2 17 -8 -23 23.9
-17 15 8 -15.5 35.9
15 2 8 6.8 22.7
2 -17 8 27.2 25.7
2 -17 8 48.1 31.7
-16 15 8 26.3 34.5
1 -16 8 30.6 31.5
-16 15 8 -62.79 29.7
15 1 8 70.79 26.8
0 15 -8 28.7 38.8
0 -15 8 36.2 29.3
-15 15 8 -21.2 25.4
-15 15 8 73.09 40.8
0 -15 8 19.9 26
1 14 -8 93.49 29.8
-14 15 8 -10.6 34.2
-14 15 8 26.4 29.7
-1 -14 8 9.1 26.3
15 -1 8 15.8 26.4
-1 -14 8 -5.6 28.5
2 13 -8 3.3 19.4
15 -2 8 43.2 25.2
-2 -13 8 -18.1 28.2
-13 15 8 11.4 32.3
-13 15 8 23.9 26.8
-2 -13 8 23.6 24.9
3 12 -8 34.1 23.7
15 -3 8 70.09 27.5
-3 -12 8 33.6 33.5
-12 15 8 70.39 42.1
-3 -12 8 34.9 27.3
-12 15 8 21.2 33.7
4 11 -8 3.2 22.3
-4 -11 8 41.2 30.5
-4 -11 8 22.7 32.9
-11 15 8 3.2 27.9
15 -4 8 8.7 24.2
5 10 -8 121.99 30.8
-10 15 8 10 33.4
15 -5 8 20 24.2
-5 -10 8 1.8 31.4
-10 15 8 44.1 26.5
6 9 -8 20.7 22.6
-9 15 8 -7.5 27.3
15 -6 8 33.5 23.9
-6 -9 8 33.8 30.9
-9 15 8 25.5 22.6
7 8 -8 -22 20
-8 15 8 11.4 27.7
-7 -8 8 1.9 30
-8 15 8 11.7 22.7
8 7 -8 -4.9 17.9
-8 -7 8 3.1 31.6
-7 15 8 -2.8 25.4
-7 15 8 2.3 20.7
6 -15 -8 9.9 21.6
-6 15 8 27.7 19.3
-6 15 8 42 30
-9 -6 8 38 30.8
5 -15 -8 1.9 24.2
10 5 -8 -28 21
-5 15 8 38.2 21.3
-10 -5 8 -20.5 25.1
-5 15 8 19.3 26.6
11 4 -8 29.2 25.6
4 -15 -8 -14 23.3
-4 15 8 22.3 27.7
-11 -4 8 18.3 28
15 -11 8 21.7 23.2
-4 15 8 -19 25.7
3 -15 -8 17.6 24.6
12 3 -8 26.5 23.4
-3 15 8 8.9 26.4
15 -12 8 -5.4 30
-12 -3 8 7.9 33
15 -12 8 80.39 30.2
2 -15 -8 -21.6 22.7
13 2 -8 -25.3 19.8
15 -13 8 -43.7 25.2
-2 15 8 15 24.2
-13 -2 8 24.4 29.5
15 -13 8 6.3 22.7
-2 15 8 -3.9 18.9
1 -15 -8 44.2 31.1
14 1 -8 46.6 26.1
-1 15 8 8.7 25.1
-1 15 8 52.49 21.5
15 -14 8 37.5 25.5
15 -14 8 64.79 29.8
-14 -1 8 -4.6 31.5
15 0 -8 28.3 24.3
0 -15 -8 6.2 22.9
0 15 8 17.4 19.6
0 15 8 -46.1 18.6
15 -15 8 29.7 26.8
-15 0 8 8.6 33.2
15 -15 8 -4.1 22
-1 -15 -8 -11 32.8
16 -1 -8 2.5 22
1 15 8 32.9 23.2
15 -16 8 50.69 26
1 15 8 31.6 28.7
15 -16 8 40.7 26.1
17 -2 -8 13.5 23.7
15 -17 8 25.7 27
2 15 8 -5.4 25.5
15 -17 8 24.5 24.6
-17 2 8 2.5 32.9
18 -3 -8 -4.3 21.1
15 -18 8 12.1 26
-18 3 8 8.6 33
3 15 8 8.9 26
15 -18 8 23.9 29.2
-1 17 -8 44.9 26.1
-17 16 8 91.99 60.79
1 -17 8 67.19 31.6
16 1 8 21.8 21.6
1 -17 8 55.99 35.4
0 16 -8 133.19 36.1
16 0 8 85.19 25.5
0 -16 8 111.89 34.5
-16 16 8 132.59 39.6
0 -16 8 87.29 41.7
-16 16 8 46.3 40.4
1 15 -8 74.19 44.4
-15 16 8 15.3 33.2
-1 -15 8 33.7 34.4
16 -1 8 -10.3 20.1
-15 16 8 59.39 28.2
-1 -15 8 11.3 25.1
-2 -14 8 126.59 32.6
-14 16 8 89.09 43.1
-14 16 8 177.78 38.6
-2 -14 8 137.39 43
3 13 -8 71.99 36.2
16 -3 8 49.4 31.9
-13 16 8 99.49 31.1
-3 -13 8 24 30.8
-13 16 8 89.39 36.9
-3 -13 8 8.1 30.2
4 12 -8 82.69 31.9
-4 -12 8 175.68 46.5
-12 16 8 72.39 43
16 -4 8 67.09 29.4
-12 16 8 149.19 48.2
5 11 -8 31.7 27.1
-11 16 8 22.6 31.8
16 -5 8 38.9 25.8
-5 -11 8 31.9 35.1
6 10 -8 129.89 30
-10 16 8 134.39 42.3
16 -6 8 38.3 26.7
-6 -10 8 125.09 42.3
-10 16 8 171.18 37.4
7 9 -8 67.19 28
-7 -9 8 51.99 34.9
16 -7 8 34.7 25.7
-9 16 8 87.89 28.6
-9 16 8 34.9 30.1
8 8 -8 151.58 33.4
-8 -8 8 136.89 41
-8 16 8 130.29 34.4
16 -8 8 157.68 34.2
-8 16 8 125.49 39.9
9 7 -8 89.29 29.8
-7 16 8 60.79 23.8
16 -9 8 11.8 23.4
-7 16 8 62.59 36.5
-9 -7 8 15.3 33.8
10 6 -8 133.09 32.6
6 -16 -8 120.59 36.1
-6 16 8 86.09 38.7
-10 -6 8 106.69 41
16 -10 8 73.29 29.8
-6 16 8 115.39 27.7
11 5 -8 33.7 26.6
5 -16 -8 38.6 30.6
16 -11 8 8.1 25.2
-11 -5 8 20.3 31.5
-5 16 8 38.8 32.3
-5 16 8 24 31.3
12 4 -8 71.99 30
4 -16 -8 60.29 30.4
-12 -4 8 83.59 35.4
16 -12 8 90.49 29.9
-4 16 8 133.79 39.8
3 -16 -8 30.8 26.9
13 3 -8 -0.4 22.9
16 -13 8 -3.5 23.2
-3 16 8 -41.7 20.6
-3 16 8 45.7 25.5
-13 -3 8 49.6 35.5
14 2 -8 96.69 30.8
2 -16 -8 81.19 32.8
-14 -2 8 25 32.7
-2 16 8 75.69 25.5
16 -14 8 54.59 38.2
16 -14 8 81.29 28.4
-2 16 8 76.99 32.5
1 -16 -8 15.7 30.2
15 1 -8 -29 22.2
-1 16 8 14.7 27.2
16 -15 8 54.69 27
16 -15 8 -18.3 27.9
-15 -1 8 10 34.2
-1 16 8 -16.6 18.5
0 -16 -8 71.89 34.9
16 0 -8 104.79 32.5
16 -16 8 65.29 28
-16 0 8 90.89 55.69
0 16 8 153.38 33.5
16 -16 8 114.89 31.5
0 16 8 140.99 39.8
17 -1 -8 105.39 29
-17 1 8 6.4 32.7
1 16 8 -6.4 25.3
16 -17 8 35 29.6
16 -17 8 64.19 32.8
1 16 -8 44.3 29.2
17 -1 8 41.1 24.1
-1 -16 8 -5.7 28.1
-16 17 8 98.19 42.9
-16 17 8 119.89 43.1
-1 -16 8 66.39 37.1
2 15 -8 32.2 26.6
-15 17 8 -7.4 25.9
-2 -15 8 -20.3 26.8
-2 -15 8 -14.4 28.6
-15 17 8 -4.3 34.5
17 -2 8 11.3 21
3 14 -8 13 25.8
-14 17 8 1.4 26.5
17 -3 8 47.9 25.7
-3 -14 8 50.19 38
-14 17 8 41.7 37.7
4 13 -8 -2.1 33.9
-4 -13 8 61.69 36.7
-13 17 8 -32 21.7
-13 17 8 -4.5 33.2
17 -5 8 -12.3 35.1
-12 17 8 6.2 30.8
-5 -12 8 2.7 32.9
-6 -11 8 -18.5 31.5
-11 17 8 27.6 32.4
17 -6 8 37.7 24.1
-10 17 8 31.1 33.6
-7 -10 8 -5 31.3
17 -7 8 -8.1 20.1
8 9 -8 8.8 36.1
-9 17 8 24.1 28.4
17 -8 8 18.8 22.1
-9 17 8 28.2 29.3
-8 -9 8 62.59 36.7
9 8 -8 1.3 34.7
-8 17 8 13.9 27.1
-9 -8 8 40.4 32.9
-8 17 8 -36.4 27.6
17 -9 8 41.6 23
10 7 -8 38.9 32.5
-10 -7 8 13.9 31.1
-7 17 8 20.6 28.1
17 -10 8 22.2 20.7
-7 17 8 -7.5 20.5
11 6 -8 17 29.3
-6 17 8 -4.4 28.1
17 -11 8 33.6 22.7
-11 -6 8 -12.7 29.3
12 5 -8 32.9 28.8
5 -17 -8 56.99 29.8
-5 17 8 2.9 24
17 -12 8 43.4 24.3
-12 -5 8 20.3 35.8
13 4 -8 25.5 37.1
4 -17 -8 15.1 26.3
-13 -4 8 1.6 32.9
-4 17 8 22.2 22.5
-4 17 8 25.1 27.5
17 -13 8 2.1 20.4
3 -17 -8 29.6 26.8
14 3 -8 52.59 40.9
-14 -3 8 -11.5 28.4
17 -14 8 -4.1 21.8
-3 17 8 -1.2 23.3
-3 17 8 28.1 21.1
2 -17 -8 -9.5 24.2
-15 -2 8 2.4 35.5
-2 17 8 -17.3 19.5
-2 17 8 28.4 30.7
17 -15 8 -29.9 21
1 -17 -8 6.9 30.8
17 -16 8 21.9 29.3
17 -16 8 50.09 27
-1 17 8 55.39 23.7
-1 17 8 41.7 30.8
-16 -1 8 23.2 38.5
3 15 -8 68.59 29.4
-3 -15 8 55.49 37.2
-15 18 8 -0.4 29.1
18 -3 8 46.5 26
-15 18 8 -12.4 29.1
4 14 -8 92.69 30.6
-14 18 8 74.69 39
-4 -14 8 170.78 46
-14 18 8 80.49 38.5
18 -4 8 90.89 28.9
5 13 -8 66.69 27
-5 -13 8 3.1 32
18 -5 8 27.9 24
-13 18 8 -0.2 28.7
-13 18 8 18.7 32.9
6 12 -8 192.38 40.1
-12 18 8 92.79 47.9
18 -6 8 83.69 43.4
-6 -12 8 117.59 41.2
-12 18 8 45.5 35
7 11 -8 59.69 30.7
-7 -11 8 18.2 32.3
-11 18 8 -9.9 33.5
8 10 -8 144.39 34.9
-10 18 8 131.99 40.6
-8 -10 8 111.59 39.8
18 -8 8 67.29 27.8
9 9 -8 54.49 28.1
-9 -9 8 134.69 40.8
-9 18 8 54.19 32.1
18 -9 8 4.3 23.1
10 8 -8 194.38 38.5
-8 18 8 186.08 53.59
-10 -8 8 61.99 34.8
-8 18 8 73.39 33.3
18 -10 8 45.6 27.3
11 7 -8 67.99 29.5
-7 18 8 40.1 32.1
18 -11 8 48.9 26.7
-11 -7 8 61.09 38.2
12 6 -8 122.09 38.5
18 -12 8 82.39 28.9
-12 -6 8 56.59 34.6
-6 18 8 91.79 35.8
5 -18 -8 18.5 30.2
13 5 -8 44.8 28.5
-5 18 8 44.1 27.3
18 -13 8 42.8 26.1
-13 -5 8 8.7 31.9
-5 18 8 51.79 30.2
4 -18 -8 58.39 30.5
14 4 -8 70.59 31.5
-4 18 8 89.69 36.3
18 -14 8 80.69 28.8
-14 -4 8 116.09 50.59
-4 18 8 38.3 24.5
15 3 -8 29.7 25.6
3 -18 -8 25 29.4
-15 -3 8 39.5 38.3
-3 18 8 -17.9 26.8
-3 18 8 26.7 21.4
18 -15 8 15.2 24.4
6 13 -8 4.9 23.5
19 -6 8 29 25.4
-13 19 8 46.6 25.5
-6 -13 8 -20.4 31
-13 19 8 -4.6 31.6
7 12 -8 -1.9 23.9
19 -7 8 -21.8 20
-7 -12 8 48.7 34.5
-12 19 8 -10.3 28
-12 19 8 68.29 29.6
8 11 -8 18.2 25.2
-8 -11 8 12 32.5
19 -8 8 24.5 22.8
-11 19 8 24.2 37.8
9 10 -8 21.2 25
-10 19 8 -39.7 28.2
-9 -10 8 3.7 29.7
10 9 -8 15 26
-9 19 8 28.9 33.6
19 -10 8 21.9 24.1
-10 -9 8 -4.8 29.4
11 8 -8 -8.2 23.2
-8 19 8 13.1 31.8
-11 -8 8 -66.89 26.5
19 -11 8 5.2 21.4
12 7 -8 5.8 26.4
-12 -7 8 30.4 31.6
-7 19 8 -6.3 26.6
19 -12 8 22.5 25.2
13 6 -8 -33.6 25.8
19 -13 8 -2.6 23.3
-6 19 8 -8.3 28.9
-6 19 8 64.79 26.3
-13 -6 8 27.1 31.9
0 0 -9 83.19 32.3
0 0 9 188.18 36.3
0 0 9 108.09 35
0 1 -9 40 26.2
1 -1 -9 22.9 26.1
-1 0 -9 -4.4 20.7
0 -1 9 -7.6 26.3
1 0 9 47.2 31.2
1 0 9 12.3 20.3
-1 1 9 60.19 33
-1 1 9 19.8 20.7
0 -1 9 14 19.7
-1 1 -9 10.9 23.2
1 0 -9 8.7 21.8
0 -1 -9 -9.1 17.9
0 1 9 10 19.3
-1 0 9 14.9 28.8
0 1 9 45.8 28.7
1 -1 9 24.8 30.5
1 -1 9 33.5 21.1
-1 0 9 36.9 21.4
2 -1 -9 19.8 24.3
-1 2 -9 -13.7 23.6
-1 -1 -9 3.9 28.3
1 1 9 12.6 21
1 -2 9 22.9 29.6
1 -2 9 50.09 22.8
-2 1 9 36.1 20.9
1 1 9 50.39 32.9
-2 1 9 5.1 26.3
-2 -1 -9 12.3 26.3
3 -2 -9 15.5 26.6
-1 3 -9 13.5 22.8
-3 2 9 -8 24.5
1 -3 9 6.5 27.2
1 -3 9 0 22.3
2 1 9 35.7 23.7
-3 2 9 26.6 21.5
2 1 9 16 29.7
-2 0 -9 157.28 43.2
0 2 -9 208.58 41.2
2 -2 -9 181.98 41.4
2 0 9 176.08 43.5
2 0 9 219.28 40.1
0 -2 9 148.09 33.7
-2 2 9 161.88 33.7
-2 2 9 191.78 49.1
0 -2 9 275.57 54.39
1 1 -9 -5 23.6
1 -2 -9 39.5 26.1
-2 1 -9 -13.8 20.2
-1 2 9 30.1 22.5
-1 -1 9 6.1 28.6
2 -1 9 32.3 26.9
2 -1 9 6.7 22.9
-1 -1 9 -33.1 18.7
-1 2 9 41.7 32.2
2 0 -9 177.18 42.2
0 -2 -9 117.69 39
-2 2 -9 159.58 41.4
2 -2 9 162.48 36.2
0 2 9 121.59 40.3
-2 0 9 165.38 31.8
2 -2 9 214.88 45.4
0 2 9 166.28 34.4
-2 0 9 248.78 53.49
-1 -2 -9 26.5 25.5
3 -1 -9 52.29 29.5
-2 3 -9 23.6 27.7
1 2 9 2 21.1
2 -3 9 7.4 22.6
-3 1 9 29.5 26
2 -3 9 13.9 27.6
-3 1 9 23.6 32.7
1 2 9 -4.2 25.9
-2 -2 -9 332.37 79.99
-2 4 -9 255.47 49.7
4 -2 -9 212.08 54.99
2 2 9 341.77 59.09
2 -4 9 216.28 47.4
-4 2 9 178.08 47
2 2 9 223.18 39.9
2 -4 9 160.98 48.4
-4 2 9 187.98 41.4
-2 5 -9 -3.8 25.2
2 -5 9 16.3 32.7
-5 3 9 0.4 27.7
3 2 9 -0.2 24.5
3 2 9 -10.5 30.7
-5 3 9 19 30
2 -5 9 -15.4 36.2
-3 -1 -9 2.8 36.4
-1 4 -9 8.9 23.6
1 -4 9 32.7 30.1
3 1 9 -8.6 22.9
1 -4 9 5.8 37.6
-4 3 9 34.4 23.8
-4 3 9 52.79 34.1
3 1 9 84.59 45.8
-3 0 -9 32 31.6
0 3 -9 31.7 27.1
3 -3 -9 -15.5 22.2
0 -3 9 -1.5 26.7
3 0 9 1.3 24.1
-3 3 9 17.3 30.6
-3 3 9 4.9 20.8
3 0 9 15.9 26.4
0 -3 9 49.6 30.4
2 -3 -9 -9.8 21
1 2 -9 32.4 29.6
-3 1 -9 10.6 28.8
3 -1 9 23.2 28
-2 3 9 19 27.8
-2 3 9 22.9 21.9
-1 -2 9 10.2 22.1
-1 -2 9 36.1 31.7
3 -1 9 25.9 24
2 1 -9 9.9 23.2
1 -3 -9 14.6 25
-3 2 -9 48.5 33.3
3 -2 9 33.6 27.1
-1 3 9 8.3 21.3
-1 3 9 -39.8 23.8
-2 -1 9 25.2 29.6
3 -2 9 -6.9 26.5
-2 -1 9 25.8 27
0 -3 -9 26.9 25.4
-3 3 -9 3.9 25.1
3 0 -9 3.1 25.4
0 3 9 18.8 22.1
3 -3 9 -20 31.9
-3 0 9 -28.2 23.9
0 3 9 28.4 29.6
3 -3 9 1.3 26.2
-3 0 9 33.4 25.5
4 -1 -9 10.4 25.6
-1 -3 -9 4.7 36.9
-3 4 -9 30.1 27
3 -4 9 61.09 33.7
3 -4 9 37.9 40
-4 1 9 57.89 40.9
1 3 9 22.5 31.1
-4 1 9 14.9 29.4
1 3 9 3.3 20.9
-3 5 -9 19.6 26.9
3 -5 9 53.39 30.7
-5 2 9 -1.8 27.2
2 3 9 19.4 30
2 3 9 0.8 25.4
-3 6 -9 11.2 24.8
3 3 9 0.2 26.1
3 -6 9 38.8 29.1
-6 3 9 9.5 29.7
-3 7 -9 9.2 18.7
-3 7 -9 -10.2 22.5
3 -7 9 34 28.9
4 3 9 -6.5 26.5
-7 4 9 26.9 32.1
-2 6 -9 198.78 34.4
-2 6 -9 252.97 50.99
-6 4 9 206.38 48.6
2 -6 9 237.68 50.69
4 2 9 220.88 51.09
-1 5 -9 25.1 27.7
-1 5 -9 4.5 20.1
-5 4 9 -1.7 29.7
-5 4 9 40.3 27.7
1 -5 9 -15.3 28.8
4 1 9 50.99 29.7
0 4 -9 296.47 41.9
0 4 -9 275.07 49.5
4 0 9 288.87 54.79
-4 4 9 298.17 45.7
0 -4 9 176.18 43
-4 4 9 227.28 49.1
1 3 -9 61.39 31.1
1 3 -9 27.7 21.1
4 -1 9 48 32.7
-1 -3 9 -17.1 33.3
-3 4 9 37.8 26.1
-1 -3 9 29.5 33
-3 4 9 88.69 41.5
-4 2 -9 148.69 64.99
2 -4 -9 235.48 54.39
2 2 -9 223.08 41.6
2 2 -9 222.38 34.6
-2 -2 9 211.58 50.49
-2 4 9 225.38 37.5
-2 4 9 183.68 43.8
4 -2 9 293.07 67.89
4 -2 9 230.98 49.9
-4 3 -9 46.3 35.3
3 1 -9 22.9 26.1
3 1 -9 63.49 22.6
-3 -1 9 22.1 36.4
-3 -1 9 28.8 34.2
-1 4 9 42.5 32.5
-1 4 9 2.1 24.2
4 -3 9 23.1 28.6
4 0 -9 381.66 77.89
4 0 -9 346.37 40.8
-4 4 -9 309.27 60.59
0 -4 -9 243.58 71.09
0 4 9 323.07 45.5
-4 0 9 297.77 52.09
0 4 9 299.67 50.19
4 -4 9 348.47 60.19
-4 5 -9 -4.9 27.5
5 -1 -9 46 22.2
1 4 9 14.1 23
4 -5 9 42.1 35
-5 1 9 31.2 30.6
1 4 9 33.6 31.9
6 -2 -9 200.78 31.8
-4 6 -9 184.88 46.8
4 -6 9 237.58 51.19
2 4 9 114.49 38.5
-6 2 9 185.58 46.3
2 4 9 163.88 51.39
7 -3 -9 9.9 18.2
-4 7 -9 74.59 37.1
3 4 9 23 26.6
-7 3 9 12.5 32.3
4 -7 9 19.3 29.4
-4 8 -9 159.68 46.6
4 4 9 205.58 46.3
-8 4 9 155.68 47.8
4 -8 9 289.87 52.99
-4 9 -9 -22.1 22.2
-4 9 -9 23.3 22.1
-9 5 9 16.6 29.9
4 -9 9 -0.9 29.8
5 4 9 -34.3 19.6
-3 8 -9 23 21.6
-3 8 -9 47.5 28.8
3 -8 9 13.5 28.4
-8 5 9 39.9 33.8
5 3 9 34.1 27.7
-2 7 -9 11.6 20.6
-2 7 -9 30.7 25.6
2 -7 9 39.4 32.3
5 2 9 26.3 29.4
-7 5 9 27.3 31
-1 6 -9 68.29 24.4
-1 6 -9 12.8 24.8
5 1 9 33.9 33.5
-6 5 9 7.2 37.1
1 -6 9 40.1 34
-6 5 9 55.59 37.7
0 5 -9 -34.9 16.9
0 5 -9 12.3 24.3
5 0 9 44.3 30.4
-5 5 9 13.8 28.3
0 -5 9 31.9 30.5
1 4 -9 19.4 21.1
1 4 -9 75.59 33.3
-4 5 9 39.8 32.1
-4 5 9 21.6 25.1
5 -1 9 16.9 29.8
-1 -4 9 73.29 36.5
2 3 -9 16.7 25.5
2 3 -9 15.5 20.2
-3 5 9 13 21.9
-2 -3 9 41 28.3
5 -2 9 18.9 26.2
-3 5 9 42.5 31.7
3 2 -9 4.2 26.7
3 2 -9 21 20.5
5 -3 9 12.5 29.2
-2 5 9 -13.2 23.9
-3 -2 9 45.9 36.5
-2 5 9 -1.1 20.9
4 1 -9 76.29 26.4
-1 5 9 17 24.9
-4 -1 9 110.19 41.8
5 -4 9 49.6 31.6
-1 5 9 34.4 31.1
5 0 -9 -7.2 18.7
-5 5 -9 39.5 51.39
0 5 9 20.9 23.4
0 5 9 13.1 27.9
-5 0 9 18.9 32.5
5 -5 9 6 26.5
-5 6 -9 -2.5 24.4
6 -1 -9 17.2 19.9
1 5 9 -3.5 22.6
-6 1 9 -21.5 23.8
5 -6 9 28.1 30.8
1 5 9 1.1 24.8
7 -2 -9 13.5 18.7
-5 7 -9 13.1 24.6
2 5 9 -16.4 23.6
5 -7 9 -8.3 25
-7 2 9 28.2 33.3
8 -3 -9 41.6 21.9
-5 8 -9 20.4 29.2
3 5 9 52.09 34.9
-8 3 9 42 35.2
5 -8 9 7.8 27.4
-5 9 -9 10.7 30.8
9 -4 -9 24.8 19.5
-9 4 9 6.2 30
4 5 9 32.7 31.4
5 -9 9 17 27.9
-5 10 -9 5.8 35
-5 10 -9 42.8 23.3
10 -5 -9 45.1 20.7
5 5 9 -6.5 24.1
-10 5 9 17.5 33.8
5 -10 9 33.6 28.7
11 -6 -9 23.1 18.9
-5 11 -9 48.2 21.5
5 -11 9 12.1 27.6
-11 6 9 8.2 32.4
6 5 9 15.1 29.1
-4 10 -9 182.88 59.29
-4 10 -9 151.38 32
4 -10 9 105.39 38.7
-10 6 9 150.98 44.2
6 4 9 136.29 42.6
-3 9 -9 3.7 20.5
-3 9 -9 25.8 27.2
3 -9 9 -18.4 24.3
-9 6 9 48.4 37.3
6 3 9 36.3 28.6
-2 8 -9 107.79 33.8
-2 8 -9 148.09 31.6
6 2 9 196.28 42.9
-8 6 9 130.29 44.1
2 -8 9 130.69 42.4
-1 7 -9 16 27.6
-1 7 -9 34.8 21.9
1 -7 9 21.7 30.7
-7 6 9 48.5 42.7
6 1 9 32.7 26.1
-7 6 9 67.09 35.3
0 6 -9 98.69 31.2
0 6 -9 160.28 32.3
0 -6 9 145.69 39
6 0 9 68.59 34
-6 6 9 198.68 41.3
-6 6 9 62.59 36.3
1 5 -9 18.6 22.5
1 5 -9 23.8 26.3
6 -1 9 -11.8 23.4
-5 6 9 16.4 22.4
-5 6 9 13.5 29
-1 -5 9 -5.2 28.1
2 4 -9 153.88 40
2 4 -9 237.38 36.9
-4 6 9 213.08 48.4
-4 6 9 214.58 35.8
6 -2 9 191.58 45.6
-2 -4 9 142.29 45.9
3 3 -9 15.5 22.7
3 3 -9 -11.6 23.2
-3 6 9 34.8 24.7
6 -3 9 50.49 27.5
-3 6 9 -17.9 26.8
-3 -3 9 3.4 29
4 2 -9 199.68 34.5
-2 6 9 152.18 48.3
-4 -2 9 200.28 50.59
6 -4 9 212.68 50.39
-2 6 9 192.58 38
5 1 -9 45.9 23.8
6 -5 9 -10.6 24.6
-1 6 9 10.6 30.5
-1 6 9 31 23.2
-5 -1 9 6.6 30
6 0 -9 174.68 32.7
0 6 9 158.78 41.8
6 -6 9 197.48 45.7
-6 0 9 156.58 44.3
7 -1 -9 -12.2 17.3
1 6 9 61.79 34.1
1 6 9 -0.5 28.1
6 -7 9 37.8 31.7
-7 1 9 15.3 32.5
8 -2 -9 142.29 28.4
-8 2 9 212.18 51.59
2 6 9 79.49 35.2
6 -8 9 150.98 40.2
9 -3 -9 12.2 19.9
3 6 9 40.6 32.7
-9 3 9 20.4 28.3
6 -9 9 50.49 33.7
10 -4 -9 190.98 30.4
6 -10 9 155.88 44.9
4 6 9 103.99 42
-10 4 9 163.48 45.4
11 -5 -9 18.8 19.5
6 -11 9 3.5 28.2
5 6 9 12.4 25.5
-11 5 9 15.8 36.5
12 -6 -9 78.89 22.3
-6 12 -9 108.89 37.4
-12 6 9 90.19 46.8
6 6 9 74.29 34.8
6 -12 9 39.2 32.5
13 -7 -9 9.7 19.4
7 6 9 -4.4 26.6
6 -13 9 -14.8 25.3
-13 7 9 -29.5 37
-5 12 -9 -8.8 24.1
-12 7 9 -12.1 34.4
5 -12 9 -26.3 24.2
7 5 9 21 27.2
-4 11 -9 70.09 49.4
-4 11 -9 47.5 22.2
-11 7 9 -8.4 31.2
4 -11 9 9.2 28.8
7 4 9 -14.7 25.5
-3 10 -9 9.4 18.8
-3 10 -9 27.5 28.3
7 3 9 25.8 26.9
3 -10 9 13.9 30
-10 7 9 15.4 33.7
-2 9 -9 4.6 27.9
-2 9 -9 -23.6 17.4
2 -9 9 4.6 29.1
7 2 9 5.9 25
-9 7 9 0 30.9
-1 8 -9 1 20.4
-1 8 -9 19.6 21.8
1 -8 9 25.2 32.4
-8 7 9 22.5 32.1
7 1 9 12.1 26.8
0 7 -9 -18.2 20.2
0 7 -9 10.3 20.3
0 -7 9 29.6 30.3
-7 7 9 -12.2 27.9
7 0 9 47.2 27.4
-7 7 9 43.6 41.8
1 6 -9 46.2 23.2
1 6 -9 35.7 25.8
7 -1 9 -9.9 24.5
-6 7 9 45.9 23.2
-6 7 9 51.39 35.3
-1 -6 9 60.79 34
2 5 -9 -11.3 17.3
2 5 -9 15.1 24.8
7 -2 9 22.7 26.7
-2 -5 9 33.3 34.9
-5 7 9 4.5 30.1
-5 7 9 -1.4 21.7
3 4 -9 40.9 24
3 4 -9 5.6 24.3
-4 7 9 19.7 33.3
-3 -4 9 26.8 33.7
-4 7 9 13.4 21.2
7 -3 9 36.7 29.4
4 3 -9 26 21.4
-3 7 9 15.8 24
7 -4 9 41.1 31.1
-3 7 9 45.2 33.4
-4 -3 9 9.6 29.8
5 2 -9 -6.9 18.4
-2 7 9 29 33.4
-5 -2 9 -1.2 28.8
-2 7 9 19.5 20.7
7 -5 9 1 26.7
6 1 -9 49.7 22.6
-1 7 9 36.4 25.8
-1 7 9 6 28.7
-6 -1 9 98.29 39.1
7 -6 9 47.6 29.2
7 0 -9 -24.7 16.5
-7 0 9 -14.8 29.3
7 -7 9 -3.6 24
0 7 9 23.5 23.1
0 7 9 11 28.1
8 -1 -9 29.5 20.6
1 7 9 14.2 30.7
7 -8 9 13.1 27.9
-8 1 9 5.9 30.9
9 -2 -9 11.3 17.9
7 -9 9 -25 24.5
2 7 9 27.6 28.8
-9 2 9 4.2 28.5
10 -3 -9 49.4 21.1
-10 3 9 35.5 36.3
7 -10 9 -21.3 25.9
3 7 9 57.79 32.4
11 -4 -9 34.1 20.4
-11 4 9 5.8 30.5
7 -11 9 0 26.2
4 7 9 42.4 30.3
12 -5 -9 6.8 18.7
7 -12 9 27.8 31
5 7 9 27.1 30.9
-12 5 9 27.8 33.4
13 -6 -9 14.3 20.1
-13 6 9 -37.8 31.6
6 7 9 46.3 28.7
-7 14 -9 47.5 26.5
14 -7 -9 33.8 21.8
7 7 9 -20 30.3
-14 7 9 38.3 39.4
7 -14 9 51.39 29.7
15 -8 -9 -0.4 19.1
-7 15 -9 -12.2 23.1
7 -15 9 22.7 25.9
-15 8 9 -36.4 31.2
8 7 9 79.39 44.7
-6 14 -9 174.28 35.3
-14 8 9 137.39 50.19
6 -14 9 64.89 35.2
8 6 9 -0.2 37.7
-5 13 -9 14.5 36.3
-13 8 9 -63.59 36.7
8 5 9 -4.4 21.7
5 -13 9 21.1 29.6
-4 12 -9 78.29 47.7
-4 12 -9 48.4 36.5
-12 8 9 148.09 48.6
4 -12 9 69.19 35.3
8 4 9 106.89 36.3
-3 11 -9 11.5 21.9
-3 11 -9 -1.5 24.2
-11 8 9 39.9 35.2
8 3 9 -8.4 21.6
3 -11 9 -11 26.2
-2 10 -9 80.19 37.9
-2 10 -9 114.89 30.1
8 2 9 93.39 37.2
-10 8 9 99.99 42.7
2 -10 9 44.3 33.6
-1 9 -9 26 21.9
-1 9 -9 27.6 24.9
8 1 9 20.4 28.3
-9 8 9 9.2 30.3
1 -9 9 30.7 30.3
0 8 -9 117.09 28.8
0 8 -9 53.09 30.3
8 0 9 62.79 34.5
-8 8 9 79.09 38.9
0 -8 9 74.69 40.7
1 7 -9 5.9 24.7
1 7 -9 -11.5 20
-1 -7 9 -38.2 23.4
8 -1 9 12 25.3
-7 8 9 23.6 27.4
-7 8 9 7.9 28.8
2 6 -9 166.28 31.6
2 6 -9 213.88 57.19
-2 -6 9 99.39 43
-6 8 9 189.88 37.1
-6 8 9 84.89 40.2
8 -2 9 230.68 48.7
3 5 -9 63.89 25.5
8 -3 9 19.9 25
-5 8 9 24.8 21.7
-3 -5 9 23.3 31.9
-5 8 9 33.5 33.5
4 4 -9 208.98 37.7
-4 8 9 222.88 37.3
-4 -4 9 203.88 51.39
-4 8 9 214.98 51.29
8 -4 9 238.98 46.6
5 3 -9 -0.3 19.7
8 -5 9 32.8 29
-3 8 9 45.5 24.6
-3 8 9 8.3 27.7
-5 -3 9 35.4 35.2
6 2 -9 165.18 32.6
8 -6 9 117.79 37.8
-6 -2 9 159.28 46.3
-2 8 9 219.28 35.4
-2 8 9 121.19 40.5
7 1 -9 18.8 20.7
-1 8 9 0.7 27.6
-7 -1 9 40.4 33.5
8 -7 9 19.1 27.1
-1 8 9 37 20.6
8 0 -9 114.49 27.4
-8 0 9 78.79 34.1
8 -8 9 71.49 31.9
0 8 9 99.19 35.6
9 -1 -9 52.39 23.4
8 -9 9 -17.6 23.1
-9 1 9 12.4 30.9
1 8 9 39 35.9
10 -2 -9 99.59 26.9
-10 2 9 173.98 44
8 -10 9 133.09 37.3
2 8 9 69.39 38.5
11 -3 -9 19 19.4
-11 3 9 21.4 34.2
8 -11 9 -33.5 22.5
3 8 9 -11.7 27.2
12 -4 -9 88.09 24.8
8 -12 9 65.69 32.3
4 8 9 52.79 27.6
-12 4 9 95.59 51.19
13 -5 -9 -6 18.5
8 -13 9 -1.6 25.6
5 8 9 46.7 28.9
-13 5 9 -15.4 29.8
14 -6 -9 133.99 26.6
6 8 9 99.69 39.9
8 -14 9 55.89 34.3
-14 6 9 35.6 37.7
15 -7 -9 -11.9 18.2
8 -15 9 11.5 28.9
-15 7 9 -32.3 33.6
7 8 9 -15.9 25.5
-6 15 -9 -23.2 21.9
9 6 9 -3.7 27.4
-15 9 9 59.99 46.5
6 -15 9 -30.6 27
-5 14 -9 38.9 25.9
5 -14 9 29.4 33
-14 9 9 41.6 35.8
9 5 9 57.89 37.7
-4 13 -9 4.4 25
4 -13 9 7.6 27.3
-13 9 9 -15.3 60.29
9 4 9 -41 26.1
-3 12 -9 18.1 35
9 3 9 7.7 27.4
-12 9 9 12.7 36.7
3 -12 9 30.2 32
-2 11 -9 -9.4 26.8
-2 11 -9 28 23.1
2 -11 9 -33 26.8
9 2 9 -15.6 22.9
-11 9 9 77.89 37.6
-1 10 -9 4.2 21.7
-1 10 -9 -8 23.8
-10 9 9 16.9 33.4
1 -10 9 14.7 33.3
9 1 9 -9.2 23.2
0 9 -9 -22.8 18.9
0 9 -9 10.5 25.7
9 0 9 3.4 25.2
-9 9 9 -8.9 30.5
0 -9 9 4.3 28.2
1 8 -9 17.3 22.9
1 8 -9 4.4 37
-8 9 9 8.4 32.4
9 -1 9 6.9 26
-1 -8 9 39.5 35.6
2 7 -9 -16.4 20
-7 9 9 -12.9 29.5
9 -2 9 21.5 29.4
-2 -7 9 8.6 31
-7 9 9 -36.8 24.1
3 6 -9 7.2 22.7
-6 9 9 10.6 31.1
-3 -6 9 58.99 37.5
-6 9 9 -27.4 23.3
9 -3 9 -7.1 23.1
4 5 -9 34.6 23.2
-4 -5 9 18.9 33.9
-5 9 9 39.9 37.1
-5 9 9 -33.3 20.6
9 -4 9 10.6 24.6
5 4 -9 8.4 21
-4 9 9 -25.5 21.9
9 -5 9 32 33
-5 -4 9 69.99 36.8
-4 9 9 8.9 29.1
6 3 -9 46.8 23.2
9 -6 9 1 27.9
-3 9 9 -38.1 22.5
-3 9 9 50.29 35.8
-6 -3 9 41.9 34
7 2 -9 11.1 21.5
9 -7 9 16.4 27.9
-2 9 9 15.1 28.9
-2 9 9 -36.7 22.8
-7 -2 9 59.99 34.5
8 1 -9 21.8 21.8
9 -8 9 41.3 31.4
-8 -1 9 -22 28.5
-1 9 9 41.6 34.4
-1 9 9 13.8 32.1
9 0 -9 12.2 18.8
0 9 9 -21.8 24.4
-9 0 9 9.1 31
9 -9 9 8.7 25.5
10 -1 -9 21.1 21
9 -10 9 0.3 27.1
1 9 9 -15.3 25.2
-10 1 9 5.8 31
11 -2 -9 10.7 19.7
-11 2 9 35.3 34
9 -11 9 7.9 27.9
2 9 9 22.5 28.2
12 -3 -9 30.8 21.2
9 -12 9 -19.3 23.6
3 9 9 27.6 31.9
-12 3 9 13.1 31.5
13 -4 -9 -28.2 18.1
9 -13 9 18.4 27.1
4 9 9 7.2 29.7
-13 4 9 -19.1 33
14 -5 -9 13.6 21.1
-14 5 9 22.9 35.4
9 -14 9 43.7 29.7
5 9 9 7.9 26.8
15 -6 -9 -4.6 18.9
9 -15 9 39.8 32.4
-15 6 9 42.2 35.4
6 9 9 -22.8 44.6
-5 15 -9 11.1 23.6
-15 10 9 -34.7 31.6
10 5 9 -2.6 27.7
5 -15 9 42 34.1
-4 14 -9 109.19 31
4 -14 9 135.49 43.9
-14 10 9 74.09 42.5
10 4 9 56.59 32.6
-3 13 -9 17.3 22.3
3 -13 9 22.5 30.6
10 3 9 19 39.4
-13 10 9 44.6 45.3
2 -12 9 78.69 37.1
10 2 9 93.09 45.5
-12 10 9 80.19 44.2
-1 11 -9 7.4 24.6
-1 11 -9 6.5 33.1
-11 10 9 95.29 41
1 -11 9 15.3 31
10 1 9 1.7 23.7
0 10 -9 92.49 29.3
0 -10 9 47.6 32.7
-10 10 9 38.9 38
10 0 9 18.8 27.7
1 9 -9 31.2 24
-9 10 9 -1.5 31.4
-1 -9 9 13.3 31.7
10 -1 9 12.2 20.8
2 8 -9 91.79 27.7
-8 10 9 67.59 38.5
-2 -8 9 135.49 44
10 -2 9 91.39 37
3 7 -9 28.6 23.7
-7 10 9 20.3 32.5
10 -3 9 15.7 27.7
-7 10 9 95.69 38.1
-3 -7 9 10.4 31.8
4 6 -9 114.29 30.7
-6 10 9 145.69 43.2
-6 10 9 187.98 40.2
-4 -6 9 215.08 50.99
10 -4 9 126.39 38.4
5 5 -9 49 27.1
-5 10 9 46 31.5
-5 -5 9 38.9 33.9
10 -5 9 -9.7 22.7
-5 10 9 -1.1 31.4
6 4 -9 216.18 38.7
-4 10 9 184.88 41.5
10 -6 9 120.29 37.2
-4 10 9 83.59 33.6
-6 -4 9 244.78 53.79
7 3 -9 25.8 22.5
-3 10 9 61.29 31.6
10 -7 9 19.3 26.8
-7 -3 9 76.09 40.2
-3 10 9 18.2 31.7
8 2 -9 141.99 30.6
-8 -2 9 124.99 44.2
-2 10 9 68.29 34.8
-2 10 9 172.38 50.79
10 -8 9 75.39 36.4
9 1 -9 -20.2 19.8
-9 -1 9 -11.7 29.1
10 -9 9 50.59 28.8
-1 10 9 27.7 26.1
10 0 -9 92.79 28.9
0 10 9 124.39 44.1
-10 0 9 95.59 45.3
10 -10 9 87.99 35.6
11 -1 -9 3 21.3
10 -11 9 1 26.5
-11 1 9 77.39 40.8
1 10 9 25.6 34.9
12 -2 -9 78.69 25.7
10 -12 9 99.89 39.7
2 10 9 116.59 40.8
-12 2 9 63.39 50.09
13 -3 -9 -14.5 19.2
-13 3 9 -5.5 35.6
10 -13 9 19.3 27.9
3 10 9 -2.8 24.9
14 -4 -9 76.39 26.1
10 -14 9 122.79 39.4
4 10 9 79.19 40.3
-14 4 9 95.59 47.8
15 -5 -9 9.1 20.3
10 -15 9 17.7 27.2
5 10 9 15 40.7
-15 5 9 58.99 39
-4 15 -9 28.9 24.2
4 -15 9 13.9 30.7
-15 11 9 46.9 34.1
-3 14 -9 19.5 25.3
3 -14 9 -1.2 32.6
11 3 9 53.89 33.2
-14 11 9 28.5 35.3
-2 13 -9 19.8 25.2
11 2 9 14.4 26.2
2 -13 9 -0.8 32.5
-13 11 9 -15.2 35.2
-1 12 -9 31.5 32
11 1 9 -16.7 36.4
1 -12 9 -32.5 25.2
11 0 9 -3.2 39.6
-11 11 9 24.6 35.6
0 -11 9 -30.6 25
1 10 -9 14.7 27.8
-10 11 9 22.9 34.9
-1 -10 9 8.3 31.8
11 -1 9 60.09 35.9
2 9 -9 70.09 28.4
-9 11 9 48.4 37.2
11 -2 9 1.4 21.4
-2 -9 9 -9.4 31.6
3 8 -9 20.7 23.1
-8 11 9 21.3 33.8
-3 -8 9 60.19 38.6
11 -3 9 12.5 25.2
4 7 -9 0 23.6
-4 -7 9 -6.7 27.3
11 -4 9 -6.6 20.3
-7 11 9 -24.9 27.9
-7 11 9 -8.5 40.4
5 6 -9 -10.8 23.2
-5 -6 9 26.2 33.3
-6 11 9 15.9 27.5
-6 11 9 -7.6 29.3
11 -5 9 32.5 28.5
6 5 -9 -33.2 21
-5 11 9 -18.2 27
-5 11 9 -16.9 28.8
-6 -5 9 -20.6 27.5
11 -6 9 53.79 27.7
7 4 -9 -14.8 21.8
-7 -4 9 -21.1 27
-4 11 9 -13.6 24.9
11 -7 9 22.2 27
-4 11 9 7.5 32.1
8 3 -9 -9.9 20.9
-3 11 9 21.7 28.8
11 -8 9 35 30.3
-8 -3 9 24.5 33.8
9 2 -9 6 21.4
11 -9 9 11.1 26.1
-2 11 9 9.3 30.9
-9 -2 9 21.9 31.9
10 1 -9 35.7 25.2
11 -10 9 48.4 29.7
-10 -1 9 13.6 34.4
-1 11 9 4.1 25.7
11 0 -9 14 21.7
11 -11 9 52.39 35.4
0 11 9 -14.1 26
-11 0 9 36.1 34.2
12 -1 -9 -5.6 20.8
-12 1 9 24.4 42.6
1 11 9 -52.29 20.8
11 -12 9 30.2 26.9
13 -2 -9 27.4 21.9
2 11 9 3.7 27.1
-13 2 9 3.9 36.5
11 -13 9 19.7 26.8
14 -3 -9 20.9 22.2
-14 3 9 21.4 35
3 11 9 46.9 34.2
11 -14 9 37.5 27.9
15 -4 -9 15 21.7
4 11 9 1.3 31
-15 4 9 42.4 35.3
11 -15 9 -38.7 23.9
-2 14 -9 71.59 28.9
-14 12 9 -6.3 35.9
2 -14 9 24.1 34
-1 13 -9 63.99 27.7
-13 12 9 -12.7 33.5
1 -13 9 23.1 32.2
0 12 -9 58.99 27.4
0 -12 9 42 37.7
-12 12 9 57.59 55.59
12 0 9 113.49 35.8
1 11 -9 22.5 26.2
-11 12 9 -7.8 34.9
-1 -11 9 50.59 36
12 -1 9 31.2 29.3
-10 12 9 3 32.2
12 -2 9 68.29 43.1
-2 -10 9 48.6 38.3
3 9 -9 -62.79 33.9
-3 -9 9 -17.7 28.7
12 -3 9 -15.3 29.8
-9 12 9 75.49 39.1
4 8 -9 144.79 38.8
-8 12 9 127.09 42
-4 -8 9 83.39 43.4
12 -4 9 57.69 31.9
5 7 -9 0.1 24.6
12 -5 9 -4.9 25.1
-7 12 9 4.7 30.5
-5 -7 9 49.1 36.5
6 6 -9 113.99 33.2
-6 -6 9 94.29 40.7
-6 12 9 75.59 38.9
12 -6 9 66.29 35.3
-6 12 9 91.89 46.7
7 5 -9 0.9 24.7
-7 -5 9 28.9 33.1
-5 12 9 -33.5 35.7
12 -7 9 41.2 30.5
-5 12 9 22 30.2
8 4 -9 79.69 29
-4 12 9 107.09 41.8
-8 -4 9 91.79 37.8
12 -8 9 66.59 33.3
9 3 -9 -17.2 21.6
-3 12 9 -23.2 31
-9 -3 9 15.8 34.4
12 -9 9 -30.6 21
10 2 -9 73.99 27.7
-2 12 9 132.89 43.9
-10 -2 9 92.89 45.5
12 -10 9 45.5 33
11 1 -9 -24.2 21.6
-11 -1 9 13.1 32.4
12 -11 9 -20.9 24
-1 12 9 42.3 31.8
12 0 -9 45.4 24.9
12 -12 9 68.79 34.5
-12 0 9 67.19 54.59
0 12 9 87.79 37.8
13 -1 -9 -12.3 22.6
-13 1 9 23.4 37.4
1 12 9 43.6 32.4
12 -13 9 35.6 32
14 -2 -9 29.6 25.3
-14 2 9 55.69 34.7
12 -14 9 27 30.2
2 12 9 89.99 40.4
1 -14 9 28.3 38.2
-14 13 9 13.8 41.7
0 13 -9 35.1 27
0 -13 9 5.1 35.4
-13 13 9 3.9 37.6
1 12 -9 6.4 26.1
-1 -12 9 25.1 33.7
2 11 -9 9.1 24.8
-2 -11 9 4.8 30.1
-11 13 9 38.3 40
3 10 -9 57.79 29
-10 13 9 17 35.9
-3 -10 9 10 32.7
4 9 -9 0.6 28.9
-9 13 9 -15.4 31.6
-4 -9 9 -17.1 27.8
13 -4 9 34.2 32.1
-8 13 9 27.5 34.3
-5 -8 9 -58.09 25.2
13 -5 9 30.9 44.6
-7 13 9 10.7 35
-6 -7 9 19.3 30.5
13 -6 9 2.2 35.5
7 6 -9 -14.7 36.9
-6 13 9 -6.3 31.3
-7 -6 9 9.1 33.6
13 -7 9 -11.2 23.8
8 5 -9 11.7 26.4
-8 -5 9 28.2 33.7
13 -8 9 33.1 28.9
-5 13 9 -44.6 26.6
9 4 -9 47.6 27.3
13 -9 9 14.8 27.8
-9 -4 9 46.1 37.3
-4 13 9 -18.3 28.6
10 3 -9 39.7 25.1
13 -10 9 70.99 33.1
-3 13 9 21.3 28.8
-10 -3 9 13.3 36.7
11 2 -9 -16.8 23.1
-2 13 9 -9.8 26.9
-11 -2 9 65.49 58.39
13 -11 9 20 29.8
12 1 -9 0.8 22.4
13 -12 9 60.69 34.1
-1 13 9 32.9 34.8
-12 -1 9 -16.1 31.7
13 0 -9 -8.4 22.3
0 13 9 -19.5 26.7
13 -13 9 0.9 26.8
-13 0 9 38.7 37.1
1 13 9 49.8 33.3
-14 1 9 0.7 27.8
-13 14 9 -17.8 33.1
-1 -13 9 -18.3 32.6
2 12 -9 69.59 30.7
-12 14 9 49.9 49.7
-2 -12 9 99.59 45
3 11 -9 15.5 28.4
-3 -11 9 29.2 34.5
-11 14 9 74.19 52.59
4 10 -9 129.09 32.1
-4 -10 9 77.19 42.1
-10 14 9 44.8 37.7
5 9 -9 48.8 28.3
-9 14 9 16.2 36.3
-5 -9 9 49.4 34.4
6 8 -9 161.68 36.9
-8 14 9 84.49 41
-6 -8 9 101.79 42.3
7 7 -9 53.29 29.4
-7 14 9 46.8 36.4
-7 -7 9 67.69 39.9
8 6 -9 126.99 41.2
-6 14 9 42.9 33.4
-8 -6 9 60.29 40
9 5 -9 22.2 31.6
-5 14 9 10.1 32.1
-9 -5 9 8.4 33.7
10 4 -9 90.09 48.5
-10 -4 9 99.29 44
-4 14 9 69.79 35.4
11 3 -9 41.5 41.7
-11 -3 9 -11.7 33.5
-3 14 9 30.5 36.4
-12 -2 9 59.59 41.8
-2 14 9 99.89 45.9
-13 -1 9 33.5 41.6
-1 14 9 21.8 32.1
4 11 -9 35.5 26
15 -4 9 3.4 23.3
-4 -11 9 -31.1 28.2
-11 15 9 26.1 49
5 10 -9 40.1 26.8
-10 15 9 -19.5 39.5
-5 -10 9 -0.8 33.9
6 9 -9 12.5 27.2
-9 15 9 50.09 37.2
-6 -9 9 -58.79 28.6
7 8 -9 -4.7 25.9
-7 -8 9 28.6 35.7
-8 15 9 -37.3 24
8 7 -9 -11.1 26.6
-8 -7 9 59.29 38.9
-7 15 9 27.2 34.3
9 6 -9 -5.3 24.6
-6 15 9 32.9 40.6
-9 -6 9 27.7 35.5
10 5 -9 -7.6 25.8
-5 15 9 4.3 29.1
-10 -5 9 71.09 57.69
11 4 -9 -33.7 24.2
-4 15 9 -18.7 25.9
-11 -4 9 16.1 38.6
0 0 10 118.39 43.8
1 0 10 2 45
0 -1 10 70.79 50.99
-1 1 10 -50.69 38.3
0 1 10 12.9 50.39
1 -1 10 19.7 34.6
-1 0 10 -36.9 34.6
-2 1 10 -26.3 43
1 1 10 31.2 47.8
1 -2 10 7 31.2
-3 2 10 -42 47.3
2 1 10 26.1 46.9
1 -3 10 -36.2 32.2
-2 2 10 88.69 74.39
2 0 10 226.18 88.29
0 -2 10 130.19 46.3
-1 -1 10 10.7 38.9
2 -1 10 -30.4 30.4
-1 2 10 85.39 63.19
0 2 10 69.79 42.2
2 -2 10 70.89 51.99
-2 0 10 205.88 71.39
2 -3 10 28.5 33.4
1 2 10 -54.19 36.4
2 -4 10 95.19 47.8
-4 2 10 233.68 70.69
2 2 10 170.38 59.79
-5 3 10 20.3 33.5
3 2 10 58.99 38.4
2 -5 10 -35.4 42.2
1 -4 10 6.4 34.2
-4 3 10 66.99 51.89
3 1 10 -6.6 36.2
-3 3 10 69.09 79.39
3 0 10 4.2 41.9
0 -3 10 37.6 40.1
-1 -2 10 -14.8 36.6
-2 3 10 -84.29 48.3
-1 3 10 -0.8 36.5
-2 -1 10 -2.6 39.6
3 -2 10 28.6 39.4
3 -3 10 20.6 51.89
0 3 10 -34.1 34.4
3 -4 10 41.8 47
1 3 10 37.4 51.59
-4 1 10 25.2 51.39
3 -5 10 23.6 41.9
2 3 10 -49.7 27.6
-5 2 10 -49.7 32.9
3 -6 10 -7.5 42.1
-6 3 10 62.29 38.8
3 3 10 28.6 30.2
3 -7 10 -6.5 42.5
4 3 10 -40.8 22.9
-7 4 10 7.6 33.7
4 2 10 42.1 39
-6 4 10 156.58 51.49
2 -6 10 204.68 65.69
-5 4 10 29.7 40.9
4 1 10 34.1 33.9
1 -5 10 -18.6 46.7
0 -4 10 52.89 40.7
4 0 10 161.78 48.4
-4 4 10 164.28 50.49
4 -1 10 15.3 34.8
-1 -3 10 -16.8 45.4
-3 4 10 26 40.8
-2 -2 10 199.48 69.19
4 -2 10 90.49 48.2
-2 4 10 94.79 56.69
-1 4 10 -3.4 35.8
-4 0 10 116.39 53.49
0 4 10 213.28 65.99
4 -5 10 -13.7 52.59
-5 1 10 20.5 40.4
1 4 10 -21.1 28.2
-6 2 10 57.79 42.5
2 4 10 56.89 32.9
4 -6 10 52.09 49.99
3 4 10 -2.6 31.1
4 -7 10 -30.8 40.9
-7 3 10 12.3 35.9
4 4 10 116.19 39.7
-8 4 10 145.79 46.7
4 -9 10 0.3 50.39
5 4 10 -10.4 28.3
-9 5 10 -46.6 28.8
5 3 10 22.9 29.9
-8 5 10 12.7 37.9
3 -8 10 29.3 63.79
2 -7 10 34.3 50.49
5 2 10 -24.9 28.6
-7 5 10 49.7 39.4
5 1 10 4.6 27.5
-6 5 10 14.5 33.9
1 -6 10 80.09 62.29
5 0 10 15.3 29.6
0 -5 10 12.1 36.7
-5 5 10 -13.9 31.9
-1 -4 10 -5.1 33
5 -1 10 -2.8 28.3
-4 5 10 17.7 35.5
-3 5 10 5.4 36
-2 -3 10 30.5 42
5 -2 10 -52.99 27.4
-3 -2 10 19.3 52.89
-2 5 10 -2.9 37.1
5 -3 10 4.2 32.9
-1 5 10 59.79 40.9
-4 -1 10 -22.5 35.7
5 -4 10 -6.2 40.4
5 -5 10 -17.3 38.6
0 5 10 -10.6 27.7
-5 0 10 61.59 42.1
5 -6 10 -29.2 47.2
1 5 10 44.2 35.8
-6 1 10 -0.1 33.7
-7 2 10 -39.9 25
5 -7 10 20.1 57.69
2 5 10 5.5 29.5
3 5 10 9.3 29.8
-8 3 10 29 35
5 -8 10 2.7 40.9
5 -9 10 64.19 56.89
-9 4 10 52.69 37.2
4 5 10 5.4 28.8
6 3 10 10.9 30.1
-9 6 10 10.5 36.1
-2 8 -10 100.79 28.6
6 2 10 61.49 33.1
-8 6 10 32.5 38.5
2 -8 10 80.19 54.19
-1 7 -10 25.2 23.1
-7 6 10 -3.7 29.8
1 -7 10 15.8 48.1
6 1 10 39.3 30
0 6 -10 79.29 36.3
-6 6 10 93.99 44.9
0 -6 10 42.8 62.29
6 0 10 68.69 37.8
-5 6 10 33.9 37.9
6 -1 10 32.1 30.9
-1 -5 10 53.09 40.3
2 4 -10 116.49 36.6
-4 6 10 84.29 40.3
6 -2 10 115.29 39.6
3 3 -10 -14.6 21
6 -3 10 4.2 32
-3 6 10 -8.5 28.7
-3 -3 10 44.9 75.29
4 2 -10 114.19 31.2
-4 -2 10 243.08 60.39
-2 6 10 137.49 48.7
6 -4 10 83.59 39
5 1 -10 -10.5 22.5
-5 -1 10 68.09 35.1
-1 6 10 65.99 36.7
6 -5 10 65.89 40.8
6 0 -10 114.39 31.8
-6 0 10 81.99 42.8
0 6 10 36.2 32.6
6 -6 10 110.99 44.5
7 -1 -10 -9.8 19.3
-7 1 10 58.89 36.7
6 -7 10 44.1 39.5
1 6 10 60.29 39.7
8 -2 -10 70.09 24.2
-8 2 10 140.29 45.8
6 -8 10 97.49 43.3
2 6 10 88.69 38.6
6 -9 10 57.99 39.7
3 6 10 11 29
-9 3 10 6.3 34.2
-2 9 -10 6.1 25.9
-9 7 10 -22.6 32.4
2 -9 10 39 48
7 2 10 12.8 30.7
-1 8 -10 31.3 26.8
-8 7 10 71.69 38.3
7 1 10 -4.2 29.7
0 7 -10 5.7 23.6
7 0 10 0.4 24.4
0 -7 10 13.6 52.19
-7 7 10 -14.3 34
1 6 -10 -37.2 19.2
-6 7 10 31.5 35.6
7 -1 10 -22.2 27.9
2 5 -10 30.7 37.1
-5 7 10 -13.4 32
7 -2 10 39.4 31.4
-2 -5 10 36.6 58.69
-4 7 10 29.7 34.8
7 -3 10 -43.1 22.4
-3 -4 10 72.69 54.59
4 3 -10 -21.8 24.4
-4 -3 10 -8 35.3
-3 7 10 33 34.7
7 -4 10 -16.3 25.5
5 2 -10 4.6 21.8
-5 -2 10 -22.4 33
-2 7 10 -11 31.4
7 -5 10 -13.7 26.9
6 1 -10 19.2 24.8
7 -6 10 42.2 32.7
-1 7 10 86.19 41.1
-6 -1 10 -38.3 29.7
7 0 -10 -20.5 20.1
-7 0 10 -16.8 33
7 -7 10 2.5 27
0 7 10 20.3 32.7
8 -1 -10 7.7 20.8
7 -8 10 -20.2 26.9
-8 1 10 28.7 34.3
1 7 10 18.8 32.9
9 -2 -10 16.9 21.7
7 -9 10 16.1 29
2 7 10 -11.5 27.5
-9 2 10 17 37.9
0 8 -10 93.99 29.1
8 0 10 1 28.6
-8 8 10 70.99 43
0 -8 10 122.39 78.89
1 7 -10 4 22.4
-1 -7 10 9.5 39.7
8 -1 10 4.2 30.4
-7 8 10 -37.7 31.5
2 6 -10 105.69 32.6
-6 8 10 74.29 45.6
-2 -6 10 166.88 57.69
8 -2 10 200.38 49.8
3 5 -10 35.8 26.8
-3 -5 10 17.7 33.4
-5 8 10 12.1 34.8
8 -3 10 -1.6 28.9
4 4 -10 137.89 48.6
8 -4 10 109.59 39
-4 8 10 105.99 41.6
-4 -4 10 134.59 50.79
8 -5 10 13.6 32.5
-3 8 10 -28.1 28.9
-5 -3 10 19.7 35.9
6 2 -10 83.39 35.2
-2 8 10 91.69 42.9
-6 -2 10 74.69 39
8 -6 10 76.49 37.4
7 1 -10 4.3 23.1
-7 -1 10 54.89 38.9
-1 8 10 34.1 34.9
8 -7 10 0.4 28
8 0 -10 39.4 26.3
-8 0 10 59.39 43.5
8 -8 10 16.4 30.6
0 8 10 37.6 36.8
2 7 -10 -7.7 24
9 -2 10 14.7 30.3
-2 -7 10 71.19 53.79
-7 9 10 -27.4 31.5
3 6 -10 -11.1 22.5
-6 9 10 25 35.2
-3 -6 10 50.49 39.3
9 -3 10 23.3 29
4 5 -10 -29.9 23.8
9 -4 10 42.6 29.4
-4 -5 10 25.2 40.1
-5 9 10 -6 31.9
5 4 -10 20.8 25.4
-4 9 10 31.6 34.5
-5 -4 10 -10.5 33.7
9 -5 10 21 30
6 3 -10 -0.1 26.2
9 -6 10 7.2 29.3
-3 9 10 -35.6 30.4
-6 -3 10 58.39 41.1
9 -7 10 -9.9 29.1
-7 -2 10 30.8 39.6
-2 9 10 0.2 34.5
loop_
_smtbx_masks_void_nr
_smtbx_masks_void_average_x
_smtbx_masks_void_average_y
_smtbx_masks_void_average_z
_smtbx_masks_void_volume
_smtbx_masks_void_count_electrons
_smtbx_masks_void_content
1 -0.510 0.385 -0.344 2349.4 630.5 ?
