#------------------------------------------------------------------------------
#$Date: 2021-12-19 00:53:04 +0200 (Sun, 19 Dec 2021) $
#$Revision: 271515 $
#$URL: file:///home/coder/svn-repositories/cod/cif/7/12/94/7129421.cif $
#------------------------------------------------------------------------------
#
# This file is available in the Crystallography Open Database (COD),
# http://www.crystallography.net/
#
# All data on this site have been placed in the public domain by the
# contributors.
#
data_7129421
loop_
_publ_author_name
'Gimeno-Fonquernie, Pol'
'Liang, W.'
'Albalad, Jorge'
'Kuznicki, Andrew'
'Price, Jason'
'Bloch, Eric D.'
'Doonan, Christian J.'
'Sumby, Christopher J.'
_publ_section_title
;
 Templated synthesis of zirconium(IV)-based metal-organic layers (MOLs)
 with accessible chelating sites
;
_journal_name_full               'Chemical Communications'
_journal_paper_doi               10.1039/D1CC06443F
_journal_year                    2022
_chemical_formula_moiety         'C18 H12 Cu2 I2 N8 O16 Zr3'
_chemical_formula_sum            'C18 H12 Cu2 I2 N8 O16 Zr3'
_chemical_formula_weight         1250.90
_chemical_name_common            UAM-2
_space_group_crystal_system      tetragonal
_space_group_IT_number           139
_space_group_name_Hall           '-I 4 2'
_space_group_name_H-M_alt        'I 4/m m m'
_atom_sites_solution_hydrogens   geom
_atom_sites_solution_primary     direct
_audit_creation_date             2021-08-30
_audit_creation_method
;
Olex2 1.3
(compiled 2020.11.12 svn.r5f609507 for OlexSys, GUI svn.r6272)
;
_audit_update_record
;
2021-11-01 deposited with the CCDC.	2021-12-17 downloaded from the CCDC.
;
_cell_angle_alpha                90
_cell_angle_beta                 90
_cell_angle_gamma                90
_cell_formula_units_Z            8
_cell_length_a                   22.738(3)
_cell_length_b                   22.738(3)
_cell_length_c                   28.593(6)
_cell_measurement_reflns_used    95189
_cell_measurement_temperature    100
_cell_measurement_theta_max      29.076
_cell_measurement_theta_min      1.144
_cell_volume                     14783(4)
_computing_cell_refinement       'AS QEGUI'
_computing_data_collection       'XDS (Kabsch, 2010)'
_computing_data_reduction        'XDS (Kabsch, 2010)'
_computing_molecular_graphics    'Olex2 1.3 (Dolomanov et al., 2009)'
_computing_publication_material  'Olex2 1.3 (Dolomanov et al., 2009)'
_computing_structure_refinement  'SHELXL 2018/3 (Sheldrick, 2015)'
_computing_structure_solution    'SHELXS  (Sheldrick, 2008)'
_diffrn_ambient_temperature      100
_diffrn_detector_area_resol_mean '13.3 (Dectris Eiger detectors)'
_diffrn_measured_fraction_theta_full 0.978
_diffrn_measured_fraction_theta_max 0.872
_diffrn_measurement_device_type
;
N. P. Cowieson, D. Aragao, M. Clift, D. J. Ericsson, C. Gee, 
S. J. Harrop, N. Mudie, S. Panjikar, J. R. Price, A. Riboldi-
Tunnicliffe, R. Williamson and T. Caradoc-Davies, MX1: a 
bending-magnet crystallography beamline serving both chemical 
and macromolecular crystallography communities at the 
Australian Synchrotron, J. Synchrotron Rad. (2015). 22, 187-190.
;
_diffrn_measurement_method       'Omega Scan'
_diffrn_radiation_monochromator  'Silicon Double Crystal'
_diffrn_radiation_type           Synchrotron
_diffrn_radiation_wavelength     0.71073
_diffrn_reflns_av_R_equivalents  0.0280
_diffrn_reflns_av_unetI/netI     0.0080
_diffrn_reflns_Laue_measured_fraction_full 0.978
_diffrn_reflns_Laue_measured_fraction_max 0.872
_diffrn_reflns_limit_h_max       30
_diffrn_reflns_limit_h_min       -30
_diffrn_reflns_limit_k_max       30
_diffrn_reflns_limit_k_min       -31
_diffrn_reflns_limit_l_max       39
_diffrn_reflns_limit_l_min       -38
_diffrn_reflns_number            95189
_diffrn_reflns_point_group_measured_fraction_full 0.978
_diffrn_reflns_point_group_measured_fraction_max 0.872
_diffrn_reflns_theta_full        27.000
_diffrn_reflns_theta_max         29.076
_diffrn_reflns_theta_min         1.144
_diffrn_source                   'MX1 Beamline Australian Synchrotron'
_diffrn_standards_number         0
_exptl_absorpt_coefficient_mu    1.846
_exptl_absorpt_correction_type   multi-scan
_exptl_absorpt_process_details   'XDS (Kabsch, 2010)'
_exptl_crystal_colour            'clear yellowish colourless'
_exptl_crystal_colour_lustre     clear
_exptl_crystal_colour_modifier   yellowish
_exptl_crystal_colour_primary    colourless
_exptl_crystal_density_diffrn    1.124
_exptl_crystal_description       block
_exptl_crystal_F_000             4704
_exptl_crystal_size_max          0.03
_exptl_crystal_size_mid          0.03
_exptl_crystal_size_min          0.03
_refine_diff_density_max         1.354
_refine_diff_density_min         -2.369
_refine_diff_density_rms         0.185
_refine_ls_extinction_method     none
_refine_ls_goodness_of_fit_ref   1.079
_refine_ls_hydrogen_treatment    constr
_refine_ls_matrix_type           full
_refine_ls_number_parameters     125
_refine_ls_number_reflns         4771
_refine_ls_number_restraints     0
_refine_ls_restrained_S_all      1.079
_refine_ls_R_factor_all          0.0751
_refine_ls_R_factor_gt           0.0740
_refine_ls_shift/su_max          0.000
_refine_ls_shift/su_mean         0.000
_refine_ls_structure_factor_coef Fsqd
_refine_ls_weighting_details
'w=1/[\s^2^(Fo^2^)+(0.1355P)^2^+140.7758P] where P=(Fo^2^+2Fc^2^)/3'
_refine_ls_weighting_scheme      calc
_refine_ls_wR_factor_gt          0.2295
_refine_ls_wR_factor_ref         0.2306
_reflns_Friedel_coverage         0.000
_reflns_number_gt                4573
_reflns_number_total             4771
_reflns_threshold_expression     'I > 2\s(I)'
_cod_data_source_file            d1cc06443f2.cif
_cod_data_source_block           uam-2
_cod_depositor_comments
;
The following automatic conversions were performed:

data item '_exptl_absorpt_correction_type' value 'Multi-Scan' was
changed to 'multi-scan' in accordance with the
/home/data/users/saulius/crontab/automatic-downloads/rss-feeds/RSC/lib/dictionaries/cif_core.dic
dictionary named 'cif_core.dic' version 2.4.2 last updated on
2011-04-26.

Automatic conversion script
Id: cif_fix_values 7556 2019-12-06 15:28:31Z antanas 
;
_cod_original_cell_volume        14783(5)
_cod_database_code               7129421
_shelx_shelxl_version_number     2018/3
_shelx_space_group_comment
;
The symmetry employed for this shelxl refinement is uniquely defined
by the following loop, which should always be used as a source of
symmetry information in preference to the above space-group names.
They are only intended as comments.
;
_diffrn_measurement_detector_type 'Dectris Eiger2 9M'
_olex2_refinement_description
;
1. Fixed Uiso
 At 1.2 times of:
  All C(H) groups, All C(H,H) groups
2.a Secondary CH2 refined with riding coordinates:
 C1(H1A,H1B)
2.b Aromatic/amide H refined with riding coordinates:
 C13(H13), C15(H15)
;
_smtbx_masks_special_details
;
A solvent mask was calculated and 4310 electrons were 
found in a volume of 9807\%A^3^ in 1 void per unit cell. 
This is consistent with the presence of 
1[Zr6C12H16O32] per Unit Cell 
which account for 4672 electrons 
per unit cell.
;
_smtbx_masks_void_probe_radius   1.2
_smtbx_masks_void_truncation_radius 1.2
_shelx_res_file
;
TITL UAM-2 in I4/mmm #139
    uam-2.res
    created by SHELXL-2018/3 at 13:39:10 on 30-Aug-2021
CELL 0.71073 22.7384 22.7384 28.5927 90 90 90
ZERR 8 0.0032 0.0032 0.0057 0 0 0
LATT 2
SYMM -Y,+X,+Z
SYMM -X,-Y,+Z
SYMM +Y,-X,+Z
SYMM +X,-Y,-Z
SYMM -X,+Y,-Z
SYMM +Y,+X,-Z
SYMM -Y,-X,-Z
SFAC C H Cu I N O Zr
UNIT 144 96 16 16 64 128 24

L.S. 20
PLAN  24 0 0
CONF
BOND
fmap 2 1 53
MORE -1
BOND $H
ABIN
ACTA 54
REM <olex2.extras>
REM <HklSrc "%.\\UAM-2.hkl">
REM </olex2.extras>

WGHT    0.135500  140.775803
FVAR       0.03103
ZR1   7    0.000000    0.391914    0.000000    10.25000    0.02736    0.02766 =
         0.02573    0.00000    0.00000    0.00000
C1    1   -0.165865    0.165865    0.140280    10.50000    0.03305    0.03305 =
         0.04791   -0.00438    0.00438   -0.01057
AFIX  23
H1A   2   -0.156029    0.156027    0.172350    10.50000   -1.20000
H1B   2   -0.141865    0.141868    0.119727    10.50000   -1.20000
AFIX   0
ZR2   7    0.077580    0.500000    0.061712    10.50000    0.04134    0.03057 =
         0.04266    0.00000   -0.01659    0.00000
CU3   3   -0.240033    0.240033    0.208212    10.50000    0.04938    0.04938 =
         0.02942   -0.00855    0.00855   -0.01497
I4    4   -0.318209    0.318209    0.224027    10.50000    0.10500    0.10500 =
         0.04176    0.00072   -0.00072    0.04620
N11   5   -0.153978    0.227960    0.131736    11.00000    0.03743    0.03480 =
         0.04070   -0.00143    0.01055   -0.01049
N12   5   -0.177492    0.268193    0.161580    11.00000    0.06122    0.03878 =
         0.03821   -0.00964    0.01844   -0.01443
C13   1   -0.159968    0.319770    0.143854    11.00000    0.06492    0.04287 =
         0.05439   -0.01557    0.02644   -0.02477
AFIX  43
H13   2   -0.171288    0.356263    0.155459    11.00000   -1.20000
AFIX   0
C14   1   -0.122686    0.311780    0.105881    11.00000    0.04454    0.03832 =
         0.04408   -0.00698    0.01070   -0.00879
C15   1   -0.120155    0.252766    0.098575    11.00000    0.03754    0.04797 =
         0.03432   -0.00282    0.00734   -0.01238
AFIX  43
H15   2   -0.099199    0.233393    0.075276    11.00000   -1.20000
AFIX   0
C16   1   -0.093220    0.358579    0.078836    11.00000    0.05273    0.03456 =
         0.04368   -0.00122    0.01848   -0.00602
O17   6   -0.106945    0.411080    0.088015    11.00000    0.07380    0.03851 =
         0.06304   -0.00612    0.03554   -0.01130
O18   6   -0.058755    0.341528    0.046489    11.00000    0.04378    0.03936 =
         0.03356    0.00102    0.00751   -0.00181
O21   6    0.000000    0.446568    0.061787    10.50000    0.03855    0.03732 =
         0.15062   -0.04495    0.00000    0.00000
O22   6    0.078375    0.447094    0.000000    10.50000    0.14928    0.08664 =
         0.04694    0.00000    0.00000   -0.08993
O23   6    0.069115    0.500000    0.137745    10.50000    0.18611    0.04154 =
         0.02952    0.00000   -0.01793    0.00000
O24   6    0.174081    0.500000    0.057520    10.50000    0.03277    0.06530 =
         0.14884    0.00000   -0.02478    0.00000
HKLF 4




REM  UAM-2 in I4/mmm #139
REM wR2 = 0.2306, GooF = S = 1.079, Restrained GooF = 1.079 for all data
REM R1 = 0.0740 for 4573 Fo > 4sig(Fo) and 0.0751 for all 4771 data
REM 125 parameters refined using 0 restraints

END

WGHT      0.1354    140.8365

REM Highest difference peak  1.354,  deepest hole -2.369,  1-sigma level  0.185
Q1    1  -0.2819  0.3396  0.2381  11.00000  0.05    1.35
Q2    1   0.0000  0.3020  0.0438  10.50000  0.05    1.14
Q3    1   0.2146  0.5144  0.0773  11.00000  0.05    0.99
Q4    1   0.1990  0.5000  0.0983  10.50000  0.05    0.99
Q5    1  -0.1565  0.2388  0.0646  11.00000  0.05    0.82
Q6    1  -0.0949  0.2864  0.0601  11.00000  0.05    0.73
Q7    1  -0.0826  0.3358  0.0000  10.50000  0.05    0.72
Q8    1  -0.3122  0.3628  0.1957  11.00000  0.05    0.67
Q9    1  -0.2067  0.2067  0.0986  10.50000  0.05    0.66
Q10   1  -0.1219  0.2880  0.1773  11.00000  0.05    0.65
Q11   1   0.2001  0.5000  0.0000  10.25000  0.05    0.63
Q12   1  -0.1591  0.1591  0.1896  10.50000  0.05    0.61
Q13   1  -0.1434  0.1434  0.0824  10.50000  0.05    0.60
Q14   1  -0.1500  0.2754  0.0689  11.00000  0.05    0.59
Q15   1  -0.1811  0.1095  0.0964  11.00000  0.05    0.57
Q16   1  -0.3538  0.3538  0.2326  10.50000  0.05    0.56
Q17   1  -0.1202  0.1201  0.1169  10.50000  0.05    0.55
Q18   1  -0.2271  0.2790  0.1770  11.00000  0.05    0.53
Q19   1  -0.3625  0.2565  0.2173  11.00000  0.05    0.52
Q20   1  -0.0788  0.2225  0.0981  11.00000  0.05    0.52
Q21   1   0.1030  0.4389  0.0000  10.50000  0.05    0.49
Q22   1  -0.0439  0.0787  0.0453  11.00000  0.05    0.49
Q23   1   0.1592  0.5000  0.0357  10.50000  0.05    0.49
Q24   1  -0.1176  0.3576  0.0181  11.00000  0.05    0.49
;
_shelx_res_checksum              21467
_shelx_fab_file
;
0 0 2 358.9402 14.0326
0 0 4 707.0867 -2.5676
0 0 6 197.5189 1.4786
0 0 8 28.7684 -1.1860
0 0 10 158.9700 -3.4428
0 0 12 -272.9660 4.9043
0 0 14 -266.5335 -7.7957
0 0 16 204.0189 7.4460
0 0 20 227.2407 3.8744
0 0 22 13.1042 -3.2443
0 0 24 3.0115 0.2695
0 0 26 38.0032 -0.9815
0 0 28 -70.5242 -1.3005
0 0 30 -105.5650 1.2809
0 0 32 -72.2216 -1.0200
0 0 34 -6.3760 1.0900
0 0 36 34.6645 -0.8736
0 0 38 41.0475 -0.2991
1 0 1 258.7508 -3.5986
1 0 3 -219.8070 -3.7880
1 0 5 201.7740 4.1759
1 0 7 -59.7738 -3.9610
1 0 9 -170.6885 1.4093
1 0 11 -147.8469 -1.8104
1 0 13 -285.2398 1.6366
1 0 15 -89.6733 -0.6027
1 0 17 59.5815 -0.1525
1 0 19 127.2969 0.9675
1 0 21 118.1372 -0.9653
1 0 23 -9.4733 -0.1606
1 0 25 13.2889 -1.0220
1 0 27 -26.7597 0.0523
1 0 29 -90.1956 -0.3651
1 0 31 -83.7439 0.3479
1 0 33 -40.8194 -0.0323
1 0 35 7.7237 0.3962
1 0 37 35.2857 -0.3710
1 0 39 -7.6884 -0.4186
1 1 0 826.2164 -3.6083
1 1 2 623.4989 -1.0496
1 1 4 -69.9125 -2.0836
1 1 6 -102.4456 2.7405
1 1 8 -98.6119 1.3173
1 1 10 -76.3676 -0.1739
1 1 12 -280.5626 1.4140
1 1 14 -170.8555 -2.2305
1 1 16 19.4635 2.3689
1 1 18 75.6841 -1.7164
1 1 20 90.6104 1.1429
1 1 22 -3.0278 -0.3158
1 1 24 50.1281 0.1337
1 1 26 -22.8425 0.8416
1 1 28 -73.2488 -0.5825
1 1 30 -90.5687 0.4313
1 1 32 -68.8120 -0.3279
1 1 34 -12.3034 -0.0816
1 1 36 22.5979 0.4187
1 1 38 15.1074 0.0894
2 0 0 408.5447 22.7230
2 0 2 -461.0636 -3.0024
2 0 8 -207.4284 1.1043
2 0 10 -125.6871 0.7921
2 0 12 -212.0316 -1.2362
2 0 14 -160.8989 2.1939
2 0 16 27.4046 -4.2061
2 0 18 -32.7620 1.6916
2 0 20 99.0663 -1.4276
2 0 22 38.4611 1.4553
2 0 24 -9.9905 0.1072
2 0 26 -15.3827 0.3408
2 0 28 -55.5649 0.7550
2 0 30 -94.9442 -1.2294
2 0 32 -49.8602 0.4151
2 0 34 -10.4713 -0.7818
2 0 36 16.4520 -0.4542
2 0 38 -12.5792 0.7388
2 1 1 19.2212 -0.9347
2 1 3 -127.6197 0.3277
2 1 5 -209.4002 -2.4335
2 1 7 -175.4390 4.0650
2 1 9 65.0400 -5.2135
2 1 11 -162.5015 5.8823
2 1 13 -111.1300 -7.8564
2 1 15 -33.8016 4.8536
2 1 17 106.1760 -5.3618
2 1 19 52.3488 1.3319
2 1 21 83.4659 -0.1104
2 1 23 27.2270 -1.6666
2 1 25 -4.1004 3.4504
2 1 27 -15.8303 -4.5822
2 1 29 -76.8939 4.1348
2 1 31 -25.2846 -4.4913
2 1 33 -31.3034 1.7797
2 1 35 5.8830 -2.0247
2 1 37 26.3479 1.1327
2 1 39 20.3880 0.5236
2 2 0 -398.7455 -17.3629
2 2 2 400.2684 7.5893
2 2 4 97.6348 0.2956
2 2 6 -67.8789 -0.1536
2 2 8 -146.4950 2.6170
2 2 10 -86.8003 -1.0489
2 2 12 -76.2413 3.7158
2 2 14 -10.0122 -4.9703
2 2 16 42.9277 0.7151
2 2 18 103.7000 -2.2461
2 2 20 -6.3652 -0.2373
2 2 22 39.0851 2.2300
2 2 24 9.6499 -0.3763
2 2 26 -18.4357 1.8965
2 2 28 -52.4463 -0.8033
2 2 30 -59.9383 0.0048
2 2 32 -38.2418 -0.5454
2 2 34 -8.0270 -1.1332
2 2 36 17.3658 0.7537
2 2 38 9.3158 -0.6166
3 0 1 -3.1691 0.3466
3 0 3 -321.3854 7.3971
3 0 5 -125.9919 -10.4561
3 0 7 -156.8389 4.8569
3 0 9 -141.0074 -12.9845
3 0 11 -14.0361 6.8284
3 0 13 -59.4375 -10.1512
3 0 15 -17.0740 7.4030
3 0 17 61.7077 -2.1842
3 0 19 61.5586 0.2394
3 0 21 25.7118 -0.2743
3 0 23 -1.6882 -5.3746
3 0 25 -2.4860 2.0140
3 0 27 -33.8323 -6.7741
3 0 29 -45.0163 4.2361
3 0 31 -41.4337 -3.9430
3 0 33 -11.8881 3.1767
3 0 35 3.5926 -2.1842
3 0 37 20.5605 0.0430
3 1 0 43.5836 1.8179
3 1 2 -283.4901 2.6435
3 1 4 78.7183 -3.7475
3 1 6 -100.5317 1.4551
3 1 8 6.6958 1.0591
3 1 10 -64.8581 -4.8805
3 1 12 -33.3933 4.4167
3 1 14 4.4458 -3.2201
3 1 16 25.5790 1.9608
3 1 18 30.0236 -0.4323
3 1 20 38.6481 -0.6866
3 1 22 34.9557 1.5001
3 1 24 0.3099 -2.4200
3 1 26 -27.3577 2.7906
3 1 28 -39.2650 -1.9526
3 1 30 -43.4777 0.7037
3 1 32 -30.5352 0.3386
3 1 34 1.9099 -0.6810
3 1 36 8.5166 0.9647
3 1 38 4.4069 -1.9747
3 2 1 -107.3390 2.2277
3 2 3 25.9950 -2.0691
3 2 5 -57.8394 3.2666
3 2 7 -21.6494 -1.1407
3 2 9 -19.2732 6.5391
3 2 11 -63.8064 -1.3541
3 2 13 19.1072 2.8892
3 2 15 20.6372 -1.6736
3 2 17 14.5996 0.1776
3 2 19 25.6748 0.1007
3 2 21 46.3766 0.5077
3 2 23 28.7141 2.9060
3 2 25 -18.1604 0.5109
3 2 27 -22.4013 2.7210
3 2 29 -21.6134 -0.8930
3 2 31 -15.5894 0.9977
3 2 33 -6.4887 -0.7831
3 2 35 5.7591 0.9477
3 2 37 0.0804 -0.0614
3 3 0 -45.8747 -11.4352
3 3 2 -105.7996 7.6650
3 3 4 135.9362 -10.2459
3 3 6 -69.0252 3.5710
3 3 8 -62.4114 -4.1496
3 3 10 -75.3575 -0.5567
3 3 12 50.4990 2.5061
3 3 14 43.7188 -5.5950
3 3 16 43.0148 6.6228
3 3 18 -26.3930 -6.8362
3 3 20 -3.7667 5.1711
3 3 22 13.2156 -5.3737
3 3 24 13.7051 2.7272
3 3 26 -11.6259 -2.4505
3 3 28 -5.5527 -0.3026
3 3 30 3.3777 0.7140
3 3 32 -1.1553 -1.6926
3 3 34 -10.0366 2.0149
3 3 36 -2.7845 -2.2653
3 3 38 2.1802 1.5446
4 0 0 428.3246 -3.1158
4 0 2 -106.1687 1.6006
4 0 4 -58.4747 -0.9771
4 0 6 8.3207 1.4317
4 0 8 -35.5603 5.0576
4 0 10 24.7146 -4.6000
4 0 12 12.8532 6.3085
4 0 14 23.6719 -5.3306
4 0 16 42.1136 0.4444
4 0 18 -1.7179 1.3437
4 0 20 30.3307 -4.3355
4 0 22 -3.1536 6.3622
4 0 24 -21.5145 -4.3455
4 0 26 -23.8586 4.5728
4 0 28 -24.7598 -1.8299
4 0 30 -28.3083 -0.4574
4 0 32 1.5347 1.3620
4 0 34 2.6079 -3.1222
4 0 36 7.6183 3.1337
4 1 1 -159.2782 -2.9415
4 1 3 37.1001 3.7395
4 1 5 22.5368 0.1200
4 1 7 -62.8341 -0.7630
4 1 9 -10.3382 2.7989
4 1 11 25.2661 -2.6535
4 1 13 0.7352 5.1660
4 1 15 44.7650 -2.5920
4 1 17 7.3096 2.2571
4 1 19 -15.7464 0.1781
4 1 21 -9.2041 0.0850
4 1 23 7.9716 1.5271
4 1 25 -13.2078 -1.4825
4 1 27 -27.4139 2.8938
4 1 29 -12.8650 -1.8200
4 1 31 -7.9289 2.3648
4 1 33 7.6470 -1.1920
4 1 35 3.2616 1.3079
4 1 37 5.1820 -0.2962
4 2 0 -355.2926 1.6089
4 2 2 85.1351 2.7845
4 2 4 19.5962 -3.5728
4 2 6 42.5946 2.1598
4 2 8 -10.4915 -1.8385
4 2 10 51.6694 0.8196
4 2 12 67.0878 -0.7376
4 2 14 47.6801 0.5401
4 2 16 -15.0400 1.9891
4 2 18 -5.6550 -2.2870
4 2 20 -34.8187 2.9147
4 2 22 12.3354 -3.4458
4 2 24 21.8820 2.4139
4 2 26 -13.4484 -2.2730
4 2 28 -2.9455 1.1199
4 2 30 4.9188 -0.0943
4 2 32 9.8870 -0.6388
4 2 34 1.1250 1.5074
4 2 36 -6.7919 -1.4476
4 2 38 7.7806 2.1411
4 3 1 -26.9294 4.4322
4 3 3 100.5409 -3.0709
4 3 5 48.7896 -2.0727
4 3 7 -44.9247 -1.0966
4 3 9 -3.8732 -0.3706
4 3 11 -5.8396 1.6111
4 3 13 39.2661 -4.6719
4 3 15 35.2193 3.1714
4 3 17 -27.5093 -4.8408
4 3 19 -24.4653 2.2817
4 3 21 0.2185 -2.2194
4 3 23 14.8549 -0.0200
4 3 25 8.0825 1.1231
4 3 27 -1.0625 -3.4859
4 3 29 1.8411 3.2195
4 3 31 -2.4509 -4.1187
4 3 33 0.5450 1.7717
4 3 35 -10.0076 -1.7551
4 3 37 -6.5466 0.7328
4 4 0 -163.0888 -3.1932
4 4 2 92.7394 1.0936
4 4 4 82.3732 0.2794
4 4 6 -12.1570 -0.2709
4 4 8 -50.8396 5.6289
4 4 10 41.6464 -6.4297
4 4 12 66.4710 9.0972
4 4 14 48.0397 -3.7019
4 4 16 -19.1318 3.8350
4 4 18 -51.6458 5.1433
4 4 20 -39.7255 -4.5534
4 4 22 -13.2843 9.0194
4 4 24 8.3464 -6.9640
4 4 26 -1.2762 6.2306
4 4 28 38.7260 -1.7102
4 4 30 57.7599 0.1939
4 4 32 25.2371 4.2450
4 4 34 -3.4416 -3.4932
4 4 36 -10.0400 5.5524
4 4 38 8.5852 -2.4209
5 0 1 73.9864 2.3376
5 0 3 -49.0777 -4.9293
5 0 5 246.1941 -0.5350
5 0 7 129.9892 -14.0032
5 0 9 21.4050 3.6067
5 0 11 109.1598 -14.5812
5 0 13 109.0479 8.3714
5 0 15 12.7222 -8.0769
5 0 17 -17.7572 3.7610
5 0 19 -64.6347 -3.2764
5 0 21 2.0943 -3.1300
5 0 23 -25.8421 -0.8537
5 0 25 -29.8750 -8.8730
5 0 27 3.9185 3.4498
5 0 29 10.6921 -8.0422
5 0 31 11.4000 4.6314
5 0 33 23.9928 -4.1963
5 0 35 11.3189 1.2138
5 1 0 20.1982 1.1457
5 1 2 47.7612 -4.1958
5 1 4 -39.1639 4.9099
5 1 6 34.0749 -4.2644
5 1 8 -43.9615 -1.6465
5 1 10 25.8135 5.5384
5 1 12 98.1384 -5.3550
5 1 14 32.8095 4.1002
5 1 16 -2.1502 -2.9660
5 1 18 -36.0713 1.9585
5 1 20 -45.5448 -1.0693
5 1 22 -27.6171 -0.2465
5 1 24 -2.0921 1.2030
5 1 26 -10.8797 -2.4409
5 1 28 9.2185 1.8712
5 1 30 -3.4835 -1.1661
5 1 32 26.4507 0.7615
5 1 34 14.2089 -0.4954
5 1 36 -5.0278 0.1201
5 2 1 -145.3407 -1.1037
5 2 3 -51.0682 1.3223
5 2 5 -8.4985 1.4225
5 2 7 5.6261 1.7882
5 2 9 -30.1390 -3.3223
5 2 11 77.5290 4.0864
5 2 13 57.1373 -3.3318
5 2 15 11.2854 2.8705
5 2 17 -40.1051 -0.9072
5 2 19 -58.4693 0.7961
5 2 21 -54.2033 0.0377
5 2 23 1.1531 -0.8539
5 2 25 3.5358 1.5502
5 2 27 16.1227 -1.8501
5 2 29 24.1959 1.7310
5 2 31 32.3333 -1.3214
5 2 33 13.2400 1.8171
5 2 35 -2.9551 -0.5933
5 2 37 -4.2723 0.3777
5 3 0 -185.1505 3.7556
5 3 2 23.7721 1.8769
5 3 4 21.1955 3.6258
5 3 6 90.0272 -2.0970
5 3 8 -14.2539 4.5260
5 3 10 18.1732 -3.4428
5 3 12 73.6850 1.8691
5 3 14 53.8447 0.6423
5 3 16 -60.0515 -1.8277
5 3 18 -65.8798 3.1223
5 3 20 -55.5161 -2.4947
5 3 22 -14.1108 3.5855
5 3 24 -1.3606 -3.3973
5 3 26 6.2903 3.3072
5 3 28 37.3460 -1.3744
5 3 30 36.3780 0.1554
5 3 32 22.2241 1.4070
5 3 34 4.4142 -1.6418
5 3 36 -11.7751 2.1028
5 4 1 37.4973 -0.1169
5 4 3 10.1462 8.5083
5 4 5 25.9685 -10.3578
5 4 7 -21.8330 8.8403
5 4 9 13.9075 -12.0808
5 4 11 24.0931 7.6037
5 4 13 41.6700 -4.8163
5 4 15 -9.2848 4.0635
5 4 17 -61.5476 2.2172
5 4 19 -82.1880 -2.5167
5 4 21 -37.1878 3.6080
5 4 23 3.6236 -4.2002
5 4 25 3.7156 2.2513
5 4 27 20.2120 -2.9653
5 4 29 -23.1198 2.3482
5 4 31 22.7812 -0.5863
5 4 33 6.1380 0.9441
5 4 35 -7.9904 -0.2019
5 4 37 5.8713 0.2845
5 5 0 -5.3902 -11.8996
5 5 2 10.1078 6.5874
5 5 4 40.7529 -10.0845
5 5 6 67.2089 4.5537
5 5 8 36.0825 -2.4948
5 5 10 69.8421 0.3221
5 5 12 131.6915 1.7090
5 5 14 26.0669 -8.3844
5 5 16 -44.5229 1.9830
5 5 18 -67.9673 -10.0013
5 5 20 -57.8751 3.8653
5 5 22 -15.8713 -5.8546
5 5 24 15.1942 3.8076
5 5 26 11.6590 -2.7061
5 5 28 36.1652 -0.6214
5 5 30 65.5022 -0.4968
5 5 32 34.7127 -3.8463
5 5 34 -8.7794 0.4116
5 5 36 -8.6804 -3.0515
5 5 38 -3.7523 1.5148
6 0 0 1.8203 -3.0068
6 0 2 -107.1035 -2.4559
6 0 4 49.9615 -0.7827
6 0 6 -77.5772 1.8086
6 0 8 51.2544 -6.6042
6 0 10 52.1631 11.1843
6 0 12 11.3663 -7.9341
6 0 14 77.1963 2.7528
6 0 16 -25.6848 1.2072
6 0 18 -54.8528 -7.7104
6 0 20 -61.1696 10.6265
6 0 22 -28.0299 -11.9191
6 0 24 -31.7483 12.1793
6 0 26 14.1147 -8.3676
6 0 28 10.9114 3.6134
6 0 30 -0.3946 0.5271
6 0 32 16.5862 -4.8331
6 0 34 9.6476 6.3326
6 0 36 -22.2528 -6.7297
6 1 1 -41.2449 4.2658
6 1 3 -25.2973 -5.9323
6 1 5 1.5139 1.3385
6 1 7 44.3600 1.6689
6 1 9 72.1059 -0.7453
6 1 11 90.9585 -0.8501
6 1 13 78.3421 2.0028
6 1 15 5.6701 0.4137
6 1 17 -46.8894 2.8879
6 1 19 -60.4100 0.2088
6 1 21 -58.6273 0.7598
6 1 23 -26.5770 -0.5508
6 1 25 -11.3098 -0.1480
6 1 27 29.0613 0.4463
6 1 29 41.2387 0.0062
6 1 31 43.1868 1.1225
6 1 33 22.1684 0.7996
6 1 35 2.4589 -0.0255
6 2 0 -223.4712 -0.3608
6 2 2 33.7020 -8.0085
6 2 4 28.6611 8.2875
6 2 6 -37.3658 -3.3006
6 2 8 21.8868 0.3267
6 2 10 51.0445 -0.7620
6 2 12 68.2620 -2.4067
6 2 14 53.5940 3.5118
6 2 16 -11.6448 -3.7258
6 2 18 -81.6355 4.0037
6 2 20 -79.4170 -4.0749
6 2 22 -39.0212 2.8841
6 2 24 -9.8822 -3.1542
6 2 26 9.8165 1.5853
6 2 28 29.4600 -1.1614
6 2 30 22.0558 0.4353
6 2 32 28.1186 0.2598
6 2 34 6.1820 -0.4242
6 2 36 -8.5514 1.0113
6 3 1 -162.6451 -7.4087
6 3 3 -129.4377 9.7343
6 3 5 -53.8691 -4.2696
6 3 7 -8.0716 4.2566
6 3 9 62.5198 -4.0767
6 3 11 81.0690 3.8283
6 3 13 70.1613 -4.2318
6 3 15 -8.0803 0.8404
6 3 17 -64.6714 -1.8134
6 3 19 -66.4387 -0.8977
6 3 21 -35.7040 0.7456
6 3 23 -14.2239 -1.5077
6 3 25 -2.2030 2.2080
6 3 27 19.6577 -1.6362
6 3 29 41.6072 1.2663
6 3 31 31.2236 -1.3177
6 3 33 22.7509 -0.0975
6 3 35 -0.8239 -0.6902
6 3 37 -2.9066 -0.6086
6 4 0 -195.9341 11.3888
6 4 2 10.6183 4.4388
6 4 4 -9.2406 -7.3235
6 4 6 -27.4207 2.0328
6 4 8 31.7506 -1.4576
6 4 10 76.6861 -0.0626
6 4 12 36.5178 -0.1054
6 4 14 -8.5034 -2.6959
6 4 16 -26.0478 0.5802
6 4 18 -67.8206 -3.3076
6 4 20 -56.8716 1.3087
6 4 22 -23.6650 -2.2497
6 4 24 5.3065 1.6035
6 4 26 16.2668 -1.0312
6 4 28 38.3375 0.6443
6 4 30 38.3010 -1.1968
6 4 32 22.3434 -0.6366
6 4 34 0.0751 -0.2630
6 4 36 -11.3083 -1.5579
6 5 1 9.3163 6.1458
6 5 3 -24.5626 -7.1574
6 5 5 23.0803 5.8251
6 5 7 45.8659 -8.6206
6 5 9 73.0220 11.7245
6 5 11 76.7513 -7.4863
6 5 13 39.2627 5.0307
6 5 15 -17.2301 -1.4325
6 5 17 14.7333 -0.1272
6 5 19 -41.5381 2.3954
6 5 21 -33.0030 -3.2624
6 5 23 3.0821 4.1178
6 5 25 11.4099 -2.8571
6 5 27 35.7476 2.3622
6 5 29 34.5964 -1.2762
6 5 31 36.9219 0.4256
6 5 33 9.9970 -0.0911
6 5 35 -4.9033 0.6589
6 5 37 -3.6064 0.6367
6 6 0 -24.4471 -10.7639
6 6 2 15.5800 7.0025
6 6 4 -9.5190 -8.9350
6 6 6 55.2209 4.5334
6 6 8 65.1377 1.9185
6 6 10 88.3818 -9.5771
6 6 12 49.9506 14.7675
6 6 14 26.0909 -10.6688
6 6 16 -20.7013 13.7065
6 6 18 -45.1987 -2.5823
6 6 20 -47.0530 2.1103
6 6 22 -8.0315 2.7445
6 6 24 7.7936 -4.0483
6 6 26 -22.6597 3.6041
6 6 28 20.0624 -1.8150
6 6 30 15.1334 1.1931
6 6 32 14.5666 3.5262
6 6 34 3.9994 -1.3955
6 6 36 -9.0450 3.5356
7 0 1 13.7573 2.0606
7 0 3 -133.6200 -0.4221
7 0 5 8.7419 1.5706
7 0 7 -9.9501 -8.7764
7 0 9 92.4843 -4.7347
7 0 11 78.0325 -1.0697
7 0 13 44.2579 -3.3624
7 0 15 18.8032 5.0933
7 0 17 -37.8950 -1.0846
7 0 19 -79.4605 2.9638
7 0 21 -38.7664 -3.4511
7 0 23 -38.7685 -3.2450
7 0 25 6.6398 -1.9333
7 0 27 22.4461 -4.6292
7 0 29 50.6790 2.7566
7 0 31 44.5931 -1.6718
7 0 33 29.6690 2.5609
7 0 35 -9.8638 -0.7327
7 1 0 -132.9227 0.6938
7 1 2 -92.9653 1.0956
7 1 4 5.0624 -2.0162
7 1 6 -23.1019 2.8051
7 1 8 -17.1672 -0.9966
7 1 10 133.3630 -0.5777
7 1 12 46.3748 -0.3258
7 1 14 24.2600 0.4408
7 1 16 0.6588 0.9596
7 1 18 -63.5204 -1.7203
7 1 20 -61.0537 3.6217
7 1 22 -44.7056 -3.3991
7 1 24 -21.5742 2.3911
7 1 26 14.7833 -1.3745
7 1 28 27.4569 0.4587
7 1 30 3.5616 0.6918
7 1 32 0.7397 -1.0931
7 1 34 -0.2048 2.2384
7 2 1 -166.1404 -1.6489
7 2 3 -129.1929 0.2556
7 2 5 -62.7042 0.8301
7 2 7 -12.2016 1.6902
7 2 9 82.7474 3.7538
7 2 11 99.4041 0.6516
7 2 13 66.4496 0.5192
7 2 15 21.7551 -1.2753
7 2 17 -35.2532 -1.0139
7 2 19 -9.9047 -0.2359
7 2 21 -55.8493 1.4926
7 2 23 -37.7145 1.5915
7 2 25 -0.0271 1.2094
7 2 27 15.1911 1.2896
7 2 29 37.6271 -0.1487
7 2 31 33.1599 0.0026
7 2 33 20.3323 -0.9190
7 2 35 4.2425 0.4926
7 3 0 -173.5430 -3.2362
7 3 2 32.4693 -1.1497
7 3 4 -57.2506 -0.1659
7 3 6 -41.2573 0.6221
7 3 8 6.2114 -0.3253
7 3 10 129.8402 1.5231
7 3 12 -1.6179 -0.9574
7 3 14 45.5683 1.5840
7 3 16 -16.9871 -0.6249
7 3 18 -39.3002 1.5705
7 3 20 -50.9485 -0.8397
7 3 22 -47.8010 1.3034
7 3 24 -9.1045 0.4777
7 3 26 18.2512 -0.2387
7 3 28 27.8694 0.4997
7 3 30 33.9049 0.4538
7 3 32 19.3571 -0.2775
7 3 34 6.1598 0.2852
7 3 36 -6.6779 0.2767
7 4 1 -122.5676 5.9063
7 4 3 -109.6432 -7.0935
7 4 5 -55.0871 4.9393
7 4 7 1.7409 -5.0844
7 4 9 108.6152 3.0720
7 4 11 39.9041 -3.7105
7 4 13 35.0502 2.3736
7 4 15 11.7203 -0.9325
7 4 17 -28.2521 -0.3790
7 4 19 -35.5766 1.6343
7 4 21 -0.9386 -2.1483
7 4 23 -29.5154 1.2386
7 4 25 3.0122 -1.9472
7 4 27 30.1918 1.2755
7 4 29 33.3603 -0.8679
7 4 31 36.0724 0.3908
7 4 33 5.8655 0.1317
7 4 35 -0.6765 -0.5997
7 5 0 -74.0319 -2.1061
7 5 2 -83.6647 3.7943
7 5 4 -11.7684 0.7274
7 5 6 -28.2832 -0.5392
7 5 8 38.9374 0.3218
7 5 10 74.3890 -3.5943
7 5 12 41.3274 4.7113
7 5 14 -10.2454 -1.0856
7 5 16 -11.3817 4.2021
7 5 18 -22.3945 -0.3607
7 5 20 -24.8494 1.3017
7 5 22 -19.4771 0.5096
7 5 24 -8.9216 -1.6510
7 5 26 16.7743 1.1986
7 5 28 -16.2484 -0.3485
7 5 30 19.7774 0.6164
7 5 32 2.7745 1.9095
7 5 34 1.5256 -0.7277
7 5 36 -3.7916 0.9006
7 6 1 1.1895 -4.4878
7 6 3 -26.8380 9.7316
7 6 5 -33.3899 -12.1807
7 6 7 -11.0852 12.4428
7 6 9 45.8465 -10.0328
7 6 11 17.3153 8.6977
7 6 13 -10.7049 -4.2307
7 6 15 -24.0908 -0.2185
7 6 17 2.7588 1.8395
7 6 19 -20.4195 -4.8637
7 6 21 -4.6489 4.5320
7 6 23 -5.8186 -3.7021
7 6 25 23.9349 2.8063
7 6 27 29.2435 -1.8280
7 6 29 32.2969 0.7579
7 6 31 8.2681 -0.1262
7 6 33 -3.6780 -1.1394
7 6 35 -2.5857 0.4973
7 6 37 -5.3523 0.5689
7 7 0 77.0635 -3.7125
7 7 2 26.7945 2.1631
7 7 4 19.5377 3.1102
7 7 6 -36.7209 -1.1004
7 7 8 2.4622 3.5150
7 7 10 -9.2996 0.9522
7 7 12 -45.5413 -0.4485
7 7 14 -21.1135 0.4161
7 7 16 -4.0972 -3.9633
7 7 18 7.0938 1.9329
7 7 20 21.7202 -3.1976
7 7 22 0.0303 3.0760
7 7 24 14.5589 -1.3072
7 7 26 29.8543 1.8878
7 7 28 7.6088 -0.6425
7 7 30 14.0588 -0.0882
7 7 32 -1.0844 0.0692
7 7 34 -11.5952 -1.6725
7 7 36 -9.7267 1.3093
8 0 0 58.6024 0.3260
8 0 2 -56.7785 -4.2293
8 0 4 -108.2251 2.5060
8 0 6 46.0601 -6.8065
8 0 8 7.5854 6.1727
8 0 10 71.3336 -9.8680
8 0 12 75.5842 2.2470
8 0 14 40.5514 -2.7407
8 0 16 -15.8862 -7.2782
8 0 18 -41.7134 7.0415
8 0 20 -41.8183 -13.7940
8 0 22 -36.7498 11.4579
8 0 24 -22.7623 -13.4289
8 0 26 31.3916 7.3145
8 0 28 27.7067 -4.6117
8 0 30 3.9439 -2.4123
8 0 32 -9.8205 3.3963
8 0 34 16.0885 -7.0115
8 1 1 -53.3088 -2.2295
8 1 3 -126.4285 3.4611
8 1 5 -50.3252 0.7591
8 1 7 76.1519 -3.0899
8 1 9 65.2816 -1.7206
8 1 11 75.4507 -0.4458
8 1 13 67.6990 -1.4908
8 1 15 26.2271 1.4085
8 1 17 -13.0635 0.2391
8 1 19 -35.8945 0.2666
8 1 21 -38.4472 -1.3241
8 1 23 -40.8099 -0.1553
8 1 25 7.7653 -1.5353
8 1 27 0.2842 -0.9940
8 1 29 20.6577 0.7485
8 1 31 22.4415 -0.3005
8 1 33 19.9079 0.2340
8 2 0 -82.8237 2.9657
8 2 2 -112.3789 5.1440
8 2 4 -105.3573 -4.3939
8 2 6 23.8832 3.7586
8 2 8 25.0657 -1.9466
8 2 10 46.4430 0.1669
8 2 12 71.1597 3.3512
8 2 14 40.5141 -1.7880
8 2 16 -1.1050 3.7044
8 2 18 -26.9231 -0.8242
8 2 20 -37.6657 2.1983
8 2 22 -33.0988 -1.2133
8 2 24 -19.8777 1.2839
8 2 26 19.2650 -0.8140
8 2 28 16.2758 1.0576
8 2 30 14.3446 -0.3525
8 2 32 13.5347 1.3821
8 2 34 9.2564 -0.3739
8 3 1 -84.5409 0.5660
8 3 3 -159.6251 -6.3971
8 3 5 -63.2306 1.6041
8 3 7 -9.8904 -1.0807
8 3 9 57.4744 1.7148
8 3 11 40.9773 -1.3435
8 3 13 41.0191 2.4461
8 3 15 13.5798 -1.4182
8 3 17 -3.5205 0.4367
8 3 19 -10.1693 -0.8427
8 3 21 -18.3424 0.4148
8 3 23 -34.2559 0.1407
8 3 25 -1.0169 -0.5318
8 3 27 14.3198 0.8765
8 3 29 18.7502 -1.5226
8 3 31 17.4429 0.8954
8 3 33 15.4536 -0.5577
8 3 35 -2.8112 0.3923
8 4 0 -5.8670 -8.2392
8 4 2 -28.7768 -4.5210
8 4 4 -76.8718 5.0424
8 4 6 -24.8484 -2.5120
8 4 8 47.0803 0.4852
8 4 10 80.1207 4.2197
8 4 12 37.3694 -4.4258
8 4 14 13.8120 1.7562
8 4 16 16.3644 -3.0074
8 4 18 -6.7515 -0.1312
8 4 20 -9.2984 0.0405
8 4 22 -33.0088 -1.4315
8 4 24 -17.8834 1.9444
8 4 26 6.2049 -1.1087
8 4 28 2.3715 -0.0692
8 4 30 6.4451 0.6595
8 4 32 7.6886 -2.5729
8 4 34 0.0592 1.8655
8 5 1 -26.1890 -3.6731
8 5 3 -91.2385 8.4964
8 5 5 -52.3585 -3.0446
8 5 7 17.0154 2.3673
8 5 9 32.6865 -2.8985
8 5 11 17.7199 2.1995
8 5 13 5.8689 -1.3712
8 5 15 8.8001 2.3520
8 5 17 12.4262 -0.3760
8 5 19 -12.9041 1.4689
8 5 21 -15.0631 0.4473
8 5 23 -2.5896 -0.4749
8 5 25 5.7658 1.4935
8 5 27 17.1198 -1.0932
8 5 29 3.5793 1.5660
8 5 31 3.9221 -0.5163
8 5 33 -5.4788 1.1414
8 5 35 -2.9149 -0.3785
8 6 0 42.7572 19.1057
8 6 2 -5.5387 -1.2141
8 6 4 -22.0550 0.5927
8 6 6 -4.1209 -1.7693
8 6 8 -5.3485 1.6422
8 6 10 -1.7018 -0.1768
8 6 12 -28.3751 -2.7267
8 6 14 -17.8912 2.2707
8 6 16 8.1571 -2.8057
8 6 18 12.1327 1.8983
8 6 20 9.9192 -2.1563
8 6 22 5.4322 1.5004
8 6 24 12.9271 -1.7463
8 6 26 20.6162 0.8155
8 6 28 2.0966 0.0924
8 6 30 -3.2019 -1.4128
8 6 32 -7.8501 0.8104
8 6 34 -6.1945 -0.7729
8 6 36 -3.7739 -0.2035
8 7 1 30.8847 2.3831
8 7 3 32.4303 0.8002
8 7 5 -21.3636 0.0200
8 7 7 -28.9979 -3.3829
8 7 9 -49.5336 0.5353
8 7 11 -50.1248 -0.2301
8 7 13 -32.8960 -2.2233
8 7 15 4.4626 2.7400
8 7 17 -4.7749 -3.1249
8 7 19 17.7632 1.9921
8 7 21 35.7724 -2.1146
8 7 23 15.2810 0.3218
8 7 25 21.9920 0.3624
8 7 27 7.8920 -2.2944
8 7 29 -5.8120 2.2903
8 7 31 -12.8468 -2.2982
8 7 33 -6.6081 1.8635
8 7 35 -4.2695 -0.9502
8 8 0 143.8607 -14.3713
8 8 2 39.7493 7.2492
8 8 4 -35.2794 -13.4898
8 8 6 -53.5316 5.4009
8 8 8 -53.9936 -2.6399
8 8 10 -75.9729 -9.1812
8 8 12 -57.8321 10.5978
8 8 14 -21.1038 -13.7200
8 8 16 -9.8624 11.4337
8 8 18 10.1829 -8.8821
8 8 20 2.9971 3.7148
8 8 22 30.0665 -3.5472
8 8 24 6.5044 -1.5859
8 8 26 26.7797 -0.2737
8 8 28 -11.7102 -2.0912
8 8 30 -22.3939 0.5575
8 8 32 -14.6740 -0.0765
8 8 34 -13.4721 -0.7153
9 0 1 -24.2449 -2.4438
9 0 3 -94.3049 10.6348
9 0 5 -25.3156 -11.2868
9 0 7 17.7709 9.9256
9 0 9 59.5962 -15.1139
9 0 11 60.5246 9.6252
9 0 13 13.3749 -6.1191
9 0 15 17.3690 5.3960
9 0 17 11.5259 3.8582
9 0 19 -56.7415 -2.1923
9 0 21 -16.2208 4.2999
9 0 23 -28.4657 -5.9035
9 0 25 -18.8841 2.2663
9 0 27 -5.2573 -2.9209
9 0 29 4.6342 2.1001
9 0 31 -1.2709 0.6014
9 0 33 17.4918 1.4399
9 1 0 28.1765 0.8148
9 1 2 -73.2909 2.5605
9 1 4 -46.4931 0.0694
9 1 6 -16.9309 -1.8687
9 1 8 42.0139 4.6031
9 1 10 45.5534 -1.9348
9 1 12 41.1909 2.8841
9 1 14 32.9026 -1.3471
9 1 16 19.2155 0.0442
9 1 18 -15.8794 1.4334
9 1 20 -25.7580 -2.5641
9 1 22 -25.3456 4.1695
9 1 24 2.1650 -3.0233
9 1 26 5.7113 3.5762
9 1 28 14.9611 -1.4052
9 1 30 5.9315 0.9602
9 1 32 9.8503 0.6919
9 1 34 25.8974 -2.0084
9 2 1 -15.1253 4.7585
9 2 3 -21.4798 -3.7569
9 2 5 -58.6251 1.4326
9 2 7 19.5403 1.3632
9 2 9 57.3967 1.1252
9 2 11 52.9100 0.8719
9 2 13 23.1360 1.1830
9 2 15 13.9546 -1.3720
9 2 17 6.2203 1.5657
9 2 19 2.4543 -1.4045
9 2 21 -37.4221 1.4152
9 2 23 -11.6153 -0.0289
9 2 25 -8.1823 1.0280
9 2 27 6.3456 1.3833
9 2 29 3.7387 -0.7747
9 2 31 3.6519 0.7241
9 2 33 12.3687 -1.0757
9 3 0 -56.6811 -1.0839
9 3 2 10.1877 -2.8906
9 3 4 -84.6418 -0.8862
9 3 6 -12.4766 -0.7467
9 3 8 91.3152 -1.9760
9 3 10 27.8942 0.9410
9 3 12 -16.9110 -2.1375
9 3 14 36.0561 0.6114
9 3 16 10.6645 -1.9181
9 3 18 11.0222 -0.6973
9 3 20 -12.5312 -0.4165
9 3 22 -21.2556 -1.6009
9 3 24 -19.3764 0.3526
9 3 26 -4.5978 -1.5091
9 3 28 5.3860 0.0734
9 3 30 0.9151 -1.3366
9 3 32 -0.2549 0.1012
9 3 34 9.9351 -0.5608
9 4 1 8.0079 -1.8683
9 4 3 9.6894 0.9869
9 4 5 -54.3296 -0.8664
9 4 7 5.6615 -1.7818
9 4 9 63.4233 0.1782
9 4 11 37.8121 -2.4580
9 4 13 9.4635 -0.9474
9 4 15 9.8408 0.9466
9 4 17 23.1698 -1.7451
9 4 19 3.9364 1.2017
9 4 21 -14.6275 -2.0951
9 4 23 -10.6621 -0.0308
9 4 25 -3.5908 -0.8664
9 4 27 1.8405 -1.3737
9 4 29 1.7516 0.4246
9 4 31 -5.8975 -0.8614
9 4 33 -2.4181 0.5499
9 4 35 11.1335 0.1694
9 5 0 79.9388 0.9435
9 5 2 10.0131 -0.3445
9 5 4 -28.6465 1.2899
9 5 6 -52.2391 1.0874
9 5 8 11.5886 -1.2299
9 5 10 2.2719 0.8328
9 5 12 1.1950 -1.6412
9 5 14 3.0532 1.6780
9 5 16 14.1253 -1.5177
9 5 18 23.9136 1.0750
9 5 20 -8.2398 0.1230
9 5 22 0.5647 0.1023
9 5 24 7.8745 1.1457
9 5 26 6.0074 -1.0156
9 5 28 -0.0479 0.8102
9 5 30 -7.3817 0.4555
9 5 32 -3.3573 -0.5896
9 5 34 -6.5246 0.8122
9 6 1 40.8668 5.5274
9 6 3 0.1355 -1.9428
9 6 5 -35.8520 1.9279
9 6 7 -34.5967 -0.4240
9 6 9 -8.8135 0.4401
9 6 11 -36.8767 0.4689
9 6 13 6.2417 -1.5614
9 6 15 -2.4341 1.0429
9 6 17 31.1034 -1.8304
9 6 19 26.8938 1.3748
9 6 21 21.5516 -1.2815
9 6 23 18.9685 0.5807
9 6 25 10.9505 0.4181
9 6 27 -3.8637 -0.6851
9 6 29 -9.5913 1.0275
9 6 31 -19.4433 -1.5444
9 6 33 -11.2102 1.1171
9 6 35 1.3303 -1.2271
9 7 0 88.1002 -0.0899
9 7 2 37.7359 2.0004
9 7 4 -8.2824 -2.8313
9 7 6 -30.4034 -0.6964
9 7 8 -24.9360 -0.0927
9 7 10 -58.7513 -2.1981
9 7 12 -58.3112 3.5538
9 7 14 -19.8100 -3.5431
9 7 16 1.0143 2.6189
9 7 18 18.6208 -2.3429
9 7 20 30.3992 1.5210
9 7 22 3.3416 -1.0501
9 7 24 24.8471 -0.4493
9 7 26 3.1004 0.4674
9 7 28 -3.4008 -0.6740
9 7 30 -35.6984 0.0637
9 7 32 -18.5446 -0.2659
9 7 34 -6.6985 0.1783
9 7 36 3.4024 0.3832
9 8 1 -53.5366 -1.7535
9 8 3 15.6805 -0.7722
9 8 5 -5.5684 -2.1271
9 8 7 -23.2652 -0.6037
9 8 9 -70.0351 3.4039
9 8 11 -75.1881 -4.6858
9 8 13 -27.5917 6.7666
9 8 15 -9.3753 -5.8576
9 8 17 3.6312 6.0644
9 8 19 28.8693 -4.0837
9 8 21 26.0226 2.0185
9 8 23 28.3484 1.2565
9 8 25 12.0923 -2.6911
9 8 27 -3.0850 4.9061
9 8 29 -23.3101 -4.7497
9 8 31 -25.0915 4.7635
9 8 33 -7.8655 -4.0172
9 8 35 -0.2094 2.2262
9 9 0 118.3043 -4.6884
9 9 2 109.2375 5.2862
9 9 4 15.8507 -1.9739
9 9 6 3.2720 4.3380
9 9 8 -54.3281 2.9602
9 9 10 -57.4878 0.9461
9 9 12 -14.9211 4.9514
9 9 14 8.8445 -3.3387
9 9 16 -9.0621 4.5923
9 9 18 3.1106 -1.8247
9 9 20 22.3745 2.9493
9 9 22 26.1328 1.9889
9 9 24 9.3159 1.6834
9 9 26 0.4017 2.4925
9 9 28 -9.4559 0.1285
9 9 30 -20.8773 1.3144
9 9 32 -14.3679 -0.2226
9 9 34 0.4320 0.2554
10 0 0 51.5043 0.2906
10 0 2 -28.6466 -1.7467
10 0 4 -28.9807 -6.4845
10 0 6 25.2830 1.5352
10 0 8 17.4355 -4.8809
10 0 10 22.4460 3.6033
10 0 12 35.3528 -4.7733
10 0 14 23.1228 -2.8021
10 0 16 29.0729 -2.8618
10 0 18 8.7216 -7.5745
10 0 20 -5.1158 3.2156
10 0 22 -8.8637 -7.9385
10 0 24 -19.4842 6.0854
10 0 26 -13.9345 -5.1276
10 0 28 -20.1247 0.6034
10 0 30 -6.2400 -1.4071
10 0 32 15.9308 -4.6347
10 1 1 45.3286 -3.3485
10 1 3 -9.1691 1.1379
10 1 5 -33.2042 -4.7135
10 1 7 3.8551 3.8073
10 1 9 -17.9767 -3.3545
10 1 11 -6.5294 0.8172
10 1 13 9.9501 -0.9810
10 1 15 9.7483 1.0024
10 1 17 -1.0321 -1.1808
10 1 19 12.2886 -0.1432
10 1 21 -5.0737 0.3412
10 1 23 -15.5995 -1.9465
10 1 25 -5.6058 1.3712
10 1 27 -7.3990 -1.5489
10 1 29 -10.4524 0.8593
10 1 31 2.0736 -0.7672
10 1 33 6.1705 0.3157
10 2 0 55.0159 -5.9945
10 2 2 49.5583 -0.0057
10 2 4 2.2359 2.8397
10 2 6 0.9454 0.2939
10 2 8 1.2530 -0.1455
10 2 10 -23.2134 -0.6600
10 2 12 -26.3527 -0.0977
10 2 14 -14.1892 2.0873
10 2 16 -10.9955 1.5898
10 2 18 16.5825 0.7581
10 2 20 13.4681 1.0019
10 2 22 -19.1342 -0.1509
10 2 24 -0.2127 0.6427
10 2 26 -3.6200 -0.3959
10 2 28 -10.9504 0.4277
10 2 30 -5.5380 1.3045
10 2 32 5.9160 -0.4345
10 3 1 102.1213 -0.6860
10 3 3 21.5647 1.7858
10 3 5 4.2655 2.2137
10 3 7 -11.1700 -2.6985
10 3 9 35.6686 2.0888
10 3 11 3.4446 -1.5630
10 3 13 9.0580 1.3887
10 3 15 -7.8357 -1.8089
10 3 17 8.7202 0.5605
10 3 19 17.2889 0.2481
10 3 21 5.4859 -0.7411
10 3 23 -14.5647 1.4811
10 3 25 2.4346 -1.6125
10 3 27 -9.6640 0.9029
10 3 29 -6.5070 -0.4294
10 3 31 -1.0180 0.4650
10 3 33 -0.3707 -0.2188
10 4 0 88.4434 8.7746
10 4 2 62.3933 1.3470
10 4 4 -14.2653 -1.7939
10 4 6 -15.2717 -0.3764
10 4 8 -5.7270 1.4910
10 4 10 -14.9238 -0.8731
10 4 12 -25.2050 1.7326
10 4 14 -10.3589 -1.1946
10 4 16 11.6343 0.5335
10 4 18 27.7552 -0.0276
10 4 20 17.9316 -0.4474
10 4 22 -6.5687 1.6270
10 4 24 9.8583 -1.2500
10 4 26 -3.7183 1.6952
10 4 28 -3.9391 -0.2060
10 4 30 -5.3728 -0.7214
10 4 32 -4.1594 1.4844
10 4 34 -4.2343 -0.8495
10 5 1 100.8089 -1.4032
10 5 3 37.2023 -1.0924
10 5 5 -15.6464 0.2906
10 5 7 0.1863 2.1898
10 5 9 -16.4203 -0.9020
10 5 11 -6.9444 3.3207
10 5 13 -16.5030 -1.5974
10 5 15 -0.7471 0.8186
10 5 17 27.5181 -0.0578
10 5 19 38.6906 -0.4603
10 5 21 15.0065 1.6394
10 5 23 17.8928 -0.4191
10 5 25 11.5965 1.2948
10 5 27 -6.1139 0.2659
10 5 29 -12.4825 0.3901
10 5 31 -16.0234 -0.1977
10 5 33 -7.1158 0.0068
10 6 0 74.9434 -11.1950
10 6 2 36.6047 -3.3479
10 6 4 -5.9596 3.8848
10 6 6 -17.6151 -0.3465
10 6 8 -32.3197 -0.5165
10 6 10 -42.4273 2.1806
10 6 12 -31.2877 -2.4823
10 6 14 -10.4094 3.0192
10 6 16 5.0508 -1.2046
10 6 18 29.4110 1.4244
10 6 20 28.6859 -0.5434
10 6 22 15.4851 -0.1001
10 6 24 12.9169 1.0816
10 6 26 3.4185 -0.7135
10 6 28 -14.4341 0.1106
10 6 30 -14.4142 0.5293
10 6 32 -8.9344 -0.4559
10 6 34 -2.7923 -0.3623
10 7 1 42.3398 -2.1424
10 7 3 12.9847 -1.8963
10 7 5 -28.0635 1.4712
10 7 7 -36.2033 -1.9182
10 7 9 -60.4083 1.1195
10 7 11 -38.0866 -2.1676
10 7 13 -17.7801 2.1302
10 7 15 -1.2654 -1.4051
10 7 17 -4.3613 1.0252
10 7 19 30.9273 -0.2287
10 7 21 28.6281 0.2208
10 7 23 22.1972 -0.4176
10 7 25 6.1386 -1.0617
10 7 27 -16.0349 0.6798
10 7 29 -23.6016 -1.3202
10 7 31 -16.8878 0.9278
10 7 33 -12.0573 -0.5367
10 7 35 -4.5346 0.8426
10 8 0 79.9941 9.2604
10 8 2 69.4427 3.2575
10 8 4 11.1925 -2.6981
10 8 6 -1.9940 1.6062
10 8 8 -46.7138 1.0138
10 8 10 -75.0260 -0.1141
10 8 12 -25.8126 1.8618
10 8 14 -8.4657 -0.5632
10 8 16 -3.8528 0.7421
10 8 18 14.1123 -0.5661
10 8 20 36.6875 0.6157
10 8 22 20.2587 0.9872
10 8 24 11.7263 0.5864
10 8 26 -6.3638 0.5787
10 8 28 -11.6603 0.2852
10 8 30 -25.1944 0.3562
10 8 32 -3.0591 0.6038
10 8 34 -7.5188 0.3564
10 9 1 25.7614 2.5931
10 9 3 -7.9142 4.0262
10 9 5 29.7466 -1.7972
10 9 7 7.2538 1.6266
10 9 9 -50.4391 -3.1909
10 9 11 -40.3317 5.6306
10 9 13 8.1873 -5.8965
10 9 15 2.7610 6.1666
10 9 17 -0.3900 -4.1220
10 9 19 17.7949 3.7705
10 9 21 19.3784 -1.5891
10 9 23 5.2757 -0.8996
10 9 25 -5.6734 2.7190
10 9 27 -17.3760 -4.2059
10 9 29 -20.5090 5.0259
10 9 31 -12.1152 -3.2319
10 9 33 -1.3598 2.9747
10 10 0 21.9378 -6.6454
10 10 2 44.1154 -0.3133
10 10 4 66.1775 0.4642
10 10 6 25.2207 -2.4268
10 10 8 5.7366 1.5876
10 10 10 -43.2882 -4.8548
10 10 12 6.9690 1.6614
10 10 14 20.8705 -2.6013
10 10 16 9.3410 -1.9368
10 10 18 2.9674 0.4709
10 10 20 23.2869 -4.3881
10 10 22 2.7729 2.6503
10 10 24 2.7753 -4.3560
10 10 26 -12.6371 1.7307
10 10 28 -15.8900 -1.7730
10 10 30 -8.9070 -0.8274
10 10 32 5.8637 0.9590
11 0 1 80.5023 5.4703
11 0 3 36.6190 -9.7457
11 0 5 26.2612 11.4803
11 0 7 -39.0503 -17.9015
11 0 9 -71.4442 14.8113
11 0 11 -31.5704 -13.4997
11 0 13 -1.7711 8.1854
11 0 15 27.1466 -3.3001
11 0 17 48.9237 -2.2543
11 0 19 14.9882 3.6101
11 0 21 19.2926 -5.9725
11 0 23 9.2933 4.2371
11 0 25 -11.2689 -5.1771
11 0 27 -32.9419 2.8991
11 0 29 -28.3551 -2.4133
11 0 31 -6.0240 0.8944
11 1 0 89.6904 2.1876
11 1 2 64.5958 -2.1492
11 1 4 37.7276 -0.1995
11 1 6 6.7077 1.9700
11 1 8 -55.2068 -1.6144
11 1 10 -51.5708 3.3374
11 1 12 -24.2886 0.3477
11 1 14 -8.1977 -1.3396
11 1 16 19.1960 0.8722
11 1 18 18.8399 -1.0702
11 1 20 20.8644 0.7356
11 1 22 11.1240 -0.2714
11 1 24 -19.5186 1.7237
11 1 26 -21.4729 -0.2469
11 1 28 -26.0940 1.4574
11 1 30 -23.5406 -0.7318
11 1 32 -0.9712 0.3535
11 2 1 73.0002 -0.4691
11 2 3 55.0321 1.9727
11 2 5 -14.8288 -0.0891
11 2 7 -27.8241 0.9072
11 2 9 -55.3959 2.1455
11 2 11 -64.9294 -0.7498
11 2 13 -28.8280 0.5543
11 2 15 -6.3074 0.7752
11 2 17 3.1132 -1.7875
11 2 19 15.7064 2.1324
11 2 21 20.1500 -1.4433
11 2 23 6.2316 1.8506
11 2 25 -9.9584 -0.0998
11 2 27 -6.3970 0.5842
11 2 29 -18.3414 0.0714
11 2 31 -10.8754 -0.3283
11 2 33 5.3022 1.3439
11 3 0 96.4861 5.3441
11 3 2 104.4963 1.7583
11 3 4 37.1641 -1.7045
11 3 6 -46.8557 2.1000
11 3 8 -48.5449 -1.1411
11 3 10 -77.1835 -2.6667
11 3 12 -58.0738 1.9383
11 3 14 -35.5343 -3.3448
11 3 16 -5.7356 4.0950
11 3 18 22.1205 -3.7660
11 3 20 18.1253 3.5816
11 3 22 25.2277 -3.2177
11 3 24 6.6748 0.6967
11 3 26 -6.2042 -0.9000
11 3 28 -13.1104 -0.6035
11 3 30 -5.9133 0.7641
11 3 32 -8.5359 -1.1623
11 4 1 108.6965 0.7095
11 4 3 67.4283 0.2136
11 4 5 -9.6311 -1.4157
11 4 7 -38.7935 0.7448
11 4 9 -65.5808 -2.3474
11 4 11 -48.4300 0.8305
11 4 13 -54.4330 0.8046
11 4 15 -11.0912 -1.5594
11 4 17 22.5784 4.0360
11 4 19 23.2996 -2.9235
11 4 21 19.0387 2.2653
11 4 23 30.4269 -1.5292
11 4 25 4.0864 0.1780
11 4 27 -9.3373 0.4802
11 4 29 -11.9348 -1.4004
11 4 31 -12.2158 1.6808
11 4 33 -8.7336 -1.3245
11 5 0 92.9268 -5.3764
11 5 2 79.8008 -2.5532
11 5 4 42.1094 4.3556
11 5 6 8.4842 -3.7997
11 5 8 -36.9560 2.7918
11 5 10 -36.8733 1.5224
11 5 12 -31.6580 -1.8404
11 5 14 -24.4623 3.9724
11 5 16 12.3029 -5.0222
11 5 18 33.8657 4.7877
11 5 20 35.4086 -3.9845
11 5 22 34.9356 3.5508
11 5 24 19.3566 -1.9484
11 5 26 -1.4096 1.9217
11 5 28 -16.1883 -0.4888
11 5 30 -8.2261 -0.3036
11 5 32 -13.6653 0.9572
11 5 34 -5.9740 -0.3451
11 6 1 84.7292 -3.7365
11 6 3 31.4680 -1.3531
11 6 5 -5.3411 -1.6029
11 6 7 -42.3250 3.7396
11 6 9 -44.6039 -1.9270
11 6 11 -10.1554 2.7137
11 6 13 -24.8262 -2.2588
11 6 15 -0.9316 2.1526
11 6 17 21.7505 -1.8046
11 6 19 23.6208 0.6152
11 6 21 33.8837 0.2112
11 6 23 20.6690 -0.4323
11 6 25 15.1215 1.2787
11 6 27 -12.5719 -1.7444
11 6 29 -19.9908 1.7145
11 6 31 -17.1296 -1.0244
11 6 33 -9.2074 0.4196
11 7 0 53.8896 -1.6580
11 7 2 13.2484 -0.3321
11 7 4 -4.4730 -0.6364
11 7 6 -34.0342 0.8831
11 7 8 -59.2616 -2.3577
11 7 10 -56.1077 1.1643
11 7 12 -34.4391 -2.2278
11 7 14 -6.9661 0.5065
11 7 16 -6.0496 -0.8462
11 7 18 10.8951 0.1133
11 7 20 26.2914 -0.0088
11 7 22 24.8021 -1.6729
11 7 24 8.9790 0.2669
11 7 26 -9.0390 -1.7976
11 7 28 -16.0794 0.9122
11 7 30 0.2043 -0.8705
11 7 32 2.0777 -0.2348
11 7 34 -4.2094 0.3882
11 8 1 34.1702 2.5482
11 8 3 33.0313 3.5723
11 8 5 -2.3394 -0.4561
11 8 7 -36.0811 0.2839
11 8 9 -56.5373 -0.5861
11 8 11 -37.3677 0.7709
11 8 13 -14.0224 -1.6234
11 8 15 4.7977 1.6753
11 8 17 0.1468 -2.0528
11 8 19 5.2382 1.3524
11 8 21 8.2629 -1.1642
11 8 23 7.6302 0.0799
11 8 25 -9.2559 0.9894
11 8 27 -20.0208 -1.5199
11 8 29 -24.4157 1.8943
11 8 31 -5.1616 -1.7899
11 8 33 -0.7506 1.5680
11 8 35 -7.4731 -1.9659
11 9 0 -8.0364 9.2696
11 9 2 11.0723 -0.9383
11 9 4 27.8501 0.5267
11 9 6 25.5543 -1.5385
11 9 8 -33.3447 0.6159
11 9 10 -31.2016 -2.5923
11 9 12 -6.1407 1.0645
11 9 14 12.8397 -0.8910
11 9 16 -1.2662 0.1386
11 9 18 11.3937 0.9339
11 9 20 12.0321 -2.3173
11 9 22 10.5051 1.1242
11 9 24 -7.8910 -2.4469
11 9 26 -12.8469 1.2477
11 9 28 -14.0950 -0.5994
11 9 30 -8.5764 -0.3832
11 9 32 -0.7847 0.2715
11 9 34 -1.9202 -0.2976
11 10 1 23.3314 -1.4222
11 10 3 10.4971 0.8022
11 10 5 16.1377 -2.3788
11 10 7 3.7821 0.9766
11 10 9 -16.5733 1.9402
11 10 11 -4.4099 -1.6349
11 10 13 30.5391 2.1943
11 10 15 18.0732 -4.2182
11 10 17 6.6943 1.1916
11 10 19 12.9856 -2.7750
11 10 21 11.3494 1.3254
11 10 23 -0.2298 1.0394
11 10 25 -14.8237 -1.4011
11 10 27 -12.4157 2.5796
11 10 29 -6.3648 -3.5873
11 10 31 7.5745 2.4961
11 10 33 0.1283 -1.6466
11 11 0 4.1050 -6.5978
11 11 2 6.9037 5.3623
11 11 4 6.3258 -7.6739
11 11 6 5.8491 4.5104
11 11 8 -1.3030 -1.8760
11 11 10 11.4946 -2.0640
11 11 12 40.8184 5.0111
11 11 14 25.8603 -5.8409
11 11 16 24.3618 8.3155
11 11 18 3.9843 -4.7841
11 11 20 13.1934 5.4459
11 11 22 -0.1688 -3.1183
11 11 24 -7.5519 1.4865
11 11 26 -12.0714 -0.5966
11 11 28 -5.5514 -1.4315
11 11 30 2.8425 1.7204
11 11 32 17.6741 -0.4045
12 0 0 89.4212 -9.2498
12 0 2 84.7763 3.3343
12 0 4 38.8497 -5.5078
12 0 6 -17.5205 5.6481
12 0 8 -86.2977 3.1732
12 0 10 -89.7024 -3.0510
12 0 12 -39.2145 6.5814
12 0 14 -1.9792 -8.6301
12 0 16 26.3276 1.5225
12 0 18 36.0435 -5.1415
12 0 20 47.7221 -0.2567
12 0 22 37.0142 1.2649
12 0 24 8.2602 -0.0935
12 0 26 -35.9034 2.0556
12 0 28 -8.6560 -0.6708
12 0 30 -30.5007 -0.9973
12 1 1 28.2702 5.5098
12 1 3 90.9229 -2.7460
12 1 5 2.9127 2.8580
12 1 7 -54.3880 -2.9329
12 1 9 -85.3832 3.7576
12 1 11 -58.0288 -1.9293
12 1 13 -15.0209 1.6455
12 1 15 14.3215 -0.4386
12 1 17 22.5117 0.4634
12 1 19 34.1937 0.5092
12 1 21 0.5473 -0.6443
12 1 23 21.3369 1.9577
12 1 25 -12.7883 -1.0808
12 1 27 -36.6950 1.5867
12 1 29 -30.1017 -0.3898
12 1 31 -12.8581 0.5950
12 2 0 19.4430 2.6857
12 2 2 104.7438 3.8675
12 2 4 38.2583 -1.6292
12 2 6 -51.5756 -1.7740
12 2 8 -83.3876 2.0127
12 2 10 -79.9213 -1.2504
12 2 12 -54.8102 1.2461
12 2 14 0.5749 -0.2652
12 2 16 11.3130 0.5948
12 2 18 18.6092 0.7677
12 2 20 24.9825 -0.3765
12 2 22 -1.7510 1.1332
12 2 24 9.9350 -1.0879
12 2 26 -20.6994 0.5557
12 2 28 -20.0946 -0.4534
12 2 30 -14.4154 0.1896
12 2 32 -14.3106 1.0916
12 3 1 93.9622 -0.1297
12 3 3 69.3496 1.6861
12 3 5 20.5935 -1.0884
12 3 7 -82.9780 -0.7335
12 3 9 -95.0796 0.5144
12 3 11 -91.7750 -1.6972
12 3 13 -60.7290 0.5443
12 3 15 -18.6884 -0.7764
12 3 17 13.5792 0.3279
12 3 19 37.3375 -0.6012
12 3 21 35.7588 -0.1014
12 3 23 27.2053 -0.1537
12 3 25 4.0626 -0.7281
12 3 27 -23.0411 0.0853
12 3 29 -18.0266 -0.7433
12 3 31 -14.2842 0.2991
12 4 0 86.1743 -4.6908
12 4 2 102.5846 -1.6753
12 4 4 61.1660 0.6531
12 4 6 -31.8362 0.5156
12 4 8 -61.2127 -1.6900
12 4 10 -55.4344 0.8376
12 4 12 -62.2216 -1.3709
12 4 14 -44.6273 0.2308
12 4 16 -8.6020 0.0265
12 4 18 31.7285 -0.6420
12 4 20 33.6603 0.6017
12 4 22 35.1295 -1.4993
12 4 24 27.1294 1.0394
12 4 26 -5.4371 -1.4126
12 4 28 -15.8121 0.6280
12 4 30 -8.5161 -0.3601
12 4 32 -13.7144 -0.8139
12 5 1 43.9453 0.7401
12 5 3 0.9763 -1.1046
12 5 5 8.7188 0.6622
12 5 7 -55.9646 1.1274
12 5 9 -61.5982 -3.1175
12 5 11 -32.3469 2.2406
12 5 13 -23.1208 -1.6844
12 5 15 -7.5104 1.0828
12 5 17 12.5610 -0.8018
12 5 19 -4.4744 -0.2328
12 5 21 21.8419 0.1094
12 5 23 25.8430 -1.3823
12 5 25 9.0565 0.9611
12 5 27 -8.6147 -1.2407
12 5 29 -12.6204 1.2366
12 5 31 -13.8950 -1.0800
12 5 33 -4.2266 0.4940
12 6 0 24.2984 5.2804
12 6 2 3.7149 0.0690
12 6 4 4.5956 -1.6607
12 6 6 -37.5929 -1.3428
12 6 8 -44.5203 0.8306
12 6 10 -34.2746 0.3560
12 6 12 -19.2164 -2.0667
12 6 14 -1.4098 1.3655
12 6 16 5.7063 -1.2873
12 6 18 16.8853 0.9513
12 6 20 21.9668 -1.1638
12 6 22 22.6252 0.4823
12 6 24 13.1711 -0.9450
12 6 26 -4.3487 0.4072
12 6 28 -9.2838 -0.4603
12 6 30 -10.8268 0.4902
12 6 32 -6.6250 -0.4640
12 7 1 24.5035 2.6960
12 7 3 23.5858 -0.6610
12 7 5 -7.9282 0.8031
12 7 7 -35.0555 -0.6089
12 7 9 -36.3272 -0.0692
12 7 11 -18.5262 0.6646
12 7 13 -5.0960 -1.1151
12 7 15 2.4914 -0.3656
12 7 17 20.4920 -0.8786
12 7 19 14.0476 -0.0278
12 7 21 19.4275 -0.2766
12 7 23 12.0082 0.4438
12 7 25 -9.3738 0.0472
12 7 27 -14.9049 0.5095
12 7 29 -14.9974 -0.3683
12 7 31 -2.2643 -0.2889
12 7 33 -4.4855 0.2707
12 8 0 13.6922 -2.2730
12 8 2 11.2661 -2.3264
12 8 4 1.1846 3.8928
12 8 6 -9.2303 -0.4682
12 8 8 -26.3144 0.6463
12 8 10 -21.2082 -0.5685
12 8 12 8.3859 0.1752
12 8 14 7.0859 0.9334
12 8 16 -3.5951 -0.2610
12 8 18 2.5432 0.7585
12 8 20 2.6360 0.3422
12 8 22 5.7193 0.4283
12 8 24 -3.8391 0.4139
12 8 26 -14.9487 -0.2069
12 8 28 -6.9262 0.3108
12 8 30 -4.9738 -0.1660
12 8 32 3.5241 1.1647
12 8 34 -6.9629 -2.1395
12 9 1 2.9562 -0.1845
12 9 3 14.0616 0.6453
12 9 5 7.5597 -2.1274
12 9 7 -14.1742 0.8856
12 9 9 -30.3566 -1.3437
12 9 11 -8.7180 -0.9646
12 9 13 14.3535 1.5225
12 9 15 10.1826 -0.6273
12 9 17 1.3513 2.3000
12 9 19 0.5341 -0.9883
12 9 21 -7.0789 0.8835
12 9 23 -8.1140 -0.7522
12 9 25 -13.2137 -0.3390
12 9 27 -7.9788 0.4751
12 9 29 -4.9770 -0.8556
12 9 31 1.3937 0.5237
12 9 33 6.1065 -0.5801
12 10 0 -18.8678 -0.2766
12 10 2 -13.7377 5.3291
12 10 4 -1.2713 -5.3965
12 10 6 -1.5262 1.3671
12 10 8 3.3821 -1.5750
12 10 10 2.2185 -0.0507
12 10 12 25.9756 1.7991
12 10 14 25.6739 -2.2099
12 10 16 3.2054 2.6489
12 10 18 0.0341 -2.2451
12 10 20 -9.3299 1.9354
12 10 22 -6.8922 -1.3076
12 10 24 -10.1120 0.3673
12 10 26 -17.4820 -0.4877
12 10 28 -3.6019 -0.2021
12 10 30 8.1956 0.3793
12 10 32 5.5157 -1.3995
12 11 1 -38.2292 5.4668
12 11 3 -0.7185 -5.5060
12 11 5 -12.4576 5.0376
12 11 7 -15.3953 -8.0180
12 11 9 18.4931 5.9229
12 11 11 27.4664 -2.9920
12 11 13 31.7411 0.1458
12 11 15 18.5862 1.6428
12 11 17 -2.9490 -2.9078
12 11 19 -5.1604 2.6736
12 11 21 -21.3025 -3.3428
12 11 23 -9.7304 1.7424
12 11 25 -5.0905 -0.8549
12 11 27 -3.3563 -0.3205
12 11 29 7.1540 0.4247
12 11 31 4.5331 -1.0789
12 12 0 -61.0679 -4.4791
12 12 2 -21.6039 0.8024
12 12 4 -27.8443 1.8827
12 12 6 -20.1384 1.2239
12 12 8 -4.9843 4.1879
12 12 10 49.3778 -1.1343
12 12 12 29.6861 3.2521
12 12 14 15.7008 -1.5103
12 12 16 3.2497 -1.8104
12 12 18 -8.0703 1.6583
12 12 20 -22.9091 -3.0901
12 12 22 -22.2137 4.3702
12 12 24 -8.3351 -1.6366
12 12 26 -9.8567 2.6665
12 12 28 -1.7083 0.4783
12 12 30 8.9681 -0.8549
13 0 1 58.0373 -4.9044
13 0 3 23.7249 4.6826
13 0 5 49.8218 -10.8245
13 0 7 -34.6803 7.9325
13 0 9 -79.0741 -11.9656
13 0 11 -43.2234 3.9429
13 0 13 -4.6402 -3.9816
13 0 15 7.6030 -2.1356
13 0 17 18.4070 1.8139
13 0 19 27.0821 -5.1089
13 0 21 -11.4060 2.3843
13 0 23 18.1072 -4.7557
13 0 25 -15.2768 -0.0938
13 0 27 -24.4312 -1.6087
13 0 29 -40.1157 -1.9886
13 1 0 74.5938 1.8414
13 1 2 63.5321 -0.5064
13 1 4 37.6707 -0.1866
13 1 6 -9.6854 -0.9759
13 1 8 -88.8974 1.6039
13 1 10 -66.6496 0.8722
13 1 12 -18.5557 -2.0030
13 1 14 -1.3805 1.1913
13 1 16 22.2641 -2.1981
13 1 18 34.4694 -0.4040
13 1 20 43.3873 0.2751
13 1 22 31.6344 -0.1476
13 1 24 0.3229 0.5135
13 1 26 -21.8752 0.2831
13 1 28 -10.5243 0.0168
13 1 30 -27.9921 -0.2750
13 2 1 58.0957 -1.5598
13 2 3 44.8162 1.4964
13 2 5 2.0596 -0.7483
13 2 7 -68.7205 0.9294
13 2 9 -94.3193 -0.8078
13 2 11 -71.7978 2.2794
13 2 13 -25.8162 -1.1944
13 2 15 11.4815 -0.4823
13 2 17 22.7228 0.5488
13 2 19 39.4743 -0.8958
13 2 21 37.8230 0.9376
13 2 23 21.0070 -0.9438
13 2 25 -11.5064 1.1686
13 2 27 -26.2436 -0.7108
13 2 29 -24.9259 0.8660
13 2 31 -14.6841 -0.1740
13 3 0 48.3876 -1.0211
13 3 2 36.2305 -1.8867
13 3 4 20.7977 1.7820
13 3 6 -42.4025 -1.7391
13 3 8 -78.7914 0.5656
13 3 10 -74.7571 -0.3552
13 3 12 -44.8814 -0.4077
13 3 14 -31.0505 1.7488
13 3 16 4.2665 -1.9253
13 3 18 17.5849 2.9260
13 3 20 22.2592 -2.9139
13 3 22 19.4236 2.2122
13 3 24 12.9942 -2.0971
13 3 26 -11.9365 0.9343
13 3 28 -1.6090 -0.5269
13 3 30 -15.3460 -0.0841
13 4 1 42.6289 -0.0457
13 4 3 26.0636 -1.4323
13 4 5 9.6714 0.8112
13 4 7 -31.8644 0.1959
13 4 9 -53.9498 -0.0761
13 4 11 -31.6586 -0.3397
13 4 13 -9.4493 -0.6692
13 4 15 -12.9948 2.0452
13 4 17 8.4583 -2.0856
13 4 19 12.7792 2.2223
13 4 21 16.9057 -1.1916
13 4 23 25.9223 0.6382
13 4 25 4.4878 -0.0491
13 4 27 -19.6881 -0.2253
13 4 29 -16.4548 0.7822
13 4 31 -8.2518 -0.9521
13 5 0 37.3806 -0.0966
13 5 2 24.7673 1.2807
13 5 4 12.6505 -2.0532
13 5 6 -13.3034 4.6776
13 5 8 -43.1670 -2.4600
13 5 10 -22.9846 0.1282
13 5 12 -10.6409 2.4479
13 5 14 -11.5734 -2.5930
13 5 16 6.9964 3.0410
13 5 18 20.7524 -3.4494
13 5 20 14.5665 3.3343
13 5 22 16.8543 -1.8946
13 5 24 3.0727 2.5508
13 5 26 -6.9516 -0.9682
13 5 28 -10.4493 0.8368
13 5 30 -11.4832 0.3297
13 5 32 -10.6401 -0.4172
13 6 1 15.8831 -1.9799
13 6 3 -9.5577 1.0784
13 6 5 -9.1732 1.7506
13 6 7 -17.4411 -4.4975
13 6 9 -22.8248 5.0020
13 6 11 -7.3320 -3.9366
13 6 13 -4.8395 2.6774
13 6 15 2.5523 -2.6594
13 6 17 7.5104 1.7386
13 6 19 1.0986 -0.7528
13 6 21 15.6047 0.0363
13 6 23 6.7763 1.0111
13 6 25 -5.4330 -0.9156
13 6 27 -12.2620 1.6600
13 6 29 -11.0488 -1.4770
13 6 31 2.3328 1.6357
13 7 0 6.6890 2.2644
13 7 2 -3.0494 0.1512
13 7 4 -10.0472 0.5013
13 7 6 -16.3024 -0.5694
13 7 8 -20.0554 -0.0404
13 7 10 8.2824 -0.6174
13 7 12 5.2282 1.0798
13 7 14 5.3553 -0.5844
13 7 16 16.6353 0.5110
13 7 18 -3.9850 -0.2231
13 7 20 4.9642 0.5190
13 7 22 -2.6492 -0.0269
13 7 24 1.3463 -0.2834
13 7 26 -3.5728 0.5794
13 7 28 -7.7917 -0.4838
13 7 30 -4.7386 0.5307
13 7 32 1.4155 -0.5628
13 8 1 -11.1552 -4.2981
13 8 3 -6.9409 1.8626
13 8 5 4.7821 -2.6848
13 8 7 -4.5575 2.9010
13 8 9 1.6939 -3.2843
13 8 11 4.2738 0.7707
13 8 13 8.6870 -0.2835
13 8 15 13.1658 1.5509
13 8 17 -6.9391 0.6156
13 8 19 -8.2107 0.5080
13 8 21 -5.7594 -0.0196
13 8 23 -4.4754 -0.9243
13 8 25 -10.0469 -0.3732
13 8 27 -5.1836 -0.6705
13 8 29 3.1144 0.5136
13 8 31 5.0143 0.0753
13 8 33 -1.3378 -0.2891
13 9 0 5.4020 -5.6654
13 9 2 2.2903 -2.2325
13 9 4 6.9460 2.3921
13 9 6 -1.5245 -1.5433
13 9 8 -0.3932 0.8108
13 9 10 11.1170 2.1283
13 9 12 16.4924 -2.2067
13 9 14 13.0693 2.1228
13 9 16 3.3482 -2.2856
13 9 18 -10.7354 1.1240
13 9 20 -9.1897 -0.5890
13 9 22 -16.4842 0.1993
13 9 24 -13.2873 1.1032
13 9 26 -7.6801 -0.5153
13 9 28 -0.4353 0.5532
13 9 30 5.6555 -0.7474
13 9 32 1.9835 0.1837
13 10 1 -14.2292 -0.4614
13 10 3 -3.6251 -1.3308
13 10 5 -22.9725 2.6545
13 10 7 -1.1778 -1.3015
13 10 9 13.9657 1.1655
13 10 11 19.0835 0.2836
13 10 13 21.5219 0.5672
13 10 15 14.4113 -0.1676
13 10 17 1.1521 -0.6804
13 10 19 -15.4697 0.2917
13 10 21 -16.0133 -0.0323
13 10 23 -13.3360 0.7315
13 10 25 -12.2923 0.1210
13 10 27 -6.9873 0.1954
13 10 29 7.1588 0.6687
13 10 31 6.6745 -0.4899
13 11 0 -30.3336 7.6236
13 11 2 -26.0718 0.3252
13 11 4 -8.9387 -1.4218
13 11 6 -8.2093 1.3553
13 11 8 8.2838 1.4919
13 11 10 28.1021 -0.0232
13 11 12 24.7910 1.2316
13 11 14 12.6019 -0.2419
13 11 16 0.2457 -0.4827
13 11 18 -19.1206 0.3496
13 11 20 -29.2502 -0.8319
13 11 22 -23.1930 1.7742
13 11 24 -17.8646 -0.3660
13 11 26 -2.5124 1.4478
13 11 28 1.2992 0.0030
13 11 30 4.2373 0.4366
13 12 1 -32.3321 -0.8228
13 12 3 -15.8842 5.5661
13 12 5 -14.3461 -5.6010
13 12 7 6.4726 5.8086
13 12 9 36.3004 -5.1646
13 12 11 49.1285 4.5101
13 12 13 14.3440 -2.5483
13 12 15 0.9285 1.5447
13 12 17 -11.6525 1.4005
13 12 19 -24.3299 -0.3960
13 12 21 -32.3456 2.1385
13 12 23 -23.1419 -1.8251
13 12 25 -14.1361 1.5180
13 12 27 4.5198 -0.9488
13 12 29 5.8041 0.9885
13 13 0 -48.4133 -2.4873
13 13 2 -27.6180 0.2914
13 13 4 -19.3871 -2.0795
13 13 6 -8.8771 -1.6625
13 13 8 26.7120 -1.6277
13 13 10 53.2054 -4.8662
13 13 12 27.0168 1.2586
13 13 14 -5.0634 -2.6472
13 13 16 -7.1920 1.3913
13 13 18 -28.6126 -0.3887
13 13 20 -35.7618 -1.7309
13 13 22 -35.9891 0.5403
13 13 24 -15.3423 -3.6578
13 13 26 -7.7334 0.4380
13 13 28 5.4110 -2.2986
14 0 0 99.2534 9.8769
14 0 2 30.5170 -9.2036
14 0 4 40.4647 8.0950
14 0 6 -15.9710 -4.0328
14 0 8 -52.2048 2.3605
14 0 10 -53.1894 7.2795
14 0 12 -5.4564 -7.9974
14 0 14 -3.1262 7.3140
14 0 16 22.1260 -9.1495
14 0 18 20.2905 4.2757
14 0 20 36.6886 -2.7536
14 0 22 43.4683 2.2883
14 0 24 -6.5993 1.3607
14 0 26 -11.3938 0.3122
14 0 28 -16.7779 0.8303
14 1 1 34.8249 -2.2663
14 1 3 44.7277 0.4728
14 1 5 9.7272 0.2905
14 1 7 -45.4378 2.4651
14 1 9 -52.0987 -0.7705
14 1 11 -34.9542 1.9008
14 1 13 -15.8807 -0.0575
14 1 15 13.4531 0.1410
14 1 17 38.8004 1.0030
14 1 19 25.4727 0.1581
14 1 21 33.9464 0.5433
14 1 23 14.4438 0.9559
14 1 25 -9.2554 0.7957
14 1 27 -14.1536 0.3015
14 1 29 -24.9755 0.3442
14 2 0 39.3116 -7.9602
14 2 2 45.6996 -1.7369
14 2 4 41.9200 3.6874
14 2 6 -21.0161 -0.5281
14 2 8 -57.5726 -1.8394
14 2 10 -40.9349 1.9865
14 2 12 -30.3712 -2.0912
14 2 14 -3.6370 2.3566
14 2 16 19.0268 -0.6282
14 2 18 21.2107 0.5704
14 2 20 37.2197 0.4688
14 2 22 28.3367 -0.7139
14 2 24 -5.9686 1.1371
14 2 26 -15.2170 -0.4844
14 2 28 -12.9718 0.7389
14 2 30 -13.1112 -0.0943
14 3 1 39.8055 0.0756
14 3 3 32.3658 -2.0259
14 3 5 0.4739 -2.6713
14 3 7 -44.4107 3.9088
14 3 9 -27.2939 -4.4098
14 3 11 -18.1845 4.4912
14 3 13 -9.1034 -3.6121
14 3 15 -0.8955 2.6411
14 3 17 13.4134 -2.2334
14 3 19 7.7338 0.2628
14 3 21 17.1835 0.8864
14 3 23 9.3152 -1.5399
14 3 25 -12.1490 1.6627
14 3 27 -14.3528 -2.2044
14 3 29 -13.7986 1.8442
14 3 31 -0.8658 -1.2418
14 4 0 10.1489 4.1810
14 4 2 8.1132 3.6453
14 4 4 13.1741 -3.6260
14 4 6 -14.3442 -0.8797
14 4 8 -30.9734 2.4659
14 4 10 -17.4010 -1.5821
14 4 12 -2.8254 1.8115
14 4 14 -2.6368 -2.3821
14 4 16 11.1874 -0.0264
14 4 18 1.8803 0.4551
14 4 20 4.4060 -1.5172
14 4 22 11.3148 1.5868
14 4 24 -3.7914 -1.5192
14 4 26 -6.9059 1.2198
14 4 28 -6.3536 -1.0560
14 4 30 -4.5883 0.1532
14 5 1 5.3177 3.1592
14 5 3 1.2229 -0.2886
14 5 5 4.6187 3.4143
14 5 7 -9.9671 -5.4737
14 5 9 1.0026 5.5242
14 5 11 17.6480 -5.3621
14 5 13 -2.1000 4.4072
14 5 15 14.1776 -2.5083
14 5 17 14.6541 2.5301
14 5 19 -7.6544 -0.2815
14 5 21 8.9800 -0.5015
14 5 23 6.1791 1.4566
14 5 25 -7.0620 -2.4710
14 5 27 -3.3738 2.2782
14 5 29 -8.0826 -2.2712
14 5 31 -5.3499 1.9409
14 6 0 9.1433 1.5510
14 6 2 -5.5969 1.5772
14 6 4 3.9404 -2.1575
14 6 6 -7.3120 3.6724
14 6 8 -2.1456 -1.4130
14 6 10 0.1090 -2.4015
14 6 12 9.5169 3.1872
14 6 14 8.9289 -3.4846
14 6 16 11.0406 3.8655
14 6 18 -2.8223 -2.7924
14 6 20 -6.5339 1.9167
14 6 22 4.7869 -1.9332
14 6 24 -11.4937 1.1437
14 6 26 -7.5553 -0.6778
14 6 28 -3.5103 0.5527
14 6 30 0.6306 -0.7649
14 6 32 2.9381 0.8524
14 7 1 0.1769 1.1133
14 7 3 -3.6032 -0.6066
14 7 5 -15.9521 0.1284
14 7 7 -6.9859 1.5202
14 7 9 18.3196 -0.5490
14 7 11 16.9259 0.8856
14 7 13 7.8436 0.4809
14 7 15 6.8865 0.4313
14 7 17 7.6387 -0.5468
14 7 19 -7.8618 0.3556
14 7 21 2.2142 -0.0799
14 7 23 -6.3063 0.2374
14 7 25 -1.2005 0.5479
14 7 27 0.9477 -0.1515
14 7 29 5.3596 0.2810
14 8 0 -1.2087 -1.6216
14 8 2 -0.5941 -0.8280
14 8 4 0.1386 1.1299
14 8 6 0.8721 -2.6045
14 8 8 15.5432 1.2139
14 8 10 15.9722 3.8927
14 8 12 -1.4450 -3.9682
14 8 14 6.8886 3.2441
14 8 16 1.5752 -2.2976
14 8 18 -7.4256 0.5258
14 8 20 -10.3788 -0.4134
14 8 22 -4.3024 0.2977
14 8 24 -10.2800 0.3915
14 8 26 -0.2907 0.2571
14 8 28 6.1350 -0.0525
14 8 30 5.0941 0.1836
14 8 32 8.7907 -1.1834
14 9 1 6.0448 4.1105
14 9 3 -5.4377 -3.8435
14 9 5 12.7650 1.1304
14 9 7 13.8382 0.4827
14 9 9 21.5596 0.4443
14 9 11 23.4345 1.7305
14 9 13 7.6365 -1.6081
14 9 15 -5.1939 -0.6034
14 9 17 -11.0551 -0.3183
14 9 19 -23.8359 0.4059
14 9 21 -16.5632 -0.1111
14 9 23 -15.2658 0.6376
14 9 25 -4.5416 0.3517
14 9 27 6.1334 -0.2791
14 9 29 3.7267 -0.0125
14 9 31 6.7334 -0.0435
14 10 0 2.9605 -1.8665
14 10 2 -4.9568 -1.9232
14 10 4 -8.0977 3.0717
14 10 6 0.2058 -1.1722
14 10 8 8.6809 -0.6237
14 10 10 -0.7524 -1.4680
14 10 12 16.5296 -0.6996
14 10 14 0.2714 0.7164
14 10 16 2.7663 -0.5848
14 10 18 -19.5112 1.0820
14 10 20 -25.5438 -0.8838
14 10 22 -23.5040 0.0800
14 10 24 -8.1348 -0.8855
14 10 26 -4.3944 -0.3741
14 10 28 8.3548 -0.1928
14 10 30 3.1846 0.1034
14 10 32 6.6044 1.3258
14 11 1 -7.1011 -2.1297
14 11 3 -14.4482 4.7879
14 11 5 -8.4273 -4.1977
14 11 7 -2.2294 3.9484
14 11 9 22.3550 -3.7299
14 11 11 30.8807 1.5580
14 11 13 8.1959 -1.9346
14 11 15 1.1440 1.0275
14 11 17 -10.3185 0.4779
14 11 19 -24.5360 -1.6975
14 11 21 -25.6531 1.4229
14 11 23 -24.7637 -2.2292
14 11 25 -12.9712 1.1345
14 11 27 -4.9433 -0.8195
14 11 29 5.9151 0.5805
14 12 0 -17.5712 3.1164
14 12 2 -16.3894 2.1594
14 12 4 -9.3210 -2.4115
14 12 6 3.6453 -0.3949
14 12 8 28.8639 -0.9773
14 12 10 45.7203 -0.9625
14 12 12 32.9386 0.6449
14 12 14 2.8132 -0.9388
14 12 16 -3.6774 0.3434
14 12 18 -15.6083 -0.1728
14 12 20 -31.5737 -0.4281
14 12 22 -26.3908 -0.4504
14 12 24 -24.0355 -0.7921
14 12 26 -2.3061 -0.2998
14 12 28 5.8236 -0.1177
14 13 1 -20.4778 4.6622
14 13 3 -23.4097 -5.5395
14 13 5 -1.0802 5.3358
14 13 7 14.2754 -6.7033
14 13 9 37.1574 6.5862
14 13 11 37.7040 -3.3726
14 13 13 12.6774 1.5514
14 13 15 -4.5375 0.1138
14 13 17 -5.4295 -2.1322
14 13 19 -23.8981 2.2467
14 13 21 -21.5608 -2.5676
14 13 23 -18.3942 2.3253
14 13 25 -6.7485 -1.0149
14 13 27 4.7943 0.0151
14 14 0 -4.4201 -5.9512
14 14 2 -26.6809 4.1502
14 14 4 -10.7738 -3.1727
14 14 6 13.2870 4.6276
14 14 8 22.0519 2.9020
14 14 10 23.9019 -0.2645
14 14 12 21.8179 5.3910
14 14 14 1.1307 -3.6448
14 14 16 -5.7003 3.5008
14 14 18 -8.8089 -1.0512
14 14 20 -21.0603 1.3981
14 14 22 -16.9262 1.9889
14 14 24 -18.5119 1.1982
14 14 26 8.0243 1.8833
15 0 1 -18.2959 -0.9632
15 0 3 17.7167 -3.8889
15 0 5 5.5769 1.9757
15 0 7 -36.0896 -7.6857
15 0 9 -42.8510 -0.6081
15 0 11 -23.1978 -1.5360
15 0 13 2.5737 -3.8551
15 0 15 3.3780 2.5366
15 0 17 22.7837 -5.1948
15 0 19 31.3523 3.0456
15 0 21 34.8729 -4.0531
15 0 23 8.2038 -1.0730
15 0 25 -4.3408 -0.4390
15 0 27 -6.5370 -4.3005
15 1 0 50.9645 0.8770
15 1 2 31.1246 -1.6050
15 1 4 2.8573 -0.3619
15 1 6 -10.0122 0.6267
15 1 8 -34.0943 0.2850
15 1 10 -32.4181 0.4400
15 1 12 -22.5258 -0.5995
15 1 14 -0.1317 -0.2308
15 1 16 10.5581 -0.7048
15 1 18 22.2377 -0.7162
15 1 20 22.5874 0.8243
15 1 22 16.6936 -0.7229
15 1 24 2.3211 0.7924
15 1 26 -8.0199 -0.0054
15 1 28 -15.5305 -0.4101
15 2 1 30.8307 -0.4502
15 2 3 31.6384 -0.9685
15 2 5 -9.8051 2.9531
15 2 7 -17.1598 -0.9196
15 2 9 -11.2302 2.2474
15 2 11 3.9916 -1.0962
15 2 13 -9.4688 0.1389
15 2 15 6.9499 0.6991
15 2 17 4.1049 -0.5722
15 2 19 23.0269 0.6672
15 2 21 15.6014 -0.2486
15 2 23 0.1324 0.8328
15 2 25 -5.7608 -0.0663
15 2 27 -3.3178 0.8184
15 2 29 -4.9575 -0.6091
15 3 0 25.5920 -1.1622
15 3 2 17.0167 -1.3654
15 3 4 34.6734 1.0653
15 3 6 -3.8906 -0.1946
15 3 8 -7.3050 -0.5133
15 3 10 -5.4962 -0.2287
15 3 12 11.9383 -0.5734
15 3 14 11.1887 1.4285
15 3 16 7.5525 -0.3562
15 3 18 3.9552 1.0791
15 3 20 7.5654 -0.5434
15 3 22 3.0117 0.2489
15 3 24 -1.7541 -0.5614
15 3 26 -12.5418 -0.6081
15 3 28 -9.8181 0.2956
15 3 30 -1.9427 -0.0016
15 4 1 -10.7595 -1.5505
15 4 3 9.3443 3.2408
15 4 5 0.2030 -2.6242
15 4 7 -4.5364 1.4041
15 4 9 -3.7976 -1.3685
15 4 11 18.0695 1.2477
15 4 13 21.7838 0.3650
15 4 15 4.9360 -0.7383
15 4 17 -4.2801 1.2335
15 4 19 -3.7109 -1.1116
15 4 21 -15.6397 0.6570
15 4 23 -2.9179 -0.8270
15 4 25 0.1553 0.4675
15 4 27 -6.2358 -0.2653
15 4 29 4.0119 -0.1436
15 5 0 -8.6787 1.3473
15 5 2 -20.8903 1.3838
15 5 4 -12.6844 -1.6605
15 5 6 5.1002 1.4056
15 5 8 23.9350 0.0923
15 5 10 -3.7170 -0.9110
15 5 12 31.0282 2.1917
15 5 14 18.7951 -1.5926
15 5 16 1.2997 1.6136
15 5 18 -9.1816 -1.3992
15 5 20 -17.0195 1.1927
15 5 22 -10.6019 -0.0651
15 5 24 -1.6736 0.0851
15 5 26 -3.5623 0.4223
15 5 28 5.0151 -0.3430
15 5 30 0.2143 0.5418
15 6 1 -23.9957 1.1960
15 6 3 -27.1755 0.0364
15 6 5 -15.0513 -0.7530
15 6 7 8.5730 1.5855
15 6 9 22.6047 0.3708
15 6 11 23.2790 -0.8585
15 6 13 20.6336 0.3058
15 6 15 5.4390 -0.7624
15 6 17 3.5705 -0.3843
15 6 19 -6.4271 -0.5050
15 6 21 -14.4384 -0.2840
15 6 23 -10.2554 0.7683
15 6 25 -1.0667 -0.6791
15 6 27 10.4390 0.7533
15 6 29 11.5810 -0.6156
15 6 31 -2.8618 -0.2105
15 7 0 -5.4457 -5.1685
15 7 2 -25.2996 -0.4953
15 7 4 -13.9304 1.2169
15 7 6 -2.5222 -1.8253
15 7 8 14.9330 0.1790
15 7 10 21.4135 -0.3727
15 7 12 -1.2292 -1.0278
15 7 14 7.1513 1.0720
15 7 16 1.1851 -1.4256
15 7 18 -9.9730 1.8115
15 7 20 -9.4163 -1.8774
15 7 22 -9.4198 1.0409
15 7 24 7.4358 -1.3087
15 7 26 -2.6653 -0.1719
15 7 28 8.4188 -0.0243
15 7 30 10.9508 -0.2635
15 8 1 15.0106 -3.2373
15 8 3 -5.7261 -0.0372
15 8 5 -5.9636 0.5041
15 8 7 13.9636 -1.8119
15 8 9 17.2224 -0.0324
15 8 11 12.7921 0.4395
15 8 13 10.4630 -1.1401
15 8 15 9.1532 0.5531
15 8 17 -9.7753 -1.1262
15 8 19 -5.9899 -0.1303
15 8 21 -9.3388 -0.1271
15 8 23 -4.1950 -0.6103
15 8 25 5.7722 0.6894
15 8 27 11.4555 -0.7293
15 8 29 11.7167 0.1287
15 9 0 14.5229 4.0409
15 9 2 12.3637 0.6887
15 9 4 3.5120 -1.3383
15 9 6 6.4619 1.2438
15 9 8 21.5595 -1.0285
15 9 10 6.1711 -0.1345
15 9 12 3.3218 -0.6056
15 9 14 2.0150 -0.1580
15 9 16 -17.6637 -0.0700
15 9 18 -10.6705 -0.9336
15 9 20 -15.1596 1.1984
15 9 22 -12.4836 -1.7980
15 9 24 -0.2015 0.7797
15 9 26 4.6690 -0.7042
15 9 28 8.6791 0.0280
15 9 30 7.9524 0.2470
15 9 32 -0.4831 -1.2074
15 10 1 12.4179 -2.6363
15 10 3 12.7069 2.3240
15 10 5 2.2102 -0.2251
15 10 7 16.5130 0.1393
15 10 9 27.5543 0.1751
15 10 11 -13.9984 -0.8475
15 10 13 2.5158 0.2036
15 10 15 -6.8623 -0.0240
15 10 17 -12.1000 -0.2445
15 10 19 -23.1673 -0.1393
15 10 21 -18.5854 0.2436
15 10 23 -9.9737 -0.1876
15 10 25 -2.5979 -0.0231
15 10 27 -0.2336 -0.6182
15 10 29 8.2911 0.3224
15 10 31 3.8418 -0.0054
15 11 0 -19.2297 -1.3996
15 11 2 -3.0910 -2.0631
15 11 4 -37.1606 2.4641
15 11 6 -4.0670 -0.3916
15 11 8 13.7368 0.2576
15 11 10 22.8776 0.6126
15 11 12 10.9489 -0.2901
15 11 14 4.2561 0.2852
15 11 16 0.2766 0.5964
15 11 18 -12.7477 0.6410
15 11 20 -15.0618 0.0474
15 11 22 -21.7945 -0.0079
15 11 24 -15.4874 0.1423
15 11 26 -2.0619 0.0009
15 11 28 0.5638 0.2175
15 11 30 8.9458 0.3611
15 12 1 -24.5382 1.1091
15 12 3 -21.4018 -2.4804
15 12 5 -11.7196 1.8476
15 12 7 -1.8813 -1.4105
15 12 9 24.9338 0.3022
15 12 11 27.0613 -0.6017
15 12 13 15.4479 1.3710
15 12 15 4.9191 -0.4714
15 12 17 -5.5624 -0.3222
15 12 19 -18.4179 0.8393
15 12 21 -29.5916 -0.9789
15 12 23 -14.6933 0.9766
15 12 25 -8.2677 -1.0820
15 12 27 -0.6048 1.0916
15 13 0 -24.1833 2.1833
15 13 2 4.3854 2.3946
15 13 4 -15.8623 -2.5541
15 13 6 8.4614 1.6314
15 13 8 24.5052 0.5325
15 13 10 35.1305 -0.0014
15 13 12 24.3530 1.4753
15 13 14 14.5152 -0.4822
15 13 16 7.8943 0.6836
15 13 18 -10.4510 -0.5982
15 13 20 -5.8847 0.8994
15 13 22 -15.3376 -0.3874
15 13 24 -10.8131 1.0385
15 13 26 4.5664 0.0910
15 14 1 -13.4147 0.6601
15 14 3 -15.0825 2.1219
15 14 5 0.8645 -3.2692
15 14 7 16.3775 1.6480
15 14 9 30.0843 -1.6519
15 14 11 26.3420 0.9082
15 14 13 18.8196 -0.9553
15 14 15 9.0945 -1.5940
15 14 17 -1.3140 2.1561
15 14 19 9.5427 -2.6151
15 14 21 -12.3383 1.3607
15 14 23 -0.3942 -1.0207
15 14 25 3.0214 0.0264
15 15 0 -22.1300 -1.7637
15 15 2 -13.6573 -0.4310
15 15 4 -9.6298 0.6837
15 15 6 2.1408 -2.8029
15 15 8 16.8910 0.0872
15 15 10 28.3212 -4.4390
15 15 12 10.5734 1.1674
15 15 14 9.6866 -1.0748
15 15 16 6.8061 -0.3579
15 15 18 -17.4213 1.4473
15 15 20 -13.4578 -3.6428
15 15 22 -12.9910 2.2371
16 0 0 89.1513 -7.5470
16 0 2 16.8897 3.1419
16 0 4 -8.7667 -6.0840
16 0 6 -4.9570 4.1524
16 0 8 11.6316 1.6749
16 0 10 -7.7319 -3.6505
16 0 12 -8.1616 5.3936
16 0 14 -8.6403 -7.9293
16 0 16 11.1567 1.9034
16 0 18 8.3102 -4.8701
16 0 20 15.6407 1.0194
16 0 22 -1.7469 0.1227
16 0 24 -0.9107 0.2881
16 0 26 1.6163 0.4815
16 1 1 -16.6511 1.5000
16 1 3 -0.8069 -0.2578
16 1 5 -8.8133 0.6008
16 1 7 -10.6624 -0.5661
16 1 9 -10.0780 0.9470
16 1 11 5.2524 -1.2432
16 1 13 -4.2313 1.3774
16 1 15 -2.0141 -0.5461
16 1 17 -5.2676 0.7966
16 1 19 8.1788 -0.6222
16 1 21 9.9502 1.0783
16 1 23 -8.1380 -0.3844
16 1 25 1.3506 0.0243
16 1 27 8.2176 0.3487
16 2 0 -6.3220 2.9113
16 2 2 2.4387 2.3788
16 2 4 -17.6666 -1.3170
16 2 6 -10.5634 0.7908
16 2 8 -18.6396 0.3486
16 2 10 5.2763 -1.1317
16 2 12 -3.0970 1.9733
16 2 14 -3.3130 -1.3885
16 2 16 -7.4465 1.9944
16 2 18 -1.4330 1.1011
16 2 20 -1.5301 -0.8641
16 2 22 -7.6379 0.9668
16 2 24 -3.9417 -0.8695
16 2 26 -8.1264 0.4113
16 2 28 4.6913 -0.2876
16 3 1 -13.4343 0.4932
16 3 3 -6.9145 0.0437
16 3 5 -11.7875 1.5863
16 3 7 15.1806 -2.6643
16 3 9 8.9903 1.3715
16 3 11 18.3589 -2.1256
16 3 13 19.7089 0.7268
16 3 15 -2.9043 -1.0285
16 3 17 -13.1136 0.0676
16 3 19 -14.9359 -0.0174
16 3 21 -7.4940 -1.0468
16 3 23 -8.5999 0.3148
16 3 25 2.9719 -0.9375
16 3 27 1.6893 0.4324
16 3 29 9.5720 -0.0084
16 4 0 -34.4176 -1.0102
16 4 2 -23.0656 -1.8605
16 4 4 -15.7713 1.6574
16 4 6 1.7873 -0.9090
16 4 8 19.3561 -0.8951
16 4 10 24.9771 1.6866
16 4 12 29.9991 -2.5656
16 4 14 17.5927 1.9975
16 4 16 -7.6459 -1.4386
16 4 18 -16.4458 -0.3906
16 4 20 -16.9372 0.5792
16 4 22 -22.1771 -1.4846
16 4 24 -2.9122 0.8580
16 4 26 11.3023 -0.8266
16 4 28 3.2511 0.9415
16 5 1 -42.5708 -0.8256
16 5 3 -27.8081 0.0094
16 5 5 -2.8202 -1.8370
16 5 7 23.9420 2.2702
16 5 9 16.2553 -2.5055
16 5 11 48.7264 1.8190
16 5 13 30.7815 -1.1650
16 5 15 14.4221 0.7965
16 5 17 -9.2253 -1.3830
16 5 19 -23.9086 1.0245
16 5 21 -18.9862 -0.2344
16 5 23 -11.9138 0.1978
16 5 25 7.9668 0.4193
16 5 27 13.7812 -0.4750
16 5 29 9.5444 1.0398
16 6 0 -25.4683 2.0405
16 6 2 -36.2427 -1.1667
16 6 4 -24.7567 0.3915
16 6 6 0.8791 -1.9298
16 6 8 31.0060 1.1277
16 6 10 24.1990 0.8817
16 6 12 31.3039 -1.2917
16 6 14 21.3036 0.1364
16 6 16 -0.1754 0.1950
16 6 18 -10.5146 0.2853
16 6 20 -17.5107 -0.2122
16 6 22 -11.9924 0.4892
16 6 24 -0.8087 -0.6211
16 6 26 12.6466 0.4895
16 6 28 12.4819 -0.7985
16 6 30 9.7929 -0.1542
16 7 1 -23.6456 0.7764
16 7 3 -33.5374 -0.9681
16 7 5 -11.3754 -0.1681
16 7 7 13.5004 -0.0300
16 7 9 22.4201 -1.2175
16 7 11 13.3335 1.2565
16 7 13 8.5395 -0.9592
16 7 15 -2.2663 -0.2987
16 7 17 -21.1291 0.7744
16 7 19 -16.0117 -0.9867
16 7 21 -15.0872 0.9690
16 7 23 -12.0462 -0.8309
16 7 25 8.4241 0.4254
16 7 27 13.3730 -0.5468
16 7 29 9.4101 -0.1101
16 8 0 1.2985 0.5124
16 8 2 -6.9122 -0.5852
16 8 4 -17.9551 0.3583
16 8 6 -0.9375 1.7901
16 8 8 18.5367 -0.3098
16 8 10 11.8869 -1.2010
16 8 12 1.3093 2.3020
16 8 14 -2.9556 -0.2951
16 8 16 -12.9119 -0.5637
16 8 18 -19.8572 1.1449
16 8 20 -7.5862 -1.1547
16 8 22 -11.9428 1.7155
16 8 24 -1.7354 -0.5791
16 8 26 14.9020 0.9680
16 8 28 10.7890 -0.3029
16 8 30 6.8262 0.3660
16 9 1 12.6189 1.1009
16 9 3 -7.0633 0.8970
16 9 5 -5.6525 0.9775
16 9 7 12.2044 -1.0054
16 9 9 0.2332 0.8745
16 9 11 -10.0283 -0.6940
16 9 13 -3.7671 0.2293
16 9 15 -4.8621 1.3056
16 9 17 -7.0835 0.1133
16 9 19 -5.7287 0.4064
16 9 21 -6.2422 -0.0853
16 9 23 -6.7185 -0.3814
16 9 25 7.5347 -0.2234
16 9 27 9.5556 0.5139
16 9 29 5.9627 0.8188
16 9 31 4.8354 0.1457
16 10 0 39.4423 1.5365
16 10 2 13.4249 0.8386
16 10 4 -4.3703 -1.8649
16 10 6 1.7862 0.9370
16 10 8 15.9572 -0.4185
16 10 10 12.2244 0.9842
16 10 12 6.2082 0.1669
16 10 14 2.1409 -0.5417
16 10 16 -5.6095 1.4048
16 10 18 -7.4316 -0.8092
16 10 20 -4.9508 1.7937
16 10 22 -4.5305 -0.8864
16 10 24 -1.5587 1.2050
16 10 26 0.1611 -1.2664
16 10 28 4.2919 1.2045
16 10 30 1.1519 -0.2283
16 11 1 3.2591 1.6607
16 11 3 -3.1796 -2.5899
16 11 5 -5.9907 0.3535
16 11 7 5.9822 -0.8381
16 11 9 11.4147 1.1388
16 11 11 9.6829 -1.3964
16 11 13 15.9889 1.5889
16 11 15 9.2032 -1.9569
16 11 17 4.0775 1.2061
16 11 19 -1.0532 0.5436
16 11 21 -0.0572 -0.9160
16 11 23 -4.4348 1.1497
16 11 25 -0.2305 -0.5532
16 11 27 -2.8445 0.6639
16 11 29 2.6302 -0.8467
16 12 0 -16.8535 -5.4643
16 12 2 -23.6574 -0.9773
16 12 4 -20.9884 1.7582
16 12 6 -11.8936 -0.7752
16 12 8 -1.5690 -0.2616
16 12 10 13.9440 0.4915
16 12 12 12.3723 -1.2781
16 12 14 14.4511 0.6793
16 12 16 1.9771 -0.7318
16 12 18 -3.6261 -1.2336
16 12 20 2.5921 0.3141
16 12 22 -3.0313 -0.2269
16 12 24 -4.9328 0.0439
16 12 26 1.1791 0.4598
16 12 28 10.2314 -0.7956
16 13 1 -25.0890 -3.2645
16 13 3 -22.1002 2.6907
16 13 5 -9.3423 -1.1944
16 13 7 -3.5451 1.7638
16 13 9 15.7294 -0.8796
16 13 11 4.3516 0.7210
16 13 13 15.2841 -0.2121
16 13 15 9.7085 0.8233
16 13 17 4.3885 -0.7831
16 13 19 -7.7415 -0.2460
16 13 21 -4.6045 0.3962
16 13 23 -5.2716 -0.2945
16 13 25 -7.1116 0.5178
16 14 0 -6.9211 4.7589
16 14 2 -17.2970 -0.2218
16 14 4 -11.7306 0.0928
16 14 6 2.7002 -1.8250
16 14 8 9.5047 0.2182
16 14 10 18.8646 -1.0781
16 14 12 22.1997 -0.2096
16 14 14 9.2424 0.1956
16 14 16 1.1267 -0.7885
16 14 18 -10.9723 1.3331
16 14 20 -2.1484 -1.3544
16 14 22 -13.4643 0.6288
16 14 24 0.8427 -1.4207
16 15 1 -19.0876 0.9258
16 15 3 -16.1871 0.6604
16 15 5 -9.8264 -0.1457
16 15 7 -0.7570 0.1894
16 15 9 11.4660 -0.4495
16 15 11 8.1705 2.4459
16 15 13 11.8957 -2.3532
16 15 15 4.8875 2.1841
16 15 17 -10.4302 -1.3475
16 15 19 12.5705 1.0574
16 15 21 -8.2442 0.5000
16 16 0 -23.7360 -3.4422
16 16 2 -20.4844 2.2355
16 16 4 -15.5463 -1.5572
16 16 6 5.5969 1.4474
16 16 8 -4.9203 1.0677
16 16 10 23.2680 -1.5253
16 16 12 26.4772 2.2562
16 16 14 17.1109 -2.0799
16 16 16 -5.9185 1.5275
16 16 18 -4.1015 -0.6666
16 16 20 -7.4276 0.5549
17 0 1 -14.0029 1.5388
17 0 3 -13.3699 1.9093
17 0 5 -14.4125 -3.2286
17 0 7 14.7627 -0.6815
17 0 9 27.4353 -1.2236
17 0 11 2.6606 -4.1268
17 0 13 -1.5236 3.7532
17 0 15 2.4334 -3.5673
17 0 17 -2.8166 6.0669
17 0 19 -17.2488 -4.4080
17 0 21 7.1338 2.4546
17 0 23 -20.4035 -1.3084
17 0 25 6.5049 -3.8787
17 1 0 16.4147 1.4076
17 1 2 0.0921 -0.3749
17 1 4 -21.9307 0.8778
17 1 6 -13.2331 -0.3192
17 1 8 15.2564 0.2804
17 1 10 13.6104 -0.2913
17 1 12 -0.0197 1.5453
17 1 14 -3.3786 -1.1180
17 1 16 -9.2751 0.7780
17 1 18 -8.0531 -0.0325
17 1 20 -7.4724 0.0535
17 1 22 -7.4867 0.6366
17 1 24 -12.6666 0.2270
17 1 26 -0.8433 0.5339
17 2 1 -17.4106 0.1346
17 2 3 -20.6349 1.7395
17 2 5 -13.9307 -1.6918
17 2 7 3.8364 2.4183
17 2 9 16.7760 -1.0903
17 2 11 5.0815 2.5055
17 2 13 2.9460 -0.6289
17 2 15 -5.9415 -0.3502
17 2 17 -28.5478 1.1827
17 2 19 -15.3360 -0.7501
17 2 21 -22.7231 1.5048
17 2 23 -6.6038 -0.4506
17 2 25 5.1855 1.2109
17 2 27 16.1415 0.0237
17 3 0 -33.0368 3.0880
17 3 2 -30.5244 1.5219
17 3 4 -13.4797 -2.2329
17 3 6 -23.2625 1.4919
17 3 8 31.1802 -1.1768
17 3 10 22.8084 -0.4276
17 3 12 25.0620 -0.7748
17 3 14 9.2021 -0.3608
17 3 16 -19.8210 -0.2639
17 3 18 -20.5352 -1.0882
17 3 20 -19.3377 0.4152
17 3 22 -15.1103 -0.9041
17 3 24 -5.1417 0.0690
17 3 26 5.7073 0.0523
17 3 28 11.6323 -0.3698
17 4 1 -48.1949 3.0111
17 4 3 -14.9913 -3.1567
17 4 5 -4.9275 2.2459
17 4 7 22.7911 -3.0368
17 4 9 32.6377 2.2267
17 4 11 31.5182 -2.8506
17 4 13 37.2926 0.4145
17 4 15 -2.3157 1.4939
17 4 17 -21.1923 -1.3378
17 4 19 -26.4329 1.5994
17 4 21 -21.7607 -2.1081
17 4 23 -6.3176 0.8644
17 4 25 8.0180 -0.5382
17 4 27 10.8207 -0.1510
17 5 0 -58.8930 -6.5820
17 5 2 -45.2354 -0.3421
17 5 4 -27.9432 3.4652
17 5 6 -1.0558 -2.5206
17 5 8 51.4207 1.3950
17 5 10 -16.2414 0.9205
17 5 12 41.4858 -0.4572
17 5 14 13.5146 1.3230
17 5 16 -8.3581 -1.4424
17 5 18 -21.0682 0.8775
17 5 20 -27.4291 -0.8294
17 5 22 -10.2909 1.0789
17 5 24 1.8746 0.2215
17 5 26 8.0834 -0.0268
17 5 28 15.2144 0.7590
17 6 1 -54.8826 -1.4503
17 6 3 -30.2772 0.7830
17 6 5 -17.2760 -2.6174
17 6 7 17.1423 2.3972
17 6 9 37.2355 -0.6970
17 6 11 32.5580 1.5904
17 6 13 29.3719 -0.3628
17 6 15 2.0509 0.0775
17 6 17 -16.5551 0.3422
17 6 19 -24.6149 0.7661
17 6 21 -22.2820 0.1308
17 6 23 -7.1185 -0.4300
17 6 25 11.7566 0.9994
17 6 27 14.0166 -0.7343
17 6 29 -2.3421 0.0051
17 7 0 11.2246 2.7812
17 7 2 -29.6000 2.0973
17 7 4 -18.4626 -2.1416
17 7 6 -5.9210 0.2202
17 7 8 29.6546 0.2895
17 7 10 18.4704 -0.0746
17 7 12 15.2398 0.0996
17 7 14 12.0837 -0.3369
17 7 16 -13.1510 0.0489
17 7 18 -20.1401 -0.7616
17 7 20 -19.1896 1.3856
17 7 22 -16.1534 -1.0267
17 7 24 2.0353 0.9595
17 7 26 10.7559 -0.4066
17 7 28 13.8981 0.0133
17 8 1 -3.0124 1.3229
17 8 3 -7.2655 0.7914
17 8 5 -11.3962 1.1168
17 8 7 11.5704 -0.3267
17 8 9 9.9234 0.0059
17 8 11 -6.2663 -0.2827
17 8 13 -3.4433 -0.1599
17 8 15 -12.2817 0.9026
17 8 17 -23.2504 1.0061
17 8 19 -14.4425 -0.7499
17 8 21 -10.4306 1.0701
17 8 23 -6.7069 0.0689
17 8 25 6.2340 -0.2364
17 8 27 9.4702 0.4411
17 8 29 6.9708 0.1482
17 9 0 23.9565 -1.3994
17 9 2 15.2305 0.8728
17 9 4 -11.3100 -0.5185
17 9 6 -3.4841 0.6076
17 9 8 5.5390 0.2661
17 9 10 -16.5961 -0.8643
17 9 12 -9.9114 0.9438
17 9 14 -6.9419 -0.5449
17 9 16 -7.5612 0.3681
17 9 18 -1.8424 0.8911
17 9 20 4.6402 -1.8054
17 9 22 -2.7714 1.0998
17 9 24 2.0570 -1.4153
17 9 26 7.2855 1.3166
17 9 28 1.7939 -0.7028
17 9 30 5.0701 0.2512
17 10 1 31.0601 -0.9612
17 10 3 7.4045 -0.6182
17 10 5 -13.7744 -0.6024
17 10 7 -8.9714 0.6424
17 10 9 -8.6545 -0.8896
17 10 11 -16.9351 0.7790
17 10 13 -5.6269 0.5353
17 10 15 -6.8075 -0.7824
17 10 17 5.1323 -0.2138
17 10 19 9.6623 -0.0746
17 10 21 10.0708 -0.1229
17 10 23 3.0954 0.1027
17 10 25 3.1778 -0.2176
17 10 27 -5.0033 0.1511
17 10 29 0.4210 -0.3722
17 11 0 26.0615 1.5462
17 11 2 11.5619 -0.1955
17 11 4 -0.7419 -0.5600
17 11 6 -8.2695 -1.3191
17 11 8 -6.2739 0.3227
17 11 10 -11.6675 0.5235
17 11 12 -2.0861 -0.7352
17 11 14 9.1686 0.1581
17 11 16 8.4769 -0.4652
17 11 18 -12.5747 -0.5607
17 11 20 11.1487 0.5215
17 11 22 6.3523 -0.8105
17 11 24 5.9938 0.8573
17 11 26 -0.7524 -0.7959
17 11 28 -4.0276 0.6497
17 12 1 -7.1836 1.0218
17 12 3 -8.5782 -0.4038
17 12 5 -15.5028 1.1076
17 12 7 -5.1509 -0.5758
17 12 9 -8.8684 1.9340
17 12 11 0.1258 -1.1630
17 12 13 8.5382 0.2377
17 12 15 9.8529 0.0834
17 12 17 17.1852 -0.0539
17 12 19 18.7199 -0.0572
17 12 21 8.6845 0.2129
17 12 23 4.2529 0.0404
17 12 25 5.7778 0.3936
17 12 27 0.8412 0.1832
17 13 0 -14.7376 -1.1796
17 13 2 -5.0360 -1.1809
17 13 4 -9.0819 1.5968
17 13 6 -16.9563 0.6132
17 13 8 -8.2354 -0.3539
17 13 10 -9.0012 1.3199
17 13 12 -4.4099 -0.7465
17 13 14 10.1269 0.5041
17 13 16 -3.6840 -0.0532
17 13 18 2.8049 0.4681
17 13 20 10.9524 -0.0395
17 13 22 4.9779 0.2355
17 13 24 9.9430 0.9148
17 14 1 -9.2780 2.8217
17 14 3 -4.9011 -0.8720
17 14 5 -3.9187 -0.3497
17 14 7 -7.2724 0.0577
17 14 9 -3.1647 -1.5342
17 14 11 -4.6653 1.0541
17 14 13 7.5055 -1.4308
17 14 15 1.4503 1.5190
17 14 17 -3.3126 -1.1092
17 14 19 -0.0994 1.4343
17 14 21 0.4713 -0.8504
17 14 23 -1.2600 0.1934
17 15 0 -19.3138 3.0032
17 15 2 -17.6714 1.0295
17 15 4 -9.3890 -1.0621
17 15 6 -9.2209 -0.0875
17 15 8 -2.2235 1.0159
17 15 10 5.0825 0.0505
17 15 12 16.2991 0.6522
17 15 14 8.2053 -0.3826
17 15 16 -7.7501 -0.0288
17 15 18 -5.8492 -0.1939
17 15 20 -0.2561 0.3032
17 16 1 -28.8321 0.3426
17 16 3 -20.3518 0.1887
17 16 5 -6.6858 -0.7861
17 16 7 6.5562 -0.8978
17 16 9 9.2037 1.1841
17 16 11 13.7695 -1.9327
17 16 13 21.6092 2.3679
17 16 15 5.4184 -2.2659
17 16 17 -8.0538 3.3322
17 16 19 -5.4484 -2.4010
17 17 0 -23.4173 -4.6869
17 17 2 -21.3033 2.1739
17 17 4 -18.3851 -2.2033
17 17 6 -2.3767 2.5606
17 17 8 8.9964 1.8830
17 17 10 7.3533 -1.8880
17 17 12 15.7555 4.5283
17 17 14 16.1096 -3.3902
17 17 16 -6.7759 2.7868
18 0 0 20.1043 0.0486
18 0 2 -28.7472 -2.7955
18 0 4 -15.1092 -2.0466
18 0 6 -3.3741 -1.5485
18 0 8 23.8629 -2.2564
18 0 10 18.4970 0.0741
18 0 12 17.3801 -3.7645
18 0 14 2.8559 -1.7564
18 0 16 0.3205 -2.6749
18 0 18 -9.5739 -2.3030
18 0 20 -18.6895 -1.0798
18 0 22 -22.2100 -2.1435
18 0 24 -9.1596 -0.2273
18 1 1 4.2272 -2.0463
18 1 3 -32.8623 0.4577
18 1 5 -8.0559 -1.5573
18 1 7 24.8583 0.8804
18 1 9 27.4618 -3.1154
18 1 11 26.1164 0.8991
18 1 13 3.3971 -1.2147
18 1 15 -4.4934 1.5982
18 1 17 -5.3586 -0.9253
18 1 19 -7.9788 0.8856
18 1 21 -20.9559 -0.8269
18 1 23 -10.6218 -0.6557
18 1 25 4.2199 -0.1127
18 2 0 -25.1985 -1.4002
18 2 2 -17.7742 0.4925
18 2 4 -37.3773 1.1172
18 2 6 5.2872 0.7763
18 2 8 14.7662 -1.0985
18 2 10 21.8749 0.4464
18 2 12 17.0152 0.1302
18 2 14 6.2519 2.2701
18 2 16 -16.4985 0.2000
18 2 18 0.2101 0.8097
18 2 20 -27.3663 0.8327
18 2 22 -14.3125 -0.0989
18 2 24 9.3425 0.3942
18 2 26 1.8595 -0.3376
18 3 1 -36.8104 -2.2849
18 3 3 -26.8973 1.0918
18 3 5 -19.3352 1.0101
18 3 7 12.6012 -0.7477
18 3 9 6.5190 1.6382
18 3 11 20.9963 -0.4454
18 3 13 13.3009 1.1486
18 3 15 -3.4095 -1.5087
18 3 17 -20.9030 0.6744
18 3 19 -22.1031 -0.7883
18 3 21 -22.1176 0.5280
18 3 23 0.7956 0.4704
18 3 25 2.4753 -0.6743
18 3 27 10.3379 0.9580
18 4 0 -49.3982 2.3632
18 4 2 -29.5342 -0.8672
18 4 4 -7.5769 -0.7626
18 4 6 18.5151 0.0556
18 4 8 24.3226 1.2854
18 4 10 24.5035 0.2100
18 4 12 26.3204 0.7731
18 4 14 13.2379 -1.6135
18 4 16 -16.2902 0.9636
18 4 18 -22.4441 -0.4474
18 4 20 -24.0341 0.0593
18 4 22 -14.2130 0.5588
18 4 24 2.4224 0.1716
18 4 26 14.5309 0.9309
18 5 1 -48.3700 -1.7922
18 5 3 -31.6361 0.8802
18 5 5 -0.6580 0.8317
18 5 7 27.5989 0.9317
18 5 9 32.0895 -0.5506
18 5 11 43.8694 1.5412
18 5 13 19.0893 -0.1886
18 5 15 -1.0503 0.7926
18 5 17 -21.5434 -0.0073
18 5 19 -28.2245 0.1915
18 5 21 -29.6162 0.7175
18 5 23 -2.0862 -0.3400
18 5 25 8.1920 0.6690
18 5 27 3.3087 -0.2315
18 6 0 -35.6061 -0.3482
18 6 2 -35.0757 -2.2845
18 6 4 -11.6428 1.9232
18 6 6 11.0805 -0.3085
18 6 8 19.0804 -1.1937
18 6 10 21.5630 -0.0889
18 6 12 18.7989 -0.8201
18 6 14 20.3874 1.4765
18 6 16 -11.0396 -0.8207
18 6 18 -24.9471 1.0583
18 6 20 -22.7186 -0.6174
18 6 22 -10.5704 -0.1116
18 6 24 3.7134 -0.1657
18 6 26 8.4745 -0.7180
18 6 28 2.7078 -0.2525
18 7 1 -20.3523 -0.0864
18 7 3 -24.2427 -0.1258
18 7 5 -7.5756 1.4341
18 7 7 8.1772 -2.3303
18 7 9 15.5919 0.4874
18 7 11 14.4302 -1.4646
18 7 13 5.1767 0.4468
18 7 15 -1.8637 -0.7695
18 7 17 -12.9844 -0.8501
18 7 19 -19.5873 -0.0352
18 7 21 -18.3587 -0.9055
18 7 23 -10.8781 0.6286
18 7 25 4.8699 -1.3152
18 7 27 12.7002 -0.0156
18 8 0 19.5160 2.9811
18 8 2 2.9249 -0.4371
18 8 4 -13.6420 -1.3500
18 8 6 -3.6917 2.3510
18 8 8 -3.3685 -1.2956
18 8 10 -1.8986 -0.5888
18 8 12 -19.2953 0.9497
18 8 14 -8.3612 -2.0382
18 8 16 -16.0088 1.5628
18 8 18 -5.2287 -1.5673
18 8 20 -7.4514 0.6305
18 8 22 -1.3725 -0.7719
18 8 24 1.1200 0.1836
18 8 26 8.9083 -0.5843
18 8 28 2.8146 0.7007
18 9 1 44.1978 -0.8704
18 9 3 15.5045 0.2397
18 9 5 -7.5167 -1.2384
18 9 7 -1.0418 1.4355
18 9 9 -11.8996 -0.1457
18 9 11 -13.4295 0.6777
18 9 13 -13.6752 -0.1230
18 9 15 -13.3466 -0.4683
18 9 17 -8.8804 0.1312
18 9 19 0.7254 -0.0821
18 9 21 1.9209 0.1439
18 9 23 8.7316 -0.8396
18 9 25 1.1944 0.6623
18 9 27 -0.7122 -0.0067
18 9 29 -3.0734 0.0350
18 10 0 36.2973 -3.8058
18 10 2 30.9983 -1.2470
18 10 4 -1.4942 2.2758
18 10 6 -12.1307 -1.0108
18 10 8 -23.0816 -0.0960
18 10 10 -31.9243 -0.3123
18 10 12 -27.8551 -0.3357
18 10 14 -10.9911 1.2843
18 10 16 7.1366 -1.4206
18 10 18 11.6048 0.3444
18 10 20 13.8675 -1.0706
18 10 22 9.5284 1.0852
18 10 24 6.5896 -1.0147
18 10 26 -0.5418 1.0722
18 10 28 -11.1009 -1.0402
18 11 1 39.4404 -1.5450
18 11 3 15.4551 0.8024
18 11 5 -6.9045 -0.3898
18 11 7 -30.8594 0.3743
18 11 9 -28.8172 -0.6704
18 11 11 -32.9462 0.3457
18 11 13 -15.1336 -0.8621
18 11 15 -0.4312 0.9371
18 11 17 18.2228 -0.7374
18 11 19 21.0153 -0.0928
18 11 21 19.4852 0.0116
18 11 23 15.0920 0.3735
18 11 25 3.4441 -0.0126
18 11 27 -4.2305 -0.0452
18 12 0 15.3833 3.1814
18 12 2 11.7802 0.5085
18 12 4 1.2796 -0.3295
18 12 6 -4.9502 0.6237
18 12 8 -33.2490 0.7413
18 12 10 -31.3020 -0.1451
18 12 12 -21.5705 0.2458
18 12 14 -9.4013 0.0790
18 12 16 4.2189 0.2406
18 12 18 1.3165 0.0029
18 12 20 23.6445 0.6401
18 12 22 17.3750 -0.2753
18 12 24 12.5899 0.3118
18 12 26 -2.2653 -0.4716
18 13 1 10.1158 -1.3127
18 13 3 13.1982 0.4382
18 13 5 3.0024 -0.0045
18 13 7 -15.0208 -0.7323
18 13 9 -14.1905 -0.0386
18 13 11 -13.1833 -0.7516
18 13 13 -12.4971 0.5591
18 13 15 4.5934 -0.6651
18 13 17 11.1136 1.0777
18 13 19 10.7029 -0.4932
18 13 21 16.6065 0.2923
18 13 23 7.9465 -0.5148
18 14 0 8.5912 -2.9695
18 14 2 10.2424 -0.2884
18 14 4 4.3457 -0.0352
18 14 6 -8.6582 0.3932
18 14 8 -14.0157 -1.5390
18 14 10 -25.6421 0.7432
18 14 12 -7.1052 -0.9335
18 14 14 -1.4524 0.6406
18 14 16 -2.4099 -0.2663
18 14 18 -8.4615 -0.2731
18 14 20 0.9531 0.2173
18 14 22 10.2447 -0.6917
18 15 1 -6.4927 -2.8967
18 15 3 -1.0211 0.0022
18 15 5 -3.5142 1.4821
18 15 7 -4.9703 -0.5787
18 15 9 2.6587 1.3511
18 15 11 6.4508 -0.9209
18 15 13 1.8201 1.1140
18 15 15 4.2487 -0.6425
18 15 17 -6.3970 -0.9994
18 15 19 -4.5968 0.3881
18 16 0 -37.0698 1.6194
18 16 2 -7.4854 0.7790
18 16 4 -22.9874 -0.6966
18 16 6 0.3916 0.0853
18 16 8 -0.0397 1.0073
18 16 10 8.1869 -0.7067
18 16 12 8.9902 1.5066
18 16 14 6.9583 -1.2802
18 16 16 3.7652 0.6952
18 17 1 -35.4278 -0.0848
18 17 3 -27.8537 1.5534
18 17 5 -10.7746 -1.3246
18 17 7 8.0710 0.9163
18 17 9 -4.0696 -0.7916
18 17 11 13.2448 1.5578
18 17 13 14.3804 -2.1833
18 17 15 1.3718 1.1840
18 18 0 -45.8203 -0.1867
18 18 2 -8.7448 -0.3209
18 18 4 -25.1271 0.5522
18 18 6 3.6113 -2.9084
18 18 8 21.2598 -0.6157
18 18 10 21.3375 -2.7893
18 18 12 18.8233 -1.1998
18 18 14 9.4440 0.1603
19 0 1 -15.6576 1.7127
19 0 3 -21.1342 1.2771
19 0 5 -21.2269 1.1452
19 0 7 19.6456 -3.7265
19 0 9 36.7569 -2.4471
19 0 11 29.7544 1.3769
19 0 13 16.8676 -3.0106
19 0 15 15.7997 6.7791
19 0 17 3.8579 -3.1569
19 0 19 -14.6218 6.1157
19 0 21 -14.4853 -3.0590
19 0 23 -10.5345 -1.4924
19 1 0 -16.8532 0.7519
19 1 2 -24.5915 1.5760
19 1 4 -27.0640 -1.1279
19 1 6 6.5558 0.6187
19 1 8 27.3638 0.9353
19 1 10 29.6643 -0.0540
19 1 12 19.4353 0.4090
19 1 14 17.6704 0.5355
19 1 16 12.3642 0.9228
19 1 18 -8.4534 0.8898
19 1 20 -14.3692 -0.2228
19 1 22 -14.3482 1.3396
19 1 24 -11.3836 -1.0404
19 2 1 -17.6131 3.7589
19 2 3 -30.3346 -3.2663
19 2 5 -16.0276 2.2801
19 2 7 4.6822 -0.3781
19 2 9 27.1757 2.5732
19 2 11 24.1739 -1.6433
19 2 13 17.2142 1.7845
19 2 15 4.2934 -0.5632
19 2 17 -12.9321 -0.6901
19 2 19 17.6549 0.6205
19 2 21 -18.1422 -0.7955
19 2 23 -11.7401 1.6410
19 2 25 1.5755 0.0743
19 3 0 -41.7576 -3.0895
19 3 2 -29.5764 -1.6146
19 3 4 1.7338 -0.1972
19 3 6 2.5828 -0.5789
19 3 8 18.3930 -0.2652
19 3 10 24.0237 -0.2409
19 3 12 14.3840 0.3205
19 3 14 7.7815 -1.5942
19 3 16 -9.1388 0.3100
19 3 18 -23.4337 -1.3315
19 3 20 -22.3762 0.3226
19 3 22 -3.6130 -1.0859
19 3 24 1.3054 0.5172
19 3 26 10.4600 -0.9998
19 4 1 -46.5679 -0.3636
19 4 3 -17.7038 0.5091
19 4 5 8.5814 -3.2663
19 4 7 16.4678 1.4003
19 4 9 23.7851 -1.8651
19 4 11 29.7126 0.6295
19 4 13 22.6267 -0.8805
19 4 15 1.3713 -1.8298
19 4 17 -25.9932 1.1346
19 4 19 -32.7503 -2.0086
19 4 21 -20.8184 1.1570
19 4 23 -1.1859 -0.9426
19 4 25 4.7850 -0.1376
19 5 0 -72.9184 1.7526
19 5 2 -27.6562 1.8526
19 5 4 -5.3040 -0.3177
19 5 6 14.2608 0.0056
19 5 8 24.2237 0.4683
19 5 10 30.1422 -0.2378
19 5 12 39.9844 -1.0908
19 5 14 19.8247 2.1407
19 5 16 -9.1959 -1.0911
19 5 18 -21.4593 1.4163
19 5 20 -27.9200 -0.0518
19 5 22 -7.2928 -0.3883
19 5 24 -3.9240 -0.6332
19 5 26 15.7746 0.1808
19 6 1 -32.5729 3.2243
19 6 3 -15.4128 0.0859
19 6 5 1.0064 0.6822
19 6 7 16.3756 -0.1424
19 6 9 22.5466 -0.3018
19 6 11 32.1931 0.5353
19 6 13 -1.5840 -1.6602
19 6 15 9.3532 1.5220
19 6 17 -19.7240 -0.4122
19 6 19 -24.6766 -0.2022
19 6 21 -19.5910 0.0537
19 6 23 -8.0566 -0.4830
19 6 25 -2.3063 0.0493
19 6 27 3.1559 -0.4068
19 7 0 -14.6015 -3.6701
19 7 2 -13.8332 2.0976
19 7 4 -0.9705 -0.2311
19 7 6 7.7840 -0.3973
19 7 8 12.4354 0.1633
19 7 10 24.4677 -0.1146
19 7 12 15.7012 0.0973
19 7 14 5.7018 -0.5966
19 7 16 -5.6029 0.5647
19 7 18 -16.1701 -0.1482
19 7 20 -10.2790 -0.1749
19 7 22 -2.1270 0.1604
19 7 24 -7.5965 -0.3265
19 7 26 3.9968 0.3514
19 8 1 10.7828 -0.6372
19 8 3 -5.6561 -1.1238
19 8 5 -9.6386 -0.0837
19 8 7 -4.3108 -0.2030
19 8 9 -3.6018 2.0573
19 8 11 -3.3192 -1.5747
19 8 13 -6.8908 2.1393
19 8 15 -3.8757 -1.5608
19 8 17 -2.5903 0.1456
19 8 19 -4.7085 0.7482
19 8 21 3.6375 -0.7824
19 8 23 0.2432 0.8952
19 8 25 0.3378 0.1194
19 8 27 0.8816 0.5476
19 9 0 64.9956 0.3806
19 9 2 30.6723 0.9963
19 9 4 10.5718 -1.0818
19 9 6 -4.7756 -1.2253
19 9 8 -19.2275 1.7722
19 9 10 -25.9743 0.6707
19 9 12 -21.6791 0.3006
19 9 14 -16.9849 -0.6280
19 9 16 -11.0846 0.8483
19 9 18 19.0150 -0.3445
19 9 20 16.6574 1.1668
19 9 22 10.4354 -0.1056
19 9 24 1.7921 0.7045
19 9 26 2.2189 -0.4019
19 9 28 9.3734 1.4529
19 10 1 58.0879 1.6663
19 10 3 30.1248 -0.5626
19 10 5 6.3081 0.4945
19 10 7 -13.6471 -0.5421
19 10 9 -33.6422 -1.0060
19 10 11 -20.4026 -0.0158
19 10 13 -26.6610 -1.0365
19 10 15 -5.9619 0.7774
19 10 17 16.5111 -0.8127
19 10 19 -8.1852 0.0219
19 10 21 20.0420 -0.5124
19 10 23 12.1094 0.1766
19 10 25 -1.2432 -0.4701
19 10 27 -2.7564 -0.0248
19 11 0 68.8895 -0.0979
19 11 2 -2.3826 0.6021
19 11 4 18.0380 -0.4004
19 11 6 -10.6763 0.5865
19 11 8 -36.4082 -0.9518
19 11 10 -46.3701 -0.7094
19 11 12 -40.0808 -0.3443
19 11 14 -16.9864 0.1065
19 11 16 -5.9356 -0.0282
19 11 18 19.2132 1.0067
19 11 20 33.6263 -0.6696
19 11 22 14.5066 -0.5156
19 11 24 5.2572 -0.3264
19 11 26 -2.2802 0.5622
19 12 1 55.2425 1.3902
19 12 3 37.7823 0.6368
19 12 5 4.3321 -0.4046
19 12 7 -29.7577 0.4675
19 12 9 -43.9306 -0.7693
19 12 11 -40.9086 1.5015
19 12 13 -22.5016 -0.2627
19 12 15 -4.4198 -0.0856
19 12 17 15.6236 1.0216
19 12 19 25.7060 -0.4708
19 12 21 28.3667 0.8286
19 12 23 17.8309 -0.8190
19 12 25 0.3025 0.3300
19 13 0 30.4894 2.3303
19 13 2 4.0731 -0.5684
19 13 4 15.3373 -0.0673
19 13 6 -5.2116 -1.3192
19 13 8 -31.2803 0.7371
19 13 10 -37.6256 -0.1631
19 13 12 -30.3264 -0.2825
19 13 14 -6.7275 0.0616
19 13 16 -1.8925 -0.3673
19 13 18 -7.2276 -0.1009
19 13 20 15.4854 -0.3524
19 13 22 17.8428 0.3398
19 14 1 23.5360 2.0655
19 14 3 17.9271 -1.7483
19 14 5 12.8792 -0.0102
19 14 7 -16.0694 0.5030
19 14 9 -12.0790 1.2024
19 14 11 -19.7079 0.0113
19 14 13 -14.5298 0.0689
19 14 15 -3.0524 -0.9597
19 14 17 3.9725 -0.0301
19 14 19 13.7857 -0.3148
19 15 0 12.5516 -3.8227
19 15 2 5.1402 -0.4496
19 15 4 8.5049 0.8343
19 15 6 9.9208 0.8935
19 15 8 -8.6108 -1.4687
19 15 10 0.6895 0.8001
19 15 12 -0.2554 -0.9217
19 15 14 0.1268 0.5353
19 15 16 4.2499 0.2426
19 15 18 -10.4300 0.0048
19 16 1 -13.9468 2.5647
19 16 3 -12.9606 -1.2798
19 16 5 -4.6914 0.5427
19 16 7 -1.0104 -0.5632
19 16 9 3.6042 -0.2733
19 16 11 3.5352 -0.1600
19 16 13 12.7332 -0.3882
19 16 15 -0.9700 1.2725
19 17 0 -19.2294 4.0875
19 17 2 -18.7865 0.0827
19 17 4 -20.2274 -0.1533
19 17 6 -1.3649 -1.7568
19 17 8 14.7514 -0.3429
19 17 10 13.3160 -1.1084
19 17 12 11.5580 -0.2671
19 17 14 7.4610 0.2757
19 18 1 -15.6418 -1.3957
19 18 3 -19.1790 2.3389
19 18 5 -8.7858 -2.0448
19 18 7 8.5618 1.0608
19 18 9 13.3807 -0.7979
19 18 11 -9.3795 0.4791
19 18 13 13.4880 0.0519
19 18 15 3.1455 -0.8130
19 19 0 -18.4622 -4.1810
19 19 2 -16.9588 2.1699
19 19 4 -3.3797 -1.5003
19 19 6 2.2563 3.0287
19 19 8 18.5404 2.3389
19 19 10 22.7263 -0.3015
19 19 12 16.6237 4.5482
19 19 14 -3.7844 -2.9902
20 0 0 -0.7774 0.1183
20 0 2 -31.4353 -2.2977
20 0 4 -17.5232 -0.2562
20 0 6 4.0066 -2.3788
20 0 8 33.8349 0.4575
20 0 10 34.3202 -1.5812
20 0 12 15.6804 -1.0320
20 0 14 10.0667 -0.2271
20 0 16 29.5664 -3.8146
20 0 18 -9.9485 0.7623
20 0 20 -0.5813 -3.7093
20 0 22 -3.3251 1.4533
20 1 1 -16.0068 0.0814
20 1 3 -18.1651 0.7708
20 1 5 -7.4097 0.0812
20 1 7 2.1876 -1.5483
20 1 9 19.5008 -0.0966
20 1 11 21.7867 -0.7197
20 1 13 18.4014 0.4693
20 1 15 15.4829 -0.0024
20 1 17 11.5880 1.0210
20 1 19 -4.2049 -0.0257
20 1 21 -5.1283 -0.1274
20 1 23 -1.3061 -0.2394
20 2 0 -24.7148 0.1385
20 2 2 -2.7220 1.0609
20 2 4 -17.1649 0.7219
20 2 6 5.2175 -0.4308
20 2 8 13.5746 0.8134
20 2 10 18.6390 -1.1252
20 2 12 18.2444 1.0294
20 2 14 16.4161 -0.7605
20 2 16 2.0759 1.7030
20 2 18 -8.0278 -0.3886
20 2 20 -13.3388 0.9747
20 2 22 -4.7061 -0.4879
20 2 24 0.3173 0.0787
20 3 1 -37.0171 -1.4355
20 3 3 -1.4361 -0.6460
20 3 5 1.7148 0.0025
20 3 7 6.4921 0.2693
20 3 9 20.4045 0.0910
20 3 11 26.6432 -0.5539
20 3 13 15.9425 0.2622
20 3 15 4.3227 -0.1452
20 3 17 -12.1965 -0.6497
20 3 19 -20.2954 0.2692
20 3 21 -10.9928 -0.2329
20 3 23 -1.2700 0.0138
20 4 0 -59.5918 -0.1339
20 4 2 -32.7888 -0.6756
20 4 4 0.4098 0.0345
20 4 6 12.9418 0.8185
20 4 8 23.0414 -1.0216
20 4 10 27.1124 1.3561
20 4 12 32.7562 -0.1376
20 4 14 10.8394 -0.4853
20 4 16 -8.0307 -0.8426
20 4 18 -27.8346 -0.4552
20 4 20 -27.8720 -0.3349
20 4 22 -1.0939 0.6076
20 4 24 1.1688 0.4130
20 5 1 -40.7893 -1.7848
20 5 3 -6.3377 1.4890
20 5 5 16.2204 0.6034
20 5 7 12.3625 -0.4887
20 5 9 22.2050 -0.3081
20 5 11 34.4529 1.1190
20 5 13 22.2538 -0.5084
20 5 15 3.0541 1.0525
20 5 17 -18.9461 0.7286
20 5 19 -29.7523 -0.3080
20 5 21 -22.6528 0.6028
20 5 23 -3.2102 0.0709
20 5 25 0.4097 0.3806
20 6 0 -37.1010 5.1010
20 6 2 -25.7157 -1.6892
20 6 4 8.3547 -0.0760
20 6 6 2.7842 0.4695
20 6 8 20.6707 -0.3482
20 6 10 31.6112 -0.0707
20 6 12 26.3077 -0.6652
20 6 14 14.7532 0.6666
20 6 16 -0.2123 -0.4090
20 6 18 -19.3647 0.9086
20 6 20 -15.9169 -0.4070
20 6 22 -8.7737 0.1215
20 6 24 -2.0227 -0.1787
20 6 26 -9.8152 -0.0753
20 7 1 -15.8561 -0.9727
20 7 3 -10.9123 -0.0163
20 7 5 -0.4997 -1.0248
20 7 7 6.6325 0.6219
20 7 9 7.7949 -1.0578
20 7 11 23.0769 -0.2200
20 7 13 11.0628 -0.1192
20 7 15 1.3689 0.0363
20 7 17 -0.5115 -0.1645
20 7 19 -7.0023 -0.0485
20 7 21 -2.1970 0.2878
20 7 23 -3.5526 -0.6540
20 7 25 4.1779 0.3827
20 8 0 8.7845 -2.5528
20 8 2 2.7327 -1.8410
20 8 4 -6.8572 1.1341
20 8 6 -0.1698 0.0737
20 8 8 5.4261 -0.6069
20 8 10 14.4615 0.5496
20 8 12 -2.3583 0.9046
20 8 14 6.9219 -0.5784
20 8 16 3.7961 0.4925
20 8 18 4.1421 -1.2047
20 8 20 -1.7659 0.5688
20 8 22 5.8288 0.0915
20 8 24 0.0859 0.4373
20 8 26 -6.0086 -0.2500
20 9 1 37.9849 1.4362
20 9 3 23.8479 -0.8842
20 9 5 -2.9549 0.7882
20 9 7 -11.6733 -0.5667
20 9 9 -17.8359 1.4777
20 9 11 -16.3978 -0.8675
20 9 13 -17.7089 1.3950
20 9 15 -7.3129 -0.4881
20 9 17 9.0686 0.2835
20 9 19 15.4584 0.7970
20 9 21 4.3375 -0.4335
20 9 23 8.7990 1.1533
20 9 25 -0.9249 -0.6448
20 10 0 71.2047 2.6466
20 10 2 48.4616 0.2461
20 10 4 21.6583 -0.5083
20 10 6 -4.3786 0.4006
20 10 8 -26.8056 -0.0793
20 10 10 -36.7347 -0.6001
20 10 12 -38.4204 0.0560
20 10 14 -22.2614 -0.2086
20 10 16 2.0729 0.1193
20 10 18 20.7805 -0.0218
20 10 20 30.6376 -0.0705
20 10 22 15.2095 -0.0198
20 10 24 7.9089 -0.1107
20 10 26 -1.7352 -0.1440
20 11 1 61.5152 -1.1772
20 11 3 42.7140 1.4717
20 11 5 10.1412 -0.0599
20 11 7 -28.3373 -0.0953
20 11 9 -42.0360 0.8311
20 11 11 -44.4597 0.0136
20 11 13 -32.8362 -0.3153
20 11 15 -8.6219 0.4604
20 11 17 13.1083 0.1866
20 11 19 20.0257 -0.0655
20 11 21 23.0611 0.1233
20 11 23 15.5816 -0.3905
20 11 25 3.9763 1.3973
20 12 0 60.7421 -2.0945
20 12 2 -7.6753 0.0631
20 12 4 26.8867 0.2934
20 12 6 3.8449 0.4387
20 12 8 -40.2081 -0.1587
20 12 10 -29.5925 0.4371
20 12 12 -37.6254 0.6233
20 12 14 -14.6432 0.4273
20 12 16 0.3331 0.2268
20 12 18 10.2955 0.2181
20 12 20 20.5350 0.2566
20 12 22 -5.0453 0.7352
20 13 1 50.7093 -2.6576
20 13 3 44.2106 0.2655
20 13 5 10.2282 -0.6472
20 13 7 -29.6214 0.9114
20 13 9 -45.0577 -1.8220
20 13 11 -33.2673 0.5608
20 13 13 -25.7124 -0.5490
20 13 15 0.7415 0.3269
20 13 17 14.0073 -0.5483
20 13 19 21.0484 -0.3612
20 13 21 21.7266 0.2079
20 14 0 47.2434 1.0634
20 14 2 0.2438 -0.5746
20 14 4 24.6648 0.1285
20 14 6 -3.3623 -0.9201
20 14 8 -7.9740 0.4634
20 14 10 -26.3050 -0.0812
20 14 12 -10.0823 -0.2254
20 14 14 -9.2216 0.0477
20 14 16 0.9754 -0.6616
20 14 18 9.3647 0.6579
20 15 1 19.7745 -1.3922
20 15 3 15.1846 0.7841
20 15 5 5.4601 0.2022
20 15 7 -8.5603 -0.3539
20 15 9 -10.3755 -0.3012
20 15 11 -6.2831 -0.2986
20 15 13 -7.3987 0.3622
20 15 15 -6.8365 0.1859
20 16 0 4.4596 0.3325
20 16 2 -4.8580 -0.3447
20 16 4 -1.9161 0.1524
20 16 6 -2.1648 0.9107
20 16 8 0.6675 0.0524
20 16 10 -5.0392 1.0872
20 16 12 -4.3761 -0.4825
20 16 14 -0.3834 0.7253
20 17 1 -13.0234 -0.0787
20 17 3 -9.6701 0.4073
20 17 5 -3.7724 0.0474
20 17 7 7.0746 -0.0971
20 17 9 -0.7401 0.2758
20 17 11 10.0297 -0.1488
20 17 13 2.6578 0.3427
20 18 0 -2.3121 0.6256
20 18 2 -6.9227 1.0308
20 18 4 -9.4757 -0.6805
20 18 6 3.1668 0.7012
20 18 8 16.2578 1.4960
20 18 10 16.8872 -0.1962
20 18 12 8.0935 0.8333
20 18 14 12.2740 -0.3868
20 19 1 -4.8606 0.9045
20 19 3 -7.1269 -0.6162
20 19 5 0.4493 0.6503
20 19 7 10.4669 -1.6776
20 19 9 17.0903 2.3133
20 19 11 9.0909 -1.4028
20 19 13 8.3109 0.5683
20 20 2 1.4839 0.6026
20 20 4 -1.5808 -1.4331
20 20 6 10.4538 -0.8474
20 20 8 10.2009 -0.6651
20 20 10 11.6535 -2.3366
20 20 12 -1.7976 0.4478
21 0 1 21.6226 0.8950
21 0 3 21.2591 1.6026
21 0 5 -3.7481 -4.9955
21 0 7 0.3426 -0.5877
21 0 9 5.2425 -3.7208
21 0 11 -2.1192 -2.0651
21 0 13 3.0225 1.7680
21 0 15 11.7746 -2.6536
21 0 17 18.4674 3.9261
21 0 19 1.6032 -3.7556
21 0 21 4.4156 0.7615
21 1 0 16.0334 0.0585
21 1 2 2.6356 0.3091
21 1 4 -3.3382 1.0675
21 1 6 -5.6631 -0.5355
21 1 8 6.4444 -0.7949
21 1 10 0.5507 1.4904
21 1 12 3.9790 -1.0337
21 1 14 4.7767 1.4759
21 1 16 8.2346 -1.2453
21 1 18 9.6524 0.2888
21 1 20 6.0279 0.1367
21 1 22 -5.0940 -0.5275
21 2 1 -9.5561 -0.2620
21 2 3 -2.6985 1.8485
21 2 5 -0.2551 -1.1283
21 2 7 5.9151 1.8199
21 2 9 -2.5111 0.1410
21 2 11 -0.5940 1.3799
21 2 13 7.7018 -0.6478
21 2 15 5.5304 0.0234
21 2 17 -8.1703 -0.1570
21 2 19 5.0026 0.4451
21 2 21 -0.7618 0.2697
21 2 23 -7.9718 0.0553
21 3 0 -17.6017 1.0222
21 3 2 -9.3024 0.0069
21 3 4 4.9346 -0.0863
21 3 6 5.5851 -0.5284
21 3 8 4.6643 0.9675
21 3 10 14.3205 -0.8871
21 3 12 17.2831 0.2364
21 3 14 7.6856 -0.2002
21 3 16 -3.0717 0.2958
21 3 18 -16.7306 -0.0239
21 3 20 -9.2189 -0.0287
21 3 22 0.2237 0.3406
21 4 1 -28.9520 1.8830
21 4 3 -2.7073 -1.4929
21 4 5 11.2709 1.6605
21 4 7 -1.6194 -1.0051
21 4 9 4.3094 -0.0664
21 4 11 21.9609 -0.3748
21 4 13 19.9137 0.2793
21 4 15 3.4842 0.7472
21 4 17 -14.8406 -0.1426
21 4 19 -19.0731 0.4135
21 4 21 -14.1412 -0.3029
21 4 23 -7.2825 -0.0015
21 5 0 -36.5959 -3.8217
21 5 2 -9.8198 1.0287
21 5 4 6.3721 -0.2999
21 5 6 16.8975 0.8103
21 5 8 8.4413 -0.5858
21 5 10 27.8689 -0.1614
21 5 12 21.5532 0.9465
21 5 14 12.4791 0.0790
21 5 16 -7.7737 0.0111
21 5 18 -16.0109 0.1441
21 5 20 -17.5527 -0.1038
21 5 22 -13.2086 0.6797
21 5 24 5.3400 0.1055
21 6 1 -33.3420 -1.0454
21 6 3 -13.9692 -0.2705
21 6 5 1.0501 0.2744
21 6 7 4.7229 -0.6323
21 6 9 13.8518 0.9541
21 6 11 26.0353 0.1363
21 6 13 16.4638 -0.2061
21 6 15 11.4527 -0.2948
21 6 17 -13.3313 -0.2805
21 6 19 -14.9437 0.5711
21 6 21 -6.9130 -0.2649
21 6 23 -4.1591 -0.3248
21 7 0 -14.8969 -0.0779
21 7 2 -18.8666 1.0510
21 7 4 -10.6576 -0.9773
21 7 6 -4.6002 -0.7099
21 7 8 2.1918 0.6774
21 7 10 14.0469 -0.1079
21 7 12 10.0140 -0.3190
21 7 14 2.5470 -0.2293
21 7 16 5.2463 -0.1962
21 7 18 -1.2497 -0.6296
21 7 20 -3.0273 0.1515
21 7 22 0.1244 -0.6373
21 7 24 -2.9952 0.3695
21 8 1 20.0535 -0.3571
21 8 3 4.8507 0.8333
21 8 5 -3.6973 -0.7005
21 8 7 -0.8232 1.2408
21 8 9 -1.5956 -0.9359
21 8 11 -4.5256 0.1578
21 8 13 6.5595 0.6776
21 8 15 4.9713 -0.0065
21 8 17 4.8154 0.4572
21 8 19 12.0437 -0.4269
21 8 21 5.0411 -0.1302
21 8 23 -4.1956 0.5893
21 8 25 -2.8892 -0.4918
21 9 0 31.8587 -1.3921
21 9 2 -5.2794 0.6345
21 9 4 -0.2405 0.6395
21 9 6 -11.5638 0.0213
21 9 8 -13.1786 0.2234
21 9 10 -18.8658 0.0227
21 9 12 -19.2203 -0.7013
21 9 14 -8.2739 0.8565
21 9 16 6.3193 -0.3474
21 9 18 18.3033 0.2265
21 9 20 0.0356 0.0643
21 9 22 5.8478 -0.3543
21 9 24 0.7424 0.3498
21 10 1 59.1253 -0.5193
21 10 3 27.2664 0.2362
21 10 5 -0.8593 0.2013
21 10 7 -16.9120 -1.0082
21 10 9 -35.2691 -0.0114
21 10 11 -26.6088 0.0856
21 10 13 -28.7360 -0.6288
21 10 15 -3.5073 -0.4117
21 10 17 18.0620 0.0527
21 10 19 27.3186 -0.5813
21 10 21 22.1748 0.7717
21 10 23 6.0019 -0.5565
21 10 25 0.3391 0.0301
21 11 0 54.7799 1.9690
21 11 2 35.1473 0.1962
21 11 4 28.9028 -0.4016
21 11 6 -5.6710 -0.5813
21 11 8 -20.6704 0.6651
21 11 10 -40.3557 -0.0629
21 11 12 -26.3082 0.2816
21 11 14 -12.4194 -0.2697
21 11 16 9.0752 -0.6095
21 11 18 7.2304 0.1852
21 11 20 20.7489 -0.5729
21 11 22 12.0756 0.7030
21 11 24 13.4458 -0.6768
21 12 1 42.2188 1.4040
21 12 3 30.2087 -1.3928
21 12 5 1.7124 0.2523
21 12 7 -32.0538 0.0860
21 12 9 -53.0916 -0.2608
21 12 11 -44.1199 0.1876
21 12 13 -27.2752 -0.0949
21 12 15 -0.3904 0.8296
21 12 17 13.1093 -0.4080
21 12 19 27.4120 0.7662
21 12 21 21.1518 -0.2216
21 13 0 25.0048 -3.2796
21 13 2 27.8749 -0.3865
21 13 4 16.5321 0.5171
21 13 6 -11.1791 1.0271
21 13 8 -12.3346 -0.6051
21 13 10 -37.9495 0.0078
21 13 12 -29.0992 0.2560
21 13 14 -13.3933 -0.5065
21 13 16 13.6123 0.2746
21 13 18 14.8348 -0.8623
21 14 1 34.3311 0.7704
21 14 3 24.8515 0.1699
21 14 5 9.5560 0.6236
21 14 7 -21.4782 -0.6073
21 14 9 -29.3114 0.7345
21 14 11 -20.1994 -0.3941
21 14 13 -11.3847 0.3718
21 14 15 -4.4546 -0.4744
21 15 0 14.0977 3.2625
21 15 2 20.3583 0.4574
21 15 4 7.6015 -0.3887
21 15 6 -5.1887 0.4830
21 15 8 -12.9165 0.3116
21 15 10 -12.6794 -0.0664
21 15 12 -11.3068 0.6699
21 15 14 -4.4099 -0.1285
21 16 1 14.6930 0.0436
21 16 3 4.1026 0.4727
21 16 5 2.1714 -0.8729
21 16 7 -0.0196 0.8870
21 16 9 -2.4723 -0.8352
21 16 11 -2.5772 0.6025
21 16 13 -2.0413 -0.4206
21 17 0 2.1815 -3.9084
21 17 2 0.4687 -1.3998
21 17 4 -6.9574 1.3724
21 17 6 -0.4851 -0.8212
21 17 8 4.5663 -0.8275
21 17 10 -2.2405 0.3903
21 17 12 -0.7125 -0.7616
21 18 1 -9.7964 0.2240
21 18 3 -5.3219 -1.8319
21 18 5 -6.0216 1.6659
21 18 7 4.4086 -0.9220
21 18 9 10.7827 0.9588
21 18 11 5.0925 -0.8842
21 19 2 -4.6135 1.2191
21 19 4 1.3943 -0.6800
21 19 6 1.9869 -0.1550
21 19 8 10.7220 -0.5065
21 19 10 9.7559 0.4555
21 19 12 -4.5629 -0.7788
21 20 5 3.2700 -1.5145
21 20 7 3.0736 1.3183
21 20 9 8.0353 -1.5941
21 20 11 7.1554 1.3484
21 21 8 5.8364 1.5278
21 21 10 -2.3911 -1.3089
22 0 0 65.2310 -2.1150
22 0 2 30.6484 0.5142
22 0 4 4.0360 -1.5951
22 0 6 -9.1396 1.6443
22 0 8 -25.2250 -0.1398
22 0 10 -27.4268 1.9846
22 0 12 -15.5638 -0.2051
22 0 14 -4.6523 -1.3889
22 0 16 12.5095 0.9243
22 0 18 14.5729 -2.6613
22 0 20 15.0351 2.1071
22 1 1 25.3645 0.7127
22 1 3 14.9771 -1.1325
22 1 5 -0.5089 1.2304
22 1 7 -11.2034 -0.0590
22 1 9 -15.0043 0.3410
22 1 11 -19.1424 -0.1068
22 1 13 -17.2702 0.9851
22 1 15 0.2865 0.9424
22 1 17 10.2038 0.2591
22 1 19 12.7183 0.3144
22 1 21 14.3128 0.1059
22 2 0 5.8418 0.0631
22 2 2 16.8352 0.1278
22 2 4 14.3245 0.3928
22 2 6 -6.8656 -0.4251
22 2 8 -13.8393 -0.7122
22 2 10 -15.4965 0.5368
22 2 12 -11.1367 -0.9781
22 2 14 -4.0625 1.4961
22 2 16 -3.3183 -0.5406
22 2 18 7.8207 1.0147
22 2 20 9.9408 0.0894
22 3 1 -0.9304 -1.2998
22 3 3 5.7528 1.8793
22 3 5 -2.5226 -2.0105
22 3 7 -11.0108 0.8147
22 3 9 -9.8141 -1.2860
22 3 11 -2.6780 0.9961
22 3 13 4.0384 -1.5054
22 3 15 -0.2687 -0.3388
22 3 17 -1.3803 -0.2583
22 3 19 2.6728 -0.4234
22 3 21 -4.8699 0.1519
22 4 0 -16.9194 2.6346
22 4 2 -4.6061 -0.9874
22 4 4 9.1058 -0.1693
22 4 6 -1.4125 -0.6147
22 4 8 -7.2206 1.1926
22 4 10 2.6938 -0.5201
22 4 12 12.0489 -0.1616
22 4 14 8.7476 -0.5375
22 4 16 -5.8073 0.3456
22 4 18 -5.6022 -0.0568
22 4 20 -7.1334 -0.6753
22 4 22 4.6954 -0.6743
22 5 1 -17.6895 1.4719
22 5 3 0.7408 -1.7262
22 5 5 1.9167 1.1316
22 5 7 2.7574 -0.2103
22 5 9 -2.0570 1.0569
22 5 11 15.2103 -1.1581
22 5 13 11.7258 1.0736
22 5 15 1.7504 -0.2427
22 5 17 -7.1967 -0.2518
22 5 19 -7.7869 -0.0525
22 5 21 -16.5338 0.0347
22 5 23 -1.0898 0.2038
22 6 0 -21.6377 -0.8933
22 6 2 -18.9038 0.1732
22 6 4 -1.6915 -0.2805
22 6 6 -1.0867 1.0792
22 6 8 2.5251 -0.9662
22 6 10 16.2756 0.1968
22 6 12 13.3891 1.1238
22 6 14 10.6220 -1.5179
22 6 16 -4.4113 1.5410
22 6 18 -12.3632 -0.1210
22 6 20 -7.0530 -0.3010
22 6 22 -0.3373 0.4645
22 7 1 -16.3519 0.9829
22 7 3 -21.4875 -0.4115
22 7 5 -13.1516 0.0985
22 7 7 -4.5777 -0.4200
22 7 9 -0.2190 0.3625
22 7 11 8.8123 -0.0437
22 7 13 3.8782 -0.0860
22 7 15 5.3478 -0.0881
22 7 17 0.2871 -0.5539
22 7 19 -1.5086 0.1874
22 7 21 -7.1491 -0.3455
22 7 23 -0.0151 0.4801
22 8 0 4.3330 3.4320
22 8 2 -1.9935 -1.2145
22 8 4 -13.4273 0.6801
22 8 6 -7.5205 -0.4752
22 8 8 -4.9524 0.5980
22 8 10 -8.9014 0.2282
22 8 12 -9.5201 -1.2444
22 8 14 -0.6440 1.4414
22 8 16 2.6534 -0.7325
22 8 18 3.0653 0.5409
22 8 20 3.0023 0.5619
22 8 22 -4.0217 -0.6742
22 8 24 -15.8027 0.2857
22 9 1 33.1411 0.6121
22 9 3 5.5728 0.7944
22 9 5 -6.3607 -0.9002
22 9 7 -14.9885 0.4787
22 9 9 -9.7416 -0.5940
22 9 11 -16.1443 0.4669
22 9 13 -4.9739 -0.9513
22 9 15 5.3147 -0.1002
22 9 17 15.1656 0.8536
22 9 19 16.6370 -0.6062
22 9 21 9.0789 0.2593
22 9 23 3.5046 -1.0229
22 10 0 29.4246 -1.5895
22 10 2 10.1332 -0.2198
22 10 4 8.4711 0.3225
22 10 6 -13.1473 -0.2188
22 10 8 -14.7210 -0.9306
22 10 10 -25.0890 0.2684
22 10 12 -16.4807 -0.0538
22 10 14 -1.1770 -0.2635
22 10 16 7.1990 -0.1131
22 10 18 15.2120 -0.0821
22 10 20 6.4821 -0.2604
22 10 22 12.8248 0.1192
22 10 24 6.4915 -0.3929
22 11 1 35.3247 0.9268
22 11 3 4.7830 -0.9807
22 11 5 -0.4273 -0.4473
22 11 7 -20.8266 0.8250
22 11 9 -33.9240 -0.7297
22 11 11 -26.2387 0.8021
22 11 13 -9.9232 -0.3641
22 11 15 3.2603 0.4073
22 11 17 19.8646 -0.7713
22 11 19 17.1954 0.3536
22 11 21 12.9947 -0.2243
22 12 0 39.8832 0.4676
22 12 2 -10.7908 0.3893
22 12 4 15.3336 -0.3759
22 12 6 -12.7616 -0.4061
22 12 8 -34.4535 0.6187
22 12 10 -31.3386 0.2868
22 12 12 -26.2812 -0.4679
22 12 14 -6.7550 -0.0983
22 12 16 3.2145 -0.1414
22 12 18 10.0844 0.6116
22 13 1 26.2157 -0.9401
22 13 3 11.2521 0.6324
22 13 5 6.4474 0.4339
22 13 7 -32.0608 -0.7407
22 13 9 -31.0558 1.5920
22 13 11 -29.2595 -1.4725
22 13 13 -15.8821 0.9433
22 13 15 -3.9574 -0.7685
22 13 17 -3.5205 0.1532
22 14 0 33.3963 0.3017
22 14 2 23.7697 1.2079
22 14 4 10.2769 -0.8917
22 14 6 -5.4700 0.2229
22 14 8 -20.5560 0.0243
22 14 10 -22.9823 -1.3493
22 14 12 -9.0190 0.6415
22 14 14 -0.7185 -1.2224
22 15 1 12.5108 0.0320
22 15 3 3.8946 -0.0435
22 15 5 4.1013 0.1642
22 15 7 -8.7325 -0.0655
22 15 9 -11.6583 0.0237
22 15 11 -7.0202 0.1887
22 15 13 -9.2000 0.3778
22 16 0 8.4674 0.5799
22 16 2 11.3983 0.1753
22 16 4 1.7866 -0.2218
22 16 6 1.7922 -0.7979
22 16 8 -8.3827 -0.0090
22 16 10 2.0597 0.2492
22 16 12 -0.9164 -0.9854
22 17 1 5.3344 0.3168
22 17 3 1.8954 -0.5931
22 17 5 -2.0375 -0.7221
22 17 7 -1.6967 0.6428
22 17 9 3.3295 -0.4382
22 17 11 0.9228 0.7487
22 18 2 -5.1395 -0.6000
22 18 4 -6.0214 0.2241
22 18 6 -2.1462 0.1875
22 18 8 -0.3671 -0.0577
22 18 10 3.1777 0.0306
22 19 5 0.5226 -0.6859
22 19 7 -0.5575 0.4935
22 19 9 3.5357 -0.7890
22 19 11 17.2454 -0.0968
22 20 8 0.2253 0.2356
22 20 10 2.7486 -0.1609
23 0 1 -21.5192 -0.3631
23 0 3 17.6549 -3.3021
23 0 5 -8.5649 1.9628
23 0 7 -24.8733 -7.3821
23 0 9 -10.8177 1.0111
23 0 11 -45.7469 -3.2859
23 0 13 -13.6162 -1.5005
23 0 15 -14.7500 0.4835
23 0 17 16.6335 -2.7743
23 0 19 18.7300 1.5692
23 1 0 60.3789 0.9237
23 1 2 41.1983 -1.3712
23 1 4 4.5104 -0.1555
23 1 6 -14.5890 -0.0534
23 1 8 -28.5505 0.5507
23 1 10 -43.9492 -0.2750
23 1 12 -13.2987 0.3563
23 1 14 -20.0350 -0.9369
23 1 16 1.9435 0.5498
23 1 18 18.8946 -1.1569
23 1 20 9.7369 -0.0024
23 2 1 32.7982 -0.1618
23 2 3 27.6370 0.1889
23 2 5 -10.0182 1.3760
23 2 7 -20.7051 -0.5094
23 2 9 -22.7653 1.3085
23 2 11 -30.9632 0.1542
23 2 13 2.8017 -0.1127
23 2 15 -10.5600 0.7019
23 2 17 8.6004 -0.4443
23 2 19 20.3260 -0.2750
23 3 0 2.0473 -0.6469
23 3 2 9.6817 0.3238
23 3 4 13.1782 0.5215
23 3 6 -2.2554 0.5462
23 3 8 -22.1394 -0.5635
23 3 10 -22.3510 0.0742
23 3 12 -6.0543 -0.1505
23 3 14 -4.6896 0.7899
23 3 16 4.6249 -0.9358
23 3 18 6.5993 0.7331
23 3 20 3.2112 0.0061
23 4 1 -8.1695 -1.0905
23 4 3 5.4456 0.8436
23 4 5 4.8911 -1.2782
23 4 7 -6.5227 1.0629
23 4 9 -7.2036 -1.1811
23 4 11 3.4903 0.8501
23 4 13 7.9446 -0.2043
23 4 15 -1.3231 0.0368
23 4 17 1.6866 0.6467
23 4 19 1.5627 0.3313
23 4 21 -14.0623 -0.3496
23 5 0 -23.6831 -1.3385
23 5 2 -12.0273 0.5945
23 5 4 -0.2206 -0.5051
23 5 6 -4.3241 0.8088
23 5 8 0.4298 -0.2908
23 5 10 13.2667 -0.5660
23 5 12 15.1421 0.9301
23 5 14 8.9652 -0.9512
23 5 16 -5.3982 0.7883
23 5 18 -0.6499 -0.7088
23 5 20 -0.5210 0.7233
23 6 1 -9.5353 -0.5527
23 6 3 -2.7154 -0.0954
23 6 5 -0.8437 -0.2026
23 6 7 -1.4803 0.4683
23 6 9 3.4213 0.0027
23 6 11 15.9291 -1.3437
23 6 13 9.5513 1.4628
23 6 15 -3.4364 -1.4651
23 6 17 4.1353 0.4664
23 6 19 -7.4122 -0.6788
23 6 21 -7.6106 0.2402
23 7 0 -10.4566 -2.1543
23 7 2 -8.6807 0.1449
23 7 4 -5.7422 0.7380
23 7 6 -3.0859 -0.9723
23 7 8 5.8975 0.2133
23 7 10 3.1960 -0.6194
23 7 12 5.3224 -0.1486
23 7 14 3.4858 0.8363
23 7 16 -3.2795 -1.1632
23 7 18 -11.1374 0.4400
23 7 20 -9.6174 -0.7113
23 7 22 -10.7181 0.5193
23 8 1 -5.6998 -1.7541
23 8 3 -9.1792 0.7936
23 8 5 -15.8568 0.6624
23 8 7 -3.7053 -0.6328
23 8 9 -4.9173 -0.2291
23 8 11 2.3197 0.9330
23 8 13 -2.7796 -1.4517
23 8 15 -3.5851 1.6646
23 8 17 3.9552 -0.4348
23 8 19 -6.6257 0.7290
23 8 21 -6.9862 -0.4475
23 9 0 28.1493 1.8495
23 9 2 7.1296 0.4215
23 9 4 -1.3155 -0.5205
23 9 6 -2.2990 0.1353
23 9 8 -1.4298 0.0006
23 9 10 -6.4050 0.2012
23 9 12 -3.5996 -0.1182
23 9 14 -0.7935 0.1544
23 9 16 3.2717 0.1729
23 9 18 9.4750 -0.0777
23 9 20 -1.1308 0.4423
23 9 22 -1.2772 -0.4790
23 10 1 6.8124 -1.6250
23 10 3 1.3823 0.1916
23 10 5 -5.8264 0.8052
23 10 7 -7.6963 0.0957
23 10 9 -9.5239 0.4582
23 10 11 -6.6316 -0.5103
23 10 13 6.3902 1.1433
23 10 15 5.1428 -0.0211
23 10 17 5.6543 -0.3761
23 10 19 13.2430 -0.7146
23 10 21 -0.1681 0.6854
23 11 0 1.0327 -2.2976
23 11 2 6.0571 -1.1581
23 11 4 -1.6641 0.7485
23 11 6 -7.5317 0.5673
23 11 8 -14.5328 -0.7022
23 11 10 -8.9399 0.2599
23 11 12 -5.3121 0.1632
23 11 14 5.1899 -0.0282
23 11 16 4.5396 0.4496
23 11 18 9.2732 -0.0093
23 11 20 8.7600 0.4422
23 12 1 11.2933 -0.1872
23 12 3 8.6046 0.2752
23 12 5 -1.9243 -0.2182
23 12 7 -15.0267 0.3465
23 12 9 -16.0849 -0.3927
23 12 11 -4.3592 0.3936
23 12 13 -4.5901 -0.3853
23 12 15 1.3190 -0.2246
23 12 17 4.4866 0.1340
23 13 0 2.6131 3.1716
23 13 2 5.0598 -0.1491
23 13 4 1.2774 -0.8007
23 13 6 -9.1636 0.4632
23 13 8 -21.5954 -0.3432
23 13 10 -19.1559 -0.4703
23 13 12 -5.7385 0.5251
23 13 14 0.7294 0.2764
23 14 1 7.1644 0.9253
23 14 3 5.1663 -0.0902
23 14 5 0.2537 -0.3093
23 14 7 -7.9034 -0.3248
23 14 9 -14.0893 0.0239
23 14 11 -11.1345 -0.7831
23 14 13 -7.0597 0.1584
23 15 0 14.2432 -3.2357
23 15 2 12.3424 -1.0744
23 15 4 5.6507 1.3362
23 15 6 -4.0703 -0.2276
23 15 8 -9.7896 0.2990
23 15 10 -8.6661 -0.1839
23 15 12 11.9745 0.6845
23 16 1 1.4684 -0.6014
23 16 3 2.1292 -0.3763
23 16 5 -0.2173 0.5455
23 16 7 -2.8570 -0.3915
23 16 9 -3.1298 0.4849
23 16 11 -4.7941 -0.2590
23 17 2 -3.3550 0.4899
23 17 4 -2.8220 -0.7231
23 17 6 -3.7416 0.6736
23 17 8 1.4976 -0.6165
23 17 10 -0.5076 1.3380
23 18 5 -6.5627 -0.1381
23 18 7 1.6455 0.3428
23 18 9 2.6002 -0.9729
23 19 8 4.3219 0.5717
24 0 0 81.7252 0.6090
24 0 2 44.7238 -1.4495
24 0 4 -7.3006 0.9395
24 0 6 -13.5421 0.5361
24 0 8 -35.8766 2.2272
24 0 10 -41.0752 0.6483
24 0 12 -24.4604 0.6252
24 0 14 -10.3514 -0.4340
24 0 16 2.2794 -2.1180
24 1 1 4.7062 -0.4476
24 1 3 27.0052 0.6782
24 1 5 -0.9850 -0.3866
24 1 7 -22.9989 0.5855
24 1 9 -31.4396 0.5232
24 1 11 -30.5679 0.1438
24 1 13 -19.6396 0.6909
24 1 15 -1.6727 -0.2094
24 1 17 11.9621 0.7243
24 2 0 41.1103 -1.0291
24 2 2 33.5014 0.5229
24 2 4 14.2180 -0.0149
24 2 6 -16.4401 -0.1514
24 2 8 -25.8885 -0.1567
24 2 10 -26.7282 -0.1638
24 2 12 -22.1071 0.2989
24 2 14 -10.9664 -0.1870
24 2 16 5.4266 1.0080
24 2 18 10.0535 0.1616
24 3 1 12.2762 1.5280
24 3 3 19.9575 -2.1181
24 3 5 0.9058 0.7055
24 3 7 -17.5345 -0.6074
24 3 9 -23.6867 -0.3635
24 3 11 -16.7585 -0.4693
24 3 13 -1.2396 -0.5027
24 3 15 4.8469 0.2425
24 3 17 9.1422 -1.0316
24 3 19 5.6078 0.3208
24 4 0 -2.6248 -0.1931
24 4 2 10.3859 0.6857
24 4 4 9.3867 -0.8389
24 4 6 0.9466 -0.5755
24 4 8 -4.5208 0.0729
24 4 10 -2.1931 0.4004
24 4 12 3.6099 -0.4369
24 4 14 5.2298 -0.1153
24 4 16 4.5778 -0.6313
24 4 18 3.2525 -0.1694
24 4 20 3.3732 0.0051
24 5 1 -7.4188 0.4741
24 5 3 1.2160 1.0841
24 5 5 1.1150 -0.3862
24 5 7 2.2687 -0.0994
24 5 9 5.0805 0.2964
24 5 11 12.0645 -0.3324
24 5 13 12.7659 0.4541
24 5 15 7.5198 -0.1850
24 5 17 -1.5778 0.6363
24 5 19 -6.8611 0.2296
24 6 0 -9.6533 2.9201
24 6 2 -6.6435 -0.4237
24 6 4 -2.0855 -0.2371
24 6 6 3.8405 -0.0134
24 6 8 6.2883 0.4042
24 6 10 13.0654 0.0662
24 6 12 11.9027 -0.3636
24 6 14 3.5852 0.1271
24 6 16 -1.4988 0.6204
24 6 18 -5.5996 -0.4877
24 6 20 -9.3459 0.6581
24 7 1 -6.4361 1.1971
24 7 3 -6.2504 -0.0118
24 7 5 -0.2321 -0.1601
24 7 7 8.5475 0.2182
24 7 9 10.7832 -0.3324
24 7 11 6.2161 0.9572
24 7 13 8.1199 -0.4667
24 7 15 1.7158 0.1800
24 7 17 -9.4216 0.2136
24 7 19 -13.1897 -0.5342
24 7 21 -2.2486 0.5994
24 8 0 -8.9156 -1.1171
24 8 2 -5.2988 -0.4608
24 8 4 -9.1963 0.7022
24 8 6 -0.9276 -0.2794
24 8 8 8.3315 0.3273
24 8 10 5.7714 0.4548
24 8 12 1.6679 -0.0645
24 8 14 1.7231 0.1471
24 8 16 -2.0476 -0.6830
24 8 18 -5.0936 0.6276
24 8 20 -4.5908 -0.7667
24 9 1 7.3897 2.2705
24 9 3 1.9326 -1.3918
24 9 5 -2.7467 -0.0244
24 9 7 5.6472 -0.3351
24 9 9 6.0924 0.2908
24 9 11 6.6294 0.3838
24 9 13 5.8625 -0.6161
24 9 15 0.5531 -0.0075
24 9 17 -4.0235 -0.7513
24 9 19 -9.8927 0.7774
24 10 0 5.5963 -0.1883
24 10 2 2.4982 0.6571
24 10 4 -1.6042 -0.5618
24 10 6 3.8058 0.2789
24 10 8 5.4825 -0.2329
24 10 10 5.4107 -0.1767
24 10 12 9.5581 0.2710
24 10 14 2.0232 -0.2008
24 10 16 4.5888 0.5966
24 10 18 1.8419 -0.4859
24 10 20 -13.3461 0.4285
24 11 1 -1.7040 0.2076
24 11 3 -6.1902 0.0063
24 11 5 -0.0178 -0.3020
24 11 7 5.2528 -0.4585
24 11 9 -2.6861 0.4601
24 11 11 3.4393 -0.9819
24 11 13 7.5550 0.7286
24 11 15 8.0468 -1.0689
24 11 17 0.6254 1.4380
24 12 0 5.0158 -0.5760
24 12 2 3.9295 1.0686
24 12 4 5.5086 -0.2627
24 12 6 1.4506 -0.1994
24 12 8 -4.0407 0.6584
24 12 10 -0.6486 -0.2003
24 12 12 8.6694 0.3159
24 13 1 0.5551 0.2854
24 13 3 2.5272 -0.0968
24 13 5 0.2501 0.1931
24 13 7 -6.3898 0.0827
24 13 9 0.6949 -0.1378
24 13 11 -0.8613 0.7741
24 14 0 -7.4697 0.1501
24 14 2 5.4063 0.8047
24 14 4 -1.2254 -0.3608
24 14 6 -2.0938 -0.6527
24 14 8 -4.0194 0.2695
24 14 10 -3.7190 0.8421
24 14 12 6.5671 -1.0334
24 15 1 4.0091 -0.6627
24 15 3 7.5248 0.4634
24 15 5 3.3424 -0.6640
24 15 7 1.0809 1.0745
24 15 9 1.2455 -0.8188
24 15 11 -0.2294 0.5508
24 16 4 0.2171 0.2553
24 16 6 -0.1533 -0.3890
24 16 8 -0.9443 0.8344
24 16 10 1.1588 -0.4454
24 17 5 -5.5976 0.9301
24 17 7 -2.7610 -1.0839
24 17 9 3.5298 0.6837
24 18 8 -1.6052 -0.3370
25 0 1 44.2804 -1.8810
25 0 3 38.6496 2.3272
25 0 5 2.9887 -5.0184
25 0 7 -16.9981 2.7896
25 0 9 -33.2999 -4.6834
25 0 11 -9.3778 0.8887
25 0 13 -23.2092 -0.8271
25 0 15 1.7510 -1.4691
25 1 0 60.9437 0.5794
25 1 2 41.3834 0.0524
25 1 4 12.3556 -0.5936
25 1 6 -10.9979 0.3606
25 1 8 -27.3055 -0.0451
25 1 10 -37.1210 0.2065
25 1 12 -5.6319 0.3856
25 1 14 -13.9844 -0.8376
25 1 16 13.6158 -0.3445
25 2 1 1.4616 -0.3427
25 2 3 16.1416 0.3659
25 2 5 2.2327 -0.0867
25 2 7 -23.3226 1.3933
25 2 9 -36.4382 -0.3068
25 2 11 -27.9382 1.4080
25 2 13 -16.3046 -0.2435
25 2 15 1.1838 -0.3879
25 2 17 17.7655 0.9802
25 3 0 31.6158 0.6559
25 3 2 17.0277 -0.7841
25 3 4 2.9830 -0.0958
25 3 6 -11.0523 0.3046
25 3 8 -19.6517 -0.1498
25 3 10 -21.4458 0.1639
25 3 12 -10.7040 -0.5901
25 3 14 -1.3594 0.8600
25 3 16 2.6816 -0.3293
25 4 1 7.8938 -0.0924
25 4 3 11.0418 -0.4163
25 4 5 -0.9149 0.9781
25 4 7 -11.8842 -1.3750
25 4 9 -9.4220 0.9220
25 4 11 2.2697 -1.1305
25 4 13 1.6084 0.6145
25 4 15 6.6806 0.7392
25 4 17 2.4417 -0.6616
25 5 0 -2.0705 -0.8195
25 5 2 0.7673 -0.2443
25 5 4 5.2124 1.0778
25 5 6 1.0107 -0.1252
25 5 8 1.3063 0.3238
25 5 10 7.6240 -0.2358
25 5 12 10.1113 0.6922
25 5 14 7.5679 -0.0633
25 5 16 1.4655 0.4055
25 5 18 0.2449 -0.7661
25 6 1 -13.6852 -0.7269
25 6 3 -7.0321 0.1558
25 6 5 1.6954 -0.1255
25 6 7 7.5358 -0.2131
25 6 9 17.2354 0.5317
25 6 11 11.3510 -0.0696
25 6 13 14.4012 -0.0717
25 6 15 3.8969 -0.5617
25 6 17 4.1137 -0.6872
25 6 19 -5.0184 1.2597
25 7 0 -7.9126 0.7417
25 7 2 -11.1907 0.4344
25 7 4 0.1596 -0.8940
25 7 6 4.1738 0.4113
25 7 8 5.6811 -0.4453
25 7 10 21.0379 0.4712
25 7 12 9.1048 -0.3012
25 7 14 6.6040 -0.2777
25 7 16 -2.8941 -0.2352
25 7 18 -6.8853 0.4105
25 8 1 -6.7588 -1.7341
25 8 3 -9.2563 0.4979
25 8 5 -4.0986 -0.5774
25 8 7 12.6643 0.8425
25 8 9 16.5902 -0.9120
25 8 11 9.6267 -0.1100
25 8 13 5.8693 0.0321
25 8 15 10.6558 0.2209
25 8 17 -4.8790 0.5550
25 8 19 -15.6079 -1.6398
25 9 0 -5.7405 -1.3759
25 9 2 -10.4258 -0.5730
25 9 4 -6.5533 0.6199
25 9 6 6.2753 -0.0971
25 9 8 6.2695 0.0389
25 9 10 10.1499 -0.0686
25 9 12 4.6925 0.2616
25 9 14 5.2855 -0.5943
25 9 16 -0.8336 0.2807
25 9 18 -6.3053 0.3188
25 9 20 -0.6272 -0.6028
25 10 1 -1.9694 -0.8583
25 10 3 0.3040 0.4920
25 10 5 -10.2871 0.0182
25 10 7 6.9753 0.3739
25 10 9 7.2839 -0.6269
25 10 11 9.7935 0.0667
25 10 13 9.1558 0.2643
25 10 15 8.5174 -0.0444
25 10 17 -10.5714 -0.5341
25 11 0 -10.1132 3.4294
25 11 2 -6.2507 -0.2740
25 11 4 -0.0173 -0.7841
25 11 6 2.5892 0.3421
25 11 8 7.1215 0.2312
25 11 10 5.5551 -0.0038
25 11 12 2.1833 -0.2868
25 12 1 -2.8902 0.1319
25 12 3 1.7000 -0.0825
25 12 5 3.9044 0.7909
25 12 7 5.3428 -1.0737
25 12 9 1.4028 0.9312
25 12 11 6.3559 -0.6856
25 13 0 -5.6066 -1.8581
25 13 2 -2.6297 -1.4905
25 13 4 0.7828 1.2667
25 13 6 3.9421 0.2286
25 13 8 6.7257 -0.5482
25 13 10 6.5763 0.0133
25 14 1 4.9781 0.4093
25 14 3 -0.6407 -0.4329
25 14 5 0.7952 -0.7759
25 14 7 1.2850 0.3194
25 14 9 5.4791 -0.2797
25 15 4 3.3384 -0.3459
25 15 6 3.3328 0.1584
25 15 8 2.4250 -0.6319
25 15 10 -2.4782 0.3587
25 16 5 -0.6887 -0.5432
25 16 7 5.8804 0.8511
25 16 9 -1.2236 -0.3012
26 0 0 39.2737 -0.7951
26 0 2 32.3469 -0.9936
26 0 4 4.1866 -1.7075
26 0 6 8.7404 0.5276
26 0 8 -26.5235 0.5325
26 0 10 -29.4021 0.0015
26 0 12 3.1121 0.2119
26 0 14 -7.7939 -2.3880
26 1 1 33.0186 -0.3506
26 1 3 17.6487 -0.2863
26 1 5 -4.1721 -0.0081
26 1 7 -16.9789 0.8629
26 1 9 -25.5826 -1.1063
26 1 11 -22.9800 0.1347
26 1 13 -13.1683 -0.0875
26 1 15 0.9204 -0.2321
26 2 0 37.3726 -1.5949
26 2 2 24.2390 0.8539
26 2 4 3.5899 0.7497
26 2 6 -13.1874 0.0883
26 2 8 -29.3253 -0.1749
26 2 10 -27.1142 0.0295
26 2 12 4.2031 0.0435
26 2 14 -3.5844 0.6659
26 3 1 8.5923 -0.1686
26 3 3 5.4115 0.4625
26 3 5 -5.1257 -0.5213
26 3 7 -12.3778 -0.1548
26 3 9 -17.1514 0.3135
26 3 11 -16.0334 -0.0200
26 3 13 -3.7364 -0.2008
26 3 15 1.0607 0.0984
26 4 0 1.2142 0.5030
26 4 2 1.5022 -0.0067
26 4 4 0.6623 0.0192
26 4 6 -8.5077 -0.1379
26 4 8 -5.7378 -0.0836
26 4 10 -5.5725 0.0864
26 4 12 -0.5765 -0.5713
26 4 14 -3.9309 0.2212
26 4 16 0.4970 -0.0692
26 5 1 -2.7841 0.4325
26 5 3 -7.0465 0.0396
26 5 5 -2.0816 0.3748
26 5 7 -0.7374 0.1311
26 5 9 6.7702 0.2948
26 5 11 9.3794 0.2312
26 5 13 9.5746 0.0990
26 5 15 0.9441 0.4586
26 5 17 3.1318 -0.1177
26 6 0 -16.5828 -0.0921
26 6 2 -12.4696 -0.0194
26 6 4 -12.2474 0.4474
26 6 6 1.7445 -0.7359
26 6 8 8.1236 0.3993
26 6 10 9.2844 -0.2819
26 6 12 15.9426 0.0154
26 6 14 11.5216 0.2404
26 6 16 5.9985 0.0285
26 7 1 -23.1544 1.1032
26 7 3 -13.3134 -1.2913
26 7 5 -8.2038 0.7562
26 7 7 10.8189 -0.8371
26 7 9 16.6640 0.6106
26 7 11 19.8613 -0.3696
26 7 13 11.6314 0.0244
26 7 15 6.4871 -0.0807
26 7 17 3.3321 0.6712
26 8 0 -16.6217 -0.6226
26 8 2 2.6364 0.5390
26 8 4 -2.9803 -0.8982
26 8 6 4.0219 1.0067
26 8 8 12.9221 -0.6185
26 8 10 16.0033 -0.1395
26 8 12 13.1339 0.3850
26 8 14 13.0542 -0.3808
26 8 16 1.3285 0.2710
26 8 18 -8.5092 -0.5366
26 9 1 -17.7889 -0.0105
26 9 3 -18.5899 0.5824
26 9 5 -4.3364 -0.4195
26 9 7 8.8948 0.8796
26 9 9 7.2575 -0.5906
26 9 11 19.5131 0.5846
26 9 13 10.8689 -0.4925
26 9 15 5.7534 0.8538
26 9 17 5.5175 0.7124
26 10 0 -14.8499 -0.7694
26 10 2 -13.2877 0.2430
26 10 4 -9.7825 0.5082
26 10 6 0.8157 -0.4714
26 10 8 10.2979 0.1291
26 10 10 -1.1836 -0.8012
26 11 1 -5.7344 0.3054
26 11 3 -9.8987 -0.2150
26 11 5 -2.0028 0.1972
26 11 7 0.9362 -0.4642
26 11 9 1.2249 0.5759
26 12 0 -21.8603 -0.9911
26 12 2 -8.5564 0.5804
26 12 4 -2.0875 -0.0387
26 12 6 -1.3856 -0.1824
26 12 8 7.0437 0.0376
26 12 10 14.0243 0.4575
26 13 3 -0.2853 -0.0105
26 13 5 -0.7090 0.2664
26 13 7 3.5519 0.7797
26 13 9 2.9577 -0.8162
26 14 4 0.5093 0.1691
26 14 6 2.4725 -0.3073
26 14 8 7.0458 0.6510
26 15 7 0.4777 -1.4853
27 0 1 28.9314 1.2639
27 0 3 6.2495 -1.5742
27 0 5 1.8165 2.6082
27 0 7 -15.4746 -3.2512
27 0 9 -20.1408 1.7587
27 0 11 -23.7751 -1.2238
27 1 0 23.0148 1.2599
27 1 2 14.9533 -0.8907
27 1 4 5.5370 0.1107
27 1 6 -5.9691 0.3973
27 1 8 -29.2560 1.1118
27 1 10 -3.4746 -0.1348
27 1 12 -6.2757 -0.0019
27 2 1 13.9773 0.2776
27 2 3 8.5051 -0.4724
27 2 5 -4.1865 0.9088
27 2 7 -17.4140 -0.1706
27 2 9 0.3263 0.9530
27 2 11 -13.9477 -0.0794
27 2 13 -5.1306 0.5304
27 3 0 8.6063 0.7934
27 3 2 4.5628 -0.1319
27 3 4 2.8979 -0.5626
27 3 6 -7.0319 -0.0924
27 3 8 -8.8767 -0.6847
27 3 10 -1.5378 -0.3386
27 3 12 -8.8206 0.6120
27 3 14 -1.4764 -1.1699
27 4 1 1.1330 0.2263
27 4 3 -1.7455 0.1422
27 4 5 -6.3153 -1.0205
27 4 7 -4.4555 0.1196
27 4 9 -2.3125 -1.0524
27 4 11 -4.5255 -0.1118
27 4 13 -2.0511 -0.4872
27 4 15 2.9760 -0.4012
27 5 0 -10.8729 0.1912
27 5 2 -2.4664 -0.0360
27 5 4 -2.6700 0.3680
27 5 6 -3.7885 -0.4536
27 5 8 5.7596 0.1225
27 5 10 8.3905 0.7531
27 5 12 9.4147 -1.2001
27 5 14 -0.1199 1.1394
27 6 1 -11.9022 -0.5482
27 6 3 -8.4352 0.6986
27 6 5 -1.8824 -0.8910
27 6 7 1.9132 1.1742
27 6 9 16.0655 -0.7816
27 6 11 13.3360 0.8868
27 6 13 13.1285 -0.2750
27 6 15 -6.6046 -0.4242
27 7 0 -18.4153 -0.8964
27 7 2 -18.7966 -0.0310
27 7 4 -9.0615 0.0138
27 7 6 1.1695 -0.2706
27 7 8 8.6638 -0.1592
27 7 10 12.7163 -0.2975
27 7 12 11.4493 0.7461
27 7 14 9.8949 -1.0844
27 7 16 6.5248 1.1043
27 8 1 -17.5637 0.4396
27 8 3 -11.2553 -0.3714
27 8 5 -4.2003 0.8521
27 8 7 9.9987 -1.2713
27 8 9 10.0362 1.2123
27 8 11 17.7218 -0.5299
27 8 13 11.4174 0.4061
27 8 15 4.9964 -0.4591
27 9 0 -12.5573 2.4952
27 9 2 -9.9260 0.3418
27 9 4 -10.4119 -0.4638
27 9 6 0.8124 0.1884
27 9 8 5.5168 0.1493
27 10 1 -11.9445 -0.5074
27 10 3 -7.7686 0.4393
27 10 5 -3.1869 -0.6410
27 10 7 6.8365 0.4317
27 10 9 -6.2262 -0.4483
27 11 2 -5.3697 -0.7848
27 11 4 -5.4565 0.2387
27 11 6 -0.3828 0.1099
27 11 8 7.7822 -0.2492
27 12 3 -9.5026 -0.3707
27 12 5 -0.2000 -0.1246
27 12 7 4.2167 -0.0744
27 13 6 -0.4858 -0.7411
27 13 8 5.1791 -0.5600
28 0 0 21.1300 -0.9268
28 0 2 13.9052 -1.5207
28 0 4 4.2771 -1.6391
28 0 6 -2.6685 -0.2231
28 0 8 -6.1037 -0.3933
28 0 10 -5.6821 -0.3278
28 1 1 12.4071 1.0848
28 1 3 9.7170 -0.9827
28 1 5 2.7099 -0.0612
28 1 7 -4.8266 -0.2556
28 1 9 -13.1316 0.0797
28 1 11 3.8836 -0.3928
28 2 0 9.9941 -0.9641
28 2 2 7.8080 0.5736
28 2 4 4.6865 0.3284
28 2 6 -4.0669 0.2702
28 2 8 -10.0756 -0.0551
28 2 10 -8.5543 -0.4118
28 2 12 -13.6746 0.9639
28 3 1 7.2518 -0.6669
28 3 3 5.1296 0.4706
28 3 5 2.7626 0.7053
28 3 7 -8.3980 -0.7766
28 3 9 -1.5962 0.4516
28 3 11 -5.6874 -0.7606
28 4 0 3.9085 -0.0985
28 4 2 -0.6091 0.2283
28 4 4 2.6377 -0.2516
28 4 6 -0.6665 -0.0693
28 4 8 4.1820 0.3512
28 4 10 12.8162 0.2584
28 4 12 -2.0437 0.3057
28 5 1 -5.1915 -0.7121
28 5 3 -1.1780 0.3704
28 5 5 -3.9032 -0.1923
28 5 7 -1.2880 0.2236
28 5 9 3.5788 -0.2553
28 5 11 4.5066 0.7404
28 5 13 -0.8937 -0.8368
28 6 0 -6.4443 -0.2510
28 6 2 -8.6076 -0.8780
28 6 4 -6.1502 0.0082
28 6 6 4.5455 0.3357
28 6 8 4.0640 -0.0406
28 6 10 8.6346 0.2959
28 6 12 6.1900 -0.4500
28 6 14 0.8268 0.8823
28 7 1 -8.1916 -0.4011
28 7 3 13.5109 0.2025
28 7 5 -5.9996 -0.6472
28 7 7 0.5354 0.4051
28 7 9 -2.3554 -1.2853
28 7 11 5.0891 -0.0535
28 7 13 2.6541 -0.1498
28 8 0 -7.6786 0.2924
28 8 2 -12.8949 -0.2763
28 8 4 -6.6234 0.2051
28 8 6 3.0816 0.3267
28 8 8 -4.1953 0.0418
28 9 1 -4.7602 1.1340
28 9 3 -1.9716 -0.6322
28 9 5 -1.5656 1.2416
28 9 7 -3.2376 -0.7093
28 10 2 -11.0532 -0.0298
28 10 4 -5.0058 -0.3342
28 10 6 2.2795 -0.0162
28 11 5 1.2166 -0.0326
28 11 7 0.4977 0.4980
28 12 6 1.2294 0.2214
29 0 1 11.4067 0.3712
29 0 3 0.5046 1.4031
29 0 5 8.1081 -2.1090
29 0 7 0.6253 1.1353
29 1 0 11.3049 0.5819
29 1 2 7.8312 0.3398
29 1 4 7.5516 -0.0376
29 1 6 4.0484 -0.0106
29 1 8 -6.4674 0.0371
29 2 1 3.6220 0.1605
29 2 3 8.6530 -0.4033
29 2 5 4.6254 0.2369
29 2 7 -4.2281 -0.2076
29 2 9 -0.7839 0.5354
29 3 0 6.1055 0.5437
29 3 2 1.2602 -0.5744
29 3 4 -0.6545 0.0239
29 3 6 -1.4194 -0.0933
29 3 8 2.8475 0.0032
29 3 10 -1.1423 -0.4217
29 4 1 -1.4140 0.3040
29 4 3 1.6913 0.0467
29 4 5 2.1968 -0.4155
29 4 7 -0.2689 0.5485
29 4 9 5.2366 -0.1270
29 4 11 10.4700 0.4012
29 5 0 0.9518 -1.3628
29 5 2 -5.5991 0.7150
29 5 4 0.4685 0.1532
29 5 6 2.2627 0.3477
29 5 8 2.8880 0.1275
29 5 10 5.3995 -0.1575
29 6 1 2.6847 0.6526
29 6 3 0.0647 -0.8919
29 6 5 1.9189 1.3585
29 7 0 -1.2988 0.6658
29 7 2 -4.0726 0.2587
29 7 4 -5.2233 0.0875
29 7 6 6.4851 -0.0467
29 8 1 -6.0724 -1.1327
29 8 3 0.4763 1.1835
29 8 5 -1.9143 -1.4514
29 9 4 -1.5090 0.2703
29 9 6 10.4825 0.1236
29 10 5 4.6708 0.8583
30 0 0 1.3636 -0.8335
30 0 2 2.5262 -0.6224
30 0 4 3.6371 -0.3731
30 0 6 2.5873 -0.4356
30 1 1 -2.6931 -1.0102
30 1 3 2.3526 0.9311
30 1 5 1.3991 0.2273
30 1 7 6.3596 0.8989
30 2 0 -5.5337 0.4384
30 2 2 0.4345 0.6749
30 2 4 4.4331 0.3874
30 2 6 3.3524 -0.0142
30 3 1 -4.2367 -0.4071
30 3 3 -5.8676 0.3457
30 3 5 1.9210 -0.4172
30 3 7 1.8090 0.5294
30 4 0 0.4925 0.5376
30 4 2 -0.4351 0.1475
30 5 1 -1.1551 0.1884
30 5 3 -2.1149 -0.5418
30 6 2 1.4392 0.3268
30 7 3 2.1444 0.2183
31 1 2 -0.3632 -0.0028
31 2 1 1.4014 0.5809
0 0 0 0.0 0.0
;
_shelx_fab_checksum              63059
_olex2_submission_special_instructions 'No special instructions were received'
loop_
_space_group_symop_operation_xyz
'x, y, z'
'-y, x, z'
'-x, -y, z'
'y, -x, z'
'x, -y, -z'
'-x, y, -z'
'y, x, -z'
'-y, -x, -z'
'x+1/2, y+1/2, z+1/2'
'-y+1/2, x+1/2, z+1/2'
'-x+1/2, -y+1/2, z+1/2'
'y+1/2, -x+1/2, z+1/2'
'x+1/2, -y+1/2, -z+1/2'
'-x+1/2, y+1/2, -z+1/2'
'y+1/2, x+1/2, -z+1/2'
'-y+1/2, -x+1/2, -z+1/2'
'-x, -y, -z'
'y, -x, -z'
'x, y, -z'
'-y, x, -z'
'-x, y, z'
'x, -y, z'
'-y, -x, z'
'y, x, z'
'-x+1/2, -y+1/2, -z+1/2'
'y+1/2, -x+1/2, -z+1/2'
'x+1/2, y+1/2, -z+1/2'
'-y+1/2, x+1/2, -z+1/2'
'-x+1/2, y+1/2, z+1/2'
'x+1/2, -y+1/2, z+1/2'
'-y+1/2, -x+1/2, z+1/2'
'y+1/2, x+1/2, z+1/2'
loop_
_atom_site_label
_atom_site_type_symbol
_atom_site_fract_x
_atom_site_fract_y
_atom_site_fract_z
_atom_site_U_iso_or_equiv
_atom_site_adp_type
_atom_site_occupancy
_atom_site_site_symmetry_order
_atom_site_calc_flag
_atom_site_refinement_flags_posn
_atom_site_refinement_flags_adp
_atom_site_refinement_flags_occupancy
_atom_site_disorder_assembly
_atom_site_disorder_group
Zr1 Zr 0.000000 0.39191(4) 0.000000 0.0269(2) Uani 1 4 d S T P . .
C1 C -0.1659(2) 0.1659(2) 0.1403(3) 0.0380(15) Uani 1 2 d S T P . .
H1A H -0.156029 0.156027 0.172350 0.046 Uiso 1 2 calc R U P . .
H1B H -0.141865 0.141868 0.119727 0.046 Uiso 1 2 calc R U P . .
Zr2 Zr 0.07758(3) 0.500000 0.06171(3) 0.0382(2) Uani 1 2 d S T P . .
Cu3 Cu -0.24003(4) 0.24003(4) 0.20821(3) 0.0427(3) Uani 1 2 d S T P . .
I4 I -0.31821(2) 0.31821(2) 0.22403(2) 0.0839(3) Uani 1 2 d S T P . .
N11 N -0.15398(19) 0.22796(19) 0.13174(16) 0.0376(9) Uani 1 1 d . . . . .
N12 N -0.1775(2) 0.2682(2) 0.16158(17) 0.0461(11) Uani 1 1 d . . . . .
C13 C -0.1600(3) 0.3198(3) 0.1439(2) 0.0541(16) Uani 1 1 d . . . . .
H13 H -0.171288 0.356263 0.155459 0.065 Uiso 1 1 calc R U . . .
C14 C -0.1227(3) 0.3118(2) 0.1059(2) 0.0423(11) Uani 1 1 d . . . . .
C15 C -0.1202(2) 0.2528(2) 0.09858(19) 0.0399(11) Uani 1 1 d . . . . .
H15 H -0.099199 0.233393 0.075276 0.048 Uiso 1 1 calc R U . . .
C16 C -0.0932(3) 0.3586(2) 0.0788(2) 0.0437(12) Uani 1 1 d . . . . .
O17 O -0.1069(2) 0.41108(18) 0.08802(17) 0.0585(12) Uani 1 1 d . . . . .
O18 O -0.05876(17) 0.34153(17) 0.04649(13) 0.0389(8) Uani 1 1 d . . . . .
O21 O 0.000000 0.4466(3) 0.0618(4) 0.075(3) Uani 1 2 d S T P . .
O22 O 0.0784(5) 0.4471(4) 0.000000 0.094(4) Uani 1 2 d S T P . .
O23 O 0.0691(5) 0.500000 0.1377(2) 0.086(3) Uani 1 2 d S T P . .
O24 O 0.1741(3) 0.500000 0.0575(4) 0.082(3) Uani 1 2 d S T P . .
loop_
_atom_site_aniso_label
_atom_site_aniso_U_11
_atom_site_aniso_U_22
_atom_site_aniso_U_33
_atom_site_aniso_U_23
_atom_site_aniso_U_13
_atom_site_aniso_U_12
Zr1 0.0274(4) 0.0277(4) 0.0257(4) 0.000 0.000 0.000
C1 0.0330(19) 0.0330(19) 0.048(4) -0.004(2) 0.004(2) -0.011(3)
Zr2 0.0413(4) 0.0306(3) 0.0427(4) 0.000 -0.0166(3) 0.000
Cu3 0.0494(4) 0.0494(4) 0.0294(4) -0.0086(3) 0.0086(3) -0.0150(4)
I4 0.1050(5) 0.1050(5) 0.0418(4) 0.0007(2) -0.0007(2) 0.0462(5)
N11 0.037(2) 0.0348(19) 0.041(2) -0.0014(18) 0.0105(18) -0.0105(17)
N12 0.061(3) 0.039(2) 0.038(2) -0.0096(19) 0.018(2) -0.014(2)
C13 0.065(4) 0.043(3) 0.054(3) -0.016(3) 0.026(3) -0.025(3)
C14 0.045(3) 0.038(2) 0.044(3) -0.007(2) 0.011(2) -0.009(2)
C15 0.038(2) 0.048(3) 0.034(2) -0.003(2) 0.007(2) -0.012(2)
C16 0.053(3) 0.035(2) 0.044(3) -0.001(2) 0.018(2) -0.006(2)
O17 0.074(3) 0.039(2) 0.063(3) -0.0061(19) 0.036(2) -0.011(2)
O18 0.0438(19) 0.0394(18) 0.0336(17) 0.0010(15) 0.0075(15) -0.0018(15)
O21 0.039(3) 0.037(3) 0.151(8) -0.045(4) 0.000 0.000
O22 0.149(9) 0.087(5) 0.047(3) 0.000 0.000 -0.090(6)
O23 0.186(10) 0.042(3) 0.030(3) 0.000 -0.018(4) 0.000
O24 0.033(3) 0.065(4) 0.149(9) 0.000 -0.025(4) 0.000
loop_
_atom_type_symbol
_atom_type_description
_atom_type_scat_dispersion_real
_atom_type_scat_dispersion_imag
_atom_type_scat_source
C C 0.0033 0.0016 'International Tables Vol C Tables 4.2.6.8 and 6.1.1.4'
H H 0.0000 0.0000 'International Tables Vol C Tables 4.2.6.8 and 6.1.1.4'
Cu Cu 0.3201 1.2651 'International Tables Vol C Tables 4.2.6.8 and 6.1.1.4'
I I -0.4742 1.8119 'International Tables Vol C Tables 4.2.6.8 and 6.1.1.4'
N N 0.0061 0.0033 'International Tables Vol C Tables 4.2.6.8 and 6.1.1.4'
O O 0.0106 0.0060 'International Tables Vol C Tables 4.2.6.8 and 6.1.1.4'
Zr Zr -2.9673 0.5597 'International Tables Vol C Tables 4.2.6.8 and 6.1.1.4'
loop_
_geom_angle_atom_site_label_1
_geom_angle_atom_site_label_2
_geom_angle_atom_site_label_3
_geom_angle
_geom_angle_site_symmetry_1
_geom_angle_site_symmetry_3
_geom_angle_publ_flag
Zr2 Zr1 Zr2 60.50(3) 3_565 17_565 ?
Zr2 Zr1 Zr2 60.51(3) 19 . ?
Zr2 Zr1 Zr2 90.86(3) 17_565 . ?
Zr2 Zr1 Zr2 60.49(3) 3_565 . ?
Zr2 Zr1 Zr2 60.49(3) 19 17_565 ?
Zr2 Zr1 Zr2 90.86(3) 3_565 19 ?
O18 Zr1 Zr2 75.86(10) . 3_565 ?
O18 Zr1 Zr2 166.73(10) 19 . ?
O18 Zr1 Zr2 111.29(10) . 17_565 ?
O18 Zr1 Zr2 111.47(10) 21 3_565 ?
O18 Zr1 Zr2 111.29(10) 21 19 ?
O18 Zr1 Zr2 111.29(10) 19 3_565 ?
O18 Zr1 Zr2 111.29(10) 6 . ?
O18 Zr1 Zr2 166.73(10) 6 3_565 ?
O18 Zr1 Zr2 111.47(10) . . ?
O18 Zr1 Zr2 111.47(10) 19 19 ?
O18 Zr1 Zr2 75.86(10) 19 17_565 ?
O18 Zr1 Zr2 166.73(10) . 19 ?
O18 Zr1 Zr2 75.86(10) 6 19 ?
O18 Zr1 Zr2 166.73(10) 21 17_565 ?
O18 Zr1 Zr2 75.86(10) 21 . ?
O18 Zr1 Zr2 111.47(10) 6 17_565 ?
O18 Zr1 O18 117.4(2) . 6 ?
O18 Zr1 O18 74.6(2) . 21 ?
O18 Zr1 O18 74.1(2) . 19 ?
O18 Zr1 O18 74.1(2) 21 6 ?
O18 Zr1 O18 74.6(2) 19 6 ?
O18 Zr1 O18 117.4(2) 19 21 ?
O21 Zr1 Zr2 35.33(12) . . ?
O21 Zr1 Zr2 35.33(12) 19 17_565 ?
O21 Zr1 Zr2 90.5(2) 19 3_565 ?
O21 Zr1 Zr2 90.5(2) . 17_565 ?
O21 Zr1 Zr2 90.5(2) 19 . ?
O21 Zr1 Zr2 35.33(12) . 3_565 ?
O21 Zr1 Zr2 35.33(12) 19 19 ?
O21 Zr1 Zr2 90.5(2) . 19 ?
O21 Zr1 O18 142.36(11) 19 . ?
O21 Zr1 O18 78.8(2) . 21 ?
O21 Zr1 O18 142.36(11) 19 21 ?
O21 Zr1 O18 78.8(2) . . ?
O21 Zr1 O18 78.8(2) 19 6 ?
O21 Zr1 O18 142.36(11) . 6 ?
O21 Zr1 O18 78.8(2) 19 19 ?
O21 Zr1 O18 142.36(11) . 19 ?
O21 Zr1 O21 109.8(5) . 19 ?
O21 Zr1 O22 70.7(2) . 21 ?
O21 Zr1 O22 70.7(2) 19 21 ?
O21 Zr1 O22 70.7(2) . . ?
O21 Zr1 O22 70.7(2) 19 . ?
O22 Zr1 Zr2 90.5(3) 21 19 ?
O22 Zr1 Zr2 35.33(16) . 19 ?
O22 Zr1 Zr2 35.33(16) . . ?
O22 Zr1 Zr2 35.33(16) 21 3_565 ?
O22 Zr1 Zr2 35.33(16) 21 17_565 ?
O22 Zr1 Zr2 90.5(3) . 3_565 ?
O22 Zr1 Zr2 90.5(3) . 17_565 ?
O22 Zr1 Zr2 90.5(3) 21 . ?
O22 Zr1 O18 142.59(11) 21 21 ?
O22 Zr1 O18 78.7(3) 21 19 ?
O22 Zr1 O18 142.59(11) . 19 ?
O22 Zr1 O18 142.59(11) 21 6 ?
O22 Zr1 O18 142.59(11) . . ?
O22 Zr1 O18 78.7(3) 21 . ?
O22 Zr1 O18 78.7(3) . 6 ?
O22 Zr1 O18 78.7(3) . 21 ?
O22 Zr1 O22 109.7(7) 21 . ?
H1A C1 H1B 108.3 . . ?
N11 C1 H1A 109.8 23 . ?
N11 C1 H1A 109.8 . . ?
N11 C1 H1B 109.8 . . ?
N11 C1 H1B 109.8 23 . ?
N11 C1 N11 109.3(6) . 23 ?
Zr1 Zr2 Zr1 89.14(3) . 17_565 ?
Zr1 Zr2 Zr2 59.755(14) 17_565 3_565 ?
Zr1 Zr2 Zr2 59.747(15) . 19 ?
Zr1 Zr2 Zr2 59.755(13) . 3_565 ?
Zr1 Zr2 Zr2 59.748(15) 17_565 19 ?
Zr2 Zr2 Zr2 90.0 3_565 19 ?
O17 Zr2 Zr1 160.92(11) 21 17_565 ?
O17 Zr2 Zr1 71.85(11) 21 . ?
O17 Zr2 Zr1 160.92(11) 3_565 . ?
O17 Zr2 Zr1 71.84(11) 3_565 17_565 ?
O17 Zr2 Zr2 107.20(14) 3_565 3_565 ?
O17 Zr2 Zr2 109.45(13) 21 19 ?
O17 Zr2 Zr2 109.45(13) 3_565 19 ?
O17 Zr2 Zr2 107.20(14) 21 3_565 ?
O17 Zr2 O17 127.1(2) 3_565 21 ?
O21 Zr2 Zr1 35.7(2) . . ?
O21 Zr2 Zr1 89.1(2) 3_565 . ?
O21 Zr2 Zr1 89.1(2) . 17_565 ?
O21 Zr2 Zr1 35.7(2) 3_565 17_565 ?
O21 Zr2 Zr2 90.1(3) 3_565 19 ?
O21 Zr2 Zr2 34.56(14) 3_565 3_565 ?
O21 Zr2 Zr2 90.1(3) . 19 ?
O21 Zr2 Zr2 34.56(14) . 3_565 ?
O21 Zr2 O17 74.7(2) . 21 ?
O21 Zr2 O17 74.7(2) 3_565 3_565 ?
O21 Zr2 O17 138.7(2) 3_565 21 ?
O21 Zr2 O17 138.7(2) . 3_565 ?
O21 Zr2 O21 69.1(3) 3_565 . ?
O21 Zr2 O23 85.8(4) . . ?
O21 Zr2 O23 85.8(4) 3_565 . ?
O21 Zr2 O24 145.33(14) . . ?
O21 Zr2 O24 145.33(14) 3_565 . ?
O22 Zr2 Zr1 89.0(3) . 17_565 ?
O22 Zr2 Zr1 36.2(2) . . ?
O22 Zr2 Zr1 36.2(2) 5_565 17_565 ?
O22 Zr2 Zr1 89.0(3) 5_565 . ?
O22 Zr2 Zr2 90.5(3) . 3_565 ?
O22 Zr2 Zr2 34.3(2) 5_565 19 ?
O22 Zr2 Zr2 34.3(2) . 19 ?
O22 Zr2 Zr2 90.5(3) 5_565 3_565 ?
O22 Zr2 O17 141.0(2) . 3_565 ?
O22 Zr2 O17 76.6(3) . 21 ?
O22 Zr2 O17 76.6(3) 5_565 3_565 ?
O22 Zr2 O17 141.0(2) 5_565 21 ?
O22 Zr2 O21 71.8(3) . . ?
O22 Zr2 O21 109.1(4) . 3_565 ?
O22 Zr2 O21 109.1(4) 5_565 . ?
O22 Zr2 O21 71.8(3) 5_565 3_565 ?
O22 Zr2 O22 68.6(4) . 5_565 ?
O22 Zr2 O23 145.46(18) . . ?
O22 Zr2 O23 145.46(18) 5_565 . ?
O22 Zr2 O24 86.9(4) . . ?
O22 Zr2 O24 86.9(4) 5_565 . ?
O23 Zr2 Zr1 117.2(2) . 17_565 ?
O23 Zr2 Zr1 117.2(2) . . ?
O23 Zr2 Zr2 84.9(3) . 3_565 ?
O23 Zr2 Zr2 174.9(3) . 19 ?
O23 Zr2 O17 72.20(17) . 21 ?
O23 Zr2 O17 72.20(17) . 3_565 ?
O23 Zr2 O24 98.2(4) . . ?
O24 Zr2 Zr1 118.39(18) . 17_565 ?
O24 Zr2 Zr1 118.39(18) . . ?
O24 Zr2 Zr2 176.9(3) . 3_565 ?
O24 Zr2 Zr2 86.9(3) . 19 ?
O24 Zr2 O17 73.91(18) . 21 ?
O24 Zr2 O17 73.91(18) . 3_565 ?
Cu3 Cu3 I4 59.04(5) 25_455 25_455 ?
Cu3 Cu3 I4 64.79(5) 25_455 . ?
I4 Cu3 I4 123.83(4) . 25_455 ?
N12 Cu3 Cu3 134.22(14) . 25_455 ?
N12 Cu3 Cu3 134.22(14) 23 25_455 ?
N12 Cu3 I4 112.35(15) 23 . ?
N12 Cu3 I4 106.26(17) . 25_455 ?
N12 Cu3 I4 112.35(16) . . ?
N12 Cu3 I4 106.26(17) 23 25_455 ?
N12 Cu3 N12 90.6(3) 23 . ?
Cu3 I4 Cu3 56.17(4) . 25_455 ?
N12 N11 C1 118.2(5) . . ?
C15 N11 C1 129.1(5) . . ?
C15 N11 N12 112.6(4) . . ?
N11 N12 Cu3 118.0(3) . . ?
C13 N12 Cu3 136.5(4) . . ?
C13 N12 N11 103.6(4) . . ?
N12 C13 H13 124.4 . . ?
N12 C13 C14 111.3(5) . . ?
C14 C13 H13 124.4 . . ?
C13 C14 C16 126.3(5) . . ?
C15 C14 C13 106.0(5) . . ?
C15 C14 C16 127.7(5) . . ?
N11 C15 C14 106.3(5) . . ?
N11 C15 H15 126.8 . . ?
C14 C15 H15 126.8 . . ?
O17 C16 C14 117.4(5) . . ?
O17 C16 O18 126.3(5) . . ?
O18 C16 C14 116.1(5) . . ?
C16 O17 Zr2 134.8(4) . 3_565 ?
C16 O18 Zr1 130.7(3) . . ?
Zr2 O21 Zr1 109.0(3) 3_565 . ?
Zr2 O21 Zr1 109.0(3) . . ?
Zr2 O21 Zr2 110.9(3) . 3_565 ?
Zr2 O22 Zr1 108.5(3) 19 . ?
Zr2 O22 Zr1 108.5(3) . . ?
Zr2 O22 Zr2 111.4(4) 19 . ?
loop_
_geom_bond_atom_site_label_1
_geom_bond_atom_site_label_2
_geom_bond_distance
_geom_bond_site_symmetry_2
_geom_bond_publ_flag
Zr1 Zr2 3.5022(9) 3_565 ?
Zr1 Zr2 3.5022(9) 17_565 ?
Zr1 Zr2 3.5022(9) 19 ?
Zr1 Zr2 3.5022(9) . ?
Zr1 O18 2.206(4) . ?
Zr1 O18 2.206(4) 6 ?
Zr1 O18 2.206(4) 19 ?
Zr1 O18 2.206(4) 21 ?
Zr1 O21 2.160(8) . ?
Zr1 O21 2.160(8) 19 ?
Zr1 O22 2.179(7) 21 ?
Zr1 O22 2.179(7) . ?
C1 H1A 0.9700 . ?
C1 H1B 0.9700 . ?
C1 N11 1.458(6) . ?
C1 N11 1.458(6) 23 ?
Zr2 Zr2 3.5290(17) 19 ?
Zr2 Zr2 3.5282(16) 3_565 ?
Zr2 O17 2.258(4) 21 ?
Zr2 O17 2.258(4) 3_565 ?
Zr2 O21 2.142(4) 3_565 ?
Zr2 O21 2.142(4) . ?
Zr2 O22 2.136(5) . ?
Zr2 O22 2.136(5) 5_565 ?
Zr2 O23 2.182(6) . ?
Zr2 O24 2.198(7) . ?
Cu3 Cu3 2.4743(18) 25_455 ?
Cu3 I4 2.5542(14) . ?
Cu3 I4 2.6946(14) 25_455 ?
Cu3 N12 2.052(5) 23 ?
Cu3 N12 2.052(5) . ?
N11 N12 1.360(6) . ?
N11 C15 1.345(6) . ?
N12 C13 1.338(7) . ?
C13 H13 0.9300 . ?
C13 C14 1.389(8) . ?
C14 C15 1.359(8) . ?
C14 C16 1.476(7) . ?
C15 H15 0.9300 . ?
C16 O17 1.262(7) . ?
C16 O18 1.273(7) . ?
loop_
_geom_torsion_atom_site_label_1
_geom_torsion_atom_site_label_2
_geom_torsion_atom_site_label_3
_geom_torsion_atom_site_label_4
_geom_torsion
_geom_torsion_site_symmetry_1
_geom_torsion_site_symmetry_2
_geom_torsion_site_symmetry_3
_geom_torsion_site_symmetry_4
_geom_torsion_publ_flag
C1 N11 N12 Cu3 -11.5(7) . . . . ?
C1 N11 N12 C13 -178.6(6) . . . . ?
C1 N11 C15 C14 -179.0(6) . . . . ?
Cu3 N12 C13 C14 -167.8(5) . . . . ?
N11 C1 N11 N12 68.3(8) 23 . . . ?
N11 C1 N11 C15 -114.6(6) 23 . . . ?
N11 N12 C13 C14 -4.4(8) . . . . ?
N12 N11 C15 C14 -1.8(7) . . . . ?
N12 C13 C14 C15 3.6(8) . . . . ?
N12 C13 C14 C16 -177.6(6) . . . . ?
C13 C14 C15 N11 -1.0(7) . . . . ?
C13 C14 C16 O17 -6.9(10) . . . . ?
C13 C14 C16 O18 177.1(6) . . . . ?
C14 C16 O17 Zr2 178.2(4) . . . 3_565 ?
C14 C16 O18 Zr1 -175.0(4) . . . . ?
C15 N11 N12 Cu3 170.9(4) . . . . ?
C15 N11 N12 C13 3.8(7) . . . . ?
C15 C14 C16 O17 171.7(6) . . . . ?
C15 C14 C16 O18 -4.3(10) . . . . ?
C16 C14 C15 N11 -179.9(6) . . . . ?
O17 C16 O18 Zr1 9.4(10) . . . . ?
O18 C16 O17 Zr2 -6.2(11) . . . 3_565 ?
loop_
_smtbx_masks_void_nr
_smtbx_masks_void_average_x
_smtbx_masks_void_average_y
_smtbx_masks_void_average_z
_smtbx_masks_void_volume
_smtbx_masks_void_count_electrons
_smtbx_masks_void_content
1 -0.910 -0.359 -0.596 9806.9 4309.6 '8 Zr6C12H16O32'
